MODEL 1
REMARK VINA RESULT:    26.534      0.000      0.000
REMARK INTER + INTRA:          65.826
REMARK INTER:                  66.864
REMARK INTRA:                  -1.038
REMARK UNBOUND:                -1.038
REMARK SMILES CCCCCCCCCCCCCCCCCCCCCCCCCCCC(=O)[O-]
REMARK SMILES IDX 15 1 16 2 17 3 18 4 19 5 20 6 21 7 22 8 23 9 24 10 25 11
REMARK SMILES IDX 26 12 27 13 28 14 29 15 30 16 14 17 13 18 12 19 11 20 10 21
REMARK SMILES IDX 9 22 8 23 7 24 6 25 5 26 4 27 3 28 2 29 1 30
REMARK H PARENT
REMARK Flexibility Score: inf
ROOT
ATOM      1  C   UNL     1     -16.484 -14.407 -21.783  1.00  0.00     0.000 C 
ENDROOT
BRANCH   1   2
ATOM      2  C   UNL     1     -16.064 -14.383 -20.301  1.00  0.00     0.000 C 
BRANCH   2   3
ATOM      3  C   UNL     1     -16.283 -15.732 -19.592  1.00  0.00     0.000 C 
BRANCH   3   4
ATOM      4  C   UNL     1     -17.375 -15.657 -18.503  1.00  0.00     0.000 C 
BRANCH   4   5
ATOM      5  C   UNL     1     -16.822 -15.627 -17.065  1.00  0.00     0.000 C 
BRANCH   5   6
ATOM      6  C   UNL     1     -17.886 -15.699 -15.953  1.00  0.00     0.000 C 
BRANCH   6   7
ATOM      7  C   UNL     1     -18.467 -17.105 -15.691  1.00  0.00     0.000 C 
BRANCH   7   8
ATOM      8  C   UNL     1     -19.755 -17.432 -16.467  1.00  0.00     0.000 C 
BRANCH   8   9
ATOM      9  C   UNL     1     -20.535 -18.607 -15.858  1.00  0.00     0.000 C 
BRANCH   9  10
ATOM     10  C   UNL     1     -21.961 -18.179 -15.481  1.00  0.00     0.000 C 
BRANCH  10  11
ATOM     11  C   UNL     1     -21.994 -17.116 -14.367  1.00  0.00     0.000 C 
BRANCH  11  12
ATOM     12  C   UNL     1     -22.393 -15.697 -14.826  1.00  0.00     0.006 C 
BRANCH  12  13
ATOM     13  C   UNL     1     -23.731 -15.193 -14.261  1.00  0.00     0.053 C 
BRANCH  13  14
ATOM     14  C   UNL     1     -23.701 -15.080 -12.767  1.00  0.00     0.041 C 
ATOM     15  O   UNL     1     -24.544 -14.360 -12.171  1.00  0.00    -0.550 OA
ATOM     16  O   UNL     1     -22.768 -15.798 -12.032  1.00  0.00    -0.550 OA
ENDBRANCH  13  14
ENDBRANCH  12  13
ENDBRANCH  11  12
ENDBRANCH  10  11
ENDBRANCH   9  10
ENDBRANCH   8   9
ENDBRANCH   7   8
ENDBRANCH   6   7
ENDBRANCH   5   6
ENDBRANCH   4   5
ENDBRANCH   3   4
ENDBRANCH   2   3
ENDBRANCH   1   2
BRANCH   1  17
ATOM     17  C   UNL     1     -16.487 -13.033 -22.476  1.00  0.00     0.000 C 
BRANCH  17  18
ATOM     18  C   UNL     1     -15.069 -12.479 -22.709  1.00  0.00     0.000 C 
BRANCH  18  19
ATOM     19  C   UNL     1     -14.719 -12.381 -24.209  1.00  0.00     0.000 C 
BRANCH  19  20
ATOM     20  C   UNL     1     -13.938 -11.105 -24.584  1.00  0.00     0.000 C 
BRANCH  20  21
ATOM     21  C   UNL     1     -13.857 -10.041 -23.475  1.00  0.00     0.000 C 
BRANCH  21  22
ATOM     22  C   UNL     1     -14.765  -8.830 -23.745  1.00  0.00    -0.000 C 
BRANCH  22  23
ATOM     23  C   UNL     1     -14.658  -7.743 -22.660  1.00  0.00    -0.000 C 
BRANCH  23  24
ATOM     24  C   UNL     1     -13.257  -7.568 -22.045  1.00  0.00    -0.000 C 
BRANCH  24  25
ATOM     25  C   UNL     1     -13.280  -7.466 -20.512  1.00  0.00    -0.000 C 
BRANCH  25  26
ATOM     26  C   UNL     1     -12.469  -8.603 -19.873  1.00  0.00    -0.000 C 
BRANCH  26  27
ATOM     27  C   UNL     1     -12.322  -8.437 -18.350  1.00  0.00    -0.000 C 
BRANCH  27  28
ATOM     28  C   UNL     1     -13.534  -7.731 -17.716  1.00  0.00    -0.000 C 
BRANCH  28  29
ATOM     29  C   UNL     1     -14.562  -8.722 -17.149  1.00  0.00    -0.003 C 
ATOM     30  C   UNL     1     -16.003  -8.243 -17.329  1.00  0.00     0.004 C 
ENDBRANCH  28  29
ENDBRANCH  27  28
ENDBRANCH  26  27
ENDBRANCH  25  26
ENDBRANCH  24  25
ENDBRANCH  23  24
ENDBRANCH  22  23
ENDBRANCH  21  22
ENDBRANCH  20  21
ENDBRANCH  19  20
ENDBRANCH  18  19
ENDBRANCH  17  18
ENDBRANCH   1  17
TORSDOF 26
ENDMDL
MODEL 2
REMARK VINA RESULT:    26.712      3.566     11.544
REMARK INTER + INTRA:          66.274
REMARK INTER:                  66.951
REMARK INTRA:                  -0.677
REMARK UNBOUND:                -1.038
REMARK SMILES CCCCCCCCCCCCCCCCCCCCCCCCCCCC(=O)[O-]
REMARK SMILES IDX 15 1 16 2 17 3 18 4 19 5 20 6 21 7 22 8 23 9 24 10 25 11
REMARK SMILES IDX 26 12 27 13 28 14 29 15 30 16 14 17 13 18 12 19 11 20 10 21
REMARK SMILES IDX 9 22 8 23 7 24 6 25 5 26 4 27 3 28 2 29 1 30
REMARK H PARENT
REMARK Flexibility Score: inf
ROOT
ATOM      1  C   UNL     1     -16.131 -14.160 -20.427  1.00  0.00     0.000 C 
ENDROOT
BRANCH   1   2
ATOM      2  C   UNL     1     -16.327 -14.172 -21.955  1.00  0.00     0.000 C 
BRANCH   2   3
ATOM      3  C   UNL     1     -16.141 -12.784 -22.595  1.00  0.00     0.000 C 
BRANCH   3   4
ATOM      4  C   UNL     1     -14.693 -12.264 -22.466  1.00  0.00     0.000 C 
BRANCH   4   5
ATOM      5  C   UNL     1     -14.158 -11.581 -23.740  1.00  0.00     0.000 C 
BRANCH   5   6
ATOM      6  C   UNL     1     -14.028 -10.049 -23.657  1.00  0.00     0.000 C 
BRANCH   6   7
ATOM      7  C   UNL     1     -15.366  -9.280 -23.604  1.00  0.00     0.000 C 
BRANCH   7   8
ATOM      8  C   UNL     1     -15.240  -7.748 -23.693  1.00  0.00     0.000 C 
BRANCH   8   9
ATOM      9  C   UNL     1     -13.817  -7.250 -23.405  1.00  0.00     0.000 C 
BRANCH   9  10
ATOM     10  C   UNL     1     -13.431  -7.515 -21.942  1.00  0.00     0.000 C 
BRANCH  10  11
ATOM     11  C   UNL     1     -12.319  -8.570 -21.796  1.00  0.00     0.000 C 
BRANCH  11  12
ATOM     12  C   UNL     1     -11.882  -8.867 -20.346  1.00  0.00     0.006 C 
BRANCH  12  13
ATOM     13  C   UNL     1     -12.432  -7.886 -19.298  1.00  0.00     0.053 C 
BRANCH  13  14
ATOM     14  C   UNL     1     -13.034  -8.598 -18.125  1.00  0.00     0.041 C 
ATOM     15  O   UNL     1     -12.909  -9.846 -18.012  1.00  0.00    -0.550 OA
ATOM     16  O   UNL     1     -13.701  -7.881 -17.141  1.00  0.00    -0.550 OA
ENDBRANCH  13  14
ENDBRANCH  12  13
ENDBRANCH  11  12
ENDBRANCH  10  11
ENDBRANCH   9  10
ENDBRANCH   8   9
ENDBRANCH   7   8
ENDBRANCH   6   7
ENDBRANCH   5   6
ENDBRANCH   4   5
ENDBRANCH   3   4
ENDBRANCH   2   3
ENDBRANCH   1   2
BRANCH   1  17
ATOM     17  C   UNL     1     -16.072 -15.552 -19.773  1.00  0.00     0.000 C 
BRANCH  17  18
ATOM     18  C   UNL     1     -17.365 -15.913 -19.018  1.00  0.00     0.000 C 
BRANCH  18  19
ATOM     19  C   UNL     1     -17.442 -15.240 -17.632  1.00  0.00     0.000 C 
BRANCH  19  20
ATOM     20  C   UNL     1     -16.567 -15.919 -16.561  1.00  0.00     0.000 C 
BRANCH  20  21
ATOM     21  C   UNL     1     -17.290 -16.969 -15.697  1.00  0.00     0.000 C 
BRANCH  21  22
ATOM     22  C   UNL     1     -18.795 -16.690 -15.561  1.00  0.00    -0.000 C 
BRANCH  22  23
ATOM     23  C   UNL     1     -19.661 -17.618 -16.433  1.00  0.00    -0.000 C 
BRANCH  23  24
ATOM     24  C   UNL     1     -20.688 -18.470 -15.663  1.00  0.00    -0.000 C 
BRANCH  24  25
ATOM     25  C   UNL     1     -21.663 -17.627 -14.827  1.00  0.00    -0.000 C 
BRANCH  25  26
ATOM     26  C   UNL     1     -22.139 -16.395 -15.612  1.00  0.00    -0.000 C 
BRANCH  26  27
ATOM     27  C   UNL     1     -22.711 -15.298 -14.697  1.00  0.00    -0.000 C 
BRANCH  27  28
ATOM     28  C   UNL     1     -22.602 -15.662 -13.205  1.00  0.00    -0.000 C 
BRANCH  28  29
ATOM     29  C   UNL     1     -23.971 -15.718 -12.510  1.00  0.00    -0.003 C 
ATOM     30  C   UNL     1     -24.452 -14.344 -12.045  1.00  0.00     0.004 C 
ENDBRANCH  28  29
ENDBRANCH  27  28
ENDBRANCH  26  27
ENDBRANCH  25  26
ENDBRANCH  24  25
ENDBRANCH  23  24
ENDBRANCH  22  23
ENDBRANCH  21  22
ENDBRANCH  20  21
ENDBRANCH  19  20
ENDBRANCH  18  19
ENDBRANCH  17  18
ENDBRANCH   1  17
TORSDOF 26
ENDMDL
MODEL 3
REMARK VINA RESULT:    26.924      1.073      1.768
REMARK INTER + INTRA:          66.809
REMARK INTER:                  67.635
REMARK INTRA:                  -0.826
REMARK UNBOUND:                -1.038
REMARK SMILES CCCCCCCCCCCCCCCCCCCCCCCCCCCC(=O)[O-]
REMARK SMILES IDX 15 1 16 2 17 3 18 4 19 5 20 6 21 7 22 8 23 9 24 10 25 11
REMARK SMILES IDX 26 12 27 13 28 14 29 15 30 16 14 17 13 18 12 19 11 20 10 21
REMARK SMILES IDX 9 22 8 23 7 24 6 25 5 26 4 27 3 28 2 29 1 30
REMARK H PARENT
REMARK Flexibility Score: inf
ROOT
ATOM      1  C   UNL     1     -15.923 -15.128 -19.943  1.00  0.00     0.000 C 
ENDROOT
BRANCH   1   2
ATOM      2  C   UNL     1     -17.253 -15.312 -19.188  1.00  0.00     0.000 C 
BRANCH   2   3
ATOM      3  C   UNL     1     -17.123 -16.229 -17.958  1.00  0.00     0.000 C 
BRANCH   3   4
ATOM      4  C   UNL     1     -16.657 -15.465 -16.700  1.00  0.00     0.000 C 
BRANCH   4   5
ATOM      5  C   UNL     1     -17.468 -15.794 -15.432  1.00  0.00     0.000 C 
BRANCH   5   6
ATOM      6  C   UNL     1     -18.186 -17.157 -15.449  1.00  0.00     0.000 C 
BRANCH   6   7
ATOM      7  C   UNL     1     -19.369 -17.262 -16.435  1.00  0.00     0.000 C 
BRANCH   7   8
ATOM      8  C   UNL     1     -20.066 -18.634 -16.472  1.00  0.00     0.000 C 
BRANCH   8   9
ATOM      9  C   UNL     1     -21.337 -18.680 -15.612  1.00  0.00     0.000 C 
BRANCH   9  10
ATOM     10  C   UNL     1     -21.808 -17.262 -15.258  1.00  0.00     0.000 C 
BRANCH  10  11
ATOM     11  C   UNL     1     -22.465 -17.177 -13.868  1.00  0.00     0.000 C 
BRANCH  11  12
ATOM     12  C   UNL     1     -22.820 -15.751 -13.397  1.00  0.00     0.006 C 
BRANCH  12  13
ATOM     13  C   UNL     1     -24.167 -15.633 -12.665  1.00  0.00     0.053 C 
BRANCH  13  14
ATOM     14  C   UNL     1     -24.255 -14.380 -11.850  1.00  0.00     0.041 C 
ATOM     15  O   UNL     1     -25.377 -13.935 -11.494  1.00  0.00    -0.550 OA
ATOM     16  O   UNL     1     -23.098 -13.723 -11.453  1.00  0.00    -0.550 OA
ENDBRANCH  13  14
ENDBRANCH  12  13
ENDBRANCH  11  12
ENDBRANCH  10  11
ENDBRANCH   9  10
ENDBRANCH   8   9
ENDBRANCH   7   8
ENDBRANCH   6   7
ENDBRANCH   5   6
ENDBRANCH   4   5
ENDBRANCH   3   4
ENDBRANCH   2   3
ENDBRANCH   1   2
BRANCH   1  17
ATOM     17  C   UNL     1     -16.068 -14.878 -21.455  1.00  0.00     0.000 C 
BRANCH  17  18
ATOM     18  C   UNL     1     -16.462 -13.426 -21.786  1.00  0.00     0.000 C 
BRANCH  18  19
ATOM     19  C   UNL     1     -15.825 -12.932 -23.102  1.00  0.00     0.000 C 
BRANCH  19  20
ATOM     20  C   UNL     1     -14.580 -12.046 -22.896  1.00  0.00     0.000 C 
BRANCH  20  21
ATOM     21  C   UNL     1     -13.861 -11.621 -24.189  1.00  0.00     0.000 C 
BRANCH  21  22
ATOM     22  C   UNL     1     -13.806 -10.095 -24.363  1.00  0.00    -0.000 C 
BRANCH  22  23
ATOM     23  C   UNL     1     -14.734  -9.344 -23.391  1.00  0.00    -0.000 C 
BRANCH  23  24
ATOM     24  C   UNL     1     -14.411  -7.850 -23.199  1.00  0.00    -0.000 C 
BRANCH  24  25
ATOM     25  C   UNL     1     -13.525  -7.578 -21.974  1.00  0.00    -0.000 C 
BRANCH  25  26
ATOM     26  C   UNL     1     -12.595  -8.767 -21.692  1.00  0.00    -0.000 C 
BRANCH  26  27
ATOM     27  C   UNL     1     -11.958  -8.698 -20.293  1.00  0.00    -0.000 C 
BRANCH  27  28
ATOM     28  C   UNL     1     -12.628  -7.643 -19.393  1.00  0.00    -0.000 C 
BRANCH  28  29
ATOM     29  C   UNL     1     -13.396  -8.272 -18.221  1.00  0.00    -0.003 C 
ATOM     30  C   UNL     1     -12.806  -9.612 -17.781  1.00  0.00     0.004 C 
ENDBRANCH  28  29
ENDBRANCH  27  28
ENDBRANCH  26  27
ENDBRANCH  25  26
ENDBRANCH  24  25
ENDBRANCH  23  24
ENDBRANCH  22  23
ENDBRANCH  21  22
ENDBRANCH  20  21
ENDBRANCH  19  20
ENDBRANCH  18  19
ENDBRANCH  17  18
ENDBRANCH   1  17
TORSDOF 26
ENDMDL
MODEL 4
REMARK VINA RESULT:    27.144      3.750     11.631
REMARK INTER + INTRA:          67.364
REMARK INTER:                  67.380
REMARK INTRA:                  -0.017
REMARK UNBOUND:                -1.038
REMARK SMILES CCCCCCCCCCCCCCCCCCCCCCCCCCCC(=O)[O-]
REMARK SMILES IDX 15 1 16 2 17 3 18 4 19 5 20 6 21 7 22 8 23 9 24 10 25 11
REMARK SMILES IDX 26 12 27 13 28 14 29 15 30 16 14 17 13 18 12 19 11 20 10 21
REMARK SMILES IDX 9 22 8 23 7 24 6 25 5 26 4 27 3 28 2 29 1 30
REMARK H PARENT
REMARK Flexibility Score: inf
ROOT
ATOM      1  C   UNL     1     -16.747 -13.599 -21.956  1.00  0.00     0.000 C 
ENDROOT
BRANCH   1   2
ATOM      2  C   UNL     1     -15.824 -13.326 -23.158  1.00  0.00     0.000 C 
BRANCH   2   3
ATOM      3  C   UNL     1     -14.735 -12.280 -22.855  1.00  0.00     0.000 C 
BRANCH   3   4
ATOM      4  C   UNL     1     -13.813 -12.019 -24.065  1.00  0.00     0.000 C 
BRANCH   4   5
ATOM      5  C   UNL     1     -13.771 -10.545 -24.513  1.00  0.00     0.000 C 
BRANCH   5   6
ATOM      6  C   UNL     1     -14.126  -9.519 -23.421  1.00  0.00     0.000 C 
BRANCH   6   7
ATOM      7  C   UNL     1     -15.281  -8.557 -23.775  1.00  0.00     0.000 C 
BRANCH   7   8
ATOM      8  C   UNL     1     -14.891  -7.070 -23.847  1.00  0.00     0.000 C 
BRANCH   8   9
ATOM      9  C   UNL     1     -13.562  -6.768 -23.141  1.00  0.00     0.000 C 
BRANCH   9  10
ATOM     10  C   UNL     1     -13.548  -7.364 -21.725  1.00  0.00     0.000 C 
BRANCH  10  11
ATOM     11  C   UNL     1     -14.453  -6.599 -20.742  1.00  0.00     0.000 C 
BRANCH  11  12
ATOM     12  C   UNL     1     -14.367  -7.065 -19.273  1.00  0.00     0.006 C 
BRANCH  12  13
ATOM     13  C   UNL     1     -12.944  -7.380 -18.783  1.00  0.00     0.053 C 
BRANCH  13  14
ATOM     14  C   UNL     1     -12.560  -8.802 -19.053  1.00  0.00     0.041 C 
ATOM     15  O   UNL     1     -11.992  -9.109 -20.133  1.00  0.00    -0.550 OA
ATOM     16  O   UNL     1     -12.797  -9.782 -18.098  1.00  0.00    -0.550 OA
ENDBRANCH  13  14
ENDBRANCH  12  13
ENDBRANCH  11  12
ENDBRANCH  10  11
ENDBRANCH   9  10
ENDBRANCH   8   9
ENDBRANCH   7   8
ENDBRANCH   6   7
ENDBRANCH   5   6
ENDBRANCH   4   5
ENDBRANCH   3   4
ENDBRANCH   2   3
ENDBRANCH   1   2
BRANCH   1  17
ATOM     17  C   UNL     1     -16.087 -14.366 -20.796  1.00  0.00     0.000 C 
BRANCH  17  18
ATOM     18  C   UNL     1     -17.079 -15.263 -20.032  1.00  0.00     0.000 C 
BRANCH  18  19
ATOM     19  C   UNL     1     -16.689 -15.434 -18.548  1.00  0.00     0.000 C 
BRANCH  19  20
ATOM     20  C   UNL     1     -17.895 -15.612 -17.605  1.00  0.00     0.000 C 
BRANCH  20  21
ATOM     21  C   UNL     1     -17.537 -15.875 -16.131  1.00  0.00     0.000 C 
BRANCH  21  22
ATOM     22  C   UNL     1     -18.217 -17.135 -15.570  1.00  0.00    -0.000 C 
BRANCH  22  23
ATOM     23  C   UNL     1     -19.388 -17.625 -16.441  1.00  0.00    -0.000 C 
BRANCH  23  24
ATOM     24  C   UNL     1     -20.492 -18.388 -15.685  1.00  0.00    -0.000 C 
BRANCH  24  25
ATOM     25  C   UNL     1     -21.805 -17.597 -15.579  1.00  0.00    -0.000 C 
BRANCH  25  26
ATOM     26  C   UNL     1     -21.754 -16.600 -14.412  1.00  0.00    -0.000 C 
BRANCH  26  27
ATOM     27  C   UNL     1     -22.501 -15.291 -14.723  1.00  0.00    -0.000 C 
BRANCH  27  28
ATOM     28  C   UNL     1     -23.826 -15.171 -13.949  1.00  0.00    -0.000 C 
BRANCH  28  29
ATOM     29  C   UNL     1     -23.653 -14.476 -12.590  1.00  0.00    -0.003 C 
ATOM     30  C   UNL     1     -24.930 -14.500 -11.749  1.00  0.00     0.004 C 
ENDBRANCH  28  29
ENDBRANCH  27  28
ENDBRANCH  26  27
ENDBRANCH  25  26
ENDBRANCH  24  25
ENDBRANCH  23  24
ENDBRANCH  22  23
ENDBRANCH  21  22
ENDBRANCH  20  21
ENDBRANCH  19  20
ENDBRANCH  18  19
ENDBRANCH  17  18
ENDBRANCH   1  17
TORSDOF 26
ENDMDL
MODEL 5
REMARK VINA RESULT:    27.177      1.192      3.066
REMARK INTER + INTRA:          67.446
REMARK INTER:                  68.741
REMARK INTRA:                  -1.296
REMARK UNBOUND:                -1.038
REMARK SMILES CCCCCCCCCCCCCCCCCCCCCCCCCCCC(=O)[O-]
REMARK SMILES IDX 15 1 16 2 17 3 18 4 19 5 20 6 21 7 22 8 23 9 24 10 25 11
REMARK SMILES IDX 26 12 27 13 28 14 29 15 30 16 14 17 13 18 12 19 11 20 10 21
REMARK SMILES IDX 9 22 8 23 7 24 6 25 5 26 4 27 3 28 2 29 1 30
REMARK H PARENT
REMARK Flexibility Score: inf
ROOT
ATOM      1  C   UNL     1     -16.281 -15.544 -18.780  1.00  0.00     0.000 C 
ENDROOT
BRANCH   1   2
ATOM      2  C   UNL     1     -17.516 -15.806 -17.897  1.00  0.00     0.000 C 
BRANCH   2   3
ATOM      3  C   UNL     1     -17.171 -15.931 -16.401  1.00  0.00     0.000 C 
BRANCH   3   4
ATOM      4  C   UNL     1     -18.094 -16.923 -15.663  1.00  0.00     0.000 C 
BRANCH   4   5
ATOM      5  C   UNL     1     -19.404 -17.235 -16.411  1.00  0.00     0.000 C 
BRANCH   5   6
ATOM      6  C   UNL     1     -20.293 -18.308 -15.756  1.00  0.00     0.000 C 
BRANCH   6   7
ATOM      7  C   UNL     1     -21.736 -17.861 -15.439  1.00  0.00     0.000 C 
BRANCH   7   8
ATOM      8  C   UNL     1     -21.873 -16.414 -14.932  1.00  0.00     0.000 C 
BRANCH   8   9
ATOM      9  C   UNL     1     -23.254 -15.810 -15.220  1.00  0.00     0.000 C 
BRANCH   9  10
ATOM     10  C   UNL     1     -24.013 -15.533 -13.914  1.00  0.00     0.000 C 
BRANCH  10  11
ATOM     11  C   UNL     1     -23.391 -14.391 -13.090  1.00  0.00     0.000 C 
BRANCH  11  12
ATOM     12  C   UNL     1     -23.527 -14.538 -11.559  1.00  0.00     0.006 C 
BRANCH  12  13
ATOM     13  C   UNL     1     -22.196 -14.723 -10.812  1.00  0.00     0.053 C 
BRANCH  13  14
ATOM     14  C   UNL     1     -21.746 -16.152 -10.815  1.00  0.00     0.041 C 
ATOM     15  O   UNL     1     -20.765 -16.506 -10.111  1.00  0.00    -0.550 OA
ATOM     16  O   UNL     1     -22.430 -17.097 -11.567  1.00  0.00    -0.550 OA
ENDBRANCH  13  14
ENDBRANCH  12  13
ENDBRANCH  11  12
ENDBRANCH  10  11
ENDBRANCH   9  10
ENDBRANCH   8   9
ENDBRANCH   7   8
ENDBRANCH   6   7
ENDBRANCH   5   6
ENDBRANCH   4   5
ENDBRANCH   3   4
ENDBRANCH   2   3
ENDBRANCH   1   2
BRANCH   1  17
ATOM     17  C   UNL     1     -16.586 -15.355 -20.276  1.00  0.00     0.000 C 
BRANCH  17  18
ATOM     18  C   UNL     1     -15.975 -14.063 -20.851  1.00  0.00     0.000 C 
BRANCH  18  19
ATOM     19  C   UNL     1     -16.723 -13.572 -22.109  1.00  0.00     0.000 C 
BRANCH  19  20
ATOM     20  C   UNL     1     -15.812 -13.380 -23.339  1.00  0.00     0.000 C 
BRANCH  20  21
ATOM     21  C   UNL     1     -14.596 -12.464 -23.113  1.00  0.00     0.000 C 
BRANCH  21  22
ATOM     22  C   UNL     1     -14.527 -11.309 -24.127  1.00  0.00    -0.000 C 
BRANCH  22  23
ATOM     23  C   UNL     1     -13.671 -10.128 -23.634  1.00  0.00    -0.000 C 
BRANCH  23  24
ATOM     24  C   UNL     1     -14.412  -8.782 -23.527  1.00  0.00    -0.000 C 
BRANCH  24  25
ATOM     25  C   UNL     1     -13.852  -7.872 -22.424  1.00  0.00    -0.000 C 
BRANCH  25  26
ATOM     26  C   UNL     1     -12.440  -8.313 -22.011  1.00  0.00    -0.000 C 
BRANCH  26  27
ATOM     27  C   UNL     1     -12.378  -8.794 -20.550  1.00  0.00    -0.000 C 
BRANCH  27  28
ATOM     28  C   UNL     1     -12.528  -7.639 -19.544  1.00  0.00    -0.000 C 
BRANCH  28  29
ATOM     29  C   UNL     1     -12.980  -8.122 -18.157  1.00  0.00    -0.003 C 
ATOM     30  C   UNL     1     -12.850  -9.636 -17.989  1.00  0.00     0.004 C 
ENDBRANCH  28  29
ENDBRANCH  27  28
ENDBRANCH  26  27
ENDBRANCH  25  26
ENDBRANCH  24  25
ENDBRANCH  23  24
ENDBRANCH  22  23
ENDBRANCH  21  22
ENDBRANCH  20  21
ENDBRANCH  19  20
ENDBRANCH  18  19
ENDBRANCH  17  18
ENDBRANCH   1  17
TORSDOF 26
ENDMDL
MODEL 6
REMARK VINA RESULT:    27.640      3.746     11.792
REMARK INTER + INTRA:          68.614
REMARK INTER:                  66.682
REMARK INTRA:                   1.932
REMARK UNBOUND:                -1.038
REMARK SMILES CCCCCCCCCCCCCCCCCCCCCCCCCCCC(=O)[O-]
REMARK SMILES IDX 15 1 16 2 17 3 18 4 19 5 20 6 21 7 22 8 23 9 24 10 25 11
REMARK SMILES IDX 26 12 27 13 28 14 29 15 30 16 14 17 13 18 12 19 11 20 10 21
REMARK SMILES IDX 9 22 8 23 7 24 6 25 5 26 4 27 3 28 2 29 1 30
REMARK H PARENT
REMARK Flexibility Score: inf
ROOT
ATOM      1  C   UNL     1     -16.932 -15.265 -19.988  1.00  0.00     0.000 C 
ENDROOT
BRANCH   1   2
ATOM      2  C   UNL     1     -16.031 -14.513 -20.986  1.00  0.00     0.000 C 
BRANCH   2   3
ATOM      3  C   UNL     1     -16.830 -13.731 -22.045  1.00  0.00     0.000 C 
BRANCH   3   4
ATOM      4  C   UNL     1     -15.927 -13.150 -23.155  1.00  0.00     0.000 C 
BRANCH   4   5
ATOM      5  C   UNL     1     -14.678 -12.420 -22.626  1.00  0.00     0.000 C 
BRANCH   5   6
ATOM      6  C   UNL     1     -13.771 -11.806 -23.709  1.00  0.00     0.000 C 
BRANCH   6   7
ATOM      7  C   UNL     1     -14.204 -10.414 -24.216  1.00  0.00     0.000 C 
BRANCH   7   8
ATOM      8  C   UNL     1     -13.954  -9.256 -23.233  1.00  0.00     0.000 C 
BRANCH   8   9
ATOM      9  C   UNL     1     -14.757  -7.995 -23.581  1.00  0.00     0.000 C 
BRANCH   9  10
ATOM     10  C   UNL     1     -14.504  -6.884 -22.551  1.00  0.00     0.000 C 
BRANCH  10  11
ATOM     11  C   UNL     1     -13.652  -7.354 -21.358  1.00  0.00     0.000 C 
BRANCH  11  12
ATOM     12  C   UNL     1     -12.666  -8.501 -21.667  1.00  0.00     0.006 C 
BRANCH  12  13
ATOM     13  C   UNL     1     -11.848  -8.987 -20.460  1.00  0.00     0.053 C 
BRANCH  13  14
ATOM     14  C   UNL     1     -12.507  -8.638 -19.160  1.00  0.00     0.041 C 
ATOM     15  O   UNL     1     -12.903  -7.462 -18.948  1.00  0.00    -0.550 OA
ATOM     16  O   UNL     1     -12.714  -9.618 -18.199  1.00  0.00    -0.550 OA
ENDBRANCH  13  14
ENDBRANCH  12  13
ENDBRANCH  11  12
ENDBRANCH  10  11
ENDBRANCH   9  10
ENDBRANCH   8   9
ENDBRANCH   7   8
ENDBRANCH   6   7
ENDBRANCH   5   6
ENDBRANCH   4   5
ENDBRANCH   3   4
ENDBRANCH   2   3
ENDBRANCH   1   2
BRANCH   1  17
ATOM     17  C   UNL     1     -16.275 -15.574 -18.631  1.00  0.00     0.000 C 
BRANCH  17  18
ATOM     18  C   UNL     1     -17.201 -15.276 -17.437  1.00  0.00     0.000 C 
BRANCH  18  19
ATOM     19  C   UNL     1     -16.710 -15.943 -16.135  1.00  0.00     0.000 C 
BRANCH  19  20
ATOM     20  C   UNL     1     -17.624 -17.080 -15.635  1.00  0.00     0.000 C 
BRANCH  20  21
ATOM     21  C   UNL     1     -19.131 -16.773 -15.682  1.00  0.00     0.000 C 
BRANCH  21  22
ATOM     22  C   UNL     1     -19.922 -17.804 -16.502  1.00  0.00    -0.000 C 
BRANCH  22  23
ATOM     23  C   UNL     1     -20.810 -18.713 -15.632  1.00  0.00    -0.000 C 
BRANCH  23  24
ATOM     24  C   UNL     1     -21.791 -17.973 -14.702  1.00  0.00    -0.000 C 
BRANCH  24  25
ATOM     25  C   UNL     1     -22.468 -16.770 -15.375  1.00  0.00    -0.000 C 
BRANCH  25  26
ATOM     26  C   UNL     1     -22.547 -15.575 -14.415  1.00  0.00    -0.000 C 
BRANCH  26  27
ATOM     27  C   UNL     1     -23.978 -15.319 -13.909  1.00  0.00    -0.000 C 
BRANCH  27  28
ATOM     28  C   UNL     1     -24.042 -14.184 -12.872  1.00  0.00    -0.000 C 
BRANCH  28  29
ATOM     29  C   UNL     1     -23.634 -14.648 -11.465  1.00  0.00    -0.003 C 
ATOM     30  C   UNL     1     -22.122 -14.603 -11.245  1.00  0.00     0.004 C 
ENDBRANCH  28  29
ENDBRANCH  27  28
ENDBRANCH  26  27
ENDBRANCH  25  26
ENDBRANCH  24  25
ENDBRANCH  23  24
ENDBRANCH  22  23
ENDBRANCH  21  22
ENDBRANCH  20  21
ENDBRANCH  19  20
ENDBRANCH  18  19
ENDBRANCH  17  18
ENDBRANCH   1  17
TORSDOF 26
ENDMDL
MODEL 7
REMARK VINA RESULT:    27.943      4.558      5.827
REMARK INTER + INTRA:          69.378
REMARK INTER:                  70.416
REMARK INTRA:                  -1.039
REMARK UNBOUND:                -1.038
REMARK SMILES CCCCCCCCCCCCCCCCCCCCCCCCCCCC(=O)[O-]
REMARK SMILES IDX 15 1 16 2 17 3 18 4 19 5 20 6 21 7 22 8 23 9 24 10 25 11
REMARK SMILES IDX 26 12 27 13 28 14 29 15 30 16 14 17 13 18 12 19 11 20 10 21
REMARK SMILES IDX 9 22 8 23 7 24 6 25 5 26 4 27 3 28 2 29 1 30
REMARK H PARENT
REMARK Flexibility Score: inf
ROOT
ATOM      1  C   UNL     1     -17.356 -15.217 -18.515  1.00  0.00     0.000 C 
ENDROOT
BRANCH   1   2
ATOM      2  C   UNL     1     -16.842 -16.092 -17.355  1.00  0.00     0.000 C 
BRANCH   2   3
ATOM      3  C   UNL     1     -17.799 -16.112 -16.148  1.00  0.00     0.000 C 
BRANCH   3   4
ATOM      4  C   UNL     1     -17.361 -17.120 -15.065  1.00  0.00     0.000 C 
BRANCH   4   5
ATOM      5  C   UNL     1     -16.020 -16.771 -14.390  1.00  0.00     0.000 C 
BRANCH   5   6
ATOM      6  C   UNL     1     -16.060 -16.702 -12.852  1.00  0.00     0.000 C 
BRANCH   6   7
ATOM      7  C   UNL     1     -15.271 -15.531 -12.228  1.00  0.00     0.000 C 
BRANCH   7   8
ATOM      8  C   UNL     1     -15.983 -14.811 -11.069  1.00  0.00     0.000 C 
BRANCH   8   9
ATOM      9  C   UNL     1     -16.660 -15.781 -10.090  1.00  0.00     0.000 C 
BRANCH   9  10
ATOM     10  C   UNL     1     -15.620 -16.682  -9.408  1.00  0.00     0.000 C 
BRANCH  10  11
ATOM     11  C   UNL     1     -15.765 -18.166  -9.794  1.00  0.00     0.000 C 
BRANCH  11  12
ATOM     12  C   UNL     1     -15.384 -19.172  -8.688  1.00  0.00     0.006 C 
BRANCH  12  13
ATOM     13  C   UNL     1     -15.520 -18.631  -7.255  1.00  0.00     0.053 C 
BRANCH  13  14
ATOM     14  C   UNL     1     -16.367 -19.521  -6.398  1.00  0.00     0.041 C 
ATOM     15  O   UNL     1     -15.833 -20.431  -5.711  1.00  0.00    -0.550 OA
ATOM     16  O   UNL     1     -17.739 -19.323  -6.329  1.00  0.00    -0.550 OA
ENDBRANCH  13  14
ENDBRANCH  12  13
ENDBRANCH  11  12
ENDBRANCH  10  11
ENDBRANCH   9  10
ENDBRANCH   8   9
ENDBRANCH   7   8
ENDBRANCH   6   7
ENDBRANCH   5   6
ENDBRANCH   4   5
ENDBRANCH   3   4
ENDBRANCH   2   3
ENDBRANCH   1   2
BRANCH   1  17
ATOM     17  C   UNL     1     -16.742 -15.541 -19.888  1.00  0.00     0.000 C 
BRANCH  17  18
ATOM     18  C   UNL     1     -16.000 -14.343 -20.509  1.00  0.00     0.000 C 
BRANCH  18  19
ATOM     19  C   UNL     1     -16.461 -14.054 -21.954  1.00  0.00     0.000 C 
BRANCH  19  20
ATOM     20  C   UNL     1     -16.038 -12.667 -22.477  1.00  0.00     0.000 C 
BRANCH  20  21
ATOM     21  C   UNL     1     -14.559 -12.547 -22.885  1.00  0.00     0.000 C 
BRANCH  21  22
ATOM     22  C   UNL     1     -14.317 -11.437 -23.921  1.00  0.00    -0.000 C 
BRANCH  22  23
ATOM     23  C   UNL     1     -13.821 -10.123 -23.291  1.00  0.00    -0.000 C 
BRANCH  23  24
ATOM     24  C   UNL     1     -14.530  -8.849 -23.789  1.00  0.00    -0.000 C 
BRANCH  24  25
ATOM     25  C   UNL     1     -14.422  -7.676 -22.803  1.00  0.00    -0.000 C 
BRANCH  25  26
ATOM     26  C   UNL     1     -13.115  -7.749 -22.001  1.00  0.00    -0.000 C 
BRANCH  26  27
ATOM     27  C   UNL     1     -13.352  -7.688 -20.482  1.00  0.00    -0.000 C 
BRANCH  27  28
ATOM     28  C   UNL     1     -12.263  -8.430 -19.686  1.00  0.00    -0.000 C 
BRANCH  28  29
ATOM     29  C   UNL     1     -12.646  -8.634 -18.212  1.00  0.00    -0.003 C 
ATOM     30  C   UNL     1     -13.932  -7.899 -17.831  1.00  0.00     0.004 C 
ENDBRANCH  28  29
ENDBRANCH  27  28
ENDBRANCH  26  27
ENDBRANCH  25  26
ENDBRANCH  24  25
ENDBRANCH  23  24
ENDBRANCH  22  23
ENDBRANCH  21  22
ENDBRANCH  20  21
ENDBRANCH  19  20
ENDBRANCH  18  19
ENDBRANCH  17  18
ENDBRANCH   1  17
TORSDOF 26
ENDMDL
MODEL 8
REMARK VINA RESULT:    27.996      4.754     11.488
REMARK INTER + INTRA:          69.510
REMARK INTER:                  70.830
REMARK INTRA:                  -1.320
REMARK UNBOUND:                -1.038
REMARK SMILES CCCCCCCCCCCCCCCCCCCCCCCCCCCC(=O)[O-]
REMARK SMILES IDX 15 1 16 2 17 3 18 4 19 5 20 6 21 7 22 8 23 9 24 10 25 11
REMARK SMILES IDX 26 12 27 13 28 14 29 15 30 16 14 17 13 18 12 19 11 20 10 21
REMARK SMILES IDX 9 22 8 23 7 24 6 25 5 26 4 27 3 28 2 29 1 30
REMARK H PARENT
REMARK Flexibility Score: inf
ROOT
ATOM      1  C   UNL     1     -17.166 -15.702 -19.563  1.00  0.00     0.000 C 
ENDROOT
BRANCH   1   2
ATOM      2  C   UNL     1     -16.131 -14.789 -20.249  1.00  0.00     0.000 C 
BRANCH   2   3
ATOM      3  C   UNL     1     -16.776 -13.734 -21.167  1.00  0.00     0.000 C 
BRANCH   3   4
ATOM      4  C   UNL     1     -16.053 -13.613 -22.525  1.00  0.00     0.000 C 
BRANCH   4   5
ATOM      5  C   UNL     1     -15.127 -12.386 -22.633  1.00  0.00     0.000 C 
BRANCH   5   6
ATOM      6  C   UNL     1     -14.454 -12.192 -24.005  1.00  0.00     0.000 C 
BRANCH   6   7
ATOM      7  C   UNL     1     -13.966 -10.758 -24.300  1.00  0.00     0.000 C 
BRANCH   7   8
ATOM      8  C   UNL     1     -13.890  -9.830 -23.073  1.00  0.00     0.000 C 
BRANCH   8   9
ATOM      9  C   UNL     1     -14.363  -8.402 -23.378  1.00  0.00     0.000 C 
BRANCH   9  10
ATOM     10  C   UNL     1     -13.471  -7.370 -22.671  1.00  0.00     0.000 C 
BRANCH  10  11
ATOM     11  C   UNL     1     -14.167  -6.694 -21.475  1.00  0.00     0.000 C 
BRANCH  11  12
ATOM     12  C   UNL     1     -14.033  -7.439 -20.131  1.00  0.00     0.006 C 
BRANCH  12  13
ATOM     13  C   UNL     1     -12.594  -7.833 -19.757  1.00  0.00     0.053 C 
BRANCH  13  14
ATOM     14  C   UNL     1     -12.521  -8.468 -18.402  1.00  0.00     0.041 C 
ATOM     15  O   UNL     1     -12.291  -7.763 -17.385  1.00  0.00    -0.550 OA
ATOM     16  O   UNL     1     -12.743  -9.831 -18.258  1.00  0.00    -0.550 OA
ENDBRANCH  13  14
ENDBRANCH  12  13
ENDBRANCH  11  12
ENDBRANCH  10  11
ENDBRANCH   9  10
ENDBRANCH   8   9
ENDBRANCH   7   8
ENDBRANCH   6   7
ENDBRANCH   5   6
ENDBRANCH   4   5
ENDBRANCH   3   4
ENDBRANCH   2   3
ENDBRANCH   1   2
BRANCH   1  17
ATOM     17  C   UNL     1     -16.842 -16.061 -18.102  1.00  0.00     0.000 C 
BRANCH  17  18
ATOM     18  C   UNL     1     -18.056 -15.909 -17.166  1.00  0.00     0.000 C 
BRANCH  18  19
ATOM     19  C   UNL     1     -17.648 -15.890 -15.678  1.00  0.00     0.000 C 
BRANCH  19  20
ATOM     20  C   UNL     1     -16.832 -17.123 -15.241  1.00  0.00     0.000 C 
BRANCH  20  21
ATOM     21  C   UNL     1     -16.525 -17.201 -13.735  1.00  0.00     0.000 C 
BRANCH  21  22
ATOM     22  C   UNL     1     -16.117 -18.614 -13.284  1.00  0.00    -0.000 C 
BRANCH  22  23
ATOM     23  C   UNL     1     -16.577 -18.944 -11.852  1.00  0.00    -0.000 C 
BRANCH  23  24
ATOM     24  C   UNL     1     -17.009 -17.732 -11.006  1.00  0.00    -0.000 C 
BRANCH  24  25
ATOM     25  C   UNL     1     -15.892 -17.207 -10.092  1.00  0.00    -0.000 C 
BRANCH  25  26
ATOM     26  C   UNL     1     -16.042 -15.697  -9.851  1.00  0.00    -0.000 C 
BRANCH  26  27
ATOM     27  C   UNL     1     -15.850 -14.874 -11.136  1.00  0.00    -0.000 C 
BRANCH  27  28
ATOM     28  C   UNL     1     -14.666 -15.375 -11.984  1.00  0.00    -0.000 C 
BRANCH  28  29
ATOM     29  C   UNL     1     -13.311 -14.886 -11.450  1.00  0.00    -0.003 C 
ATOM     30  C   UNL     1     -12.128 -15.473 -12.220  1.00  0.00     0.004 C 
ENDBRANCH  28  29
ENDBRANCH  27  28
ENDBRANCH  26  27
ENDBRANCH  25  26
ENDBRANCH  24  25
ENDBRANCH  23  24
ENDBRANCH  22  23
ENDBRANCH  21  22
ENDBRANCH  20  21
ENDBRANCH  19  20
ENDBRANCH  18  19
ENDBRANCH  17  18
ENDBRANCH   1  17
TORSDOF 26
ENDMDL
MODEL 9
REMARK VINA RESULT:    28.155      5.145     11.733
REMARK INTER + INTRA:          69.912
REMARK INTER:                  70.569
REMARK INTRA:                  -0.657
REMARK UNBOUND:                -1.038
REMARK SMILES CCCCCCCCCCCCCCCCCCCCCCCCCCCC(=O)[O-]
REMARK SMILES IDX 15 1 16 2 17 3 18 4 19 5 20 6 21 7 22 8 23 9 24 10 25 11
REMARK SMILES IDX 26 12 27 13 28 14 29 15 30 16 14 17 13 18 12 19 11 20 10 21
REMARK SMILES IDX 9 22 8 23 7 24 6 25 5 26 4 27 3 28 2 29 1 30
REMARK H PARENT
REMARK Flexibility Score: inf
ROOT
ATOM      1  C   UNL     1     -16.779 -16.003 -19.138  1.00  0.00     0.000 C 
ENDROOT
BRANCH   1   2
ATOM      2  C   UNL     1     -17.207 -14.865 -20.084  1.00  0.00     0.000 C 
BRANCH   2   3
ATOM      3  C   UNL     1     -16.096 -14.452 -21.067  1.00  0.00     0.000 C 
BRANCH   3   4
ATOM      4  C   UNL     1     -16.581 -13.416 -22.105  1.00  0.00     0.000 C 
BRANCH   4   5
ATOM      5  C   UNL     1     -15.565 -13.133 -23.228  1.00  0.00     0.000 C 
BRANCH   5   6
ATOM      6  C   UNL     1     -14.607 -11.957 -22.962  1.00  0.00     0.000 C 
BRANCH   6   7
ATOM      7  C   UNL     1     -13.901 -11.391 -24.213  1.00  0.00     0.000 C 
BRANCH   7   8
ATOM      8  C   UNL     1     -13.778  -9.857 -24.254  1.00  0.00     0.000 C 
BRANCH   8   9
ATOM      9  C   UNL     1     -14.878  -9.151 -23.449  1.00  0.00     0.000 C 
BRANCH   9  10
ATOM     10  C   UNL     1     -14.363  -7.825 -22.868  1.00  0.00     0.000 C 
BRANCH  10  11
ATOM     11  C   UNL     1     -13.091  -7.996 -22.018  1.00  0.00     0.000 C 
BRANCH  11  12
ATOM     12  C   UNL     1     -13.203  -7.496 -20.562  1.00  0.00     0.006 C 
BRANCH  12  13
ATOM     13  C   UNL     1     -12.242  -8.177 -19.574  1.00  0.00     0.053 C 
BRANCH  13  14
ATOM     14  C   UNL     1     -12.956  -8.689 -18.360  1.00  0.00     0.041 C 
ATOM     15  O   UNL     1     -13.776  -7.952 -17.753  1.00  0.00    -0.550 OA
ATOM     16  O   UNL     1     -12.743  -9.988 -17.921  1.00  0.00    -0.550 OA
ENDBRANCH  13  14
ENDBRANCH  12  13
ENDBRANCH  11  12
ENDBRANCH  10  11
ENDBRANCH   9  10
ENDBRANCH   8   9
ENDBRANCH   7   8
ENDBRANCH   6   7
ENDBRANCH   5   6
ENDBRANCH   4   5
ENDBRANCH   3   4
ENDBRANCH   2   3
ENDBRANCH   1   2
BRANCH   1  17
ATOM     17  C   UNL     1     -16.657 -15.600 -17.658  1.00  0.00     0.000 C 
BRANCH  17  18
ATOM     18  C   UNL     1     -18.016 -15.564 -16.934  1.00  0.00     0.000 C 
BRANCH  18  19
ATOM     19  C   UNL     1     -18.244 -16.810 -16.053  1.00  0.00     0.000 C 
BRANCH  19  20
ATOM     20  C   UNL     1     -17.049 -17.154 -15.141  1.00  0.00     0.000 C 
BRANCH  20  21
ATOM     21  C   UNL     1     -16.734 -16.108 -14.057  1.00  0.00     0.000 C 
BRANCH  21  22
ATOM     22  C   UNL     1     -15.844 -16.666 -12.934  1.00  0.00    -0.000 C 
BRANCH  22  23
ATOM     23  C   UNL     1     -14.829 -15.637 -12.403  1.00  0.00    -0.000 C 
BRANCH  23  24
ATOM     24  C   UNL     1     -15.275 -14.864 -11.148  1.00  0.00    -0.000 C 
BRANCH  24  25
ATOM     25  C   UNL     1     -16.479 -15.506 -10.442  1.00  0.00    -0.000 C 
BRANCH  25  26
ATOM     26  C   UNL     1     -16.204 -16.981 -10.115  1.00  0.00    -0.000 C 
BRANCH  26  27
ATOM     27  C   UNL     1     -14.942 -17.168  -9.254  1.00  0.00    -0.000 C 
BRANCH  27  28
ATOM     28  C   UNL     1     -15.269 -17.654  -7.830  1.00  0.00    -0.000 C 
BRANCH  28  29
ATOM     29  C   UNL     1     -15.671 -19.137  -7.792  1.00  0.00    -0.003 C 
ATOM     30  C   UNL     1     -16.092 -19.597  -6.396  1.00  0.00     0.004 C 
ENDBRANCH  28  29
ENDBRANCH  27  28
ENDBRANCH  26  27
ENDBRANCH  25  26
ENDBRANCH  24  25
ENDBRANCH  23  24
ENDBRANCH  22  23
ENDBRANCH  21  22
ENDBRANCH  20  21
ENDBRANCH  19  20
ENDBRANCH  18  19
ENDBRANCH  17  18
ENDBRANCH   1  17
TORSDOF 26
ENDMDL
