MODEL 1
REMARK VINA RESULT:    -6.654      0.000      0.000
REMARK INTER + INTRA:          -8.176
REMARK INTER:                  -8.016
REMARK INTRA:                  -0.160
REMARK UNBOUND:                -0.160
REMARK SMILES O=c1c(O)c(-c2ccc(O)c(O)c2)oc2cc(O)cc(O)c12
REMARK SMILES IDX 5 1 3 2 2 3 1 4 22 5 20 6 19 7 17 8 16 9 15 10 14 11 6 12
REMARK SMILES IDX 7 13 8 14 9 15 13 16 11 17 10 18 12 20 4 22 21 24 18 26
REMARK H PARENT 10 19 12 21 4 23 21 25 18 27
REMARK Flexibility Score: inf
ROOT
ATOM      1  C   UNL     1      30.487 -92.183  37.227  1.00  0.00     0.180 A 
ATOM      2  C   UNL     1      29.233 -92.737  36.917  1.00  0.00     0.208 A 
ATOM      3  C   UNL     1      29.035 -94.116  37.091  1.00  0.00     0.238 A 
ATOM      4  O   UNL     1      27.889 -94.593  36.882  1.00  0.00    -0.285 OA
ATOM      5  C   UNL     1      30.110 -94.933  37.519  1.00  0.00     0.111 A 
ATOM      6  C   UNL     1      30.037 -96.350  37.688  1.00  0.00     0.134 A 
ATOM      7  C   UNL     1      31.134 -97.040  38.218  1.00  0.00     0.093 A 
ATOM      8  C   UNL     1      32.320 -96.378  38.527  1.00  0.00     0.123 A 
ATOM      9  C   UNL     1      32.422 -95.003  38.316  1.00  0.00     0.094 A 
ATOM     10  C   UNL     1      31.333 -94.280  37.824  1.00  0.00     0.146 A 
ATOM     11  O   UNL     1      31.465 -92.969  37.658  1.00  0.00    -0.452 OA
ENDROOT
BRANCH   1  12
ATOM     12  C   UNL     1      30.766 -90.735  37.082  1.00  0.00     0.025 A 
ATOM     13  C   UNL     1      31.669 -90.257  36.122  1.00  0.00     0.016 A 
ATOM     14  C   UNL     1      31.897 -88.886  35.988  1.00  0.00     0.051 A 
ATOM     15  C   UNL     1      31.221 -87.967  36.799  1.00  0.00     0.157 A 
ATOM     16  C   UNL     1      30.069 -89.816  37.881  1.00  0.00     0.062 A 
ATOM     17  C   UNL     1      30.290 -88.439  37.755  1.00  0.00     0.158 A 
BRANCH  15  18
ATOM     18  O   UNL     1      31.497 -86.610  36.618  1.00  0.00    -0.504 OA
ATOM     19  H   UNL     1      32.020 -86.240  35.838  1.00  0.00     0.293 HD
ENDBRANCH  15  18
BRANCH  17  20
ATOM     20  O   UNL     1      29.571 -87.583  38.592  1.00  0.00    -0.504 OA
ATOM     21  H   UNL     1      29.692 -86.581  38.615  1.00  0.00     0.293 HD
ENDBRANCH  17  20
ENDBRANCH   1  12
BRANCH   2  22
ATOM     22  O   UNL     1      28.207 -91.926  36.423  1.00  0.00    -0.502 OA
ATOM     23  H   UNL     1      28.117 -91.703  35.439  1.00  0.00     0.293 HD
ENDBRANCH   2  22
BRANCH   6  24
ATOM     24  O   UNL     1      28.930 -97.125  37.327  1.00  0.00    -0.507 OA
ATOM     25  H   UNL     1      28.855 -97.666  36.480  1.00  0.00     0.293 HD
ENDBRANCH   6  24
BRANCH   8  26
ATOM     26  O   UNL     1      33.398 -97.099  39.038  1.00  0.00    -0.508 OA
ATOM     27  H   UNL     1      34.177 -96.638  39.493  1.00  0.00     0.293 HD
ENDBRANCH   8  26
TORSDOF 6
ENDMDL
MODEL 2
REMARK VINA RESULT:    -5.724      9.363     11.065
REMARK INTER + INTRA:          -7.055
REMARK INTER:                  -6.869
REMARK INTRA:                  -0.186
REMARK UNBOUND:                -0.160
REMARK SMILES O=c1c(O)c(-c2ccc(O)c(O)c2)oc2cc(O)cc(O)c12
REMARK SMILES IDX 5 1 3 2 2 3 1 4 22 5 20 6 19 7 17 8 16 9 15 10 14 11 6 12
REMARK SMILES IDX 7 13 8 14 9 15 13 16 11 17 10 18 12 20 4 22 21 24 18 26
REMARK H PARENT 10 19 12 21 4 23 21 25 18 27
REMARK Flexibility Score: inf
ROOT
ATOM      1  C   UNL     1      37.257 -95.572  30.865  1.00  0.00     0.180 A 
ATOM      2  C   UNL     1      37.916 -96.232  29.813  1.00  0.00     0.208 A 
ATOM      3  C   UNL     1      37.262 -96.369  28.579  1.00  0.00     0.238 A 
ATOM      4  O   UNL     1      37.885 -96.895  27.620  1.00  0.00    -0.285 OA
ATOM      5  C   UNL     1      35.936 -95.894  28.426  1.00  0.00     0.111 A 
ATOM      6  C   UNL     1      35.160 -96.019  27.234  1.00  0.00     0.134 A 
ATOM      7  C   UNL     1      33.897 -95.417  27.165  1.00  0.00     0.093 A 
ATOM      8  C   UNL     1      33.357 -94.750  28.263  1.00  0.00     0.123 A 
ATOM      9  C   UNL     1      34.083 -94.670  29.452  1.00  0.00     0.094 A 
ATOM     10  C   UNL     1      35.361 -95.227  29.539  1.00  0.00     0.146 A 
ATOM     11  O   UNL     1      36.027 -95.109  30.682  1.00  0.00    -0.452 OA
ENDROOT
BRANCH   1  12
ATOM     12  C   UNL     1      37.888 -95.377  32.190  1.00  0.00     0.025 A 
ATOM     13  C   UNL     1      39.030 -94.578  32.346  1.00  0.00     0.016 A 
ATOM     14  C   UNL     1      39.592 -94.389  33.610  1.00  0.00     0.051 A 
ATOM     15  C   UNL     1      39.019 -94.980  34.742  1.00  0.00     0.157 A 
ATOM     16  C   UNL     1      37.297 -95.953  33.326  1.00  0.00     0.062 A 
ATOM     17  C   UNL     1      37.853 -95.769  34.599  1.00  0.00     0.158 A 
BRANCH  15  18
ATOM     18  O   UNL     1      39.632 -94.756  35.976  1.00  0.00    -0.504 OA
ATOM     19  H   UNL     1      39.192 -94.272  36.746  1.00  0.00     0.293 HD
ENDBRANCH  15  18
BRANCH  17  20
ATOM     20  O   UNL     1      37.220 -96.382  35.682  1.00  0.00    -0.504 OA
ATOM     21  H   UNL     1      37.164 -95.979  36.606  1.00  0.00     0.293 HD
ENDBRANCH  17  20
ENDBRANCH   1  12
BRANCH   2  22
ATOM     22  O   UNL     1      39.195 -96.761  30.006  1.00  0.00    -0.502 OA
ATOM     23  H   UNL     1      39.977 -96.195  30.310  1.00  0.00     0.293 HD
ENDBRANCH   2  22
BRANCH   6  24
ATOM     24  O   UNL     1      35.566 -96.739  26.107  1.00  0.00    -0.507 OA
ATOM     25  H   UNL     1      36.524 -96.943  25.865  1.00  0.00     0.293 HD
ENDBRANCH   6  24
BRANCH   8  26
ATOM     26  O   UNL     1      32.090 -94.178  28.166  1.00  0.00    -0.508 OA
ATOM     27  H   UNL     1      31.250 -94.715  28.345  1.00  0.00     0.293 HD
ENDBRANCH   8  26
TORSDOF 6
ENDMDL
MODEL 3
REMARK VINA RESULT:    -5.567      9.523     10.983
REMARK INTER + INTRA:          -6.867
REMARK INTER:                  -6.771
REMARK INTRA:                  -0.096
REMARK UNBOUND:                -0.160
REMARK SMILES O=c1c(O)c(-c2ccc(O)c(O)c2)oc2cc(O)cc(O)c12
REMARK SMILES IDX 5 1 3 2 2 3 1 4 22 5 20 6 19 7 17 8 16 9 15 10 14 11 6 12
REMARK SMILES IDX 7 13 8 14 9 15 13 16 11 17 10 18 12 20 4 22 21 24 18 26
REMARK H PARENT 10 19 12 21 4 23 21 25 18 27
REMARK Flexibility Score: inf
ROOT
ATOM      1  C   UNL     1      35.851 -95.548  29.599  1.00  0.00     0.180 A 
ATOM      2  C   UNL     1      36.920 -95.970  28.790  1.00  0.00     0.208 A 
ATOM      3  C   UNL     1      38.216 -95.989  29.328  1.00  0.00     0.238 A 
ATOM      4  O   UNL     1      39.157 -96.437  28.622  1.00  0.00    -0.285 OA
ATOM      5  C   UNL     1      38.437 -95.534  30.651  1.00  0.00     0.111 A 
ATOM      6  C   UNL     1      39.716 -95.467  31.285  1.00  0.00     0.134 A 
ATOM      7  C   UNL     1      39.800 -95.099  32.634  1.00  0.00     0.093 A 
ATOM      8  C   UNL     1      38.663 -94.737  33.354  1.00  0.00     0.123 A 
ATOM      9  C   UNL     1      37.415 -94.745  32.729  1.00  0.00     0.094 A 
ATOM     10  C   UNL     1      37.294 -95.144  31.396  1.00  0.00     0.146 A 
ATOM     11  O   UNL     1      36.085 -95.158  30.846  1.00  0.00    -0.452 OA
ENDROOT
BRANCH   1  12
ATOM     12  C   UNL     1      34.455 -95.514  29.106  1.00  0.00     0.025 A 
ATOM     13  C   UNL     1      34.094 -94.756  27.983  1.00  0.00     0.016 A 
ATOM     14  C   UNL     1      32.777 -94.760  27.523  1.00  0.00     0.051 A 
ATOM     15  C   UNL     1      31.798 -95.528  28.164  1.00  0.00     0.157 A 
ATOM     16  C   UNL     1      33.482 -96.303  29.739  1.00  0.00     0.062 A 
ATOM     17  C   UNL     1      32.157 -96.314  29.284  1.00  0.00     0.158 A 
BRANCH  15  18
ATOM     18  O   UNL     1      30.498 -95.485  27.657  1.00  0.00    -0.504 OA
ATOM     19  H   UNL     1      30.133 -96.141  26.981  1.00  0.00     0.293 HD
ENDBRANCH  15  18
BRANCH  17  20
ATOM     20  O   UNL     1      31.239 -97.113  29.970  1.00  0.00    -0.504 OA
ATOM     21  H   UNL     1      31.350 -98.106  30.114  1.00  0.00     0.293 HD
ENDBRANCH  17  20
ENDBRANCH   1  12
BRANCH   2  22
ATOM     22  O   UNL     1      36.693 -96.343  27.462  1.00  0.00    -0.502 OA
ATOM     23  H   UNL     1      37.447 -96.567  26.824  1.00  0.00     0.293 HD
ENDBRANCH   2  22
BRANCH   6  24
ATOM     24  O   UNL     1      40.927 -95.723  30.635  1.00  0.00    -0.507 OA
ATOM     25  H   UNL     1      41.023 -95.931  29.652  1.00  0.00     0.293 HD
ENDBRANCH   6  24
BRANCH   8  26
ATOM     26  O   UNL     1      38.785 -94.360  34.689  1.00  0.00    -0.508 OA
ATOM     27  H   UNL     1      38.932 -93.393  34.957  1.00  0.00     0.293 HD
ENDBRANCH   8  26
TORSDOF 6
ENDMDL
MODEL 4
REMARK VINA RESULT:    -5.504     14.936     16.583
REMARK INTER + INTRA:          -6.790
REMARK INTER:                  -6.605
REMARK INTRA:                  -0.186
REMARK UNBOUND:                -0.160
REMARK SMILES O=c1c(O)c(-c2ccc(O)c(O)c2)oc2cc(O)cc(O)c12
REMARK SMILES IDX 5 1 3 2 2 3 1 4 22 5 20 6 19 7 17 8 16 9 15 10 14 11 6 12
REMARK SMILES IDX 7 13 8 14 9 15 13 16 11 17 10 18 12 20 4 22 21 24 18 26
REMARK H PARENT 10 19 12 21 4 23 21 25 18 27
REMARK Flexibility Score: inf
ROOT
ATOM      1  C   UNL     1      36.897 -77.967  37.310  1.00  0.00     0.180 A 
ATOM      2  C   UNL     1      37.455 -77.848  36.026  1.00  0.00     0.208 A 
ATOM      3  C   UNL     1      36.601 -77.820  34.912  1.00  0.00     0.238 A 
ATOM      4  O   UNL     1      37.102 -77.639  33.771  1.00  0.00    -0.285 OA
ATOM      5  C   UNL     1      35.204 -77.968  35.091  1.00  0.00     0.111 A 
ATOM      6  C   UNL     1      34.248 -78.000  34.030  1.00  0.00     0.134 A 
ATOM      7  C   UNL     1      32.881 -78.044  34.333  1.00  0.00     0.093 A 
ATOM      8  C   UNL     1      32.438 -78.121  35.652  1.00  0.00     0.123 A 
ATOM      9  C   UNL     1      33.365 -78.147  36.694  1.00  0.00     0.094 A 
ATOM     10  C   UNL     1      34.734 -78.065  36.426  1.00  0.00     0.146 A 
ATOM     11  O   UNL     1      35.581 -78.071  37.448  1.00  0.00    -0.452 OA
ENDROOT
BRANCH   1  12
ATOM     12  C   UNL     1      37.732 -77.989  38.533  1.00  0.00     0.025 A 
ATOM     13  C   UNL     1      38.496 -76.877  38.917  1.00  0.00     0.016 A 
ATOM     14  C   UNL     1      39.256 -76.913  40.088  1.00  0.00     0.051 A 
ATOM     15  C   UNL     1      39.258 -78.050  40.904  1.00  0.00     0.157 A 
ATOM     16  C   UNL     1      37.714 -79.123  39.361  1.00  0.00     0.062 A 
ATOM     17  C   UNL     1      38.472 -79.169  40.537  1.00  0.00     0.158 A 
BRANCH  15  18
ATOM     18  O   UNL     1      40.042 -78.024  42.058  1.00  0.00    -0.504 OA
ATOM     19  H   UNL     1      39.683 -77.825  42.981  1.00  0.00     0.293 HD
ENDBRANCH  15  18
BRANCH  17  20
ATOM     20  O   UNL     1      38.416 -80.334  41.304  1.00  0.00    -0.504 OA
ATOM     21  H   UNL     1      39.126 -80.608  41.968  1.00  0.00     0.293 HD
ENDBRANCH  17  20
ENDBRANCH   1  12
BRANCH   2  22
ATOM     22  O   UNL     1      38.841 -77.780  35.865  1.00  0.00    -0.502 OA
ATOM     23  H   UNL     1      39.439 -78.593  35.949  1.00  0.00     0.293 HD
ENDBRANCH   2  22
BRANCH   6  24
ATOM     24  O   UNL     1      34.584 -78.016  32.673  1.00  0.00    -0.507 OA
ATOM     25  H   UNL     1      34.692 -78.849  32.114  1.00  0.00     0.293 HD
ENDBRANCH   6  24
BRANCH   8  26
ATOM     26  O   UNL     1      31.071 -78.181  35.916  1.00  0.00    -0.508 OA
ATOM     27  H   UNL     1      30.704 -78.725  36.689  1.00  0.00     0.293 HD
ENDBRANCH   8  26
TORSDOF 6
ENDMDL
MODEL 5
REMARK VINA RESULT:    -5.400      8.174     10.774
REMARK INTER + INTRA:          -6.665
REMARK INTER:                  -6.494
REMARK INTRA:                  -0.171
REMARK UNBOUND:                -0.160
REMARK SMILES O=c1c(O)c(-c2ccc(O)c(O)c2)oc2cc(O)cc(O)c12
REMARK SMILES IDX 5 1 3 2 2 3 1 4 22 5 20 6 19 7 17 8 16 9 15 10 14 11 6 12
REMARK SMILES IDX 7 13 8 14 9 15 13 16 11 17 10 18 12 20 4 22 21 24 18 26
REMARK H PARENT 10 19 12 21 4 23 21 25 18 27
REMARK Flexibility Score: inf
ROOT
ATOM      1  C   UNL     1      39.447 -95.478  34.951  1.00  0.00     0.180 A 
ATOM      2  C   UNL     1      40.483 -95.079  35.812  1.00  0.00     0.208 A 
ATOM      3  C   UNL     1      40.282 -95.155  37.200  1.00  0.00     0.238 A 
ATOM      4  O   UNL     1      41.239 -94.866  37.965  1.00  0.00    -0.285 OA
ATOM      5  C   UNL     1      39.030 -95.578  37.709  1.00  0.00     0.111 A 
ATOM      6  C   UNL     1      38.700 -95.652  39.097  1.00  0.00     0.134 A 
ATOM      7  C   UNL     1      37.465 -96.185  39.486  1.00  0.00     0.093 A 
ATOM      8  C   UNL     1      36.525 -96.588  38.540  1.00  0.00     0.123 A 
ATOM      9  C   UNL     1      36.815 -96.470  37.180  1.00  0.00     0.094 A 
ATOM     10  C   UNL     1      38.053 -95.977  36.761  1.00  0.00     0.146 A 
ATOM     11  O   UNL     1      38.296 -95.901  35.458  1.00  0.00    -0.452 OA
ENDROOT
BRANCH   1  12
ATOM     12  C   UNL     1      39.589 -95.439  33.477  1.00  0.00     0.025 A 
ATOM     13  C   UNL     1      38.851 -94.539  32.695  1.00  0.00     0.016 A 
ATOM     14  C   UNL     1      39.020 -94.504  31.309  1.00  0.00     0.051 A 
ATOM     15  C   UNL     1      39.936 -95.355  30.680  1.00  0.00     0.157 A 
ATOM     16  C   UNL     1      40.525 -96.278  32.852  1.00  0.00     0.062 A 
ATOM     17  C   UNL     1      40.702 -96.251  31.463  1.00  0.00     0.158 A 
BRANCH  15  18
ATOM     18  O   UNL     1      40.055 -95.274  29.291  1.00  0.00    -0.504 OA
ATOM     19  H   UNL     1      40.831 -94.838  28.816  1.00  0.00     0.293 HD
ENDBRANCH  15  18
BRANCH  17  20
ATOM     20  O   UNL     1      41.641 -97.123  30.908  1.00  0.00    -0.504 OA
ATOM     21  H   UNL     1      42.220 -96.898  30.112  1.00  0.00     0.293 HD
ENDBRANCH  17  20
ENDBRANCH   1  12
BRANCH   2  22
ATOM     22  O   UNL     1      41.684 -94.592  35.290  1.00  0.00    -0.502 OA
ATOM     23  H   UNL     1      42.562 -94.659  35.792  1.00  0.00     0.293 HD
ENDBRANCH   2  22
BRANCH   6  24
ATOM     24  O   UNL     1      39.531 -95.194  40.125  1.00  0.00    -0.507 OA
ATOM     25  H   UNL     1      39.989 -94.296  40.141  1.00  0.00     0.293 HD
ENDBRANCH   6  24
BRANCH   8  26
ATOM     26  O   UNL     1      35.299 -97.099  38.962  1.00  0.00    -0.508 OA
ATOM     27  H   UNL     1      34.477 -96.511  39.038  1.00  0.00     0.293 HD
ENDBRANCH   8  26
TORSDOF 6
ENDMDL
MODEL 6
REMARK VINA RESULT:    -5.277      9.079     10.422
REMARK INTER + INTRA:          -6.517
REMARK INTER:                  -6.230
REMARK INTRA:                  -0.287
REMARK UNBOUND:                -0.160
REMARK SMILES O=c1c(O)c(-c2ccc(O)c(O)c2)oc2cc(O)cc(O)c12
REMARK SMILES IDX 5 1 3 2 2 3 1 4 22 5 20 6 19 7 17 8 16 9 15 10 14 11 6 12
REMARK SMILES IDX 7 13 8 14 9 15 13 16 11 17 10 18 12 20 4 22 21 24 18 26
REMARK H PARENT 10 19 12 21 4 23 21 25 18 27
REMARK Flexibility Score: inf
ROOT
ATOM      1  C   UNL     1      35.243 -95.908  29.878  1.00  0.00     0.180 A 
ATOM      2  C   UNL     1      35.057 -95.475  28.554  1.00  0.00     0.208 A 
ATOM      3  C   UNL     1      33.758 -95.455  28.021  1.00  0.00     0.238 A 
ATOM      4  O   UNL     1      33.589 -94.997  26.861  1.00  0.00    -0.285 OA
ATOM      5  C   UNL     1      32.669 -95.919  28.798  1.00  0.00     0.111 A 
ATOM      6  C   UNL     1      31.316 -95.986  28.344  1.00  0.00     0.134 A 
ATOM      7  C   UNL     1      30.306 -96.364  29.237  1.00  0.00     0.093 A 
ATOM      8  C   UNL     1      30.604 -96.737  30.546  1.00  0.00     0.123 A 
ATOM      9  C   UNL     1      31.929 -96.729  30.985  1.00  0.00     0.094 A 
ATOM     10  C   UNL     1      32.955 -96.320  30.129  1.00  0.00     0.146 A 
ATOM     11  O   UNL     1      34.199 -96.307  30.593  1.00  0.00    -0.452 OA
ENDROOT
BRANCH   1  12
ATOM     12  C   UNL     1      36.580 -95.944  30.515  1.00  0.00     0.025 A 
ATOM     13  C   UNL     1      37.491 -96.976  30.246  1.00  0.00     0.016 A 
ATOM     14  C   UNL     1      38.754 -96.975  30.839  1.00  0.00     0.051 A 
ATOM     15  C   UNL     1      39.140 -95.940  31.698  1.00  0.00     0.157 A 
ATOM     16  C   UNL     1      36.971 -94.892  31.358  1.00  0.00     0.062 A 
ATOM     17  C   UNL     1      38.236 -94.881  31.958  1.00  0.00     0.158 A 
BRANCH  15  18
ATOM     18  O   UNL     1      40.415 -96.000  32.262  1.00  0.00    -0.504 OA
ATOM     19  H   UNL     1      40.951 -95.188  32.533  1.00  0.00     0.293 HD
ENDBRANCH  15  18
BRANCH  17  20
ATOM     20  O   UNL     1      38.552 -93.810  32.796  1.00  0.00    -0.504 OA
ATOM     21  H   UNL     1      37.865 -93.217  33.238  1.00  0.00     0.293 HD
ENDBRANCH  17  20
ENDBRANCH   1  12
BRANCH   2  22
ATOM     22  O   UNL     1      36.153 -95.092  27.778  1.00  0.00    -0.502 OA
ATOM     23  H   UNL     1      36.552 -94.162  27.820  1.00  0.00     0.293 HD
ENDBRANCH   2  22
BRANCH   6  24
ATOM     24  O   UNL     1      30.917 -95.720  27.031  1.00  0.00    -0.507 OA
ATOM     25  H   UNL     1      31.243 -96.216  26.216  1.00  0.00     0.293 HD
ENDBRANCH   6  24
BRANCH   8  26
ATOM     26  O   UNL     1      29.576 -97.124  31.403  1.00  0.00    -0.508 OA
ATOM     27  H   UNL     1      29.239 -98.080  31.431  1.00  0.00     0.293 HD
ENDBRANCH   8  26
TORSDOF 6
ENDMDL
MODEL 7
REMARK VINA RESULT:    -5.241     15.234     17.272
REMARK INTER + INTRA:          -6.473
REMARK INTER:                  -6.153
REMARK INTRA:                  -0.320
REMARK UNBOUND:                -0.160
REMARK SMILES O=c1c(O)c(-c2ccc(O)c(O)c2)oc2cc(O)cc(O)c12
REMARK SMILES IDX 5 1 3 2 2 3 1 4 22 5 20 6 19 7 17 8 16 9 15 10 14 11 6 12
REMARK SMILES IDX 7 13 8 14 9 15 13 16 11 17 10 18 12 20 4 22 21 24 18 26
REMARK H PARENT 10 19 12 21 4 23 21 25 18 27
REMARK Flexibility Score: inf
ROOT
ATOM      1  C   UNL     1      38.425 -78.073  37.667  1.00  0.00     0.180 A 
ATOM      2  C   UNL     1      37.195 -78.536  38.164  1.00  0.00     0.208 A 
ATOM      3  C   UNL     1      36.086 -78.580  37.305  1.00  0.00     0.238 A 
ATOM      4  O   UNL     1      35.007 -79.065  37.736  1.00  0.00    -0.285 OA
ATOM      5  C   UNL     1      36.205 -78.108  35.975  1.00  0.00     0.111 A 
ATOM      6  C   UNL     1      35.136 -78.064  35.029  1.00  0.00     0.134 A 
ATOM      7  C   UNL     1      35.396 -77.676  33.709  1.00  0.00     0.093 A 
ATOM      8  C   UNL     1      36.671 -77.272  33.316  1.00  0.00     0.123 A 
ATOM      9  C   UNL     1      37.711 -77.258  34.245  1.00  0.00     0.094 A 
ATOM     10  C   UNL     1      37.491 -77.676  35.560  1.00  0.00     0.146 A 
ATOM     11  O   UNL     1      38.514 -77.668  36.406  1.00  0.00    -0.452 OA
ENDROOT
BRANCH   1  12
ATOM     12  C   UNL     1      39.642 -78.011  38.509  1.00  0.00     0.025 A 
ATOM     13  C   UNL     1      39.914 -76.900  39.321  1.00  0.00     0.016 A 
ATOM     14  C   UNL     1      41.055 -76.875  40.124  1.00  0.00     0.051 A 
ATOM     15  C   UNL     1      41.939 -77.960  40.144  1.00  0.00     0.157 A 
ATOM     16  C   UNL     1      40.514 -79.110  38.542  1.00  0.00     0.062 A 
ATOM     17  C   UNL     1      41.661 -79.095  39.345  1.00  0.00     0.158 A 
BRANCH  15  18
ATOM     18  O   UNL     1      43.064 -77.871  40.965  1.00  0.00    -0.504 OA
ATOM     19  H   UNL     1      43.672 -77.066  41.005  1.00  0.00     0.293 HD
ENDBRANCH  15  18
BRANCH  17  20
ATOM     20  O   UNL     1      42.491 -80.219  39.319  1.00  0.00    -0.504 OA
ATOM     21  H   UNL     1      43.344 -80.303  39.851  1.00  0.00     0.293 HD
ENDBRANCH  17  20
ENDBRANCH   1  12
BRANCH   2  22
ATOM     22  O   UNL     1      37.078 -78.925  39.501  1.00  0.00    -0.502 OA
ATOM     23  H   UNL     1      36.681 -78.322  40.211  1.00  0.00     0.293 HD
ENDBRANCH   2  22
BRANCH   6  24
ATOM     24  O   UNL     1      33.805 -78.363  35.337  1.00  0.00    -0.507 OA
ATOM     25  H   UNL     1      33.182 -78.898  34.752  1.00  0.00     0.293 HD
ENDBRANCH   6  24
BRANCH   8  26
ATOM     26  O   UNL     1      36.891 -76.876  31.998  1.00  0.00    -0.508 OA
ATOM     27  H   UNL     1      36.125 -76.752  31.346  1.00  0.00     0.293 HD
ENDBRANCH   8  26
TORSDOF 6
ENDMDL
MODEL 8
REMARK VINA RESULT:    -5.193     15.352     17.005
REMARK INTER + INTRA:          -6.415
REMARK INTER:                  -6.273
REMARK INTRA:                  -0.142
REMARK UNBOUND:                -0.160
REMARK SMILES O=c1c(O)c(-c2ccc(O)c(O)c2)oc2cc(O)cc(O)c12
REMARK SMILES IDX 5 1 3 2 2 3 1 4 22 5 20 6 19 7 17 8 16 9 15 10 14 11 6 12
REMARK SMILES IDX 7 13 8 14 9 15 13 16 11 17 10 18 12 20 4 22 21 24 18 26
REMARK H PARENT 10 19 12 21 4 23 21 25 18 27
REMARK Flexibility Score: inf
ROOT
ATOM      1  C   UNL     1      37.762 -78.267  37.875  1.00  0.00     0.180 A 
ATOM      2  C   UNL     1      38.149 -79.019  38.998  1.00  0.00     0.208 A 
ATOM      3  C   UNL     1      39.513 -79.281  39.205  1.00  0.00     0.238 A 
ATOM      4  O   UNL     1      39.858 -79.891  40.251  1.00  0.00    -0.285 OA
ATOM      5  C   UNL     1      40.468 -78.835  38.259  1.00  0.00     0.111 A 
ATOM      6  C   UNL     1      41.872 -79.082  38.344  1.00  0.00     0.134 A 
ATOM      7  C   UNL     1      42.734 -78.502  37.405  1.00  0.00     0.093 A 
ATOM      8  C   UNL     1      42.239 -77.738  36.350  1.00  0.00     0.123 A 
ATOM      9  C   UNL     1      40.864 -77.536  36.225  1.00  0.00     0.094 A 
ATOM     10  C   UNL     1      39.982 -78.070  37.167  1.00  0.00     0.146 A 
ATOM     11  O   UNL     1      38.684 -77.836  37.023  1.00  0.00    -0.452 OA
ENDROOT
BRANCH   1  12
ATOM     12  C   UNL     1      36.345 -77.939  37.597  1.00  0.00     0.025 A 
ATOM     13  C   UNL     1      35.576 -77.193  38.503  1.00  0.00     0.016 A 
ATOM     14  C   UNL     1      34.249 -76.875  38.207  1.00  0.00     0.051 A 
ATOM     15  C   UNL     1      33.668 -77.282  37.000  1.00  0.00     0.157 A 
ATOM     16  C   UNL     1      35.773 -78.329  36.376  1.00  0.00     0.062 A 
ATOM     17  C   UNL     1      34.443 -78.015  36.070  1.00  0.00     0.158 A 
BRANCH  15  18
ATOM     18  O   UNL     1      32.336 -76.935  36.767  1.00  0.00    -0.504 OA
ATOM     19  H   UNL     1      31.876 -76.143  37.191  1.00  0.00     0.293 HD
ENDBRANCH  15  18
BRANCH  17  20
ATOM     20  O   UNL     1      33.936 -78.447  34.842  1.00  0.00    -0.504 OA
ATOM     21  H   UNL     1      34.463 -78.445  33.981  1.00  0.00     0.293 HD
ENDBRANCH  17  20
ENDBRANCH   1  12
BRANCH   2  22
ATOM     22  O   UNL     1      37.185 -79.515  39.879  1.00  0.00    -0.502 OA
ATOM     23  H   UNL     1      37.340 -80.339  40.447  1.00  0.00     0.293 HD
ENDBRANCH   2  22
BRANCH   6  24
ATOM     24  O   UNL     1      42.466 -79.903  39.307  1.00  0.00    -0.507 OA
ATOM     25  H   UNL     1      42.669 -80.884  39.185  1.00  0.00     0.293 HD
ENDBRANCH   6  24
BRANCH   8  26
ATOM     26  O   UNL     1      43.124 -77.189  35.423  1.00  0.00    -0.508 OA
ATOM     27  H   UNL     1      43.733 -77.773  34.861  1.00  0.00     0.293 HD
ENDBRANCH   8  26
TORSDOF 6
ENDMDL
MODEL 9
REMARK VINA RESULT:    -5.045     15.331     16.875
REMARK INTER + INTRA:          -6.237
REMARK INTER:                  -5.914
REMARK INTRA:                  -0.323
REMARK UNBOUND:                -0.160
REMARK SMILES O=c1c(O)c(-c2ccc(O)c(O)c2)oc2cc(O)cc(O)c12
REMARK SMILES IDX 5 1 3 2 2 3 1 4 22 5 20 6 19 7 17 8 16 9 15 10 14 11 6 12
REMARK SMILES IDX 7 13 8 14 9 15 13 16 11 17 10 18 12 20 4 22 21 24 18 26
REMARK H PARENT 10 19 12 21 4 23 21 25 18 27
REMARK Flexibility Score: inf
ROOT
ATOM      1  C   UNL     1      36.904 -77.909  37.334  1.00  0.00     0.180 A 
ATOM      2  C   UNL     1      35.513 -78.098  37.383  1.00  0.00     0.208 A 
ATOM      3  C   UNL     1      34.772 -78.014  36.193  1.00  0.00     0.238 A 
ATOM      4  O   UNL     1      33.537 -78.258  36.232  1.00  0.00    -0.285 OA
ATOM      5  C   UNL     1      35.423 -77.688  34.978  1.00  0.00     0.111 A 
ATOM      6  C   UNL     1      34.766 -77.533  33.720  1.00  0.00     0.134 A 
ATOM      7  C   UNL     1      35.527 -77.313  32.565  1.00  0.00     0.093 A 
ATOM      8  C   UNL     1      36.913 -77.181  32.630  1.00  0.00     0.123 A 
ATOM      9  C   UNL     1      37.561 -77.276  33.862  1.00  0.00     0.094 A 
ATOM     10  C   UNL     1      36.833 -77.532  35.027  1.00  0.00     0.146 A 
ATOM     11  O   UNL     1      37.491 -77.637  36.175  1.00  0.00    -0.452 OA
ENDROOT
BRANCH   1  12
ATOM     12  C   UNL     1      37.754 -77.995  38.544  1.00  0.00     0.025 A 
ATOM     13  C   UNL     1      37.987 -76.875  39.356  1.00  0.00     0.016 A 
ATOM     14  C   UNL     1      38.772 -76.988  40.505  1.00  0.00     0.051 A 
ATOM     15  C   UNL     1      39.326 -78.219  40.874  1.00  0.00     0.157 A 
ATOM     16  C   UNL     1      38.290 -79.236  38.923  1.00  0.00     0.062 A 
ATOM     17  C   UNL     1      39.078 -79.359  40.074  1.00  0.00     0.158 A 
BRANCH  15  18
ATOM     18  O   UNL     1      40.105 -78.263  42.032  1.00  0.00    -0.504 OA
ATOM     19  H   UNL     1      40.549 -77.456  42.445  1.00  0.00     0.293 HD
ENDBRANCH  15  18
BRANCH  17  20
ATOM     20  O   UNL     1      39.589 -80.622  40.383  1.00  0.00    -0.504 OA
ATOM     21  H   UNL     1      39.659 -81.380  39.720  1.00  0.00     0.293 HD
ENDBRANCH  17  20
ENDBRANCH   1  12
BRANCH   2  22
ATOM     22  O   UNL     1      34.878 -78.344  38.603  1.00  0.00    -0.502 OA
ATOM     23  H   UNL     1      35.382 -78.377  39.481  1.00  0.00     0.293 HD
ENDBRANCH   2  22
BRANCH   6  24
ATOM     24  O   UNL     1      33.378 -77.559  33.553  1.00  0.00    -0.507 OA
ATOM     25  H   UNL     1      32.837 -78.380  33.329  1.00  0.00     0.293 HD
ENDBRANCH   6  24
BRANCH   8  26
ATOM     26  O   UNL     1      37.637 -76.945  31.464  1.00  0.00    -0.508 OA
ATOM     27  H   UNL     1      37.648 -76.034  31.020  1.00  0.00     0.293 HD
ENDBRANCH   8  26
TORSDOF 6
ENDMDL
