MODEL 1
REMARK VINA RESULT:    -4.043      0.000      0.000
REMARK INTER + INTRA:          -4.809
REMARK INTER:                  -4.871
REMARK INTRA:                   0.062
REMARK UNBOUND:                 0.062
REMARK SMILES Oc1cc(O)c2c(c1)O[C@@H](c1ccc(O)c(O)c1)[C@H](O)C2
REMARK SMILES IDX 21 1 19 2 10 3 9 4 7 5 8 6 2 7 3 8 4 9 6 10 20 11 11 13
REMARK SMILES IDX 18 14 12 15 16 16 13 17 14 18 17 19 15 21 5 23 1 25
REMARK H PARENT 20 12 17 20 15 22 5 24 1 26
REMARK Flexibility Score: inf
ROOT
ATOM      1  C   UNL     1       2.017   9.905  13.080  1.00  0.00     0.079 C 
ATOM      2  C   UNL     1       3.102   8.835  13.309  1.00  0.00     0.164 C 
ATOM      3  C   UNL     1       3.971   8.695  12.049  1.00  0.00     0.232 C 
ATOM      4  O   UNL     1       4.538   9.961  11.708  1.00  0.00    -0.482 OA
ATOM      5  C   UNL     1       3.824  11.156  11.834  1.00  0.00     0.131 A 
ATOM      6  C   UNL     1       4.369  12.331  11.308  1.00  0.00     0.093 A 
ATOM      7  C   UNL     1       3.673  13.537  11.404  1.00  0.00     0.122 A 
ATOM      8  C   UNL     1       2.417  13.567  12.020  1.00  0.00     0.092 A 
ATOM      9  C   UNL     1       1.855  12.400  12.552  1.00  0.00     0.126 A 
ATOM     10  C   UNL     1       2.577  11.185  12.496  1.00  0.00     0.039 A 
ENDROOT
BRANCH   2  11
ATOM     11  O   UNL     1       2.499   7.602  13.607  1.00  0.00    -0.389 OA
ATOM     12  H   UNL     1       1.669   7.551  13.063  1.00  0.00     0.211 HD
ENDBRANCH   2  11
BRANCH   3  13
ATOM     13  C   UNL     1       5.076   7.685  12.255  1.00  0.00    -0.001 A 
ATOM     14  C   UNL     1       6.411   8.104  12.392  1.00  0.00     0.057 A 
ATOM     15  C   UNL     1       4.773   6.318  12.363  1.00  0.00     0.012 A 
ATOM     16  C   UNL     1       7.431   7.167  12.612  1.00  0.00     0.157 A 
ATOM     17  C   UNL     1       5.790   5.384  12.582  1.00  0.00     0.050 A 
ATOM     18  C   UNL     1       7.120   5.805  12.705  1.00  0.00     0.157 A 
BRANCH  16  19
ATOM     19  O   UNL     1       8.755   7.584  12.741  1.00  0.00    -0.504 OA
ATOM     20  H   UNL     1       9.359   7.216  13.466  1.00  0.00     0.293 HD
ENDBRANCH  16  19
BRANCH  18  21
ATOM     21  O   UNL     1       8.137   4.877  12.923  1.00  0.00    -0.504 OA
ATOM     22  H   UNL     1       9.115   5.142  12.877  1.00  0.00     0.293 HD
ENDBRANCH  18  21
ENDBRANCH   3  13
BRANCH   9  23
ATOM     23  O   UNL     1       0.579  12.485  13.115  1.00  0.00    -0.507 OA
ATOM     24  H   UNL     1       0.376  12.224  14.071  1.00  0.00     0.293 HD
ENDBRANCH   9  23
BRANCH   7  25
ATOM     25  O   UNL     1       4.233  14.697  10.875  1.00  0.00    -0.508 OA
ATOM     26  H   UNL     1       4.313  15.545  11.424  1.00  0.00     0.293 HD
ENDBRANCH   7  25
TORSDOF 6
ENDMDL
MODEL 2
REMARK VINA RESULT:    -2.976      1.850      2.649
REMARK INTER + INTRA:          -3.522
REMARK INTER:                  -3.805
REMARK INTRA:                   0.283
REMARK UNBOUND:                 0.062
REMARK SMILES Oc1cc(O)c2c(c1)O[C@@H](c1ccc(O)c(O)c1)[C@H](O)C2
REMARK SMILES IDX 21 1 19 2 10 3 9 4 7 5 8 6 2 7 3 8 4 9 6 10 20 11 11 13
REMARK SMILES IDX 18 14 12 15 16 16 13 17 14 18 17 19 15 21 5 23 1 25
REMARK H PARENT 20 12 17 20 15 22 5 24 1 26
REMARK Flexibility Score: inf
ROOT
ATOM      1  C   UNL     1       1.243  12.388  11.179  1.00  0.00     0.079 C 
ATOM      2  C   UNL     1       1.908  11.117  11.744  1.00  0.00     0.164 C 
ATOM      3  C   UNL     1       3.239  10.858  11.020  1.00  0.00     0.232 C 
ATOM      4  O   UNL     1       4.087  12.001  11.144  1.00  0.00    -0.482 OA
ATOM      5  C   UNL     1       3.594  13.307  11.077  1.00  0.00     0.131 A 
ATOM      6  C   UNL     1       4.499  14.372  11.017  1.00  0.00     0.093 A 
ATOM      7  C   UNL     1       4.037  15.686  10.934  1.00  0.00     0.122 A 
ATOM      8  C   UNL     1       2.660  15.939  10.900  1.00  0.00     0.092 A 
ATOM      9  C   UNL     1       1.740  14.885  10.959  1.00  0.00     0.126 A 
ATOM     10  C   UNL     1       2.204  13.555  11.088  1.00  0.00     0.039 A 
ENDROOT
BRANCH   2  11
ATOM     11  O   UNL     1       1.053  10.017  11.571  1.00  0.00    -0.389 OA
ATOM     12  H   UNL     1       0.132  10.380  11.491  1.00  0.00     0.211 HD
ENDBRANCH   2  11
BRANCH   3  13
ATOM     13  C   UNL     1       3.940   9.644  11.582  1.00  0.00    -0.001 A 
ATOM     14  C   UNL     1       5.236   9.304  11.153  1.00  0.00     0.057 A 
ATOM     15  C   UNL     1       3.323   8.868  12.576  1.00  0.00     0.012 A 
ATOM     16  C   UNL     1       5.896   8.193  11.697  1.00  0.00     0.157 A 
ATOM     17  C   UNL     1       3.980   7.760  13.118  1.00  0.00     0.050 A 
ATOM     18  C   UNL     1       5.266   7.418  12.679  1.00  0.00     0.157 A 
BRANCH  16  19
ATOM     19  O   UNL     1       7.178   7.854  11.266  1.00  0.00    -0.504 OA
ATOM     20  H   UNL     1       7.389   6.930  10.907  1.00  0.00     0.293 HD
ENDBRANCH  16  19
BRANCH  18  21
ATOM     21  O   UNL     1       5.925   6.314  13.216  1.00  0.00    -0.504 OA
ATOM     22  H   UNL     1       5.762   5.377  12.865  1.00  0.00     0.293 HD
ENDBRANCH  18  21
ENDBRANCH   3  13
BRANCH   9  23
ATOM     23  O   UNL     1       0.381  15.197  10.876  1.00  0.00    -0.507 OA
ATOM     24  H   UNL     1      -0.322  14.776  11.469  1.00  0.00     0.293 HD
ENDBRANCH   9  23
BRANCH   7  25
ATOM     25  O   UNL     1       4.953  16.733  10.876  1.00  0.00    -0.508 OA
ATOM     26  H   UNL     1       4.662  17.698  10.983  1.00  0.00     0.293 HD
ENDBRANCH   7  25
TORSDOF 6
ENDMDL
MODEL 3
REMARK VINA RESULT:    -1.647      1.355      1.521
REMARK INTER + INTRA:          -1.921
REMARK INTER:                  -1.564
REMARK INTRA:                  -0.358
REMARK UNBOUND:                 0.062
REMARK SMILES Oc1cc(O)c2c(c1)O[C@@H](c1ccc(O)c(O)c1)[C@H](O)C2
REMARK SMILES IDX 21 1 19 2 10 3 9 4 7 5 8 6 2 7 3 8 4 9 6 10 20 11 11 13
REMARK SMILES IDX 18 14 12 15 16 16 13 17 14 18 17 19 15 21 5 23 1 25
REMARK H PARENT 20 12 17 20 15 22 5 24 1 26
REMARK Flexibility Score: inf
ROOT
ATOM      1  C   UNL     1       2.216   9.397  12.726  1.00  0.00     0.079 C 
ATOM      2  C   UNL     1       3.599   8.790  13.034  1.00  0.00     0.164 C 
ATOM      3  C   UNL     1       4.560   9.058  11.865  1.00  0.00     0.232 C 
ATOM      4  O   UNL     1       4.640  10.462  11.616  1.00  0.00    -0.482 OA
ATOM      5  C   UNL     1       3.524  11.300  11.701  1.00  0.00     0.131 A 
ATOM      6  C   UNL     1       3.634  12.623  11.263  1.00  0.00     0.093 A 
ATOM      7  C   UNL     1       2.533  13.479  11.319  1.00  0.00     0.122 A 
ATOM      8  C   UNL     1       1.309  13.006  11.807  1.00  0.00     0.092 A 
ATOM      9  C   UNL     1       1.180  11.684  12.249  1.00  0.00     0.126 A 
ATOM     10  C   UNL     1       2.306  10.826  12.234  1.00  0.00     0.039 A 
ENDROOT
BRANCH   2  11
ATOM     11  O   UNL     1       3.476   7.406  13.239  1.00  0.00    -0.389 OA
ATOM     12  H   UNL     1       2.612   7.263  13.706  1.00  0.00     0.211 HD
ENDBRANCH   2  11
BRANCH   3  13
ATOM     13  C   UNL     1       5.940   8.516  12.155  1.00  0.00    -0.001 A 
ATOM     14  C   UNL     1       6.622   8.887  13.328  1.00  0.00     0.057 A 
ATOM     15  C   UNL     1       6.536   7.595  11.279  1.00  0.00     0.012 A 
ATOM     16  C   UNL     1       7.890   8.360  13.610  1.00  0.00     0.157 A 
ATOM     17  C   UNL     1       7.802   7.070  11.559  1.00  0.00     0.050 A 
ATOM     18  C   UNL     1       8.482   7.452  12.723  1.00  0.00     0.157 A 
BRANCH  16  19
ATOM     19  O   UNL     1       8.568   8.735  14.769  1.00  0.00    -0.504 OA
ATOM     20  H   UNL     1       8.354   8.315  15.666  1.00  0.00     0.293 HD
ENDBRANCH  16  19
BRANCH  18  21
ATOM     21  O   UNL     1       9.744   6.932  13.006  1.00  0.00    -0.504 OA
ATOM     22  H   UNL     1       9.971   5.962  12.817  1.00  0.00     0.293 HD
ENDBRANCH  18  21
ENDBRANCH   3  13
BRANCH   9  23
ATOM     23  O   UNL     1      -0.077  11.258  12.683  1.00  0.00    -0.507 OA
ATOM     24  H   UNL     1      -0.333  11.187  13.659  1.00  0.00     0.293 HD
ENDBRANCH   9  23
BRANCH   7  25
ATOM     25  O   UNL     1       2.662  14.794  10.880  1.00  0.00    -0.508 OA
ATOM     26  H   UNL     1       3.553  15.164  10.570  1.00  0.00     0.293 HD
ENDBRANCH   7  25
TORSDOF 6
ENDMDL
MODEL 4
REMARK VINA RESULT:    -1.091      1.709      6.769
REMARK INTER + INTRA:          -1.252
REMARK INTER:                  -1.648
REMARK INTRA:                   0.396
REMARK UNBOUND:                 0.062
REMARK SMILES Oc1cc(O)c2c(c1)O[C@@H](c1ccc(O)c(O)c1)[C@H](O)C2
REMARK SMILES IDX 21 1 19 2 10 3 9 4 7 5 8 6 2 7 3 8 4 9 6 10 20 11 11 13
REMARK SMILES IDX 18 14 12 15 16 16 13 17 14 18 17 19 15 21 5 23 1 25
REMARK H PARENT 20 12 17 20 15 22 5 24 1 26
REMARK Flexibility Score: inf
ROOT
ATOM      1  C   UNL     1       4.414   7.723  11.709  1.00  0.00     0.079 C 
ATOM      2  C   UNL     1       3.891   9.112  11.295  1.00  0.00     0.164 C 
ATOM      3  C   UNL     1       4.108  10.114  12.441  1.00  0.00     0.232 C 
ATOM      4  O   UNL     1       5.490  10.152  12.797  1.00  0.00    -0.482 OA
ATOM      5  C   UNL     1       6.285   9.002  12.826  1.00  0.00     0.131 A 
ATOM      6  C   UNL     1       7.574   9.081  13.363  1.00  0.00     0.093 A 
ATOM      7  C   UNL     1       8.385   7.947  13.421  1.00  0.00     0.122 A 
ATOM      8  C   UNL     1       7.901   6.721  12.949  1.00  0.00     0.092 A 
ATOM      9  C   UNL     1       6.612   6.623  12.409  1.00  0.00     0.126 A 
ATOM     10  C   UNL     1       5.804   7.780  12.308  1.00  0.00     0.039 A 
ENDROOT
BRANCH   2  11
ATOM     11  O   UNL     1       2.524   9.033  10.987  1.00  0.00    -0.389 OA
ATOM     12  H   UNL     1       2.030   9.248  11.822  1.00  0.00     0.211 HD
ENDBRANCH   2  11
BRANCH   3  13
ATOM     13  C   UNL     1       3.647  11.499  12.051  1.00  0.00    -0.001 A 
ATOM     14  C   UNL     1       4.391  12.632  12.427  1.00  0.00     0.057 A 
ATOM     15  C   UNL     1       2.496  11.666  11.264  1.00  0.00     0.012 A 
ATOM     16  C   UNL     1       3.978  13.915  12.039  1.00  0.00     0.157 A 
ATOM     17  C   UNL     1       2.083  12.945  10.878  1.00  0.00     0.050 A 
ATOM     18  C   UNL     1       2.821  14.071  11.265  1.00  0.00     0.157 A 
BRANCH  16  19
ATOM     19  O   UNL     1       4.712  15.037  12.418  1.00  0.00    -0.504 OA
ATOM     20  H   UNL     1       4.361  15.693  13.106  1.00  0.00     0.293 HD
ENDBRANCH  16  19
BRANCH  18  21
ATOM     21  O   UNL     1       2.412  15.348  10.883  1.00  0.00    -0.504 OA
ATOM     22  H   UNL     1       3.082  16.093  10.725  1.00  0.00     0.293 HD
ENDBRANCH  18  21
ENDBRANCH   3  13
BRANCH   9  23
ATOM     23  O   UNL     1       6.169   5.365  11.997  1.00  0.00    -0.507 OA
ATOM     24  H   UNL     1       5.516   4.804  12.529  1.00  0.00     0.293 HD
ENDBRANCH   9  23
BRANCH   7  25
ATOM     25  O   UNL     1       9.666   8.046  13.957  1.00  0.00    -0.508 OA
ATOM     26  H   UNL     1       9.852   7.828  14.929  1.00  0.00     0.293 HD
ENDBRANCH   7  25
TORSDOF 6
ENDMDL
