MODEL 1
REMARK VINA RESULT:    -4.685      0.000      0.000
REMARK INTER + INTRA:          -7.413
REMARK INTER:                  -6.739
REMARK INTRA:                  -0.674
REMARK UNBOUND:                -0.674
REMARK SMILES CCCCCCCCCO
REMARK SMILES IDX 6 1 5 2 4 3 3 4 2 5 1 6 7 7 8 8 9 9 10 10
REMARK H PARENT 10 11
REMARK Flexibility Score: inf
ROOT
ATOM      1  C   UNL     1      22.009  -5.173  16.142  1.00  0.00     0.000 C 
ENDROOT
BRANCH   1   2
ATOM      2  C   UNL     1      21.806  -5.115  14.619  1.00  0.00     0.000 C 
BRANCH   2   3
ATOM      3  C   UNL     1      20.723  -4.107  14.207  1.00  0.00    -0.000 C 
BRANCH   3   4
ATOM      4  C   UNL     1      20.332  -3.209  15.387  1.00  0.00    -0.000 C 
BRANCH   4   5
ATOM      5  C   UNL     1      18.863  -3.418  15.775  1.00  0.00    -0.003 C 
ATOM      6  C   UNL     1      18.737  -3.897  17.217  1.00  0.00     0.004 C 
ENDBRANCH   4   5
ENDBRANCH   3   4
ENDBRANCH   2   3
ENDBRANCH   1   2
BRANCH   1   7
ATOM      7  C   UNL     1      21.454  -6.467  16.763  1.00  0.00     0.002 C 
BRANCH   7   8
ATOM      8  C   UNL     1      20.477  -7.207  15.833  1.00  0.00     0.028 C 
BRANCH   8   9
ATOM      9  C   UNL     1      19.097  -7.445  16.462  1.00  0.00     0.156 C 
BRANCH   9  10
ATOM     10  O   UNL     1      19.179  -7.505  17.861  1.00  0.00    -0.396 OA
ATOM     11  H   UNL     1      18.306  -7.849  18.183  1.00  0.00     0.210 HD
ENDBRANCH   9  10
ENDBRANCH   8   9
ENDBRANCH   7   8
ENDBRANCH   1   7
TORSDOF 8
ENDMDL
MODEL 2
REMARK VINA RESULT:    -4.501      2.147      3.101
REMARK INTER + INTRA:          -7.148
REMARK INTER:                  -6.425
REMARK INTRA:                  -0.724
REMARK UNBOUND:                -0.674
REMARK SMILES CCCCCCCCCO
REMARK SMILES IDX 6 1 5 2 4 3 3 4 2 5 1 6 7 7 8 8 9 9 10 10
REMARK H PARENT 10 11
REMARK Flexibility Score: inf
ROOT
ATOM      1  C   UNL     1      20.557  -6.983  15.863  1.00  0.00     0.000 C 
ENDROOT
BRANCH   1   2
ATOM      2  C   UNL     1      19.182  -6.355  16.143  1.00  0.00     0.000 C 
BRANCH   2   3
ATOM      3  C   UNL     1      18.641  -5.561  14.944  1.00  0.00    -0.000 C 
BRANCH   3   4
ATOM      4  C   UNL     1      18.258  -4.135  15.358  1.00  0.00    -0.000 C 
BRANCH   4   5
ATOM      5  C   UNL     1      19.124  -3.650  16.528  1.00  0.00    -0.003 C 
ATOM      6  C   UNL     1      20.086  -2.553  16.083  1.00  0.00     0.004 C 
ENDBRANCH   4   5
ENDBRANCH   3   4
ENDBRANCH   2   3
ENDBRANCH   1   2
BRANCH   1   7
ATOM      7  C   UNL     1      21.650  -6.461  16.813  1.00  0.00     0.002 C 
BRANCH   7   8
ATOM      8  C   UNL     1      22.550  -5.396  16.163  1.00  0.00     0.028 C 
BRANCH   8   9
ATOM      9  C   UNL     1      22.287  -5.208  14.662  1.00  0.00     0.156 C 
BRANCH   9  10
ATOM     10  O   UNL     1      23.331  -5.743  13.893  1.00  0.00    -0.396 OA
ATOM     11  H   UNL     1      23.374  -6.711  14.107  1.00  0.00     0.210 HD
ENDBRANCH   9  10
ENDBRANCH   8   9
ENDBRANCH   7   8
ENDBRANCH   1   7
TORSDOF 8
ENDMDL
MODEL 3
REMARK VINA RESULT:    -4.493      1.170      2.992
REMARK INTER + INTRA:          -7.136
REMARK INTER:                  -6.354
REMARK INTRA:                  -0.782
REMARK UNBOUND:                -0.674
REMARK SMILES CCCCCCCCCO
REMARK SMILES IDX 6 1 5 2 4 3 3 4 2 5 1 6 7 7 8 8 9 9 10 10
REMARK H PARENT 10 11
REMARK Flexibility Score: inf
ROOT
ATOM      1  C   UNL     1      19.016  -3.886  16.728  1.00  0.00     0.000 C 
ENDROOT
BRANCH   1   2
ATOM      2  C   UNL     1      19.943  -2.747  16.275  1.00  0.00     0.000 C 
BRANCH   2   3
ATOM      3  C   UNL     1      21.157  -3.255  15.482  1.00  0.00    -0.000 C 
BRANCH   3   4
ATOM      4  C   UNL     1      22.311  -3.624  16.423  1.00  0.00    -0.000 C 
BRANCH   4   5
ATOM      5  C   UNL     1      22.937  -4.967  16.026  1.00  0.00    -0.003 C 
ATOM      6  C   UNL     1      22.537  -5.363  14.608  1.00  0.00     0.004 C 
ENDBRANCH   4   5
ENDBRANCH   3   4
ENDBRANCH   2   3
ENDBRANCH   1   2
BRANCH   1   7
ATOM      7  C   UNL     1      18.635  -4.832  15.575  1.00  0.00     0.002 C 
BRANCH   7   8
ATOM      8  C   UNL     1      19.141  -6.269  15.788  1.00  0.00     0.028 C 
BRANCH   8   9
ATOM      9  C   UNL     1      19.783  -6.493  17.165  1.00  0.00     0.156 C 
BRANCH   9  10
ATOM     10  O   UNL     1      19.135  -7.521  17.866  1.00  0.00    -0.396 OA
ATOM     11  H   UNL     1      18.498  -7.083  18.488  1.00  0.00     0.210 HD
ENDBRANCH   9  10
ENDBRANCH   8   9
ENDBRANCH   7   8
ENDBRANCH   1   7
TORSDOF 8
ENDMDL
MODEL 4
REMARK VINA RESULT:    -4.481      2.597      3.552
REMARK INTER + INTRA:          -7.120
REMARK INTER:                  -6.604
REMARK INTRA:                  -0.516
REMARK UNBOUND:                -0.674
REMARK SMILES CCCCCCCCCO
REMARK SMILES IDX 6 1 5 2 4 3 3 4 2 5 1 6 7 7 8 8 9 9 10 10
REMARK H PARENT 10 11
REMARK Flexibility Score: inf
ROOT
ATOM      1  C   UNL     1      22.409  -5.298  14.627  1.00  0.00     0.000 C 
ENDROOT
BRANCH   1   2
ATOM      2  C   UNL     1      21.115  -6.045  14.990  1.00  0.00     0.000 C 
BRANCH   2   3
ATOM      3  C   UNL     1      19.853  -5.242  14.640  1.00  0.00    -0.000 C 
BRANCH   3   4
ATOM      4  C   UNL     1      20.173  -3.747  14.508  1.00  0.00    -0.000 C 
BRANCH   4   5
ATOM      5  C   UNL     1      19.706  -2.974  15.747  1.00  0.00    -0.003 C 
ATOM      6  C   UNL     1      18.957  -3.884  16.715  1.00  0.00     0.004 C 
ENDBRANCH   4   5
ENDBRANCH   3   4
ENDBRANCH   2   3
ENDBRANCH   1   2
BRANCH   1   7
ATOM      7  C   UNL     1      23.377  -5.180  15.818  1.00  0.00     0.002 C 
BRANCH   7   8
ATOM      8  C   UNL     1      23.145  -3.910  16.654  1.00  0.00     0.028 C 
BRANCH   8   9
ATOM      9  C   UNL     1      24.445  -3.261  17.152  1.00  0.00     0.156 C 
BRANCH   9  10
ATOM     10  O   UNL     1      24.681  -3.568  18.500  1.00  0.00    -0.396 OA
ATOM     11  H   UNL     1      25.055  -4.487  18.521  1.00  0.00     0.210 HD
ENDBRANCH   9  10
ENDBRANCH   8   9
ENDBRANCH   7   8
ENDBRANCH   1   7
TORSDOF 8
ENDMDL
MODEL 5
REMARK VINA RESULT:    -4.455      3.049      4.060
REMARK INTER + INTRA:          -7.082
REMARK INTER:                  -6.626
REMARK INTRA:                  -0.456
REMARK UNBOUND:                -0.674
REMARK SMILES CCCCCCCCCO
REMARK SMILES IDX 6 1 5 2 4 3 3 4 2 5 1 6 7 7 8 8 9 9 10 10
REMARK H PARENT 10 11
REMARK Flexibility Score: inf
ROOT
ATOM      1  C   UNL     1      22.524  -5.132  16.067  1.00  0.00     0.000 C 
ENDROOT
BRANCH   1   2
ATOM      2  C   UNL     1      21.951  -5.160  14.641  1.00  0.00     0.000 C 
BRANCH   2   3
ATOM      3  C   UNL     1      20.805  -4.155  14.447  1.00  0.00    -0.000 C 
BRANCH   3   4
ATOM      4  C   UNL     1      19.448  -4.805  14.748  1.00  0.00    -0.000 C 
BRANCH   4   5
ATOM      5  C   UNL     1      18.545  -3.852  15.539  1.00  0.00    -0.003 C 
ATOM      6  C   UNL     1      18.905  -3.853  17.021  1.00  0.00     0.004 C 
ENDBRANCH   4   5
ENDBRANCH   3   4
ENDBRANCH   2   3
ENDBRANCH   1   2
BRANCH   1   7
ATOM      7  C   UNL     1      22.852  -3.707  16.545  1.00  0.00     0.002 C 
BRANCH   7   8
ATOM      8  C   UNL     1      24.306  -3.556  17.025  1.00  0.00     0.028 C 
BRANCH   8   9
ATOM      9  C   UNL     1      24.771  -2.096  17.114  1.00  0.00     0.156 C 
BRANCH   9  10
ATOM     10  O   UNL     1      23.684  -1.225  17.277  1.00  0.00    -0.396 OA
ATOM     11  H   UNL     1      23.308  -1.406  18.178  1.00  0.00     0.210 HD
ENDBRANCH   9  10
ENDBRANCH   8   9
ENDBRANCH   7   8
ENDBRANCH   1   7
TORSDOF 8
ENDMDL
MODEL 6
REMARK VINA RESULT:    -4.428      1.865      3.038
REMARK INTER + INTRA:          -7.043
REMARK INTER:                  -6.695
REMARK INTRA:                  -0.348
REMARK UNBOUND:                -0.674
REMARK SMILES CCCCCCCCCO
REMARK SMILES IDX 6 1 5 2 4 3 3 4 2 5 1 6 7 7 8 8 9 9 10 10
REMARK H PARENT 10 11
REMARK Flexibility Score: inf
ROOT
ATOM      1  C   UNL     1      19.441  -7.045  17.258  1.00  0.00     0.000 C 
ENDROOT
BRANCH   1   2
ATOM      2  C   UNL     1      20.059  -5.681  16.908  1.00  0.00     0.000 C 
BRANCH   2   3
ATOM      3  C   UNL     1      19.129  -4.507  17.251  1.00  0.00    -0.000 C 
BRANCH   3   4
ATOM      4  C   UNL     1      19.033  -3.523  16.078  1.00  0.00    -0.000 C 
BRANCH   4   5
ATOM      5  C   UNL     1      19.270  -4.236  14.741  1.00  0.00    -0.003 C 
ATOM      6  C   UNL     1      20.487  -3.665  14.021  1.00  0.00     0.004 C 
ENDBRANCH   4   5
ENDBRANCH   3   4
ENDBRANCH   2   3
ENDBRANCH   1   2
BRANCH   1   7
ATOM      7  C   UNL     1      18.770  -7.718  16.048  1.00  0.00     0.002 C 
BRANCH   7   8
ATOM      8  C   UNL     1      18.201  -9.108  16.376  1.00  0.00     0.028 C 
BRANCH   8   9
ATOM      9  C   UNL     1      18.567 -10.179  15.338  1.00  0.00     0.156 C 
BRANCH   9  10
ATOM     10  O   UNL     1      19.948 -10.196  15.092  1.00  0.00    -0.396 OA
ATOM     11  H   UNL     1      20.112  -9.564  14.345  1.00  0.00     0.210 HD
ENDBRANCH   9  10
ENDBRANCH   8   9
ENDBRANCH   7   8
ENDBRANCH   1   7
TORSDOF 8
ENDMDL
MODEL 7
REMARK VINA RESULT:    -4.417      2.090      3.766
REMARK INTER + INTRA:          -7.028
REMARK INTER:                  -6.289
REMARK INTRA:                  -0.739
REMARK UNBOUND:                -0.674
REMARK SMILES CCCCCCCCCO
REMARK SMILES IDX 6 1 5 2 4 3 3 4 2 5 1 6 7 7 8 8 9 9 10 10
REMARK H PARENT 10 11
REMARK Flexibility Score: inf
ROOT
ATOM      1  C   UNL     1      19.844  -2.627  16.503  1.00  0.00     0.000 C 
ENDROOT
BRANCH   1   2
ATOM      2  C   UNL     1      18.886  -3.828  16.557  1.00  0.00     0.000 C 
BRANCH   2   3
ATOM      3  C   UNL     1      18.415  -4.270  15.163  1.00  0.00    -0.000 C 
BRANCH   3   4
ATOM      4  C   UNL     1      18.521  -5.792  15.005  1.00  0.00    -0.000 C 
BRANCH   4   5
ATOM      5  C   UNL     1      19.184  -6.427  16.233  1.00  0.00    -0.003 C 
ATOM      6  C   UNL     1      18.801  -7.898  16.368  1.00  0.00     0.004 C 
ENDBRANCH   4   5
ENDBRANCH   3   4
ENDBRANCH   2   3
ENDBRANCH   1   2
BRANCH   1   7
ATOM      7  C   UNL     1      21.075  -2.892  15.619  1.00  0.00     0.002 C 
BRANCH   7   8
ATOM      8  C   UNL     1      22.030  -3.937  16.220  1.00  0.00     0.028 C 
BRANCH   8   9
ATOM      9  C   UNL     1      22.425  -5.044  15.231  1.00  0.00     0.156 C 
BRANCH   9  10
ATOM     10  O   UNL     1      21.756  -4.894  14.008  1.00  0.00    -0.396 OA
ATOM     11  H   UNL     1      20.797  -4.757  14.224  1.00  0.00     0.210 HD
ENDBRANCH   9  10
ENDBRANCH   8   9
ENDBRANCH   7   8
ENDBRANCH   1   7
TORSDOF 8
ENDMDL
MODEL 8
REMARK VINA RESULT:    -4.326      2.771      3.568
REMARK INTER + INTRA:          -6.897
REMARK INTER:                  -6.509
REMARK INTRA:                  -0.388
REMARK UNBOUND:                -0.674
REMARK SMILES CCCCCCCCCO
REMARK SMILES IDX 6 1 5 2 4 3 3 4 2 5 1 6 7 7 8 8 9 9 10 10
REMARK H PARENT 10 11
REMARK Flexibility Score: inf
ROOT
ATOM      1  C   UNL     1      22.200  -4.340  16.301  1.00  0.00     0.000 C 
ENDROOT
BRANCH   1   2
ATOM      2  C   UNL     1      21.787  -4.940  14.947  1.00  0.00     0.000 C 
BRANCH   2   3
ATOM      3  C   UNL     1      20.692  -4.118  14.248  1.00  0.00    -0.000 C 
BRANCH   3   4
ATOM      4  C   UNL     1      20.080  -3.091  15.209  1.00  0.00    -0.000 C 
BRANCH   4   5
ATOM      5  C   UNL     1      18.675  -3.519  15.650  1.00  0.00    -0.003 C 
ATOM      6  C   UNL     1      18.674  -3.996  17.099  1.00  0.00     0.004 C 
ENDBRANCH   4   5
ENDBRANCH   3   4
ENDBRANCH   2   3
ENDBRANCH   1   2
BRANCH   1   7
ATOM      7  C   UNL     1      23.725  -4.181  16.436  1.00  0.00     0.002 C 
BRANCH   7   8
ATOM      8  C   UNL     1      24.487  -5.499  16.211  1.00  0.00     0.028 C 
BRANCH   8   9
ATOM      9  C   UNL     1      25.440  -5.455  15.008  1.00  0.00     0.156 C 
BRANCH   9  10
ATOM     10  O   UNL     1      24.841  -6.004  13.865  1.00  0.00    -0.396 OA
ATOM     11  H   UNL     1      25.515  -6.602  13.450  1.00  0.00     0.210 HD
ENDBRANCH   9  10
ENDBRANCH   8   9
ENDBRANCH   7   8
ENDBRANCH   1   7
TORSDOF 8
ENDMDL
MODEL 9
REMARK VINA RESULT:    -4.272      1.911      4.042
REMARK INTER + INTRA:          -6.818
REMARK INTER:                  -6.395
REMARK INTRA:                  -0.423
REMARK UNBOUND:                -0.674
REMARK SMILES CCCCCCCCCO
REMARK SMILES IDX 6 1 5 2 4 3 3 4 2 5 1 6 7 7 8 8 9 9 10 10
REMARK H PARENT 10 11
REMARK Flexibility Score: inf
ROOT
ATOM      1  C   UNL     1      20.605  -4.264  14.257  1.00  0.00     0.000 C 
ENDROOT
BRANCH   1   2
ATOM      2  C   UNL     1      21.907  -4.826  14.849  1.00  0.00     0.000 C 
BRANCH   2   3
ATOM      3  C   UNL     1      22.301  -4.137  16.165  1.00  0.00    -0.000 C 
BRANCH   3   4
ATOM      4  C   UNL     1      23.762  -4.436  16.524  1.00  0.00    -0.000 C 
BRANCH   4   5
ATOM      5  C   UNL     1      24.437  -5.275  15.431  1.00  0.00    -0.003 C 
ATOM      6  C   UNL     1      25.952  -5.102  15.461  1.00  0.00     0.004 C 
ENDBRANCH   4   5
ENDBRANCH   3   4
ENDBRANCH   2   3
ENDBRANCH   1   2
BRANCH   1   7
ATOM      7  C   UNL     1      19.349  -4.874  14.905  1.00  0.00     0.002 C 
BRANCH   7   8
ATOM      8  C   UNL     1      18.503  -3.836  15.663  1.00  0.00     0.028 C 
BRANCH   8   9
ATOM      9  C   UNL     1      18.694  -3.886  17.185  1.00  0.00     0.156 C 
BRANCH   9  10
ATOM     10  O   UNL     1      19.192  -5.132  17.594  1.00  0.00    -0.396 OA
ATOM     11  H   UNL     1      19.513  -5.019  18.526  1.00  0.00     0.210 HD
ENDBRANCH   9  10
ENDBRANCH   8   9
ENDBRANCH   7   8
ENDBRANCH   1   7
TORSDOF 8
ENDMDL
