MODEL 1
REMARK VINA RESULT:    -7.211      0.000      0.000
REMARK INTER + INTRA:         -12.028
REMARK INTER:                 -11.216
REMARK INTRA:                  -0.812
REMARK UNBOUND:                -0.812
REMARK SMILES C[C@@]12C[C@@H](O)[C@H]3C[C@]1(O[C@H]1O[C@@H](CO)[C@H](O)[C@@H](O)[C@@H]1O)[C@@]3(COC(=O)c1ccccc1)C(=O)O2
REMARK SMILES IDX 1 1 2 2 3 3 4 4 6 5 7 6 8 7 21 8 32 9 33 10 34 11 9 12 10 13
REMARK SMILES IDX 19 14 11 15 17 16 12 17 15 18 20 19 18 21 13 23 14 24 16 26
REMARK SMILES IDX 5 28 22 30 23 31 24 32 25 33 26 34 27 35 31 36 28 37 30 38
REMARK SMILES IDX 29 39
REMARK H PARENT 20 20 18 22 14 25 16 27 5 29
REMARK Flexibility Score: inf
ROOT
ATOM      1  C   UNL     1     -19.071  10.314  -8.594  1.00  0.00     0.060 C 
ATOM      2  C   UNL     1     -18.197  11.265  -9.408  1.00  0.00     0.142 C 
ATOM      3  C   UNL     1     -18.880  11.667 -10.760  1.00  0.00     0.083 C 
ATOM      4  C   UNL     1     -18.105  12.848 -11.451  1.00  0.00     0.123 C 
ATOM      5  C   UNL     1     -17.418  13.758 -10.380  1.00  0.00     0.045 C 
ATOM      6  C   UNL     1     -18.372  13.879  -9.185  1.00  0.00     0.049 C 
ATOM      7  C   UNL     1     -17.723  12.579  -8.656  1.00  0.00     0.131 C 
ATOM      8  C   UNL     1     -16.463  12.913  -9.481  1.00  0.00     0.140 C 
ATOM      9  C   UNL     1     -16.012  11.573  -9.963  1.00  0.00     0.319 C 
ATOM     10  O   UNL     1     -14.901  11.323 -10.490  1.00  0.00    -0.251 OA
ATOM     11  O   UNL     1     -16.985  10.618  -9.771  1.00  0.00    -0.456 OA
ENDROOT
BRANCH   7  12
ATOM     12  O   UNL     1     -17.434  12.425  -7.267  1.00  0.00    -0.338 OA
BRANCH  12  13
ATOM     13  C   UNL     1     -18.305  13.128  -6.377  1.00  0.00     0.282 C 
ATOM     14  C   UNL     1     -17.534  14.415  -5.906  1.00  0.00     0.202 C 
ATOM     15  O   UNL     1     -18.637  12.257  -5.305  1.00  0.00    -0.341 OA
ATOM     16  C   UNL     1     -16.922  14.201  -4.517  1.00  0.00     0.179 C 
ATOM     17  C   UNL     1     -19.145  12.969  -4.192  1.00  0.00     0.178 C 
ATOM     18  C   UNL     1     -18.016  13.780  -3.489  1.00  0.00     0.177 C 
BRANCH  14  19
ATOM     19  O   UNL     1     -18.311  15.593  -5.882  1.00  0.00    -0.385 OA
ATOM     20  H   UNL     1     -17.721  16.387  -5.800  1.00  0.00     0.211 HD
ENDBRANCH  14  19
BRANCH  16  21
ATOM     21  O   UNL     1     -15.857  13.283  -4.629  1.00  0.00    -0.387 OA
ATOM     22  H   UNL     1     -16.152  12.388  -4.323  1.00  0.00     0.211 HD
ENDBRANCH  16  21
BRANCH  17  23
ATOM     23  C   UNL     1     -19.823  11.983  -3.233  1.00  0.00     0.191 C 
BRANCH  23  24
ATOM     24  O   UNL     1     -19.252  10.703  -3.344  1.00  0.00    -0.394 OA
ATOM     25  H   UNL     1     -18.309  10.800  -3.044  1.00  0.00     0.210 HD
ENDBRANCH  23  24
ENDBRANCH  17  23
BRANCH  18  26
ATOM     26  O   UNL     1     -18.554  14.936  -2.891  1.00  0.00    -0.387 OA
ATOM     27  H   UNL     1     -19.149  14.630  -2.157  1.00  0.00     0.211 HD
ENDBRANCH  18  26
ENDBRANCH  12  13
ENDBRANCH   7  12
BRANCH   4  28
ATOM     28  O   UNL     1     -18.963  13.603 -12.270  1.00  0.00    -0.393 OA
ATOM     29  H   UNL     1     -19.637  14.005 -11.651  1.00  0.00     0.210 HD
ENDBRANCH   4  28
BRANCH   8  30
ATOM     30  C   UNL     1     -15.388  13.727  -8.710  1.00  0.00     0.255 C 
BRANCH  30  31
ATOM     31  O   UNL     1     -14.868  14.808  -9.481  1.00  0.00    -0.461 OA
BRANCH  31  32
ATOM     32  C   UNL     1     -14.107  15.860  -8.957  1.00  0.00     0.338 C 
ATOM     33  O   UNL     1     -13.393  16.570  -9.719  1.00  0.00    -0.246 OA
BRANCH  32  34
ATOM     34  C   UNL     1     -14.174  16.158  -7.508  1.00  0.00     0.060 A 
ATOM     35  C   UNL     1     -15.178  17.017  -7.010  1.00  0.00     0.015 A 
ATOM     36  C   UNL     1     -13.211  15.648  -6.615  1.00  0.00     0.015 A 
ATOM     37  C   UNL     1     -15.205  17.360  -5.654  1.00  0.00     0.001 A 
ATOM     38  C   UNL     1     -13.242  15.996  -5.257  1.00  0.00     0.001 A 
ATOM     39  C   UNL     1     -14.230  16.859  -4.780  1.00  0.00     0.000 A 
ENDBRANCH  32  34
ENDBRANCH  31  32
ENDBRANCH  30  31
ENDBRANCH   8  30
TORSDOF 12
ENDMDL
MODEL 2
REMARK VINA RESULT:    -6.606      2.241      5.014
REMARK INTER + INTRA:         -11.087
REMARK INTER:                  -9.814
REMARK INTRA:                  -1.274
REMARK UNBOUND:                -0.812
REMARK SMILES C[C@@]12C[C@@H](O)[C@H]3C[C@]1(O[C@H]1O[C@@H](CO)[C@H](O)[C@@H](O)[C@@H]1O)[C@@]3(COC(=O)c1ccccc1)C(=O)O2
REMARK SMILES IDX 1 1 2 2 3 3 4 4 6 5 7 6 8 7 21 8 32 9 33 10 34 11 9 12 10 13
REMARK SMILES IDX 19 14 11 15 17 16 12 17 15 18 20 19 18 21 13 23 14 24 16 26
REMARK SMILES IDX 5 28 22 30 23 31 24 32 25 33 26 34 27 35 31 36 28 37 30 38
REMARK SMILES IDX 29 39
REMARK H PARENT 20 20 18 22 14 25 16 27 5 29
REMARK Flexibility Score: inf
ROOT
ATOM      1  C   UNL     1     -14.954  11.692  -9.844  1.00  0.00     0.060 C 
ATOM      2  C   UNL     1     -16.467  11.893  -9.858  1.00  0.00     0.142 C 
ATOM      3  C   UNL     1     -17.222  10.664  -9.244  1.00  0.00     0.083 C 
ATOM      4  C   UNL     1     -18.741  10.996  -9.012  1.00  0.00     0.123 C 
ATOM      5  C   UNL     1     -18.934  12.521  -8.722  1.00  0.00     0.045 C 
ATOM      6  C   UNL     1     -17.763  12.984  -7.847  1.00  0.00     0.049 C 
ATOM      7  C   UNL     1     -16.993  13.220  -9.167  1.00  0.00     0.131 C 
ATOM      8  C   UNL     1     -18.347  13.374  -9.889  1.00  0.00     0.140 C 
ATOM      9  C   UNL     1     -18.099  12.721 -11.210  1.00  0.00     0.319 C 
ATOM     10  O   UNL     1     -18.848  12.799 -12.214  1.00  0.00    -0.251 OA
ATOM     11  O   UNL     1     -16.931  11.993 -11.198  1.00  0.00    -0.456 OA
ENDROOT
BRANCH   7  12
ATOM     12  O   UNL     1     -16.162  14.370  -9.327  1.00  0.00    -0.338 OA
BRANCH  12  13
ATOM     13  C   UNL     1     -15.851  15.075  -8.122  1.00  0.00     0.282 C 
ATOM     14  C   UNL     1     -15.385  16.517  -8.544  1.00  0.00     0.202 C 
ATOM     15  O   UNL     1     -14.844  14.347  -7.433  1.00  0.00    -0.341 OA
ATOM     16  C   UNL     1     -13.856  16.615  -8.538  1.00  0.00     0.179 C 
ATOM     17  C   UNL     1     -14.192  15.148  -6.465  1.00  0.00     0.178 C 
ATOM     18  C   UNL     1     -13.281  16.211  -7.147  1.00  0.00     0.177 C 
BRANCH  14  19
ATOM     19  O   UNL     1     -15.910  17.561  -7.753  1.00  0.00    -0.385 OA
ATOM     20  H   UNL     1     -16.871  17.693  -7.960  1.00  0.00     0.211 HD
ENDBRANCH  14  19
BRANCH  16  21
ATOM     21  O   UNL     1     -13.350  15.851  -9.610  1.00  0.00    -0.387 OA
ATOM     22  H   UNL     1     -13.491  14.886  -9.432  1.00  0.00     0.211 HD
ENDBRANCH  16  21
BRANCH  17  23
ATOM     23  C   UNL     1     -13.400  14.241  -5.515  1.00  0.00     0.191 C 
BRANCH  23  24
ATOM     24  O   UNL     1     -12.184  14.843  -5.144  1.00  0.00    -0.394 OA
ATOM     25  H   UNL     1     -11.470  14.285  -5.554  1.00  0.00     0.210 HD
ENDBRANCH  23  24
ENDBRANCH  17  23
BRANCH  18  26
ATOM     26  O   UNL     1     -13.191  17.360  -6.336  1.00  0.00    -0.387 OA
ATOM     27  H   UNL     1     -13.452  17.085  -5.417  1.00  0.00     0.211 HD
ENDBRANCH  18  26
ENDBRANCH  12  13
ENDBRANCH   7  12
BRANCH   4  28
ATOM     28  O   UNL     1     -19.272  10.219  -7.968  1.00  0.00    -0.393 OA
ATOM     29  H   UNL     1     -19.723   9.445  -8.413  1.00  0.00     0.210 HD
ENDBRANCH   4  28
BRANCH   8  30
ATOM     30  C   UNL     1     -18.871  14.834  -9.969  1.00  0.00     0.255 C 
BRANCH  30  31
ATOM     31  O   UNL     1     -20.163  14.981  -9.386  1.00  0.00    -0.461 OA
BRANCH  31  32
ATOM     32  C   UNL     1     -20.480  15.909  -8.386  1.00  0.00     0.338 C 
ATOM     33  O   UNL     1     -21.125  16.957  -8.671  1.00  0.00    -0.246 OA
BRANCH  32  34
ATOM     34  C   UNL     1     -20.088  15.633  -6.985  1.00  0.00     0.060 A 
ATOM     35  C   UNL     1     -18.943  16.251  -6.438  1.00  0.00     0.015 A 
ATOM     36  C   UNL     1     -20.804  14.709  -6.198  1.00  0.00     0.015 A 
ATOM     37  C   UNL     1     -18.525  15.940  -5.140  1.00  0.00     0.001 A 
ATOM     38  C   UNL     1     -20.380  14.400  -4.897  1.00  0.00     0.001 A 
ATOM     39  C   UNL     1     -19.236  15.006  -4.374  1.00  0.00     0.000 A 
ENDBRANCH  32  34
ENDBRANCH  31  32
ENDBRANCH  30  31
ENDBRANCH   8  30
TORSDOF 12
ENDMDL
MODEL 3
REMARK VINA RESULT:    -6.403      1.779      5.814
REMARK INTER + INTRA:         -10.771
REMARK INTER:                 -10.472
REMARK INTRA:                  -0.299
REMARK UNBOUND:                -0.812
REMARK SMILES C[C@@]12C[C@@H](O)[C@H]3C[C@]1(O[C@H]1O[C@@H](CO)[C@H](O)[C@@H](O)[C@@H]1O)[C@@]3(COC(=O)c1ccccc1)C(=O)O2
REMARK SMILES IDX 1 1 2 2 3 3 4 4 6 5 7 6 8 7 21 8 32 9 33 10 34 11 9 12 10 13
REMARK SMILES IDX 19 14 11 15 17 16 12 17 15 18 20 19 18 21 13 23 14 24 16 26
REMARK SMILES IDX 5 28 22 30 23 31 24 32 25 33 26 34 27 35 31 36 28 37 30 38
REMARK SMILES IDX 29 39
REMARK H PARENT 20 20 18 22 14 25 16 27 5 29
REMARK Flexibility Score: inf
ROOT
ATOM      1  C   UNL     1     -15.891  17.861  -4.949  1.00  0.00     0.060 C 
ATOM      2  C   UNL     1     -15.119  16.960  -5.909  1.00  0.00     0.142 C 
ATOM      3  C   UNL     1     -13.671  16.662  -5.388  1.00  0.00     0.083 C 
ATOM      4  C   UNL     1     -12.993  15.524  -6.235  1.00  0.00     0.123 C 
ATOM      5  C   UNL     1     -14.069  14.532  -6.788  1.00  0.00     0.045 C 
ATOM      6  C   UNL     1     -15.132  14.339  -5.699  1.00  0.00     0.049 C 
ATOM      7  C   UNL     1     -15.825  15.591  -6.286  1.00  0.00     0.131 C 
ATOM      8  C   UNL     1     -15.132  15.300  -7.633  1.00  0.00     0.140 C 
ATOM      9  C   UNL     1     -14.803  16.666  -8.143  1.00  0.00     0.319 C 
ATOM     10  O   UNL     1     -14.429  16.938  -9.309  1.00  0.00    -0.251 OA
ATOM     11  O   UNL     1     -14.947  17.616  -7.158  1.00  0.00    -0.456 OA
ENDROOT
BRANCH   7  12
ATOM     12  O   UNL     1     -17.246  15.642  -6.410  1.00  0.00    -0.338 OA
BRANCH  12  13
ATOM     13  C   UNL     1     -17.962  14.631  -5.696  1.00  0.00     0.282 C 
ATOM     14  C   UNL     1     -18.295  13.492  -6.728  1.00  0.00     0.202 C 
ATOM     15  O   UNL     1     -19.123  15.227  -5.134  1.00  0.00    -0.341 OA
ATOM     16  C   UNL     1     -19.740  13.618  -7.225  1.00  0.00     0.179 C 
ATOM     17  C   UNL     1     -20.084  14.253  -4.767  1.00  0.00     0.178 C 
ATOM     18  C   UNL     1     -20.739  13.617  -6.029  1.00  0.00     0.177 C 
BRANCH  14  19
ATOM     19  O   UNL     1     -18.094  12.181  -6.246  1.00  0.00    -0.385 OA
ATOM     20  H   UNL     1     -17.216  12.120  -5.789  1.00  0.00     0.211 HD
ENDBRANCH  14  19
BRANCH  16  21
ATOM     21  O   UNL     1     -19.836  14.758  -8.051  1.00  0.00    -0.387 OA
ATOM     22  H   UNL     1     -19.441  15.541  -7.591  1.00  0.00     0.211 HD
ENDBRANCH  16  21
BRANCH  17  23
ATOM     23  C   UNL     1     -21.125  14.899  -3.845  1.00  0.00     0.191 C 
BRANCH  23  24
ATOM     24  O   UNL     1     -20.623  16.083  -3.275  1.00  0.00    -0.394 OA
ATOM     25  H   UNL     1     -20.608  15.924  -2.292  1.00  0.00     0.210 HD
ENDBRANCH  23  24
ENDBRANCH  17  23
BRANCH  18  26
ATOM     26  O   UNL     1     -21.125  12.291  -5.753  1.00  0.00    -0.387 OA
ATOM     27  H   UNL     1     -21.865  12.071  -6.378  1.00  0.00     0.211 HD
ENDBRANCH  18  26
ENDBRANCH  12  13
ENDBRANCH   7  12
BRANCH   4  28
ATOM     28  O   UNL     1     -12.027  14.840  -5.476  1.00  0.00    -0.393 OA
ATOM     29  H   UNL     1     -11.688  14.111  -6.070  1.00  0.00     0.210 HD
ENDBRANCH   4  28
BRANCH   8  30
ATOM     30  C   UNL     1     -15.963  14.421  -8.607  1.00  0.00     0.255 C 
BRANCH  30  31
ATOM     31  O   UNL     1     -15.141  13.661  -9.490  1.00  0.00    -0.461 OA
BRANCH  31  32
ATOM     32  C   UNL     1     -15.626  12.860 -10.531  1.00  0.00     0.338 C 
ATOM     33  O   UNL     1     -14.839  12.420 -11.415  1.00  0.00    -0.246 OA
BRANCH  32  34
ATOM     34  C   UNL     1     -17.062  12.500 -10.566  1.00  0.00     0.060 A 
ATOM     35  C   UNL     1     -17.557  11.488  -9.715  1.00  0.00     0.015 A 
ATOM     36  C   UNL     1     -17.941  13.108 -11.483  1.00  0.00     0.015 A 
ATOM     37  C   UNL     1     -18.896  11.093  -9.793  1.00  0.00     0.001 A 
ATOM     38  C   UNL     1     -19.283  12.707 -11.558  1.00  0.00     0.001 A 
ATOM     39  C   UNL     1     -19.757  11.694 -10.723  1.00  0.00     0.000 A 
ENDBRANCH  32  34
ENDBRANCH  31  32
ENDBRANCH  30  31
ENDBRANCH   8  30
TORSDOF 12
ENDMDL
MODEL 4
REMARK VINA RESULT:    -6.310      1.813      6.426
REMARK INTER + INTRA:         -10.627
REMARK INTER:                 -10.534
REMARK INTRA:                  -0.092
REMARK UNBOUND:                -0.812
REMARK SMILES C[C@@]12C[C@@H](O)[C@H]3C[C@]1(O[C@H]1O[C@@H](CO)[C@H](O)[C@@H](O)[C@@H]1O)[C@@]3(COC(=O)c1ccccc1)C(=O)O2
REMARK SMILES IDX 1 1 2 2 3 3 4 4 6 5 7 6 8 7 21 8 32 9 33 10 34 11 9 12 10 13
REMARK SMILES IDX 19 14 11 15 17 16 12 17 15 18 20 19 18 21 13 23 14 24 16 26
REMARK SMILES IDX 5 28 22 30 23 31 24 32 25 33 26 34 27 35 31 36 28 37 30 38
REMARK SMILES IDX 29 39
REMARK H PARENT 20 20 18 22 14 25 16 27 5 29
REMARK Flexibility Score: inf
ROOT
ATOM      1  C   UNL     1     -14.673  16.962  -9.142  1.00  0.00     0.060 C 
ATOM      2  C   UNL     1     -14.761  17.000  -7.618  1.00  0.00     0.142 C 
ATOM      3  C   UNL     1     -15.567  18.245  -7.114  1.00  0.00     0.083 C 
ATOM      4  C   UNL     1     -15.885  18.125  -5.579  1.00  0.00     0.123 C 
ATOM      5  C   UNL     1     -16.018  16.624  -5.159  1.00  0.00     0.045 C 
ATOM      6  C   UNL     1     -16.737  15.882  -6.293  1.00  0.00     0.049 C 
ATOM      7  C   UNL     1     -15.341  15.694  -6.929  1.00  0.00     0.131 C 
ATOM      8  C   UNL     1     -14.720  15.840  -5.525  1.00  0.00     0.140 C 
ATOM      9  C   UNL     1     -13.463  16.604  -5.791  1.00  0.00     0.319 C 
ATOM     10  O   UNL     1     -12.522  16.767  -4.978  1.00  0.00    -0.251 OA
ATOM     11  O   UNL     1     -13.461  17.137  -7.061  1.00  0.00    -0.456 OA
ENDROOT
BRANCH   7  12
ATOM     12  O   UNL     1     -14.987  14.459  -7.550  1.00  0.00    -0.338 OA
BRANCH  12  13
ATOM     13  C   UNL     1     -15.629  14.194  -8.800  1.00  0.00     0.282 C 
ATOM     14  C   UNL     1     -17.178  14.292  -8.549  1.00  0.00     0.202 C 
ATOM     15  O   UNL     1     -15.219  12.907  -9.242  1.00  0.00    -0.341 OA
ATOM     16  C   UNL     1     -17.788  12.896  -8.382  1.00  0.00     0.179 C 
ATOM     17  C   UNL     1     -16.090  12.394 -10.233  1.00  0.00     0.178 C 
ATOM     18  C   UNL     1     -17.464  11.999  -9.614  1.00  0.00     0.177 C 
BRANCH  14  19
ATOM     19  O   UNL     1     -17.896  14.983  -9.548  1.00  0.00    -0.385 OA
ATOM     20  H   UNL     1     -18.841  14.683  -9.556  1.00  0.00     0.211 HD
ENDBRANCH  14  19
BRANCH  16  21
ATOM     21  O   UNL     1     -17.356  12.358  -7.152  1.00  0.00    -0.387 OA
ATOM     22  H   UNL     1     -16.759  11.584  -7.315  1.00  0.00     0.211 HD
ENDBRANCH  16  21
BRANCH  17  23
ATOM     23  C   UNL     1     -15.413  11.207 -10.929  1.00  0.00     0.191 C 
BRANCH  23  24
ATOM     24  O   UNL     1     -15.082  10.204 -10.000  1.00  0.00    -0.394 OA
ATOM     25  H   UNL     1     -15.552   9.383 -10.308  1.00  0.00     0.210 HD
ENDBRANCH  23  24
ENDBRANCH  17  23
BRANCH  18  26
ATOM     26  O   UNL     1     -18.484  12.148 -10.573  1.00  0.00    -0.387 OA
ATOM     27  H   UNL     1     -18.253  11.554 -11.336  1.00  0.00     0.211 HD
ENDBRANCH  18  26
ENDBRANCH  12  13
ENDBRANCH   7  12
BRANCH   4  28
ATOM     28  O   UNL     1     -17.049  18.841  -5.248  1.00  0.00    -0.393 OA
ATOM     29  H   UNL     1     -17.220  18.640  -4.283  1.00  0.00     0.210 HD
ENDBRANCH   4  28
BRANCH   8  30
ATOM     30  C   UNL     1     -14.521  14.499  -4.767  1.00  0.00     0.255 C 
BRANCH  30  31
ATOM     31  O   UNL     1     -15.296  14.430  -3.573  1.00  0.00    -0.461 OA
BRANCH  31  32
ATOM     32  C   UNL     1     -16.253  13.442  -3.306  1.00  0.00     0.338 C 
ATOM     33  O   UNL     1     -15.891  12.280  -2.967  1.00  0.00    -0.246 OA
BRANCH  32  34
ATOM     34  C   UNL     1     -17.692  13.781  -3.386  1.00  0.00     0.060 A 
ATOM     35  C   UNL     1     -18.154  15.018  -2.888  1.00  0.00     0.015 A 
ATOM     36  C   UNL     1     -18.628  12.859  -3.895  1.00  0.00     0.015 A 
ATOM     37  C   UNL     1     -19.522  15.315  -2.894  1.00  0.00     0.001 A 
ATOM     38  C   UNL     1     -19.998  13.162  -3.898  1.00  0.00     0.001 A 
ATOM     39  C   UNL     1     -20.444  14.382  -3.389  1.00  0.00     0.000 A 
ENDBRANCH  32  34
ENDBRANCH  31  32
ENDBRANCH  30  31
ENDBRANCH   8  30
TORSDOF 12
ENDMDL
MODEL 5
REMARK VINA RESULT:    -6.308      2.019      5.394
REMARK INTER + INTRA:         -10.623
REMARK INTER:                  -9.746
REMARK INTRA:                  -0.877
REMARK UNBOUND:                -0.812
REMARK SMILES C[C@@]12C[C@@H](O)[C@H]3C[C@]1(O[C@H]1O[C@@H](CO)[C@H](O)[C@@H](O)[C@@H]1O)[C@@]3(COC(=O)c1ccccc1)C(=O)O2
REMARK SMILES IDX 1 1 2 2 3 3 4 4 6 5 7 6 8 7 21 8 32 9 33 10 34 11 9 12 10 13
REMARK SMILES IDX 19 14 11 15 17 16 12 17 15 18 20 19 18 21 13 23 14 24 16 26
REMARK SMILES IDX 5 28 22 30 23 31 24 32 25 33 26 34 27 35 31 36 28 37 30 38
REMARK SMILES IDX 29 39
REMARK H PARENT 20 20 18 22 14 25 16 27 5 29
REMARK Flexibility Score: inf
ROOT
ATOM      1  C   UNL     1     -16.638  12.876 -11.111  1.00  0.00     0.060 C 
ATOM      2  C   UNL     1     -17.925  12.732 -10.303  1.00  0.00     0.142 C 
ATOM      3  C   UNL     1     -18.321  11.229 -10.104  1.00  0.00     0.083 C 
ATOM      4  C   UNL     1     -19.479  11.088  -9.049  1.00  0.00     0.123 C 
ATOM      5  C   UNL     1     -19.406  12.240  -7.994  1.00  0.00     0.045 C 
ATOM      6  C   UNL     1     -17.926  12.500  -7.684  1.00  0.00     0.049 C 
ATOM      7  C   UNL     1     -17.939  13.462  -8.895  1.00  0.00     0.131 C 
ATOM      8  C   UNL     1     -19.460  13.630  -8.701  1.00  0.00     0.140 C 
ATOM      9  C   UNL     1     -19.971  13.709 -10.103  1.00  0.00     0.319 C 
ATOM     10  O   UNL     1     -21.125  14.066 -10.440  1.00  0.00    -0.251 OA
ATOM     11  O   UNL     1     -19.009  13.322 -11.009  1.00  0.00    -0.456 OA
ENDROOT
BRANCH   7  12
ATOM     12  O   UNL     1     -17.247  14.709  -8.838  1.00  0.00    -0.338 OA
BRANCH  12  13
ATOM     13  C   UNL     1     -15.881  14.635  -8.423  1.00  0.00     0.282 C 
ATOM     14  C   UNL     1     -15.851  14.978  -6.888  1.00  0.00     0.202 C 
ATOM     15  O   UNL     1     -15.131  15.550  -9.209  1.00  0.00    -0.341 OA
ATOM     16  C   UNL     1     -15.435  16.436  -6.667  1.00  0.00     0.179 C 
ATOM     17  C   UNL     1     -13.880  15.845  -8.616  1.00  0.00     0.178 C 
ATOM     18  C   UNL     1     -14.063  16.729  -7.347  1.00  0.00     0.177 C 
BRANCH  14  19
ATOM     19  O   UNL     1     -15.014  14.146  -6.114  1.00  0.00    -0.385 OA
ATOM     20  H   UNL     1     -14.849  13.292  -6.592  1.00  0.00     0.211 HD
ENDBRANCH  14  19
BRANCH  16  21
ATOM     21  O   UNL     1     -16.481  17.276  -7.104  1.00  0.00    -0.387 OA
ATOM     22  H   UNL     1     -16.112  18.149  -7.394  1.00  0.00     0.211 HD
ENDBRANCH  16  21
BRANCH  17  23
ATOM     23  C   UNL     1     -12.977  16.518  -9.657  1.00  0.00     0.191 C 
BRANCH  23  24
ATOM     24  O   UNL     1     -13.615  17.636 -10.225  1.00  0.00    -0.394 OA
ATOM     25  H   UNL     1     -13.265  18.427  -9.734  1.00  0.00     0.210 HD
ENDBRANCH  23  24
ENDBRANCH  17  23
BRANCH  18  26
ATOM     26  O   UNL     1     -13.029  16.469  -6.426  1.00  0.00    -0.387 OA
ATOM     27  H   UNL     1     -12.994  15.484  -6.303  1.00  0.00     0.211 HD
ENDBRANCH  18  26
ENDBRANCH  12  13
ENDBRANCH   7  12
BRANCH   4  28
ATOM     28  O   UNL     1     -19.436   9.832  -8.420  1.00  0.00    -0.393 OA
ATOM     29  H   UNL     1     -18.479   9.545  -8.461  1.00  0.00     0.210 HD
ENDBRANCH   4  28
BRANCH   8  30
ATOM     30  C   UNL     1     -19.865  14.820  -7.790  1.00  0.00     0.255 C 
BRANCH  30  31
ATOM     31  O   UNL     1     -20.306  14.395  -6.502  1.00  0.00    -0.461 OA
BRANCH  31  32
ATOM     32  C   UNL     1     -20.120  15.123  -5.321  1.00  0.00     0.338 C 
ATOM     33  O   UNL     1     -20.986  15.964  -4.948  1.00  0.00    -0.246 OA
BRANCH  32  34
ATOM     34  C   UNL     1     -18.919  14.873  -4.492  1.00  0.00     0.060 A 
ATOM     35  C   UNL     1     -18.151  15.958  -4.016  1.00  0.00     0.015 A 
ATOM     36  C   UNL     1     -18.486  13.560  -4.217  1.00  0.00     0.015 A 
ATOM     37  C   UNL     1     -16.975  15.727  -3.293  1.00  0.00     0.001 A 
ATOM     38  C   UNL     1     -17.306  13.335  -3.493  1.00  0.00     0.001 A 
ATOM     39  C   UNL     1     -16.547  14.416  -3.042  1.00  0.00     0.000 A 
ENDBRANCH  32  34
ENDBRANCH  31  32
ENDBRANCH  30  31
ENDBRANCH   8  30
TORSDOF 12
ENDMDL
MODEL 6
REMARK VINA RESULT:    -6.248      1.998      5.610
REMARK INTER + INTRA:         -10.531
REMARK INTER:                  -9.805
REMARK INTRA:                  -0.726
REMARK UNBOUND:                -0.812
REMARK SMILES C[C@@]12C[C@@H](O)[C@H]3C[C@]1(O[C@H]1O[C@@H](CO)[C@H](O)[C@@H](O)[C@@H]1O)[C@@]3(COC(=O)c1ccccc1)C(=O)O2
REMARK SMILES IDX 1 1 2 2 3 3 4 4 6 5 7 6 8 7 21 8 32 9 33 10 34 11 9 12 10 13
REMARK SMILES IDX 19 14 11 15 17 16 12 17 15 18 20 19 18 21 13 23 14 24 16 26
REMARK SMILES IDX 5 28 22 30 23 31 24 32 25 33 26 34 27 35 31 36 28 37 30 38
REMARK SMILES IDX 29 39
REMARK H PARENT 20 20 18 22 14 25 16 27 5 29
REMARK Flexibility Score: inf
ROOT
ATOM      1  C   UNL     1     -20.853  13.779  -7.807  1.00  0.00     0.060 C 
ATOM      2  C   UNL     1     -20.282  14.629  -6.674  1.00  0.00     0.142 C 
ATOM      3  C   UNL     1     -20.783  14.140  -5.272  1.00  0.00     0.083 C 
ATOM      4  C   UNL     1     -19.979  14.838  -4.115  1.00  0.00     0.123 C 
ATOM      5  C   UNL     1     -18.527  15.183  -4.582  1.00  0.00     0.045 C 
ATOM      6  C   UNL     1     -18.029  14.028  -5.460  1.00  0.00     0.049 C 
ATOM      7  C   UNL     1     -18.702  14.762  -6.643  1.00  0.00     0.131 C 
ATOM      8  C   UNL     1     -18.565  16.082  -5.856  1.00  0.00     0.140 C 
ATOM      9  C   UNL     1     -19.828  16.806  -6.194  1.00  0.00     0.319 C 
ATOM     10  O   UNL     1     -20.060  18.016  -5.959  1.00  0.00    -0.251 OA
ATOM     11  O   UNL     1     -20.740  15.969  -6.796  1.00  0.00    -0.456 OA
ENDROOT
BRANCH   7  12
ATOM     12  O   UNL     1     -18.062  14.824  -7.917  1.00  0.00    -0.338 OA
BRANCH  12  13
ATOM     13  C   UNL     1     -17.227  13.709  -8.240  1.00  0.00     0.282 C 
ATOM     14  C   UNL     1     -16.645  13.975  -9.676  1.00  0.00     0.202 C 
ATOM     15  O   UNL     1     -18.019  12.531  -8.173  1.00  0.00    -0.341 OA
ATOM     16  C   UNL     1     -17.434  13.195 -10.733  1.00  0.00     0.179 C 
ATOM     17  C   UNL     1     -17.408  11.452  -8.856  1.00  0.00     0.178 C 
ATOM     18  C   UNL     1     -17.455  11.673 -10.397  1.00  0.00     0.177 C 
BRANCH  14  19
ATOM     19  O   UNL     1     -15.273  13.676  -9.822  1.00  0.00    -0.385 OA
ATOM     20  H   UNL     1     -14.769  14.500 -10.047  1.00  0.00     0.211 HD
ENDBRANCH  14  19
BRANCH  16  21
ATOM     21  O   UNL     1     -18.715  13.772 -10.858  1.00  0.00    -0.387 OA
ATOM     22  H   UNL     1     -19.310  13.163 -11.364  1.00  0.00     0.211 HD
ENDBRANCH  16  21
BRANCH  17  23
ATOM     23  C   UNL     1     -18.096  10.145  -8.444  1.00  0.00     0.191 C 
BRANCH  23  24
ATOM     24  O   UNL     1     -19.452  10.152  -8.819  1.00  0.00    -0.394 OA
ATOM     25  H   UNL     1     -19.517  10.780  -9.587  1.00  0.00     0.210 HD
ENDBRANCH  23  24
ENDBRANCH  17  23
BRANCH  18  26
ATOM     26  O   UNL     1     -16.347  11.052 -11.006  1.00  0.00    -0.387 OA
ATOM     27  H   UNL     1     -15.773  11.778 -11.367  1.00  0.00     0.211 HD
ENDBRANCH  18  26
ENDBRANCH  12  13
ENDBRANCH   7  12
BRANCH   4  28
ATOM     28  O   UNL     1     -19.954  14.032  -2.963  1.00  0.00    -0.393 OA
ATOM     29  H   UNL     1     -20.820  13.533  -2.967  1.00  0.00     0.210 HD
ENDBRANCH   4  28
BRANCH   8  30
ATOM     30  C   UNL     1     -17.260  16.872  -6.148  1.00  0.00     0.255 C 
BRANCH  30  31
ATOM     31  O   UNL     1     -16.956  17.816  -5.124  1.00  0.00    -0.461 OA
BRANCH  31  32
ATOM     32  C   UNL     1     -15.837  17.741  -4.285  1.00  0.00     0.338 C 
ATOM     33  O   UNL     1     -15.712  18.543  -3.317  1.00  0.00    -0.246 OA
BRANCH  32  34
ATOM     34  C   UNL     1     -14.821  16.690  -4.517  1.00  0.00     0.060 A 
ATOM     35  C   UNL     1     -13.781  16.906  -5.447  1.00  0.00     0.015 A 
ATOM     36  C   UNL     1     -14.906  15.441  -3.870  1.00  0.00     0.015 A 
ATOM     37  C   UNL     1     -12.860  15.890  -5.725  1.00  0.00     0.001 A 
ATOM     38  C   UNL     1     -13.980  14.426  -4.153  1.00  0.00     0.001 A 
ATOM     39  C   UNL     1     -12.966  14.647  -5.087  1.00  0.00     0.000 A 
ENDBRANCH  32  34
ENDBRANCH  31  32
ENDBRANCH  30  31
ENDBRANCH   8  30
TORSDOF 12
ENDMDL
MODEL 7
REMARK VINA RESULT:    -6.236      1.917      6.427
REMARK INTER + INTRA:         -10.511
REMARK INTER:                  -9.684
REMARK INTRA:                  -0.827
REMARK UNBOUND:                -0.812
REMARK SMILES C[C@@]12C[C@@H](O)[C@H]3C[C@]1(O[C@H]1O[C@@H](CO)[C@H](O)[C@@H](O)[C@@H]1O)[C@@]3(COC(=O)c1ccccc1)C(=O)O2
REMARK SMILES IDX 1 1 2 2 3 3 4 4 6 5 7 6 8 7 21 8 32 9 33 10 34 11 9 12 10 13
REMARK SMILES IDX 19 14 11 15 17 16 12 17 15 18 20 19 18 21 13 23 14 24 16 26
REMARK SMILES IDX 5 28 22 30 23 31 24 32 25 33 26 34 27 35 31 36 28 37 30 38
REMARK SMILES IDX 29 39
REMARK H PARENT 20 20 18 22 14 25 16 27 5 29
REMARK Flexibility Score: inf
ROOT
ATOM      1  C   UNL     1     -14.434  16.473  -9.633  1.00  0.00     0.060 C 
ATOM      2  C   UNL     1     -14.559  16.483  -8.112  1.00  0.00     0.142 C 
ATOM      3  C   UNL     1     -15.211  17.810  -7.592  1.00  0.00     0.083 C 
ATOM      4  C   UNL     1     -15.584  17.693  -6.069  1.00  0.00     0.123 C 
ATOM      5  C   UNL     1     -15.922  16.212  -5.696  1.00  0.00     0.045 C 
ATOM      6  C   UNL     1     -16.699  15.599  -6.867  1.00  0.00     0.049 C 
ATOM      7  C   UNL     1     -15.322  15.247  -7.475  1.00  0.00     0.131 C 
ATOM      8  C   UNL     1     -14.726  15.276  -6.052  1.00  0.00     0.140 C 
ATOM      9  C   UNL     1     -13.375  15.877  -6.266  1.00  0.00     0.319 C 
ATOM     10  O   UNL     1     -12.443  15.895  -5.426  1.00  0.00    -0.251 OA
ATOM     11  O   UNL     1     -13.268  16.436  -7.519  1.00  0.00    -0.456 OA
ENDROOT
BRANCH   7  12
ATOM     12  O   UNL     1     -15.113  13.992  -8.122  1.00  0.00    -0.338 OA
BRANCH  12  13
ATOM     13  C   UNL     1     -16.299  13.313  -8.541  1.00  0.00     0.282 C 
ATOM     14  C   UNL     1     -15.843  11.949  -9.178  1.00  0.00     0.202 C 
ATOM     15  O   UNL     1     -16.986  14.151  -9.460  1.00  0.00    -0.341 OA
ATOM     16  C   UNL     1     -15.824  12.046 -10.708  1.00  0.00     0.179 C 
ATOM     17  C   UNL     1     -17.929  13.424 -10.225  1.00  0.00     0.178 C 
ATOM     18  C   UNL     1     -17.214  12.496 -11.251  1.00  0.00     0.177 C 
BRANCH  14  19
ATOM     19  O   UNL     1     -16.623  10.833  -8.805  1.00  0.00    -0.385 OA
ATOM     20  H   UNL     1     -16.071  10.009  -8.835  1.00  0.00     0.211 HD
ENDBRANCH  14  19
BRANCH  16  21
ATOM     21  O   UNL     1     -14.758  12.886 -11.094  1.00  0.00    -0.387 OA
ATOM     22  H   UNL     1     -13.917  12.579 -10.669  1.00  0.00     0.211 HD
ENDBRANCH  16  21
BRANCH  17  23
ATOM     23  C   UNL     1     -18.884  14.408 -10.912  1.00  0.00     0.191 C 
BRANCH  23  24
ATOM     24  O   UNL     1     -20.000  13.737 -11.442  1.00  0.00    -0.394 OA
ATOM     25  H   UNL     1     -19.640  13.107 -12.123  1.00  0.00     0.210 HD
ENDBRANCH  23  24
ENDBRANCH  17  23
BRANCH  18  26
ATOM     26  O   UNL     1     -18.001  11.355 -11.500  1.00  0.00    -0.387 OA
ATOM     27  H   UNL     1     -18.735  11.360 -10.831  1.00  0.00     0.211 HD
ENDBRANCH  18  26
ENDBRANCH  12  13
ENDBRANCH   7  12
BRANCH   4  28
ATOM     28  O   UNL     1     -16.655  18.545  -5.746  1.00  0.00    -0.393 OA
ATOM     29  H   UNL     1     -17.287  17.988  -5.208  1.00  0.00     0.210 HD
ENDBRANCH   4  28
BRANCH   8  30
ATOM     30  C   UNL     1     -14.723  13.902  -5.328  1.00  0.00     0.255 C 
BRANCH  30  31
ATOM     31  O   UNL     1     -15.129  14.004  -3.965  1.00  0.00    -0.461 OA
BRANCH  31  32
ATOM     32  C   UNL     1     -16.194  13.292  -3.400  1.00  0.00     0.338 C 
ATOM     33  O   UNL     1     -15.995  12.160  -2.875  1.00  0.00    -0.246 OA
BRANCH  32  34
ATOM     34  C   UNL     1     -17.548  13.891  -3.388  1.00  0.00     0.060 A 
ATOM     35  C   UNL     1     -18.635  13.191  -3.955  1.00  0.00     0.015 A 
ATOM     36  C   UNL     1     -17.765  15.185  -2.875  1.00  0.00     0.015 A 
ATOM     37  C   UNL     1     -19.902  13.782  -4.013  1.00  0.00     0.001 A 
ATOM     38  C   UNL     1     -19.037  15.773  -2.936  1.00  0.00     0.001 A 
ATOM     39  C   UNL     1     -20.100  15.077  -3.514  1.00  0.00     0.000 A 
ENDBRANCH  32  34
ENDBRANCH  31  32
ENDBRANCH  30  31
ENDBRANCH   8  30
TORSDOF 12
ENDMDL
MODEL 8
REMARK VINA RESULT:    -6.137      1.888      5.685
REMARK INTER + INTRA:         -10.357
REMARK INTER:                  -9.488
REMARK INTRA:                  -0.868
REMARK UNBOUND:                -0.812
REMARK SMILES C[C@@]12C[C@@H](O)[C@H]3C[C@]1(O[C@H]1O[C@@H](CO)[C@H](O)[C@@H](O)[C@@H]1O)[C@@]3(COC(=O)c1ccccc1)C(=O)O2
REMARK SMILES IDX 1 1 2 2 3 3 4 4 6 5 7 6 8 7 21 8 32 9 33 10 34 11 9 12 10 13
REMARK SMILES IDX 19 14 11 15 17 16 12 17 15 18 20 19 18 21 13 23 14 24 16 26
REMARK SMILES IDX 5 28 22 30 23 31 24 32 25 33 26 34 27 35 31 36 28 37 30 38
REMARK SMILES IDX 29 39
REMARK H PARENT 20 20 18 22 14 25 16 27 5 29
REMARK Flexibility Score: inf
ROOT
ATOM      1  C   UNL     1     -20.054  12.027  -5.445  1.00  0.00     0.060 C 
ATOM      2  C   UNL     1     -19.280  13.230  -4.913  1.00  0.00     0.142 C 
ATOM      3  C   UNL     1     -18.299  12.827  -3.760  1.00  0.00     0.083 C 
ATOM      4  C   UNL     1     -17.320  14.008  -3.416  1.00  0.00     0.123 C 
ATOM      5  C   UNL     1     -17.051  14.888  -4.682  1.00  0.00     0.045 C 
ATOM      6  C   UNL     1     -16.948  13.951  -5.891  1.00  0.00     0.049 C 
ATOM      7  C   UNL     1     -18.486  14.072  -5.998  1.00  0.00     0.131 C 
ATOM      8  C   UNL     1     -18.395  15.426  -5.264  1.00  0.00     0.140 C 
ATOM      9  C   UNL     1     -19.613  15.422  -4.399  1.00  0.00     0.319 C 
ATOM     10  O   UNL     1     -20.075  16.413  -3.785  1.00  0.00    -0.251 OA
ATOM     11  O   UNL     1     -20.179  14.168  -4.337  1.00  0.00    -0.456 OA
ENDROOT
BRANCH   7  12
ATOM     12  O   UNL     1     -19.118  14.190  -7.272  1.00  0.00    -0.338 OA
BRANCH  12  13
ATOM     13  C   UNL     1     -18.301  13.854  -8.397  1.00  0.00     0.282 C 
ATOM     14  C   UNL     1     -19.164  14.119  -9.684  1.00  0.00     0.202 C 
ATOM     15  O   UNL     1     -17.905  12.496  -8.264  1.00  0.00    -0.341 OA
ATOM     16  C   UNL     1     -19.758  12.810 -10.215  1.00  0.00     0.179 C 
ATOM     17  C   UNL     1     -17.450  11.963  -9.494  1.00  0.00     0.178 C 
ATOM     18  C   UNL     1     -18.636  11.762 -10.484  1.00  0.00     0.177 C 
BRANCH  14  19
ATOM     19  O   UNL     1     -18.477  14.764 -10.734  1.00  0.00    -0.385 OA
ATOM     20  H   UNL     1     -18.943  14.602 -11.594  1.00  0.00     0.211 HD
ENDBRANCH  14  19
BRANCH  16  21
ATOM     21  O   UNL     1     -20.752  12.367  -9.318  1.00  0.00    -0.387 OA
ATOM     22  H   UNL     1     -20.345  12.163  -8.438  1.00  0.00     0.211 HD
ENDBRANCH  16  21
BRANCH  17  23
ATOM     23  C   UNL     1     -16.700  10.652  -9.225  1.00  0.00     0.191 C 
BRANCH  23  24
ATOM     24  O   UNL     1     -15.747  10.405 -10.230  1.00  0.00    -0.394 OA
ATOM     25  H   UNL     1     -15.268  11.266 -10.366  1.00  0.00     0.210 HD
ENDBRANCH  23  24
ENDBRANCH  17  23
BRANCH  18  26
ATOM     26  O   UNL     1     -18.184  11.901 -11.810  1.00  0.00    -0.387 OA
ATOM     27  H   UNL     1     -18.721  11.275 -12.365  1.00  0.00     0.211 HD
ENDBRANCH  18  26
ENDBRANCH  12  13
ENDBRANCH   7  12
BRANCH   4  28
ATOM     28  O   UNL     1     -16.113  13.523  -2.881  1.00  0.00    -0.393 OA
ATOM     29  H   UNL     1     -16.374  12.981  -2.083  1.00  0.00     0.210 HD
ENDBRANCH   4  28
BRANCH   8  30
ATOM     30  C   UNL     1     -18.263  16.658  -6.201  1.00  0.00     0.255 C 
BRANCH  30  31
ATOM     31  O   UNL     1     -17.505  17.711  -5.612  1.00  0.00    -0.461 OA
BRANCH  31  32
ATOM     32  C   UNL     1     -16.281  18.179  -6.106  1.00  0.00     0.338 C 
ATOM     33  O   UNL     1     -16.195  19.340  -6.597  1.00  0.00    -0.246 OA
BRANCH  32  34
ATOM     34  C   UNL     1     -15.080  17.318  -6.015  1.00  0.00     0.060 A 
ATOM     35  C   UNL     1     -14.630  16.611  -7.151  1.00  0.00     0.015 A 
ATOM     36  C   UNL     1     -14.407  17.138  -4.790  1.00  0.00     0.015 A 
ATOM     37  C   UNL     1     -13.540  15.739  -7.053  1.00  0.00     0.001 A 
ATOM     38  C   UNL     1     -13.315  16.262  -4.698  1.00  0.00     0.001 A 
ATOM     39  C   UNL     1     -12.890  15.556  -5.825  1.00  0.00     0.000 A 
ENDBRANCH  32  34
ENDBRANCH  31  32
ENDBRANCH  30  31
ENDBRANCH   8  30
TORSDOF 12
ENDMDL
MODEL 9
REMARK VINA RESULT:    -6.061      2.292      6.170
REMARK INTER + INTRA:         -10.239
REMARK INTER:                  -9.130
REMARK INTRA:                  -1.109
REMARK UNBOUND:                -0.812
REMARK SMILES C[C@@]12C[C@@H](O)[C@H]3C[C@]1(O[C@H]1O[C@@H](CO)[C@H](O)[C@@H](O)[C@@H]1O)[C@@]3(COC(=O)c1ccccc1)C(=O)O2
REMARK SMILES IDX 1 1 2 2 3 3 4 4 6 5 7 6 8 7 21 8 32 9 33 10 34 11 9 12 10 13
REMARK SMILES IDX 19 14 11 15 17 16 12 17 15 18 20 19 18 21 13 23 14 24 16 26
REMARK SMILES IDX 5 28 22 30 23 31 24 32 25 33 26 34 27 35 31 36 28 37 30 38
REMARK SMILES IDX 29 39
REMARK H PARENT 20 20 18 22 14 25 16 27 5 29
REMARK Flexibility Score: inf
ROOT
ATOM      1  C   UNL     1     -19.221  17.226  -4.909  1.00  0.00     0.060 C 
ATOM      2  C   UNL     1     -19.653  16.017  -5.735  1.00  0.00     0.142 C 
ATOM      3  C   UNL     1     -20.608  16.425  -6.908  1.00  0.00     0.083 C 
ATOM      4  C   UNL     1     -20.819  15.227  -7.903  1.00  0.00     0.123 C 
ATOM      5  C   UNL     1     -19.556  14.304  -7.931  1.00  0.00     0.045 C 
ATOM      6  C   UNL     1     -18.316  15.202  -7.847  1.00  0.00     0.049 C 
ATOM      7  C   UNL     1     -18.477  15.121  -6.312  1.00  0.00     0.131 C 
ATOM      8  C   UNL     1     -19.229  13.787  -6.496  1.00  0.00     0.140 C 
ATOM      9  C   UNL     1     -20.289  13.851  -5.444  1.00  0.00     0.319 C 
ATOM     10  O   UNL     1     -21.005  12.891  -5.071  1.00  0.00    -0.251 OA
ATOM     11  O   UNL     1     -20.404  15.121  -4.926  1.00  0.00    -0.456 OA
ENDROOT
BRANCH   7  12
ATOM     12  O   UNL     1     -17.334  14.985  -5.469  1.00  0.00    -0.338 OA
BRANCH  12  13
ATOM     13  C   UNL     1     -16.343  16.007  -5.606  1.00  0.00     0.282 C 
ATOM     14  C   UNL     1     -15.198  15.415  -6.506  1.00  0.00     0.202 C 
ATOM     15  O   UNL     1     -15.897  16.366  -4.306  1.00  0.00    -0.341 OA
ATOM     16  C   UNL     1     -14.025  14.935  -5.644  1.00  0.00     0.179 C 
ATOM     17  C   UNL     1     -14.660  17.053  -4.350  1.00  0.00     0.178 C 
ATOM     18  C   UNL     1     -13.501  16.086  -4.733  1.00  0.00     0.177 C 
BRANCH  14  19
ATOM     19  O   UNL     1     -14.705  16.298  -7.491  1.00  0.00    -0.385 OA
ATOM     20  H   UNL     1     -15.268  16.245  -8.306  1.00  0.00     0.211 HD
ENDBRANCH  14  19
BRANCH  16  21
ATOM     21  O   UNL     1     -14.426  13.782  -4.937  1.00  0.00    -0.387 OA
ATOM     22  H   UNL     1     -13.647  13.389  -4.466  1.00  0.00     0.211 HD
ENDBRANCH  16  21
BRANCH  17  23
ATOM     23  C   UNL     1     -14.416  17.733  -2.997  1.00  0.00     0.191 C 
BRANCH  23  24
ATOM     24  O   UNL     1     -15.191  18.900  -2.875  1.00  0.00    -0.394 OA
ATOM     25  H   UNL     1     -15.813  18.894  -3.651  1.00  0.00     0.210 HD
ENDBRANCH  23  24
ENDBRANCH  17  23
BRANCH  18  26
ATOM     26  O   UNL     1     -12.492  16.792  -5.418  1.00  0.00    -0.387 OA
ATOM     27  H   UNL     1     -12.521  17.728  -5.088  1.00  0.00     0.211 HD
ENDBRANCH  18  26
ENDBRANCH  12  13
ENDBRANCH   7  12
BRANCH   4  28
ATOM     28  O   UNL     1     -21.125  15.693  -9.194  1.00  0.00    -0.393 OA
ATOM     29  H   UNL     1     -21.419  16.640  -9.074  1.00  0.00     0.210 HD
ENDBRANCH   4  28
BRANCH   8  30
ATOM     30  C   UNL     1     -18.325  12.526  -6.437  1.00  0.00     0.255 C 
BRANCH  30  31
ATOM     31  O   UNL     1     -18.947  11.383  -7.019  1.00  0.00    -0.461 OA
BRANCH  31  32
ATOM     32  C   UNL     1     -18.460  10.701  -8.141  1.00  0.00     0.338 C 
ATOM     33  O   UNL     1     -18.074   9.503  -8.040  1.00  0.00    -0.246 OA
BRANCH  32  34
ATOM     34  C   UNL     1     -18.437  11.383  -9.455  1.00  0.00     0.060 A 
ATOM     35  C   UNL     1     -17.262  12.032  -9.893  1.00  0.00     0.015 A 
ATOM     36  C   UNL     1     -19.592  11.454 -10.258  1.00  0.00     0.015 A 
ATOM     37  C   UNL     1     -17.254  12.740 -11.099  1.00  0.00     0.001 A 
ATOM     38  C   UNL     1     -19.579  12.166 -11.467  1.00  0.00     0.001 A 
ATOM     39  C   UNL     1     -18.415  12.817 -11.880  1.00  0.00     0.000 A 
ENDBRANCH  32  34
ENDBRANCH  31  32
ENDBRANCH  30  31
ENDBRANCH   8  30
TORSDOF 12
ENDMDL
