MODEL 1
REMARK VINA RESULT:    -3.706      0.000      0.000
REMARK INTER + INTRA:          -6.121
REMARK INTER:                  -5.439
REMARK INTRA:                  -0.682
REMARK UNBOUND:                -0.682
REMARK SMILES O=C([O-])CCCCCCCC(=O)[O-]
REMARK SMILES IDX 7 1 6 2 5 3 4 4 2 5 1 6 3 7 8 8 9 9 10 10 11 11 12 12 13 13
REMARK H PARENT
REMARK Flexibility Score: inf
ROOT
ATOM      1  C   UNL     1       3.191  -2.190  -5.081  1.00  0.00     0.000 C 
ENDROOT
BRANCH   1   2
ATOM      2  C   UNL     1       4.397  -1.645  -4.302  1.00  0.00     0.000 C 
BRANCH   2   3
ATOM      3  C   UNL     1       4.157  -0.193  -3.863  1.00  0.00     0.006 C 
BRANCH   3   4
ATOM      4  C   UNL     1       2.798   0.341  -4.336  1.00  0.00     0.053 C 
BRANCH   4   5
ATOM      5  C   UNL     1       2.952   1.377  -5.407  1.00  0.00     0.041 C 
ATOM      6  O   UNL     1       2.130   2.327  -5.491  1.00  0.00    -0.550 OA
ATOM      7  O   UNL     1       3.982   1.274  -6.333  1.00  0.00    -0.550 OA
ENDBRANCH   4   5
ENDBRANCH   3   4
ENDBRANCH   2   3
ENDBRANCH   1   2
BRANCH   1   8
ATOM      8  C   UNL     1       3.509  -2.449  -6.561  1.00  0.00     0.000 C 
BRANCH   8   9
ATOM      9  C   UNL     1       2.270  -2.316  -7.465  1.00  0.00     0.006 C 
BRANCH   9  10
ATOM     10  C   UNL     1       2.355  -1.092  -8.386  1.00  0.00     0.053 C 
BRANCH  10  11
ATOM     11  C   UNL     1       1.036  -0.389  -8.496  1.00  0.00     0.041 C 
ATOM     12  O   UNL     1       0.962   0.852  -8.301  1.00  0.00    -0.550 OA
ATOM     13  O   UNL     1      -0.104  -1.101  -8.846  1.00  0.00    -0.550 OA
ENDBRANCH  10  11
ENDBRANCH   9  10
ENDBRANCH   8   9
ENDBRANCH   1   8
TORSDOF 8
ENDMDL
MODEL 2
REMARK VINA RESULT:    -3.705      0.413      4.106
REMARK INTER + INTRA:          -6.119
REMARK INTER:                  -5.567
REMARK INTRA:                  -0.552
REMARK UNBOUND:                -0.682
REMARK SMILES O=C([O-])CCCCCCCC(=O)[O-]
REMARK SMILES IDX 7 1 6 2 5 3 4 4 2 5 1 6 3 7 8 8 9 9 10 10 11 11 12 12 13 13
REMARK H PARENT
REMARK Flexibility Score: inf
ROOT
ATOM      1  C   UNL     1       3.023  -2.332  -5.389  1.00  0.00     0.000 C 
ENDROOT
BRANCH   1   2
ATOM      2  C   UNL     1       3.397  -2.395  -6.878  1.00  0.00     0.000 C 
BRANCH   2   3
ATOM      3  C   UNL     1       2.148  -2.288  -7.764  1.00  0.00     0.006 C 
BRANCH   3   4
ATOM      4  C   UNL     1       2.009  -0.903  -8.410  1.00  0.00     0.053 C 
BRANCH   4   5
ATOM      5  C   UNL     1       0.573  -0.524  -8.609  1.00  0.00     0.041 C 
ATOM      6  O   UNL     1       0.213   0.677  -8.491  1.00  0.00    -0.550 OA
ATOM      7  O   UNL     1      -0.372  -1.501  -8.893  1.00  0.00    -0.550 OA
ENDBRANCH   4   5
ENDBRANCH   3   4
ENDBRANCH   2   3
ENDBRANCH   1   2
BRANCH   1   8
ATOM      8  C   UNL     1       4.216  -1.963  -4.494  1.00  0.00     0.000 C 
BRANCH   8   9
ATOM      9  C   UNL     1       4.138  -0.517  -3.971  1.00  0.00     0.006 C 
BRANCH   9  10
ATOM     10  C   UNL     1       2.851   0.190  -4.416  1.00  0.00     0.053 C 
BRANCH  10  11
ATOM     11  C   UNL     1       3.131   1.279  -5.406  1.00  0.00     0.041 C 
ATOM     12  O   UNL     1       2.524   2.380  -5.326  1.00  0.00    -0.550 OA
ATOM     13  O   UNL     1       4.085   1.089  -6.397  1.00  0.00    -0.550 OA
ENDBRANCH  10  11
ENDBRANCH   9  10
ENDBRANCH   8   9
ENDBRANCH   1   8
TORSDOF 8
ENDMDL
MODEL 3
REMARK VINA RESULT:    -3.670      1.454      4.364
REMARK INTER + INTRA:          -6.068
REMARK INTER:                  -5.346
REMARK INTRA:                  -0.722
REMARK UNBOUND:                -0.682
REMARK SMILES O=C([O-])CCCCCCCC(=O)[O-]
REMARK SMILES IDX 7 1 6 2 5 3 4 4 2 5 1 6 3 7 8 8 9 9 10 10 11 11 12 12 13 13
REMARK H PARENT
REMARK Flexibility Score: inf
ROOT
ATOM      1  C   UNL     1       3.983  -2.184  -4.666  1.00  0.00     0.000 C 
ENDROOT
BRANCH   1   2
ATOM      2  C   UNL     1       4.856  -2.705  -5.818  1.00  0.00     0.000 C 
BRANCH   2   3
ATOM      3  C   UNL     1       4.199  -2.422  -7.177  1.00  0.00     0.006 C 
BRANCH   3   4
ATOM      4  C   UNL     1       2.684  -2.207  -7.058  1.00  0.00     0.053 C 
BRANCH   4   5
ATOM      5  C   UNL     1       1.935  -2.919  -8.142  1.00  0.00     0.041 C 
ATOM      6  O   UNL     1       2.515  -3.784  -8.849  1.00  0.00    -0.550 OA
ATOM      7  O   UNL     1       0.606  -2.603  -8.393  1.00  0.00    -0.550 OA
ENDBRANCH   4   5
ENDBRANCH   3   4
ENDBRANCH   2   3
ENDBRANCH   1   2
BRANCH   1   8
ATOM      8  C   UNL     1       4.764  -1.299  -3.683  1.00  0.00     0.000 C 
BRANCH   8   9
ATOM      9  C   UNL     1       4.301   0.168  -3.710  1.00  0.00     0.006 C 
BRANCH   9  10
ATOM     10  C   UNL     1       2.895   0.319  -4.307  1.00  0.00     0.053 C 
BRANCH  10  11
ATOM     11  C   UNL     1       2.880   1.287  -5.450  1.00  0.00     0.041 C 
ATOM     12  O   UNL     1       2.083   2.262  -5.444  1.00  0.00    -0.550 OA
ATOM     13  O   UNL     1       3.769   1.130  -6.506  1.00  0.00    -0.550 OA
ENDBRANCH  10  11
ENDBRANCH   9  10
ENDBRANCH   8   9
ENDBRANCH   1   8
TORSDOF 8
ENDMDL
MODEL 4
REMARK VINA RESULT:    -3.638      0.962      1.393
REMARK INTER + INTRA:          -6.021
REMARK INTER:                  -5.477
REMARK INTRA:                  -0.543
REMARK UNBOUND:                -0.682
REMARK SMILES O=C([O-])CCCCCCCC(=O)[O-]
REMARK SMILES IDX 7 1 6 2 5 3 4 4 2 5 1 6 3 7 8 8 9 9 10 10 11 11 12 12 13 13
REMARK H PARENT
REMARK Flexibility Score: inf
ROOT
ATOM      1  C   UNL     1       3.252  -2.046  -5.081  1.00  0.00     0.000 C 
ENDROOT
BRANCH   1   2
ATOM      2  C   UNL     1       4.222  -1.336  -4.125  1.00  0.00     0.000 C 
BRANCH   2   3
ATOM      3  C   UNL     1       3.899   0.162  -4.027  1.00  0.00     0.006 C 
BRANCH   3   4
ATOM      4  C   UNL     1       2.510   0.496  -4.587  1.00  0.00     0.053 C 
BRANCH   4   5
ATOM      5  C   UNL     1       2.561   1.640  -5.554  1.00  0.00     0.041 C 
ATOM      6  O   UNL     1       3.337   2.610  -5.346  1.00  0.00    -0.550 OA
ATOM      7  O   UNL     1       1.728   1.651  -6.665  1.00  0.00    -0.550 OA
ENDBRANCH   4   5
ENDBRANCH   3   4
ENDBRANCH   2   3
ENDBRANCH   1   2
BRANCH   1   8
ATOM      8  C   UNL     1       3.915  -2.447  -6.407  1.00  0.00     0.000 C 
BRANCH   8   9
ATOM      9  C   UNL     1       2.889  -2.748  -7.514  1.00  0.00     0.006 C 
BRANCH   9  10
ATOM     10  C   UNL     1       2.287  -1.468  -8.108  1.00  0.00     0.053 C 
BRANCH  10  11
ATOM     11  C   UNL     1       0.930  -1.714  -8.694  1.00  0.00     0.041 C 
ATOM     12  O   UNL     1       0.624  -2.857  -9.125  1.00  0.00    -0.550 OA
ATOM     13  O   UNL     1      -0.006  -0.690  -8.734  1.00  0.00    -0.550 OA
ENDBRANCH  10  11
ENDBRANCH   9  10
ENDBRANCH   8   9
ENDBRANCH   1   8
TORSDOF 8
ENDMDL
MODEL 5
REMARK VINA RESULT:    -3.618      1.378      4.164
REMARK INTER + INTRA:          -5.992
REMARK INTER:                  -5.459
REMARK INTRA:                  -0.532
REMARK UNBOUND:                -0.682
REMARK SMILES O=C([O-])CCCCCCCC(=O)[O-]
REMARK SMILES IDX 7 1 6 2 5 3 4 4 2 5 1 6 3 7 8 8 9 9 10 10 11 11 12 12 13 13
REMARK H PARENT
REMARK Flexibility Score: inf
ROOT
ATOM      1  C   UNL     1       4.379  -1.988  -4.328  1.00  0.00     0.000 C 
ENDROOT
BRANCH   1   2
ATOM      2  C   UNL     1       3.204  -2.273  -5.275  1.00  0.00     0.000 C 
BRANCH   2   3
ATOM      3  C   UNL     1       3.696  -2.476  -6.716  1.00  0.00     0.006 C 
BRANCH   3   4
ATOM      4  C   UNL     1       2.786  -1.790  -7.744  1.00  0.00     0.053 C 
BRANCH   4   5
ATOM      5  C   UNL     1       1.875  -2.769  -8.420  1.00  0.00     0.041 C 
ATOM      6  O   UNL     1       0.655  -2.498  -8.570  1.00  0.00    -0.550 OA
ATOM      7  O   UNL     1       2.367  -3.993  -8.854  1.00  0.00    -0.550 OA
ENDBRANCH   4   5
ENDBRANCH   3   4
ENDBRANCH   2   3
ENDBRANCH   1   2
BRANCH   1   8
ATOM      8  C   UNL     1       4.354  -0.559  -3.766  1.00  0.00     0.000 C 
BRANCH   8   9
ATOM      9  C   UNL     1       3.152   0.256  -4.275  1.00  0.00     0.006 C 
BRANCH   9  10
ATOM     10  C   UNL     1       3.587   1.475  -5.100  1.00  0.00     0.053 C 
BRANCH  10  11
ATOM     11  C   UNL     1       2.433   2.089  -5.832  1.00  0.00     0.041 C 
ATOM     12  O   UNL     1       2.140   3.300  -5.650  1.00  0.00    -0.550 OA
ATOM     13  O   UNL     1       1.702   1.332  -6.738  1.00  0.00    -0.550 OA
ENDBRANCH  10  11
ENDBRANCH   9  10
ENDBRANCH   8   9
ENDBRANCH   1   8
TORSDOF 8
ENDMDL
MODEL 6
REMARK VINA RESULT:    -3.611      1.414      2.195
REMARK INTER + INTRA:          -5.982
REMARK INTER:                  -5.361
REMARK INTRA:                  -0.621
REMARK UNBOUND:                -0.682
REMARK SMILES O=C([O-])CCCCCCCC(=O)[O-]
REMARK SMILES IDX 7 1 6 2 5 3 4 4 2 5 1 6 3 7 8 8 9 9 10 10 11 11 12 12 13 13
REMARK H PARENT
REMARK Flexibility Score: inf
ROOT
ATOM      1  C   UNL     1       3.898  -0.913  -4.220  1.00  0.00     0.000 C 
ENDROOT
BRANCH   1   2
ATOM      2  C   UNL     1       2.880   0.236  -4.219  1.00  0.00     0.000 C 
BRANCH   2   3
ATOM      3  C   UNL     1       3.268   1.315  -5.240  1.00  0.00     0.006 C 
BRANCH   3   4
ATOM      4  C   UNL     1       2.121   1.642  -6.206  1.00  0.00     0.053 C 
BRANCH   4   5
ATOM      5  C   UNL     1       1.802   3.106  -6.216  1.00  0.00     0.041 C 
ATOM      6  O   UNL     1       0.863   3.544  -6.932  1.00  0.00    -0.550 OA
ATOM      7  O   UNL     1       2.562   3.989  -5.460  1.00  0.00    -0.550 OA
ENDBRANCH   4   5
ENDBRANCH   3   4
ENDBRANCH   2   3
ENDBRANCH   1   2
BRANCH   1   8
ATOM      8  C   UNL     1       3.328  -2.210  -4.814  1.00  0.00     0.000 C 
BRANCH   8   9
ATOM      9  C   UNL     1       3.693  -2.392  -6.298  1.00  0.00     0.006 C 
BRANCH   9  10
ATOM     10  C   UNL     1       2.450  -2.525  -7.188  1.00  0.00     0.053 C 
BRANCH  10  11
ATOM     11  C   UNL     1       2.344  -1.394  -8.165  1.00  0.00     0.041 C 
ATOM     12  O   UNL     1       3.382  -0.804  -8.565  1.00  0.00    -0.550 OA
ATOM     13  O   UNL     1       1.103  -1.015  -8.657  1.00  0.00    -0.550 OA
ENDBRANCH  10  11
ENDBRANCH   9  10
ENDBRANCH   8   9
ENDBRANCH   1   8
TORSDOF 8
ENDMDL
MODEL 7
REMARK VINA RESULT:    -3.525      1.808      3.373
REMARK INTER + INTRA:          -5.856
REMARK INTER:                  -5.243
REMARK INTRA:                  -0.613
REMARK UNBOUND:                -0.682
REMARK SMILES O=C([O-])CCCCCCCC(=O)[O-]
REMARK SMILES IDX 7 1 6 2 5 3 4 4 2 5 1 6 3 7 8 8 9 9 10 10 11 11 12 12 13 13
REMARK H PARENT
REMARK Flexibility Score: inf
ROOT
ATOM      1  C   UNL     1       2.848   0.147  -4.196  1.00  0.00     0.000 C 
ENDROOT
BRANCH   1   2
ATOM      2  C   UNL     1       3.346   1.296  -5.087  1.00  0.00     0.000 C 
BRANCH   2   3
ATOM      3  C   UNL     1       2.213   1.835  -5.972  1.00  0.00     0.006 C 
BRANCH   3   4
ATOM      4  C   UNL     1       2.041   1.017  -7.259  1.00  0.00     0.053 C 
BRANCH   4   5
ATOM      5  C   UNL     1       0.771   1.366  -7.974  1.00  0.00     0.041 C 
ATOM      6  O   UNL     1       0.090   0.465  -8.531  1.00  0.00    -0.550 OA
ATOM      7  O   UNL     1       0.357   2.690  -8.052  1.00  0.00    -0.550 OA
ENDBRANCH   4   5
ENDBRANCH   3   4
ENDBRANCH   2   3
ENDBRANCH   1   2
BRANCH   1   8
ATOM      8  C   UNL     1       3.753  -1.092  -4.268  1.00  0.00     0.000 C 
BRANCH   8   9
ATOM      9  C   UNL     1       3.181  -2.189  -5.183  1.00  0.00     0.006 C 
BRANCH   9  10
ATOM     10  C   UNL     1       3.906  -2.250  -6.535  1.00  0.00     0.053 C 
BRANCH  10  11
ATOM     11  C   UNL     1       3.022  -2.797  -7.613  1.00  0.00     0.041 C 
ATOM     12  O   UNL     1       1.807  -2.471  -7.662  1.00  0.00    -0.550 OA
ATOM     13  O   UNL     1       3.548  -3.642  -8.582  1.00  0.00    -0.550 OA
ENDBRANCH  10  11
ENDBRANCH   9  10
ENDBRANCH   8   9
ENDBRANCH   1   8
TORSDOF 8
ENDMDL
MODEL 8
REMARK VINA RESULT:    -3.415     15.230     16.909
REMARK INTER + INTRA:          -5.694
REMARK INTER:                  -5.279
REMARK INTRA:                  -0.415
REMARK UNBOUND:                -0.682
REMARK SMILES O=C([O-])CCCCCCCC(=O)[O-]
REMARK SMILES IDX 7 1 6 2 5 3 4 4 2 5 1 6 3 7 8 8 9 9 10 10 11 11 12 12 13 13
REMARK H PARENT
REMARK Flexibility Score: inf
ROOT
ATOM      1  C   UNL     1      -6.834 -12.579  -3.588  1.00  0.00     0.000 C 
ENDROOT
BRANCH   1   2
ATOM      2  C   UNL     1      -7.996 -13.584  -3.552  1.00  0.00     0.000 C 
BRANCH   2   3
ATOM      3  C   UNL     1      -9.141 -13.068  -2.669  1.00  0.00     0.006 C 
BRANCH   3   4
ATOM      4  C   UNL     1     -10.447 -13.841  -2.898  1.00  0.00     0.053 C 
BRANCH   4   5
ATOM      5  C   UNL     1     -11.458 -13.017  -3.635  1.00  0.00     0.041 C 
ATOM      6  O   UNL     1     -12.653 -12.981  -3.240  1.00  0.00    -0.550 OA
ATOM      7  O   UNL     1     -11.088 -12.316  -4.776  1.00  0.00    -0.550 OA
ENDBRANCH   4   5
ENDBRANCH   3   4
ENDBRANCH   2   3
ENDBRANCH   1   2
BRANCH   1   8
ATOM      8  C   UNL     1      -5.810 -12.896  -4.688  1.00  0.00     0.000 C 
BRANCH   8   9
ATOM      9  C   UNL     1      -5.807 -11.846  -5.814  1.00  0.00     0.006 C 
BRANCH   9  10
ATOM     10  C   UNL     1      -6.087 -12.470  -7.188  1.00  0.00     0.053 C 
BRANCH  10  11
ATOM     11  C   UNL     1      -7.444 -12.095  -7.700  1.00  0.00     0.041 C 
ATOM     12  O   UNL     1      -8.443 -12.132  -6.935  1.00  0.00    -0.550 OA
ATOM     13  O   UNL     1      -7.598 -11.673  -9.014  1.00  0.00    -0.550 OA
ENDBRANCH  10  11
ENDBRANCH   9  10
ENDBRANCH   8   9
ENDBRANCH   1   8
TORSDOF 8
ENDMDL
MODEL 9
REMARK VINA RESULT:    -3.385     21.071     22.169
REMARK INTER + INTRA:          -5.650
REMARK INTER:                  -4.824
REMARK INTRA:                  -0.826
REMARK UNBOUND:                -0.682
REMARK SMILES O=C([O-])CCCCCCCC(=O)[O-]
REMARK SMILES IDX 7 1 6 2 5 3 4 4 2 5 1 6 3 7 8 8 9 9 10 10 11 11 12 12 13 13
REMARK H PARENT
REMARK Flexibility Score: inf
ROOT
ATOM      1  C   UNL     1     -13.229 -11.538   2.738  1.00  0.00     0.000 C 
ENDROOT
BRANCH   1   2
ATOM      2  C   UNL     1     -13.238 -13.042   3.054  1.00  0.00     0.000 C 
BRANCH   2   3
ATOM      3  C   UNL     1     -11.898 -13.484   3.659  1.00  0.00     0.006 C 
BRANCH   3   4
ATOM      4  C   UNL     1     -12.015 -13.815   5.153  1.00  0.00     0.053 C 
BRANCH   4   5
ATOM      5  C   UNL     1     -10.709 -13.641   5.865  1.00  0.00     0.041 C 
ATOM      6  O   UNL     1     -10.658 -13.713   7.121  1.00  0.00    -0.550 OA
ATOM      7  O   UNL     1      -9.554 -13.365   5.144  1.00  0.00    -0.550 OA
ENDBRANCH   4   5
ENDBRANCH   3   4
ENDBRANCH   2   3
ENDBRANCH   1   2
BRANCH   1   8
ATOM      8  C   UNL     1     -14.288 -10.759   3.534  1.00  0.00     0.000 C 
BRANCH   8   9
ATOM      9  C   UNL     1     -13.680  -9.612   4.360  1.00  0.00     0.006 C 
BRANCH   9  10
ATOM     10  C   UNL     1     -13.293 -10.060   5.776  1.00  0.00     0.053 C 
BRANCH  10  11
ATOM     11  C   UNL     1     -11.807 -10.122   5.950  1.00  0.00     0.041 C 
ATOM     12  O   UNL     1     -11.312 -10.385   7.077  1.00  0.00    -0.550 OA
ATOM     13  O   UNL     1     -10.970  -9.922   4.860  1.00  0.00    -0.550 OA
ENDBRANCH  10  11
ENDBRANCH   9  10
ENDBRANCH   8   9
ENDBRANCH   1   8
TORSDOF 8
ENDMDL
