MODEL 1
REMARK VINA RESULT:    -3.842      0.000      0.000
REMARK INTER + INTRA:          -5.135
REMARK INTER:                  -4.966
REMARK INTRA:                  -0.169
REMARK UNBOUND:                -0.169
REMARK SMILES CCO[C@@H]1O[C@@H](CO)[C@@H](O)[C@H](O)[C@@H]1O
REMARK SMILES IDX 4 1 13 2 11 3 9 4 6 5 5 6 3 7 2 8 1 9 14 10 12 12 7 14 8 15
REMARK SMILES IDX 10 17
REMARK H PARENT 14 11 12 13 8 16 10 18
REMARK Flexibility Score: inf
ROOT
ATOM      1  C   UNL     1       7.592  -9.217   2.600  1.00  0.00     0.281 C 
ATOM      2  C   UNL     1       9.114  -9.151   2.833  1.00  0.00     0.202 C 
ATOM      3  C   UNL     1       9.482  -7.982   3.772  1.00  0.00     0.179 C 
ATOM      4  C   UNL     1       8.606  -8.024   5.032  1.00  0.00     0.177 C 
ATOM      5  C   UNL     1       7.115  -8.123   4.625  1.00  0.00     0.178 C 
ATOM      6  O   UNL     1       6.887  -9.280   3.835  1.00  0.00    -0.341 OA
ENDROOT
BRANCH   1   7
ATOM      7  O   UNL     1       7.163  -8.116   1.813  1.00  0.00    -0.350 OA
BRANCH   7   8
ATOM      8  C   UNL     1       6.300  -8.537   0.772  1.00  0.00     0.160 C 
ATOM      9  C   UNL     1       4.852  -8.513   1.249  1.00  0.00     0.035 C 
ENDBRANCH   7   8
ENDBRANCH   1   7
BRANCH   2  10
ATOM     10  O   UNL     1       9.776  -9.029   1.601  1.00  0.00    -0.385 OA
ATOM     11  H   UNL     1      10.497  -9.712   1.596  1.00  0.00     0.211 HD
ENDBRANCH   2  10
BRANCH   3  12
ATOM     12  O   UNL     1       9.306  -6.747   3.121  1.00  0.00    -0.387 OA
ATOM     13  H   UNL     1      10.206  -6.340   3.023  1.00  0.00     0.211 HD
ENDBRANCH   3  12
BRANCH   5  14
ATOM     14  C   UNL     1       6.191  -8.182   5.848  1.00  0.00     0.191 C 
BRANCH  14  15
ATOM     15  O   UNL     1       5.594  -6.933   6.066  1.00  0.00    -0.394 OA
ATOM     16  H   UNL     1       4.645  -7.116   6.292  1.00  0.00     0.210 HD
ENDBRANCH  14  15
ENDBRANCH   5  14
BRANCH   4  17
ATOM     17  O   UNL     1       8.977  -9.133   5.814  1.00  0.00    -0.387 OA
ATOM     18  H   UNL     1       8.294  -9.838   5.665  1.00  0.00     0.211 HD
ENDBRANCH   4  17
TORSDOF 7
ENDMDL
MODEL 2
REMARK VINA RESULT:    -3.789     14.751     16.927
REMARK INTER + INTRA:          -5.066
REMARK INTER:                  -4.861
REMARK INTRA:                  -0.205
REMARK UNBOUND:                -0.169
REMARK SMILES CCO[C@@H]1O[C@@H](CO)[C@@H](O)[C@H](O)[C@@H]1O
REMARK SMILES IDX 4 1 13 2 11 3 9 4 6 5 5 6 3 7 2 8 1 9 14 10 12 12 7 14 8 15
REMARK SMILES IDX 10 17
REMARK H PARENT 14 11 12 13 8 16 10 18
REMARK Flexibility Score: inf
ROOT
ATOM      1  C   UNL     1      -3.498  -6.881  -9.729  1.00  0.00     0.281 C 
ATOM      2  C   UNL     1      -4.990  -7.237  -9.575  1.00  0.00     0.202 C 
ATOM      3  C   UNL     1      -5.422  -7.189  -8.094  1.00  0.00     0.179 C 
ATOM      4  C   UNL     1      -4.973  -5.865  -7.458  1.00  0.00     0.177 C 
ATOM      5  C   UNL     1      -3.465  -5.642  -7.733  1.00  0.00     0.178 C 
ATOM      6  O   UNL     1      -3.207  -5.625  -9.128  1.00  0.00    -0.341 OA
ENDROOT
BRANCH   1   7
ATOM      7  O   UNL     1      -2.684  -7.914  -9.195  1.00  0.00    -0.350 OA
BRANCH   7   8
ATOM      8  C   UNL     1      -1.416  -7.942  -9.822  1.00  0.00     0.160 C 
ATOM      9  C   UNL     1      -0.339  -7.470  -8.852  1.00  0.00     0.035 C 
ENDBRANCH   7   8
ENDBRANCH   1   7
BRANCH   2  10
ATOM     10  O   UNL     1      -5.232  -8.506 -10.125  1.00  0.00    -0.385 OA
ATOM     11  H   UNL     1      -4.685  -9.151  -9.606  1.00  0.00     0.211 HD
ENDBRANCH   2  10
BRANCH   3  12
ATOM     12  O   UNL     1      -4.865  -8.264  -7.378  1.00  0.00    -0.387 OA
ATOM     13  H   UNL     1      -4.643  -7.925  -6.472  1.00  0.00     0.211 HD
ENDBRANCH   3  12
BRANCH   5  14
ATOM     14  C   UNL     1      -2.963  -4.324  -7.130  1.00  0.00     0.191 C 
BRANCH  14  15
ATOM     15  O   UNL     1      -1.626  -4.452  -6.728  1.00  0.00    -0.394 OA
ATOM     16  H   UNL     1      -1.347  -5.368  -6.986  1.00  0.00     0.210 HD
ENDBRANCH  14  15
ENDBRANCH   5  14
BRANCH   4  17
ATOM     17  O   UNL     1      -5.733  -4.813  -8.002  1.00  0.00    -0.387 OA
ATOM     18  H   UNL     1      -5.998  -5.087  -8.919  1.00  0.00     0.211 HD
ENDBRANCH   4  17
TORSDOF 7
ENDMDL
MODEL 3
REMARK VINA RESULT:    -3.702      1.483      3.684
REMARK INTER + INTRA:          -4.953
REMARK INTER:                  -4.718
REMARK INTRA:                  -0.234
REMARK UNBOUND:                -0.169
REMARK SMILES CCO[C@@H]1O[C@@H](CO)[C@@H](O)[C@H](O)[C@@H]1O
REMARK SMILES IDX 4 1 13 2 11 3 9 4 6 5 5 6 3 7 2 8 1 9 14 10 12 12 7 14 8 15
REMARK SMILES IDX 10 17
REMARK H PARENT 14 11 12 13 8 16 10 18
REMARK Flexibility Score: inf
ROOT
ATOM      1  C   UNL     1       7.295  -7.912   4.044  1.00  0.00     0.281 C 
ATOM      2  C   UNL     1       8.770  -7.770   3.619  1.00  0.00     0.202 C 
ATOM      3  C   UNL     1       9.139  -8.808   2.536  1.00  0.00     0.179 C 
ATOM      4  C   UNL     1       8.102  -8.776   1.404  1.00  0.00     0.177 C 
ATOM      5  C   UNL     1       6.677  -8.894   2.000  1.00  0.00     0.178 C 
ATOM      6  O   UNL     1       6.429  -7.840   2.917  1.00  0.00    -0.341 OA
ENDROOT
BRANCH   1   7
ATOM      7  O   UNL     1       7.102  -9.116   4.771  1.00  0.00    -0.350 OA
BRANCH   7   8
ATOM      8  C   UNL     1       6.045  -8.986   5.704  1.00  0.00     0.160 C 
ATOM      9  C   UNL     1       5.005 -10.077   5.474  1.00  0.00     0.035 C 
ENDBRANCH   7   8
ENDBRANCH   1   7
BRANCH   2  10
ATOM     10  O   UNL     1       9.601  -7.906   4.743  1.00  0.00    -0.385 OA
ATOM     11  H   UNL     1       9.210  -7.337   5.457  1.00  0.00     0.211 HD
ENDBRANCH   2  10
BRANCH   3  12
ATOM     12  O   UNL     1       9.191 -10.102   3.085  1.00  0.00    -0.387 OA
ATOM     13  H   UNL     1       8.684 -10.697   2.474  1.00  0.00     0.211 HD
ENDBRANCH   3  12
BRANCH   5  14
ATOM     14  C   UNL     1       5.597  -8.854   0.911  1.00  0.00     0.191 C 
BRANCH  14  15
ATOM     15  O   UNL     1       4.417  -8.292   1.418  1.00  0.00    -0.394 OA
ATOM     16  H   UNL     1       4.650  -7.368   1.696  1.00  0.00     0.210 HD
ENDBRANCH  14  15
ENDBRANCH   5  14
BRANCH   4  17
ATOM     17  O   UNL     1       8.239  -7.571   0.690  1.00  0.00    -0.387 OA
ATOM     18  H   UNL     1       7.324  -7.210   0.547  1.00  0.00     0.211 HD
ENDBRANCH   4  17
TORSDOF 7
ENDMDL
MODEL 4
REMARK VINA RESULT:    -3.634     15.144     17.342
REMARK INTER + INTRA:          -4.865
REMARK INTER:                  -4.721
REMARK INTRA:                  -0.144
REMARK UNBOUND:                -0.169
REMARK SMILES CCO[C@@H]1O[C@@H](CO)[C@@H](O)[C@H](O)[C@@H]1O
REMARK SMILES IDX 4 1 13 2 11 3 9 4 6 5 5 6 3 7 2 8 1 9 14 10 12 12 7 14 8 15
REMARK SMILES IDX 10 17
REMARK H PARENT 14 11 12 13 8 16 10 18
REMARK Flexibility Score: inf
ROOT
ATOM      1  C   UNL     1      -4.184  -7.397  -8.434  1.00  0.00     0.281 C 
ATOM      2  C   UNL     1      -5.024  -6.954  -9.648  1.00  0.00     0.202 C 
ATOM      3  C   UNL     1      -5.683  -5.579  -9.397  1.00  0.00     0.179 C 
ATOM      4  C   UNL     1      -4.631  -4.576  -8.899  1.00  0.00     0.177 C 
ATOM      5  C   UNL     1      -3.856  -5.187  -7.705  1.00  0.00     0.178 C 
ATOM      6  O   UNL     1      -3.229  -6.402  -8.083  1.00  0.00    -0.341 OA
ENDROOT
BRANCH   1   7
ATOM      7  O   UNL     1      -5.028  -7.717  -7.338  1.00  0.00    -0.350 OA
BRANCH   7   8
ATOM      8  C   UNL     1      -4.897  -9.078  -6.973  1.00  0.00     0.160 C 
ATOM      9  C   UNL     1      -3.588  -9.643  -7.513  1.00  0.00     0.035 C 
ENDBRANCH   7   8
ENDBRANCH   1   7
BRANCH   2  10
ATOM     10  O   UNL     1      -5.995  -7.927  -9.932  1.00  0.00    -0.385 OA
ATOM     11  H   UNL     1      -5.794  -8.274 -10.840  1.00  0.00     0.211 HD
ENDBRANCH   2  10
BRANCH   3  12
ATOM     12  O   UNL     1      -6.712  -5.688  -8.445  1.00  0.00    -0.387 OA
ATOM     13  H   UNL     1      -6.323  -6.130  -7.646  1.00  0.00     0.211 HD
ENDBRANCH   3  12
BRANCH   5  14
ATOM     14  C   UNL     1      -2.781  -4.230  -7.173  1.00  0.00     0.191 C 
BRANCH  14  15
ATOM     15  O   UNL     1      -1.663  -4.953  -6.734  1.00  0.00    -0.394 OA
ATOM     16  H   UNL     1      -1.503  -5.655  -7.417  1.00  0.00     0.210 HD
ENDBRANCH  14  15
ENDBRANCH   5  14
BRANCH   4  17
ATOM     17  O   UNL     1      -3.751  -4.272  -9.953  1.00  0.00    -0.387 OA
ATOM     18  H   UNL     1      -2.941  -3.861  -9.550  1.00  0.00     0.211 HD
ENDBRANCH   4  17
TORSDOF 7
ENDMDL
MODEL 5
REMARK VINA RESULT:    -3.616     20.551     22.175
REMARK INTER + INTRA:          -4.843
REMARK INTER:                  -4.452
REMARK INTRA:                  -0.390
REMARK UNBOUND:                -0.169
REMARK SMILES CCO[C@@H]1O[C@@H](CO)[C@@H](O)[C@H](O)[C@@H]1O
REMARK SMILES IDX 4 1 13 2 11 3 9 4 6 5 5 6 3 7 2 8 1 9 14 10 12 12 7 14 8 15
REMARK SMILES IDX 10 17
REMARK H PARENT 14 11 12 13 8 16 10 18
REMARK Flexibility Score: inf
ROOT
ATOM      1  C   UNL     1      -7.235   8.894   0.695  1.00  0.00     0.281 C 
ATOM      2  C   UNL     1      -6.860   8.341   2.084  1.00  0.00     0.202 C 
ATOM      3  C   UNL     1      -5.484   7.641   2.051  1.00  0.00     0.179 C 
ATOM      4  C   UNL     1      -4.446   8.555   1.383  1.00  0.00     0.177 C 
ATOM      5  C   UNL     1      -4.989   9.049   0.020  1.00  0.00     0.178 C 
ATOM      6  O   UNL     1      -6.214   9.746   0.191  1.00  0.00    -0.341 OA
ENDROOT
BRANCH   1   7
ATOM      7  O   UNL     1      -7.514   7.830  -0.203  1.00  0.00    -0.350 OA
BRANCH   7   8
ATOM      8  C   UNL     1      -8.661   8.108  -0.984  1.00  0.00     0.160 C 
ATOM      9  C   UNL     1      -9.897   7.488  -0.342  1.00  0.00     0.035 C 
ENDBRANCH   7   8
ENDBRANCH   1   7
BRANCH   2  10
ATOM     10  O   UNL     1      -7.859   7.458   2.527  1.00  0.00    -0.385 OA
ATOM     11  H   UNL     1      -7.599   6.554   2.212  1.00  0.00     0.211 HD
ENDBRANCH   2  10
BRANCH   3  12
ATOM     12  O   UNL     1      -5.561   6.427   1.345  1.00  0.00    -0.387 OA
ATOM     13  H   UNL     1      -4.782   6.399   0.730  1.00  0.00     0.211 HD
ENDBRANCH   3  12
BRANCH   5  14
ATOM     14  C   UNL     1      -3.996   9.980  -0.688  1.00  0.00     0.191 C 
BRANCH  14  15
ATOM     15  O   UNL     1      -2.693   9.474  -0.578  1.00  0.00    -0.394 OA
ATOM     16  H   UNL     1      -2.759   8.501  -0.762  1.00  0.00     0.210 HD
ENDBRANCH  14  15
ENDBRANCH   5  14
BRANCH   4  17
ATOM     17  O   UNL     1      -4.181   9.645   2.232  1.00  0.00    -0.387 OA
ATOM     18  H   UNL     1      -4.313  10.472   1.697  1.00  0.00     0.211 HD
ENDBRANCH   4  17
TORSDOF 7
ENDMDL
MODEL 6
REMARK VINA RESULT:    -3.615     14.842     17.625
REMARK INTER + INTRA:          -4.841
REMARK INTER:                  -4.388
REMARK INTRA:                  -0.453
REMARK UNBOUND:                -0.169
REMARK SMILES CCO[C@@H]1O[C@@H](CO)[C@@H](O)[C@H](O)[C@@H]1O
REMARK SMILES IDX 4 1 13 2 11 3 9 4 6 5 5 6 3 7 2 8 1 9 14 10 12 12 7 14 8 15
REMARK SMILES IDX 10 17
REMARK H PARENT 14 11 12 13 8 16 10 18
REMARK Flexibility Score: inf
ROOT
ATOM      1  C   UNL     1      -3.711  -6.526  -7.856  1.00  0.00     0.281 C 
ATOM      2  C   UNL     1      -4.176  -5.071  -7.655  1.00  0.00     0.202 C 
ATOM      3  C   UNL     1      -4.806  -4.505  -8.947  1.00  0.00     0.179 C 
ATOM      4  C   UNL     1      -5.859  -5.483  -9.489  1.00  0.00     0.177 C 
ATOM      5  C   UNL     1      -5.244  -6.901  -9.598  1.00  0.00     0.178 C 
ATOM      6  O   UNL     1      -4.775  -7.342  -8.333  1.00  0.00    -0.341 OA
ENDROOT
BRANCH   1   7
ATOM      7  O   UNL     1      -2.590  -6.574  -8.726  1.00  0.00    -0.350 OA
BRANCH   7   8
ATOM      8  C   UNL     1      -1.621  -7.494  -8.262  1.00  0.00     0.160 C 
ATOM      9  C   UNL     1      -0.564  -6.771  -7.435  1.00  0.00     0.035 C 
ENDBRANCH   7   8
ENDBRANCH   1   7
BRANCH   2  10
ATOM     10  O   UNL     1      -3.090  -4.281  -7.243  1.00  0.00    -0.385 OA
ATOM     11  H   UNL     1      -3.463  -3.562  -6.670  1.00  0.00     0.211 HD
ENDBRANCH   2  10
BRANCH   3  12
ATOM     12  O   UNL     1      -3.821  -4.289  -9.927  1.00  0.00    -0.387 OA
ATOM     13  H   UNL     1      -3.436  -5.175 -10.152  1.00  0.00     0.211 HD
ENDBRANCH   3  12
BRANCH   5  14
ATOM     14  C   UNL     1      -6.259  -7.925 -10.123  1.00  0.00     0.191 C 
BRANCH  14  15
ATOM     15  O   UNL     1      -6.995  -8.468  -9.061  1.00  0.00    -0.394 OA
ATOM     16  H   UNL     1      -7.398  -7.698  -8.583  1.00  0.00     0.210 HD
ENDBRANCH  14  15
ENDBRANCH   5  14
BRANCH   4  17
ATOM     17  O   UNL     1      -6.967  -5.492  -8.622  1.00  0.00    -0.387 OA
ATOM     18  H   UNL     1      -6.822  -4.772  -7.953  1.00  0.00     0.211 HD
ENDBRANCH   4  17
TORSDOF 7
ENDMDL
MODEL 7
REMARK VINA RESULT:    -3.458     14.919     16.009
REMARK INTER + INTRA:          -4.638
REMARK INTER:                  -4.229
REMARK INTRA:                  -0.409
REMARK UNBOUND:                -0.169
REMARK SMILES CCO[C@@H]1O[C@@H](CO)[C@@H](O)[C@H](O)[C@@H]1O
REMARK SMILES IDX 4 1 13 2 11 3 9 4 6 5 5 6 3 7 2 8 1 9 14 10 12 12 7 14 8 15
REMARK SMILES IDX 10 17
REMARK H PARENT 14 11 12 13 8 16 10 18
REMARK Flexibility Score: inf
ROOT
ATOM      1  C   UNL     1       9.204   8.500   3.674  1.00  0.00     0.281 C 
ATOM      2  C   UNL     1       8.764   8.410   5.148  1.00  0.00     0.202 C 
ATOM      3  C   UNL     1       7.907   7.149   5.396  1.00  0.00     0.179 C 
ATOM      4  C   UNL     1       8.616   5.912   4.825  1.00  0.00     0.177 C 
ATOM      5  C   UNL     1       9.022   6.179   3.354  1.00  0.00     0.178 C 
ATOM      6  O   UNL     1       9.872   7.312   3.266  1.00  0.00    -0.341 OA
ENDROOT
BRANCH   1   7
ATOM      7  O   UNL     1       8.091   8.783   2.839  1.00  0.00    -0.350 OA
BRANCH   7   8
ATOM      8  C   UNL     1       8.503   9.364   1.617  1.00  0.00     0.160 C 
ATOM      9  C   UNL     1       8.134   8.453   0.451  1.00  0.00     0.035 C 
ENDBRANCH   7   8
ENDBRANCH   1   7
BRANCH   2  10
ATOM     10  O   UNL     1       8.056   9.571   5.501  1.00  0.00    -0.385 OA
ATOM     11  H   UNL     1       7.381   9.721   4.790  1.00  0.00     0.211 HD
ENDBRANCH   2  10
BRANCH   3  12
ATOM     12  O   UNL     1       6.642   7.281   4.796  1.00  0.00    -0.387 OA
ATOM     13  H   UNL     1       6.587   8.204   4.434  1.00  0.00     0.211 HD
ENDBRANCH   3  12
BRANCH   5  14
ATOM     14  C   UNL     1       9.748   4.978   2.735  1.00  0.00     0.191 C 
BRANCH  14  15
ATOM     15  O   UNL     1       9.251   3.781   3.270  1.00  0.00    -0.394 OA
ATOM     16  H   UNL     1       8.654   4.042   4.018  1.00  0.00     0.210 HD
ENDBRANCH  14  15
ENDBRANCH   5  14
BRANCH   4  17
ATOM     17  O   UNL     1       9.752   5.633   5.606  1.00  0.00    -0.387 OA
ATOM     18  H   UNL     1       9.659   4.701   5.936  1.00  0.00     0.211 HD
ENDBRANCH   4  17
TORSDOF 7
ENDMDL
MODEL 8
REMARK VINA RESULT:    -3.406      3.496      4.911
REMARK INTER + INTRA:          -4.572
REMARK INTER:                  -4.350
REMARK INTRA:                  -0.222
REMARK UNBOUND:                -0.169
REMARK SMILES CCO[C@@H]1O[C@@H](CO)[C@@H](O)[C@H](O)[C@@H]1O
REMARK SMILES IDX 4 1 13 2 11 3 9 4 6 5 5 6 3 7 2 8 1 9 14 10 12 12 7 14 8 15
REMARK SMILES IDX 10 17
REMARK H PARENT 14 11 12 13 8 16 10 18
REMARK Flexibility Score: inf
ROOT
ATOM      1  C   UNL     1       6.626  -8.731  -2.187  1.00  0.00     0.281 C 
ATOM      2  C   UNL     1       8.156  -8.584  -2.079  1.00  0.00     0.202 C 
ATOM      3  C   UNL     1       8.547  -7.720  -0.860  1.00  0.00     0.179 C 
ATOM      4  C   UNL     1       7.826  -8.229   0.396  1.00  0.00     0.177 C 
ATOM      5  C   UNL     1       6.308  -8.352   0.110  1.00  0.00     0.178 C 
ATOM      6  O   UNL     1       6.074  -9.234  -0.977  1.00  0.00    -0.341 OA
ENDROOT
BRANCH   1   7
ATOM      7  O   UNL     1       6.033  -7.494  -2.554  1.00  0.00    -0.350 OA
BRANCH   7   8
ATOM      8  C   UNL     1       5.015  -7.681  -3.518  1.00  0.00     0.160 C 
ATOM      9  C   UNL     1       5.561  -7.418  -4.917  1.00  0.00     0.035 C 
ENDBRANCH   7   8
ENDBRANCH   1   7
BRANCH   2  10
ATOM     10  O   UNL     1       8.663  -8.030  -3.266  1.00  0.00    -0.385 OA
ATOM     11  H   UNL     1       9.626  -7.852  -3.109  1.00  0.00     0.211 HD
ENDBRANCH   2  10
BRANCH   3  12
ATOM     12  O   UNL     1       8.211  -6.372  -1.078  1.00  0.00    -0.387 OA
ATOM     13  H   UNL     1       7.481  -6.148  -0.444  1.00  0.00     0.211 HD
ENDBRANCH   3  12
BRANCH   5  14
ATOM     14  C   UNL     1       5.537  -8.870   1.331  1.00  0.00     0.191 C 
BRANCH  14  15
ATOM     15  O   UNL     1       4.279  -8.256   1.407  1.00  0.00    -0.394 OA
ATOM     16  H   UNL     1       4.384  -7.361   0.992  1.00  0.00     0.210 HD
ENDBRANCH  14  15
ENDBRANCH   5  14
BRANCH   4  17
ATOM     17  O   UNL     1       8.361  -9.478   0.760  1.00  0.00    -0.387 OA
ATOM     18  H   UNL     1       9.140  -9.302   1.351  1.00  0.00     0.211 HD
ENDBRANCH   4  17
TORSDOF 7
ENDMDL
