MODEL 1
REMARK VINA RESULT:    -3.937      0.000      0.000
REMARK INTER + INTRA:          -6.208
REMARK INTER:                  -6.009
REMARK INTRA:                  -0.199
REMARK UNBOUND:                -0.199
REMARK SMILES CC1=CCC[C@@H](C)C(=O)C[C@H](C(C)C)C(=O)C1
REMARK SMILES IDX 8 1 9 2 6 3 7 4 5 5 4 6 3 7 2 8 1 9 10 11 11 12 15 13 16 14
REMARK SMILES IDX 17 15 12 17 13 18 14 19
REMARK H PARENT
REMARK Flexibility Score: 70.00
ROOT
ATOM      1  C   UNL     1      57.970  67.454  33.569  1.00  0.00     0.136 C 
ATOM      2  O   UNL     1      57.859  67.883  34.709  1.00  0.00    -0.299 OA
ENDROOT
BRANCH   1   3
ATOM      3  C   UNL     1      58.762  66.181  33.302  1.00  0.00     0.053 C 
ATOM      4  C   UNL     1      58.680  65.188  34.474  1.00  0.00     0.016 C 
BRANCH   3   5
ATOM      5  C   UNL     1      60.229  66.477  32.923  1.00  0.00     0.015 C 
BRANCH   5   6
ATOM      6  C   UNL     1      60.386  67.048  31.500  1.00  0.00     0.028 C 
BRANCH   6   7
ATOM      7  C   UNL     1      61.106  68.373  31.468  1.00  0.00    -0.028 C 
ATOM      8  C   UNL     1      60.534  69.590  31.281  1.00  0.00    -0.070 CG0
ATOM      9  C   UNL     1      61.429  70.799  31.413  1.00  0.00     0.039 C 
ATOM     10  G   UNL     1      59.079  69.810  30.876  1.00  0.00     0.000 G0
ENDBRANCH   6   7
ENDBRANCH   5   6
ENDBRANCH   3   5
ENDBRANCH   1   3
BRANCH   1  11
ATOM     11  C   UNL     1      57.294  68.196  32.442  1.00  0.00     0.087 C 
BRANCH  11  12
ATOM     12  C   UNL     1      57.171  69.723  32.704  1.00  0.00     0.066 C 
BRANCH  12  13
ATOM     13  C   UNL     1      58.203  70.514  31.908  1.00  0.00     0.140 C 
ATOM     14  O   UNL     1      58.239  71.731  32.030  1.00  0.00    -0.299 OA
BRANCH  13  15
ATOM     15  C   UNL     1      59.067  69.848  30.862  1.00  0.00     0.106 CG0
ATOM     16  G   UNL     1      60.510  69.590  31.289  1.00  0.00     0.000 G0
ENDBRANCH  13  15
ENDBRANCH  12  13
BRANCH  12  17
ATOM     17  C   UNL     1      55.730  70.264  32.427  1.00  0.00    -0.006 C 
ATOM     18  C   UNL     1      55.134  70.929  33.683  1.00  0.00     0.008 C 
ATOM     19  C   UNL     1      54.768  69.161  31.949  1.00  0.00     0.008 C 
ENDBRANCH  12  17
ENDBRANCH  11  12
ENDBRANCH   1  11
TORSDOF 1
ENDMDL
MODEL 2
REMARK VINA RESULT:    -3.924     16.411     18.519
REMARK INTER + INTRA:          -6.187
REMARK INTER:                  -5.876
REMARK INTRA:                  -0.312
REMARK UNBOUND:                -0.199
REMARK SMILES CC1=CCC[C@@H](C)C(=O)C[C@H](C(C)C)C(=O)C1
REMARK SMILES IDX 8 1 9 2 6 3 7 4 5 5 4 6 3 7 2 8 1 9 10 11 11 12 15 13 16 14
REMARK SMILES IDX 17 15 12 17 13 18 14 19
REMARK H PARENT
REMARK Flexibility Score: 70.00
ROOT
ATOM      1  C   UNL     1      42.966  57.259  28.436  1.00  0.00     0.136 C 
ATOM      2  O   UNL     1      43.014  56.141  27.941  1.00  0.00    -0.299 OA
ENDROOT
BRANCH   1   3
ATOM      3  C   UNL     1      43.229  58.489  27.579  1.00  0.00     0.053 C 
ATOM      4  C   UNL     1      44.623  58.461  26.930  1.00  0.00     0.016 C 
BRANCH   3   5
ATOM      5  C   UNL     1      43.005  59.802  28.361  1.00  0.00     0.015 C 
BRANCH   5   6
ATOM      6  C   UNL     1      44.315  60.448  28.852  1.00  0.00     0.028 C 
BRANCH   6   7
ATOM      7  C   UNL     1      44.130  61.310  30.076  1.00  0.00    -0.028 C 
ATOM      8  C   UNL     1      44.467  60.977  31.348  1.00  0.00    -0.070 CG0
ATOM      9  C   UNL     1      44.310  62.044  32.404  1.00  0.00     0.039 C 
ATOM     10  G   UNL     1      44.916  59.586  31.788  1.00  0.00     0.000 G0
ENDBRANCH   6   7
ENDBRANCH   5   6
ENDBRANCH   3   5
ENDBRANCH   1   3
BRANCH   1  11
ATOM     11  C   UNL     1      42.623  57.393  29.900  1.00  0.00     0.087 C 
BRANCH  11  12
ATOM     12  C   UNL     1      43.872  57.367  30.824  1.00  0.00     0.066 C 
BRANCH  12  13
ATOM     13  C   UNL     1      43.849  58.512  31.831  1.00  0.00     0.140 C 
ATOM     14  O   UNL     1      42.879  58.635  32.564  1.00  0.00    -0.299 OA
BRANCH  13  15
ATOM     15  C   UNL     1      44.920  59.578  31.832  1.00  0.00     0.106 CG0
ATOM     16  G   UNL     1      44.459  60.954  31.358  1.00  0.00     0.000 G0
ENDBRANCH  13  15
ENDBRANCH  12  13
BRANCH  12  17
ATOM     17  C   UNL     1      44.048  55.995  31.554  1.00  0.00    -0.006 C 
ATOM     18  C   UNL     1      45.198  55.178  30.933  1.00  0.00     0.008 C 
ATOM     19  C   UNL     1      42.766  55.144  31.527  1.00  0.00     0.008 C 
ENDBRANCH  12  17
ENDBRANCH  11  12
ENDBRANCH   1  11
TORSDOF 1
ENDMDL
MODEL 3
REMARK VINA RESULT:    -3.799     16.229     18.286
REMARK INTER + INTRA:          -5.998
REMARK INTER:                  -5.611
REMARK INTRA:                  -0.387
REMARK UNBOUND:                -0.199
REMARK SMILES CC1=CCC[C@@H](C)C(=O)C[C@H](C(C)C)C(=O)C1
REMARK SMILES IDX 8 1 9 2 6 3 7 4 5 5 4 6 3 7 2 8 1 9 10 11 11 12 15 13 16 14
REMARK SMILES IDX 17 15 12 17 13 18 14 19
REMARK H PARENT
REMARK Flexibility Score: 70.00
ROOT
ATOM      1  C   UNL     1      46.734  56.605  28.497  1.00  0.00     0.136 C 
ATOM      2  O   UNL     1      47.306  55.558  28.764  1.00  0.00    -0.299 OA
ENDROOT
BRANCH   1   3
ATOM      3  C   UNL     1      47.308  57.934  28.970  1.00  0.00     0.053 C 
ATOM      4  C   UNL     1      48.663  58.250  28.315  1.00  0.00     0.016 C 
BRANCH   3   5
ATOM      5  C   UNL     1      47.401  58.012  30.510  1.00  0.00     0.015 C 
BRANCH   5   6
ATOM      6  C   UNL     1      46.126  58.577  31.167  1.00  0.00     0.028 C 
BRANCH   6   7
ATOM      7  C   UNL     1      45.556  59.764  30.433  1.00  0.00    -0.028 C 
ATOM      8  C   UNL     1      44.310  59.854  29.900  1.00  0.00    -0.070 CG0
ATOM      9  C   UNL     1      43.904  61.186  29.319  1.00  0.00     0.039 C 
ATOM     10  G   UNL     1      43.333  58.686  29.784  1.00  0.00     0.000 G0
ENDBRANCH   6   7
ENDBRANCH   5   6
ENDBRANCH   3   5
ENDBRANCH   1   3
BRANCH   1  11
ATOM     11  C   UNL     1      45.468  56.556  27.676  1.00  0.00     0.087 C 
BRANCH  11  12
ATOM     12  C   UNL     1      44.180  56.517  28.545  1.00  0.00     0.066 C 
BRANCH  12  13
ATOM     13  C   UNL     1      43.452  57.857  28.530  1.00  0.00     0.140 C 
ATOM     14  O   UNL     1      43.086  58.319  27.459  1.00  0.00    -0.299 OA
BRANCH  13  15
ATOM     15  C   UNL     1      43.316  58.691  29.783  1.00  0.00     0.106 CG0
ATOM     16  G   UNL     1      44.306  59.848  29.896  1.00  0.00     0.000 G0
ENDBRANCH  13  15
ENDBRANCH  12  13
BRANCH  12  17
ATOM     17  C   UNL     1      43.212  55.361  28.129  1.00  0.00    -0.006 C 
ATOM     18  C   UNL     1      42.081  55.184  29.161  1.00  0.00     0.008 C 
ATOM     19  C   UNL     1      43.940  54.016  27.957  1.00  0.00     0.008 C 
ENDBRANCH  12  17
ENDBRANCH  11  12
ENDBRANCH   1  11
TORSDOF 1
ENDMDL
MODEL 4
REMARK VINA RESULT:    -3.691     16.195     18.334
REMARK INTER + INTRA:          -5.833
REMARK INTER:                  -5.450
REMARK INTRA:                  -0.383
REMARK UNBOUND:                -0.199
REMARK SMILES CC1=CCC[C@@H](C)C(=O)C[C@H](C(C)C)C(=O)C1
REMARK SMILES IDX 8 1 9 2 6 3 7 4 5 5 4 6 3 7 2 8 1 9 10 11 11 12 15 13 16 14
REMARK SMILES IDX 17 15 12 17 13 18 14 19
REMARK H PARENT
REMARK Flexibility Score: 70.00
ROOT
ATOM      1  C   UNL     1      44.085  58.975  31.874  1.00  0.00     0.136 C 
ATOM      2  O   UNL     1      43.063  59.032  32.545  1.00  0.00    -0.299 OA
ENDROOT
BRANCH   1   3
ATOM      3  C   UNL     1      44.708  60.247  31.319  1.00  0.00     0.053 C 
ATOM      4  C   UNL     1      45.155  61.211  32.431  1.00  0.00     0.016 C 
BRANCH   3   5
ATOM      5  C   UNL     1      43.782  60.955  30.306  1.00  0.00     0.015 C 
BRANCH   5   6
ATOM      6  C   UNL     1      43.563  60.145  29.013  1.00  0.00     0.028 C 
BRANCH   6   7
ATOM      7  C   UNL     1      44.840  59.886  28.253  1.00  0.00    -0.028 C 
ATOM      8  C   UNL     1      45.231  58.697  27.727  1.00  0.00    -0.070 CG0
ATOM      9  C   UNL     1      46.489  58.695  26.892  1.00  0.00     0.039 C 
ATOM     10  G   UNL     1      44.532  57.365  27.985  1.00  0.00     0.000 G0
ENDBRANCH   6   7
ENDBRANCH   5   6
ENDBRANCH   3   5
ENDBRANCH   1   3
BRANCH   1  11
ATOM     11  C   UNL     1      44.721  57.628  31.628  1.00  0.00     0.087 C 
BRANCH  11  12
ATOM     12  C   UNL     1      44.004  56.809  30.518  1.00  0.00     0.066 C 
BRANCH  12  13
ATOM     13  C   UNL     1      44.878  56.658  29.279  1.00  0.00     0.140 C 
ATOM     14  O   UNL     1      45.949  56.075  29.377  1.00  0.00    -0.299 OA
BRANCH  13  15
ATOM     15  C   UNL     1      44.525  57.344  27.980  1.00  0.00     0.106 CG0
ATOM     16  G   UNL     1      45.223  58.682  27.748  1.00  0.00     0.000 G0
ENDBRANCH  13  15
ENDBRANCH  12  13
BRANCH  12  17
ATOM     17  C   UNL     1      43.521  55.410  31.025  1.00  0.00    -0.006 C 
ATOM     18  C   UNL     1      42.065  55.137  30.599  1.00  0.00     0.008 C 
ATOM     19  C   UNL     1      43.623  55.270  32.554  1.00  0.00     0.008 C 
ENDBRANCH  12  17
ENDBRANCH  11  12
ENDBRANCH   1  11
TORSDOF 1
ENDMDL
MODEL 5
REMARK VINA RESULT:    -3.603      2.562      5.119
REMARK INTER + INTRA:          -5.698
REMARK INTER:                  -5.287
REMARK INTRA:                  -0.411
REMARK UNBOUND:                -0.199
REMARK SMILES CC1=CCC[C@@H](C)C(=O)C[C@H](C(C)C)C(=O)C1
REMARK SMILES IDX 8 1 9 2 6 3 7 4 5 5 4 6 3 7 2 8 1 9 10 11 11 12 15 13 16 14
REMARK SMILES IDX 17 15 12 17 13 18 14 19
REMARK H PARENT
REMARK Flexibility Score: 70.00
ROOT
ATOM      1  C   UNL     1      56.949  68.820  32.015  1.00  0.00     0.136 C 
ATOM      2  O   UNL     1      56.874  68.986  30.805  1.00  0.00    -0.299 OA
ENDROOT
BRANCH   1   3
ATOM      3  C   UNL     1      55.916  69.447  32.940  1.00  0.00     0.053 C 
ATOM      4  C   UNL     1      54.477  69.079  32.541  1.00  0.00     0.016 C 
BRANCH   3   5
ATOM      5  C   UNL     1      56.089  70.978  33.053  1.00  0.00     0.015 C 
BRANCH   5   6
ATOM      6  C   UNL     1      56.993  71.402  34.227  1.00  0.00     0.028 C 
BRANCH   6   7
ATOM      7  C   UNL     1      56.879  70.490  35.423  1.00  0.00    -0.028 C 
ATOM      8  C   UNL     1      57.899  69.829  36.026  1.00  0.00    -0.070 CG0
ATOM      9  C   UNL     1      57.576  69.069  37.290  1.00  0.00     0.039 C 
ATOM     10  G   UNL     1      59.320  69.741  35.474  1.00  0.00     0.000 G0
ENDBRANCH   6   7
ENDBRANCH   5   6
ENDBRANCH   3   5
ENDBRANCH   1   3
BRANCH   1  11
ATOM     11  C   UNL     1      58.068  67.970  32.566  1.00  0.00     0.087 C 
BRANCH  11  12
ATOM     12  C   UNL     1      59.303  68.801  33.013  1.00  0.00     0.066 C 
BRANCH  12  13
ATOM     13  C   UNL     1      59.591  68.624  34.500  1.00  0.00     0.140 C 
ATOM     14  O   UNL     1      59.904  67.517  34.914  1.00  0.00    -0.299 OA
BRANCH  13  15
ATOM     15  C   UNL     1      59.344  69.743  35.486  1.00  0.00     0.106 CG0
ATOM     16  G   UNL     1      57.917  69.827  36.019  1.00  0.00     0.000 G0
ENDBRANCH  13  15
ENDBRANCH  12  13
BRANCH  12  17
ATOM     17  C   UNL     1      60.578  68.482  32.164  1.00  0.00    -0.006 C 
ATOM     18  C   UNL     1      60.752  69.500  31.020  1.00  0.00     0.008 C 
ATOM     19  C   UNL     1      60.548  67.065  31.565  1.00  0.00     0.008 C 
ENDBRANCH  12  17
ENDBRANCH  11  12
ENDBRANCH   1  11
TORSDOF 1
ENDMDL
MODEL 6
REMARK VINA RESULT:    -3.592     16.260     18.355
REMARK INTER + INTRA:          -5.681
REMARK INTER:                  -5.619
REMARK INTRA:                  -0.062
REMARK UNBOUND:                -0.199
REMARK SMILES CC1=CCC[C@@H](C)C(=O)C[C@H](C(C)C)C(=O)C1
REMARK SMILES IDX 8 1 9 2 6 3 7 4 5 5 4 6 3 7 2 8 1 9 10 11 11 12 15 13 16 14
REMARK SMILES IDX 17 15 12 17 13 18 14 19
REMARK H PARENT
REMARK Flexibility Score: 70.00
ROOT
ATOM      1  C   UNL     1      42.968  58.354  29.162  1.00  0.00     0.136 C 
ATOM      2  O   UNL     1      41.909  58.287  28.554  1.00  0.00    -0.299 OA
ENDROOT
BRANCH   1   3
ATOM      3  C   UNL     1      44.063  59.300  28.692  1.00  0.00     0.053 C 
ATOM      4  C   UNL     1      43.627  60.774  28.756  1.00  0.00     0.016 C 
BRANCH   3   5
ATOM      5  C   UNL     1      44.585  58.933  27.285  1.00  0.00     0.015 C 
BRANCH   5   6
ATOM      6  C   UNL     1      45.590  57.765  27.296  1.00  0.00     0.028 C 
BRANCH   6   7
ATOM      7  C   UNL     1      46.909  58.123  27.934  1.00  0.00    -0.028 C 
ATOM      8  C   UNL     1      47.493  57.481  28.978  1.00  0.00    -0.070 CG0
ATOM      9  C   UNL     1      48.878  57.931  29.375  1.00  0.00     0.039 C 
ATOM     10  G   UNL     1      46.818  56.397  29.815  1.00  0.00     0.000 G0
ENDBRANCH   6   7
ENDBRANCH   5   6
ENDBRANCH   3   5
ENDBRANCH   1   3
BRANCH   1  11
ATOM     11  C   UNL     1      43.157  57.500  30.392  1.00  0.00     0.087 C 
BRANCH  11  12
ATOM     12  C   UNL     1      44.208  56.371  30.195  1.00  0.00     0.066 C 
BRANCH  12  13
ATOM     13  C   UNL     1      45.605  56.828  30.601  1.00  0.00     0.140 C 
ATOM     14  O   UNL     1      45.720  57.669  31.481  1.00  0.00    -0.299 OA
BRANCH  13  15
ATOM     15  C   UNL     1      46.830  56.384  29.835  1.00  0.00     0.106 CG0
ATOM     16  G   UNL     1      47.488  57.470  28.988  1.00  0.00     0.000 G0
ENDBRANCH  13  15
ENDBRANCH  12  13
BRANCH  12  17
ATOM     17  C   UNL     1      43.821  55.055  30.946  1.00  0.00    -0.006 C 
ATOM     18  C   UNL     1      42.779  54.246  30.148  1.00  0.00     0.008 C 
ATOM     19  C   UNL     1      43.265  55.322  32.356  1.00  0.00     0.008 C 
ENDBRANCH  12  17
ENDBRANCH  11  12
ENDBRANCH   1  11
TORSDOF 1
ENDMDL
MODEL 7
REMARK VINA RESULT:    -3.578      3.009      4.195
REMARK INTER + INTRA:          -5.661
REMARK INTER:                  -5.469
REMARK INTRA:                  -0.191
REMARK UNBOUND:                -0.199
REMARK SMILES CC1=CCC[C@@H](C)C(=O)C[C@H](C(C)C)C(=O)C1
REMARK SMILES IDX 8 1 9 2 6 3 7 4 5 5 4 6 3 7 2 8 1 9 10 11 11 12 15 13 16 14
REMARK SMILES IDX 17 15 12 17 13 18 14 19
REMARK H PARENT
REMARK Flexibility Score: 70.00
ROOT
ATOM      1  C   UNL     1      60.381  66.684  32.684  1.00  0.00     0.136 C 
ATOM      2  O   UNL     1      60.269  66.187  31.572  1.00  0.00    -0.299 OA
ENDROOT
BRANCH   1   3
ATOM      3  C   UNL     1      60.242  65.818  33.928  1.00  0.00     0.053 C 
ATOM      4  C   UNL     1      58.841  65.195  34.051  1.00  0.00     0.016 C 
BRANCH   3   5
ATOM      5  C   UNL     1      60.626  66.582  35.214  1.00  0.00     0.015 C 
BRANCH   5   6
ATOM      6  C   UNL     1      59.414  66.922  36.104  1.00  0.00     0.028 C 
BRANCH   6   7
ATOM      7  C   UNL     1      59.608  68.179  36.914  1.00  0.00    -0.028 C 
ATOM      8  C   UNL     1      59.140  69.415  36.600  1.00  0.00    -0.070 CG0
ATOM      9  C   UNL     1      59.342  70.508  37.622  1.00  0.00     0.039 C 
ATOM     10  G   UNL     1      58.498  69.783  35.265  1.00  0.00     0.000 G0
ENDBRANCH   6   7
ENDBRANCH   5   6
ENDBRANCH   3   5
ENDBRANCH   1   3
BRANCH   1  11
ATOM     11  C   UNL     1      60.680  68.159  32.796  1.00  0.00     0.087 C 
BRANCH  11  12
ATOM     12  C   UNL     1      59.399  69.034  32.902  1.00  0.00     0.066 C 
BRANCH  12  13
ATOM     13  C   UNL     1      59.451  69.960  34.112  1.00  0.00     0.140 C 
ATOM     14  O   UNL     1      60.365  70.767  34.201  1.00  0.00    -0.299 OA
BRANCH  13  15
ATOM     15  C   UNL     1      58.494  69.794  35.269  1.00  0.00     0.106 CG0
ATOM     16  G   UNL     1      59.146  69.402  36.593  1.00  0.00     0.000 G0
ENDBRANCH  13  15
ENDBRANCH  12  13
BRANCH  12  17
ATOM     17  C   UNL     1      59.122  69.850  31.596  1.00  0.00    -0.006 C 
ATOM     18  C   UNL     1      58.275  69.034  30.600  1.00  0.00     0.008 C 
ATOM     19  C   UNL     1      60.417  70.296  30.894  1.00  0.00     0.008 C 
ENDBRANCH  12  17
ENDBRANCH  11  12
ENDBRANCH   1  11
TORSDOF 1
ENDMDL
MODEL 8
REMARK VINA RESULT:    -3.554     15.696     17.368
REMARK INTER + INTRA:          -5.624
REMARK INTER:                  -5.366
REMARK INTRA:                  -0.257
REMARK UNBOUND:                -0.199
REMARK SMILES CC1=CCC[C@@H](C)C(=O)C[C@H](C(C)C)C(=O)C1
REMARK SMILES IDX 8 1 9 2 6 3 7 4 5 5 4 6 3 7 2 8 1 9 10 11 11 12 15 13 16 14
REMARK SMILES IDX 17 15 12 17 13 18 14 19
REMARK H PARENT
REMARK Flexibility Score: 70.00
ROOT
ATOM      1  C   UNL     1      44.494  60.475  30.029  1.00  0.00     0.136 C 
ATOM      2  O   UNL     1      43.801  61.295  30.615  1.00  0.00    -0.299 OA
ENDROOT
BRANCH   1   3
ATOM      3  C   UNL     1      44.213  60.137  28.571  1.00  0.00     0.053 C 
ATOM      4  C   UNL     1      42.952  59.271  28.406  1.00  0.00     0.016 C 
BRANCH   3   5
ATOM      5  C   UNL     1      45.431  59.486  27.880  1.00  0.00     0.015 C 
BRANCH   5   6
ATOM      6  C   UNL     1      45.248  57.977  27.621  1.00  0.00     0.028 C 
BRANCH   6   7
ATOM      7  C   UNL     1      46.444  57.156  28.032  1.00  0.00    -0.028 C 
ATOM      8  C   UNL     1      46.561  56.424  29.170  1.00  0.00    -0.070 CG0
ATOM      9  C   UNL     1      47.800  55.575  29.318  1.00  0.00     0.039 C 
ATOM     10  G   UNL     1      45.568  56.463  30.329  1.00  0.00     0.000 G0
ENDBRANCH   6   7
ENDBRANCH   5   6
ENDBRANCH   3   5
ENDBRANCH   1   3
BRANCH   1  11
ATOM     11  C   UNL     1      45.638  59.825  30.768  1.00  0.00     0.087 C 
BRANCH  11  12
ATOM     12  C   UNL     1      45.178  58.688  31.724  1.00  0.00     0.066 C 
BRANCH  12  13
ATOM     13  C   UNL     1      45.949  57.397  31.472  1.00  0.00     0.140 C 
ATOM     14  O   UNL     1      46.966  57.179  32.115  1.00  0.00    -0.299 OA
BRANCH  13  15
ATOM     15  C   UNL     1      45.572  56.466  30.343  1.00  0.00     0.106 CG0
ATOM     16  G   UNL     1      46.562  56.429  29.181  1.00  0.00     0.000 G0
ENDBRANCH  13  15
ENDBRANCH  12  13
BRANCH  12  17
ATOM     17  C   UNL     1      45.272  59.099  33.230  1.00  0.00    -0.006 C 
ATOM     18  C   UNL     1      43.919  59.625  33.748  1.00  0.00     0.008 C 
ATOM     19  C   UNL     1      46.348  60.170  33.484  1.00  0.00     0.008 C 
ENDBRANCH  12  17
ENDBRANCH  11  12
ENDBRANCH   1  11
TORSDOF 1
ENDMDL
MODEL 9
REMARK VINA RESULT:    -3.517     17.664     19.192
REMARK INTER + INTRA:          -5.566
REMARK INTER:                  -5.246
REMARK INTRA:                  -0.320
REMARK UNBOUND:                -0.199
REMARK SMILES CC1=CCC[C@@H](C)C(=O)C[C@H](C(C)C)C(=O)C1
REMARK SMILES IDX 8 1 9 2 6 3 7 4 5 5 4 6 3 7 2 8 1 9 10 11 11 12 15 13 16 14
REMARK SMILES IDX 17 15 12 17 13 18 14 19
REMARK H PARENT
REMARK Flexibility Score: 70.00
ROOT
ATOM      1  C   UNL     1      43.761  59.057  30.808  1.00  0.00     0.136 C 
ATOM      2  O   UNL     1      42.841  59.365  31.553  1.00  0.00    -0.299 OA
ENDROOT
BRANCH   1   3
ATOM      3  C   UNL     1      43.669  59.345  29.316  1.00  0.00     0.053 C 
ATOM      4  C   UNL     1      43.744  60.849  29.007  1.00  0.00     0.016 C 
BRANCH   3   5
ATOM      5  C   UNL     1      42.416  58.706  28.677  1.00  0.00     0.015 C 
BRANCH   5   6
ATOM      6  C   UNL     1      42.363  57.175  28.845  1.00  0.00     0.028 C 
BRANCH   6   7
ATOM      7  C   UNL     1      43.428  56.454  28.057  1.00  0.00    -0.028 C 
ATOM      8  C   UNL     1      44.255  55.486  28.527  1.00  0.00    -0.070 CG0
ATOM      9  C   UNL     1      45.162  54.810  27.528  1.00  0.00     0.039 C 
ATOM     10  G   UNL     1      44.380  55.094  29.998  1.00  0.00     0.000 G0
ENDBRANCH   6   7
ENDBRANCH   5   6
ENDBRANCH   3   5
ENDBRANCH   1   3
BRANCH   1  11
ATOM     11  C   UNL     1      44.991  58.410  31.398  1.00  0.00     0.087 C 
BRANCH  11  12
ATOM     12  C   UNL     1      44.751  56.941  31.846  1.00  0.00     0.066 C 
BRANCH  12  13
ATOM     13  C   UNL     1      45.299  55.947  30.827  1.00  0.00     0.140 C 
ATOM     14  O   UNL     1      46.498  55.946  30.588  1.00  0.00    -0.299 OA
BRANCH  13  15
ATOM     15  C   UNL     1      44.376  55.082  30.000  1.00  0.00     0.106 CG0
ATOM     16  G   UNL     1      44.261  55.484  28.532  1.00  0.00     0.000 G0
ENDBRANCH  13  15
ENDBRANCH  12  13
BRANCH  12  17
ATOM     17  C   UNL     1      45.331  56.646  33.268  1.00  0.00    -0.006 C 
ATOM     18  C   UNL     1      44.800  55.309  33.820  1.00  0.00     0.008 C 
ATOM     19  C   UNL     1      45.008  57.761  34.279  1.00  0.00     0.008 C 
ENDBRANCH  12  17
ENDBRANCH  11  12
ENDBRANCH   1  11
TORSDOF 1
ENDMDL
