MODEL 1
REMARK VINA RESULT:    -2.276      0.000      0.000
REMARK INTER + INTRA:          -3.434
REMARK INTER:                  -3.075
REMARK INTRA:                  -0.359
REMARK UNBOUND:                -0.359
REMARK SMILES [NH3+]CCCC[C@H]([NH3+])C(=O)[O-]
REMARK SMILES IDX 4 1 3 2 2 3 1 4 5 8 6 9 7 10 8 14 9 15 10 16
REMARK H PARENT 1 5 1 6 1 7 7 11 7 12 7 13
REMARK Flexibility Score: inf
ROOT
ATOM      1  C   UNL     1       0.470  29.281 -13.152  1.00  0.00     0.012 C 
ENDROOT
BRANCH   1   2
ATOM      2  C   UNL     1       1.966  29.405 -12.782  1.00  0.00     0.061 C 
BRANCH   2   3
ATOM      3  C   UNL     1       2.500  30.846 -12.871  1.00  0.00     0.258 C 
BRANCH   3   4
ATOM      4  N   UNL     1       3.125  31.125 -14.165  1.00  0.00    -0.358 N 
ATOM      5  H   UNL     1       2.678  30.550 -14.917  1.00  0.00     0.344 HD
ATOM      6  H   UNL     1       4.150  30.928 -14.123  1.00  0.00     0.344 HD
ATOM      7  H   UNL     1       2.994  32.136 -14.395  1.00  0.00     0.344 HD
ENDBRANCH   3   4
ENDBRANCH   2   3
ENDBRANCH   1   2
BRANCH   1   8
ATOM      8  C   UNL     1       0.196  28.192 -14.209  1.00  0.00     0.072 C 
BRANCH   8   9
ATOM      9  C   UNL     1       0.495  28.642 -15.662  1.00  0.00     0.227 C 
BRANCH   9  10
ATOM     10  N   UNL     1       1.926  28.527 -15.981  1.00  0.00    -0.350 N 
ATOM     11  H   UNL     1       2.276  27.581 -15.701  1.00  0.00     0.345 HD
ATOM     12  H   UNL     1       2.477  29.236 -15.448  1.00  0.00     0.345 HD
ATOM     13  H   UNL     1       2.092  28.660 -17.005  1.00  0.00     0.345 HD
ENDBRANCH   9  10
BRANCH   9  14
ATOM     14  C   UNL     1       0.038  30.063 -15.856  1.00  0.00     0.099 C 
ATOM     15  O   UNL     1       0.874  30.978 -16.082  1.00  0.00    -0.544 OA
ATOM     16  O   UNL     1      -1.314  30.375 -15.771  1.00  0.00    -0.544 OA
ENDBRANCH   9  14
ENDBRANCH   8   9
ENDBRANCH   1   8
TORSDOF 7
ENDMDL
MODEL 2
REMARK VINA RESULT:    -2.225      2.377      3.202
REMARK INTER + INTRA:          -3.365
REMARK INTER:                  -2.845
REMARK INTRA:                  -0.520
REMARK UNBOUND:                -0.359
REMARK SMILES [NH3+]CCCC[C@H]([NH3+])C(=O)[O-]
REMARK SMILES IDX 4 1 3 2 2 3 1 4 5 8 6 9 7 10 8 14 9 15 10 16
REMARK H PARENT 1 5 1 6 1 7 7 11 7 12 7 13
REMARK Flexibility Score: inf
ROOT
ATOM      1  C   UNL     1       1.812  31.074 -13.926  1.00  0.00     0.012 C 
ENDROOT
BRANCH   1   2
ATOM      2  C   UNL     1       1.948  31.028 -15.465  1.00  0.00     0.061 C 
BRANCH   2   3
ATOM      3  C   UNL     1       3.123  30.159 -15.948  1.00  0.00     0.258 C 
BRANCH   3   4
ATOM      4  N   UNL     1       2.737  28.757 -16.125  1.00  0.00    -0.358 N 
ATOM      5  H   UNL     1       1.707  28.643 -15.980  1.00  0.00     0.344 HD
ATOM      6  H   UNL     1       3.265  28.150 -15.458  1.00  0.00     0.344 HD
ATOM      7  H   UNL     1       2.974  28.460 -17.098  1.00  0.00     0.344 HD
ENDBRANCH   3   4
ENDBRANCH   2   3
ENDBRANCH   1   2
BRANCH   1   8
ATOM      8  C   UNL     1       0.493  30.460 -13.415  1.00  0.00     0.072 C 
BRANCH   8   9
ATOM      9  C   UNL     1       0.668  29.072 -12.747  1.00  0.00     0.227 C 
BRANCH   9  10
ATOM     10  N   UNL     1       2.069  28.823 -12.375  1.00  0.00    -0.350 N 
ATOM     11  H   UNL     1       2.273  29.269 -11.451  1.00  0.00     0.345 HD
ATOM     12  H   UNL     1       2.714  29.246 -13.078  1.00  0.00     0.345 HD
ATOM     13  H   UNL     1       2.259  27.796 -12.305  1.00  0.00     0.345 HD
ENDBRANCH   9  10
BRANCH   9  14
ATOM     14  C   UNL     1       0.185  27.995 -13.682  1.00  0.00     0.099 C 
ATOM     15  O   UNL     1       0.158  28.194 -14.926  1.00  0.00    -0.544 OA
ATOM     16  O   UNL     1      -0.250  26.777 -13.173  1.00  0.00    -0.544 OA
ENDBRANCH   9  14
ENDBRANCH   8   9
ENDBRANCH   1   8
TORSDOF 7
ENDMDL
MODEL 3
REMARK VINA RESULT:    -2.024      2.207      2.547
REMARK INTER + INTRA:          -3.093
REMARK INTER:                  -2.707
REMARK INTRA:                  -0.387
REMARK UNBOUND:                -0.359
REMARK SMILES [NH3+]CCCC[C@H]([NH3+])C(=O)[O-]
REMARK SMILES IDX 4 1 3 2 2 3 1 4 5 8 6 9 7 10 8 14 9 15 10 16
REMARK H PARENT 1 5 1 6 1 7 7 11 7 12 7 13
REMARK Flexibility Score: inf
ROOT
ATOM      1  C   UNL     1       1.301  31.008 -13.760  1.00  0.00     0.012 C 
ENDROOT
BRANCH   1   2
ATOM      2  C   UNL     1       2.792  30.946 -13.357  1.00  0.00     0.061 C 
BRANCH   2   3
ATOM      3  C   UNL     1       3.124  29.769 -12.423  1.00  0.00     0.258 C 
BRANCH   3   4
ATOM      4  N   UNL     1       2.063  28.761 -12.404  1.00  0.00    -0.358 N 
ATOM      5  H   UNL     1       2.470  27.806 -12.276  1.00  0.00     0.344 HD
ATOM      6  H   UNL     1       1.509  28.801 -13.289  1.00  0.00     0.344 HD
ATOM      7  H   UNL     1       1.419  28.960 -11.605  1.00  0.00     0.344 HD
ENDBRANCH   3   4
ENDBRANCH   2   3
ENDBRANCH   1   2
BRANCH   1   8
ATOM      8  C   UNL     1       1.089  31.125 -15.283  1.00  0.00     0.072 C 
BRANCH   8   9
ATOM      9  C   UNL     1       0.294  29.943 -15.895  1.00  0.00     0.227 C 
BRANCH   9  10
ATOM     10  N   UNL     1      -1.137  30.026 -15.568  1.00  0.00    -0.350 N 
ATOM     11  H   UNL     1      -1.490  29.083 -15.283  1.00  0.00     0.345 HD
ATOM     12  H   UNL     1      -1.686  30.326 -16.405  1.00  0.00     0.345 HD
ATOM     13  H   UNL     1      -1.304  30.701 -14.787  1.00  0.00     0.345 HD
ENDBRANCH   9  10
BRANCH   9  14
ATOM     14  C   UNL     1       0.860  28.640 -15.398  1.00  0.00     0.099 C 
ATOM     15  O   UNL     1       1.995  28.249 -15.781  1.00  0.00    -0.544 OA
ATOM     16  O   UNL     1       0.123  27.851 -14.523  1.00  0.00    -0.544 OA
ENDBRANCH   9  14
ENDBRANCH   8   9
ENDBRANCH   1   8
TORSDOF 7
ENDMDL
MODEL 4
REMARK VINA RESULT:    -2.017      3.554      4.669
REMARK INTER + INTRA:          -3.084
REMARK INTER:                  -3.006
REMARK INTRA:                  -0.078
REMARK UNBOUND:                -0.359
REMARK SMILES [NH3+]CCCC[C@H]([NH3+])C(=O)[O-]
REMARK SMILES IDX 4 1 3 2 2 3 1 4 5 8 6 9 7 10 8 14 9 15 10 16
REMARK H PARENT 1 5 1 6 1 7 7 11 7 12 7 13
REMARK Flexibility Score: inf
ROOT
ATOM      1  C   UNL     1      -0.257  26.532 -13.025  1.00  0.00     0.012 C 
ENDROOT
BRANCH   1   2
ATOM      2  C   UNL     1      -1.272  26.102 -11.941  1.00  0.00     0.061 C 
BRANCH   2   3
ATOM      3  C   UNL     1      -1.646  24.611 -12.012  1.00  0.00     0.258 C 
BRANCH   3   4
ATOM      4  N   UNL     1      -2.467  24.191 -10.875  1.00  0.00    -0.358 N 
ATOM      5  H   UNL     1      -3.009  23.329 -11.116  1.00  0.00     0.344 HD
ATOM      6  H   UNL     1      -3.117  24.960 -10.594  1.00  0.00     0.344 HD
ATOM      7  H   UNL     1      -1.841  23.978 -10.065  1.00  0.00     0.344 HD
ENDBRANCH   3   4
ENDBRANCH   2   3
ENDBRANCH   1   2
BRANCH   1   8
ATOM      8  C   UNL     1       0.336  27.934 -12.777  1.00  0.00     0.072 C 
BRANCH   8   9
ATOM      9  C   UNL     1       0.489  28.784 -14.065  1.00  0.00     0.227 C 
BRANCH   9  10
ATOM     10  N   UNL     1       0.553  27.939 -15.267  1.00  0.00    -0.350 N 
ATOM     11  H   UNL     1      -0.266  28.142 -15.886  1.00  0.00     0.345 HD
ATOM     12  H   UNL     1       0.507  26.929 -15.007  1.00  0.00     0.345 HD
ATOM     13  H   UNL     1       1.435  28.118 -15.802  1.00  0.00     0.345 HD
ENDBRANCH   9  10
BRANCH   9  14
ATOM     14  C   UNL     1       1.726  29.635 -13.967  1.00  0.00     0.099 C 
ATOM     15  O   UNL     1       2.149  30.266 -14.972  1.00  0.00    -0.544 OA
ATOM     16  O   UNL     1       2.421  29.715 -12.766  1.00  0.00    -0.544 OA
ENDBRANCH   9  14
ENDBRANCH   8   9
ENDBRANCH   1   8
TORSDOF 7
ENDMDL
MODEL 5
REMARK VINA RESULT:    -1.874      3.515      4.565
REMARK INTER + INTRA:          -2.891
REMARK INTER:                  -2.822
REMARK INTRA:                  -0.069
REMARK UNBOUND:                -0.359
REMARK SMILES [NH3+]CCCC[C@H]([NH3+])C(=O)[O-]
REMARK SMILES IDX 4 1 3 2 2 3 1 4 5 8 6 9 7 10 8 14 9 15 10 16
REMARK H PARENT 1 5 1 6 1 7 7 11 7 12 7 13
REMARK Flexibility Score: inf
ROOT
ATOM      1  C   UNL     1      -0.326  26.737 -12.522  1.00  0.00     0.012 C 
ENDROOT
BRANCH   1   2
ATOM      2  C   UNL     1      -1.060  25.385 -12.672  1.00  0.00     0.061 C 
BRANCH   2   3
ATOM      3  C   UNL     1      -2.182  25.181 -11.639  1.00  0.00     0.258 C 
BRANCH   3   4
ATOM      4  N   UNL     1      -2.253  23.798 -11.165  1.00  0.00    -0.358 N 
ATOM      5  H   UNL     1      -2.375  23.775 -10.126  1.00  0.00     0.344 HD
ATOM      6  H   UNL     1      -1.390  23.276 -11.438  1.00  0.00     0.344 HD
ATOM      7  H   UNL     1      -3.074  23.328 -11.609  1.00  0.00     0.344 HD
ENDBRANCH   3   4
ENDBRANCH   2   3
ENDBRANCH   1   2
BRANCH   1   8
ATOM      8  C   UNL     1       0.093  27.353 -13.872  1.00  0.00     0.072 C 
BRANCH   8   9
ATOM      9  C   UNL     1       0.710  28.770 -13.748  1.00  0.00     0.227 C 
BRANCH   9  10
ATOM     10  N   UNL     1       0.468  29.351 -12.419  1.00  0.00    -0.350 N 
ATOM     11  H   UNL     1      -0.236  28.774 -11.903  1.00  0.00     0.345 HD
ATOM     12  H   UNL     1       0.079  30.316 -12.508  1.00  0.00     0.345 HD
ATOM     13  H   UNL     1       1.352  29.386 -11.860  1.00  0.00     0.345 HD
ENDBRANCH   9  10
BRANCH   9  14
ATOM     14  C   UNL     1       0.138  29.666 -14.813  1.00  0.00     0.099 C 
ATOM     15  O   UNL     1      -0.275  30.821 -14.523  1.00  0.00    -0.544 OA
ATOM     16  O   UNL     1       0.048  29.216 -16.125  1.00  0.00    -0.544 OA
ENDBRANCH   9  14
ENDBRANCH   8   9
ENDBRANCH   1   8
TORSDOF 7
ENDMDL
MODEL 6
REMARK VINA RESULT:    -1.412      2.268      3.007
REMARK INTER + INTRA:          -2.266
REMARK INTER:                  -1.756
REMARK INTRA:                  -0.511
REMARK UNBOUND:                -0.359
REMARK SMILES [NH3+]CCCC[C@H]([NH3+])C(=O)[O-]
REMARK SMILES IDX 4 1 3 2 2 3 1 4 5 8 6 9 7 10 8 14 9 15 10 16
REMARK H PARENT 1 5 1 6 1 7 7 11 7 12 7 13
REMARK Flexibility Score: inf
ROOT
ATOM      1  C   UNL     1       0.136  29.889 -12.780  1.00  0.00     0.012 C 
ENDROOT
BRANCH   1   2
ATOM      2  C   UNL     1       0.870  28.553 -12.522  1.00  0.00     0.061 C 
BRANCH   2   3
ATOM      3  C   UNL     1       0.157  27.335 -13.136  1.00  0.00     0.258 C 
BRANCH   3   4
ATOM      4  N   UNL     1       0.153  27.377 -14.599  1.00  0.00    -0.358 N 
ATOM      5  H   UNL     1      -0.297  28.259 -14.937  1.00  0.00     0.344 HD
ATOM      6  H   UNL     1      -0.349  26.545 -14.985  1.00  0.00     0.344 HD
ATOM      7  H   UNL     1       1.140  27.352 -14.943  1.00  0.00     0.344 HD
ENDBRANCH   3   4
ENDBRANCH   2   3
ENDBRANCH   1   2
BRANCH   1   8
ATOM      8  C   UNL     1       1.046  30.973 -13.390  1.00  0.00     0.072 C 
BRANCH   8   9
ATOM      9  C   UNL     1       0.894  31.125 -14.925  1.00  0.00     0.227 C 
BRANCH   9  10
ATOM     10  N   UNL     1      -0.408  30.625 -15.393  1.00  0.00    -0.350 N 
ATOM     11  H   UNL     1      -0.303  30.205 -16.346  1.00  0.00     0.345 HD
ATOM     12  H   UNL     1      -1.094  31.408 -15.469  1.00  0.00     0.345 HD
ATOM     13  H   UNL     1      -0.784  29.898 -14.742  1.00  0.00     0.345 HD
ENDBRANCH   9  10
BRANCH   9  14
ATOM     14  C   UNL     1       2.008  30.389 -15.620  1.00  0.00     0.099 C 
ATOM     15  O   UNL     1       3.125  30.943 -15.800  1.00  0.00    -0.544 OA
ATOM     16  O   UNL     1       1.802  29.095 -16.084  1.00  0.00    -0.544 OA
ENDBRANCH   9  14
ENDBRANCH   8   9
ENDBRANCH   1   8
TORSDOF 7
ENDMDL
MODEL 7
REMARK VINA RESULT:    -0.896     14.169     15.141
REMARK INTER + INTRA:          -1.570
REMARK INTER:                  -1.504
REMARK INTRA:                  -0.066
REMARK UNBOUND:                -0.359
REMARK SMILES [NH3+]CCCC[C@H]([NH3+])C(=O)[O-]
REMARK SMILES IDX 4 1 3 2 2 3 1 4 5 8 6 9 7 10 8 14 9 15 10 16
REMARK H PARENT 1 5 1 6 1 7 7 11 7 12 7 13
REMARK Flexibility Score: inf
ROOT
ATOM      1  C   UNL     1       2.724  16.119 -10.185  1.00  0.00     0.012 C 
ENDROOT
BRANCH   1   2
ATOM      2  C   UNL     1       1.964  16.486 -11.479  1.00  0.00     0.061 C 
BRANCH   2   3
ATOM      3  C   UNL     1       2.764  16.196 -12.762  1.00  0.00     0.258 C 
BRANCH   3   4
ATOM      4  N   UNL     1       3.125  17.421 -13.477  1.00  0.00    -0.358 N 
ATOM      5  H   UNL     1       4.043  17.299 -13.965  1.00  0.00     0.344 HD
ATOM      6  H   UNL     1       3.173  18.227 -12.814  1.00  0.00     0.344 HD
ATOM      7  H   UNL     1       2.391  17.626 -14.191  1.00  0.00     0.344 HD
ENDBRANCH   3   4
ENDBRANCH   2   3
ENDBRANCH   1   2
BRANCH   1   8
ATOM      8  C   UNL     1       1.990  16.563  -8.904  1.00  0.00     0.072 C 
BRANCH   8   9
ATOM      9  C   UNL     1       2.736  16.191  -7.596  1.00  0.00     0.227 C 
BRANCH   9  10
ATOM     10  N   UNL     1       3.091  14.765  -7.560  1.00  0.00    -0.350 N 
ATOM     11  H   UNL     1       2.798  14.306  -8.454  1.00  0.00     0.345 HD
ATOM     12  H   UNL     1       2.589  14.284  -6.781  1.00  0.00     0.345 HD
ATOM     13  H   UNL     1       4.122  14.639  -7.436  1.00  0.00     0.345 HD
ENDBRANCH   9  10
BRANCH   9  14
ATOM     14  C   UNL     1       1.880  16.539  -6.408  1.00  0.00     0.099 C 
ATOM     15  O   UNL     1       0.952  15.769  -6.043  1.00  0.00    -0.544 OA
ATOM     16  O   UNL     1       2.100  17.724  -5.716  1.00  0.00    -0.544 OA
ENDBRANCH   9  14
ENDBRANCH   8   9
ENDBRANCH   1   8
TORSDOF 7
ENDMDL
MODEL 8
REMARK VINA RESULT:    -0.421      2.636      3.837
REMARK INTER + INTRA:          -0.928
REMARK INTER:                  -0.954
REMARK INTRA:                   0.026
REMARK UNBOUND:                -0.359
REMARK SMILES [NH3+]CCCC[C@H]([NH3+])C(=O)[O-]
REMARK SMILES IDX 4 1 3 2 2 3 1 4 5 8 6 9 7 10 8 14 9 15 10 16
REMARK H PARENT 1 5 1 6 1 7 7 11 7 12 7 13
REMARK Flexibility Score: inf
ROOT
ATOM      1  C   UNL     1       0.451  29.206 -15.599  1.00  0.00     0.012 C 
ENDROOT
BRANCH   1   2
ATOM      2  C   UNL     1      -0.031  30.586 -16.100  1.00  0.00     0.061 C 
BRANCH   2   3
ATOM      3  C   UNL     1      -1.249  31.125 -15.329  1.00  0.00     0.258 C 
BRANCH   3   4
ATOM      4  N   UNL     1      -2.480  31.050 -16.116  1.00  0.00    -0.358 N 
ATOM      5  H   UNL     1      -3.107  30.301 -15.741  1.00  0.00     0.344 HD
ATOM      6  H   UNL     1      -2.258  30.864 -17.120  1.00  0.00     0.344 HD
ATOM      7  H   UNL     1      -2.980  31.966 -16.055  1.00  0.00     0.344 HD
ENDBRANCH   3   4
ENDBRANCH   2   3
ENDBRANCH   1   2
BRANCH   1   8
ATOM      8  C   UNL     1       1.854  29.249 -14.961  1.00  0.00     0.072 C 
BRANCH   8   9
ATOM      9  C   UNL     1       1.889  29.945 -13.576  1.00  0.00     0.227 C 
BRANCH   9  10
ATOM     10  N   UNL     1       3.123  29.629 -12.842  1.00  0.00    -0.350 N 
ATOM     11  H   UNL     1       2.917  29.560 -11.818  1.00  0.00     0.345 HD
ATOM     12  H   UNL     1       3.829  30.389 -12.970  1.00  0.00     0.345 HD
ATOM     13  H   UNL     1       3.530  28.722 -13.167  1.00  0.00     0.345 HD
ENDBRANCH   9  10
BRANCH   9  14
ATOM     14  C   UNL     1       0.689  29.528 -12.769  1.00  0.00     0.099 C 
ATOM     15  O   UNL     1      -0.143  30.387 -12.372  1.00  0.00    -0.544 OA
ATOM     16  O   UNL     1       0.502  28.190 -12.443  1.00  0.00    -0.544 OA
ENDBRANCH   9  14
ENDBRANCH   8   9
ENDBRANCH   1   8
TORSDOF 7
ENDMDL
