MODEL 1
REMARK VINA RESULT:    -3.779      0.000      0.000
REMARK INTER + INTRA:          -7.523
REMARK INTER:                  -6.982
REMARK INTRA:                  -0.541
REMARK UNBOUND:                -0.541
REMARK SMILES CCCCCCCCCCCCCCCCO
REMARK SMILES IDX 9 1 8 2 7 3 6 4 5 5 4 6 3 7 2 8 1 9 10 10 11 11 12 12 13 13
REMARK SMILES IDX 14 14 15 15 16 16 17 17
REMARK H PARENT 17 18
REMARK Flexibility Score: inf
ROOT
ATOM      1  C   UNL     1      41.214  12.870 -36.270  1.00  0.00     0.000 C 
ENDROOT
BRANCH   1   2
ATOM      2  C   UNL     1      42.119  12.147 -35.256  1.00  0.00    -0.000 C 
BRANCH   2   3
ATOM      3  C   UNL     1      43.432  11.642 -35.873  1.00  0.00    -0.000 C 
BRANCH   3   4
ATOM      4  C   UNL     1      44.640  12.092 -35.039  1.00  0.00    -0.000 C 
BRANCH   4   5
ATOM      5  C   UNL     1      44.321  12.199 -33.537  1.00  0.00    -0.000 C 
BRANCH   5   6
ATOM      6  C   UNL     1      45.419  12.866 -32.683  1.00  0.00    -0.000 C 
BRANCH   6   7
ATOM      7  C   UNL     1      45.413  12.479 -31.193  1.00  0.00    -0.000 C 
BRANCH   7   8
ATOM      8  C   UNL     1      46.440  11.389 -30.857  1.00  0.00    -0.003 C 
ATOM      9  C   UNL     1      46.521  11.156 -29.352  1.00  0.00     0.004 C 
ENDBRANCH   7   8
ENDBRANCH   6   7
ENDBRANCH   5   6
ENDBRANCH   4   5
ENDBRANCH   3   4
ENDBRANCH   2   3
ENDBRANCH   1   2
BRANCH   1  10
ATOM     10  C   UNL     1      40.275  13.934 -35.670  1.00  0.00     0.000 C 
BRANCH  10  11
ATOM     11  C   UNL     1      38.819  13.783 -36.141  1.00  0.00     0.000 C 
BRANCH  11  12
ATOM     12  C   UNL     1      37.798  14.329 -35.125  1.00  0.00     0.000 C 
BRANCH  12  13
ATOM     13  C   UNL     1      37.623  13.487 -33.848  1.00  0.00     0.000 C 
BRANCH  13  14
ATOM     14  C   UNL     1      36.937  14.260 -32.708  1.00  0.00     0.002 C 
BRANCH  14  15
ATOM     15  C   UNL     1      36.892  13.459 -31.398  1.00  0.00     0.028 C 
BRANCH  15  16
ATOM     16  C   UNL     1      37.156  14.328 -30.161  1.00  0.00     0.156 C 
BRANCH  16  17
ATOM     17  O   UNL     1      38.004  15.393 -30.492  1.00  0.00    -0.396 OA
ATOM     18  H   UNL     1      37.511  15.955 -31.145  1.00  0.00     0.210 HD
ENDBRANCH  16  17
ENDBRANCH  15  16
ENDBRANCH  14  15
ENDBRANCH  13  14
ENDBRANCH  12  13
ENDBRANCH  11  12
ENDBRANCH  10  11
ENDBRANCH   1  10
TORSDOF 15
ENDMDL
MODEL 2
REMARK VINA RESULT:    -3.508      2.653      7.661
REMARK INTER + INTRA:          -7.023
REMARK INTER:                  -6.480
REMARK INTRA:                  -0.543
REMARK UNBOUND:                -0.541
REMARK SMILES CCCCCCCCCCCCCCCCO
REMARK SMILES IDX 9 1 8 2 7 3 6 4 5 5 4 6 3 7 2 8 1 9 10 10 11 11 12 12 13 13
REMARK SMILES IDX 14 14 15 15 16 16 17 17
REMARK H PARENT 17 18
REMARK Flexibility Score: inf
ROOT
ATOM      1  C   UNL     1      42.690  12.721 -36.224  1.00  0.00     0.000 C 
ENDROOT
BRANCH   1   2
ATOM      2  C   UNL     1      41.572  13.780 -36.254  1.00  0.00    -0.000 C 
BRANCH   2   3
ATOM      3  C   UNL     1      40.227  13.251 -35.735  1.00  0.00    -0.000 C 
BRANCH   3   4
ATOM      4  C   UNL     1      39.254  14.406 -35.456  1.00  0.00    -0.000 C 
BRANCH   4   5
ATOM      5  C   UNL     1      37.793  13.938 -35.330  1.00  0.00    -0.000 C 
BRANCH   5   6
ATOM      6  C   UNL     1      37.116  14.268 -33.984  1.00  0.00    -0.000 C 
BRANCH   6   7
ATOM      7  C   UNL     1      36.967  13.078 -33.019  1.00  0.00    -0.000 C 
BRANCH   7   8
ATOM      8  C   UNL     1      36.957  13.506 -31.544  1.00  0.00    -0.003 C 
ATOM      9  C   UNL     1      37.086  12.298 -30.622  1.00  0.00     0.004 C 
ENDBRANCH   7   8
ENDBRANCH   6   7
ENDBRANCH   5   6
ENDBRANCH   4   5
ENDBRANCH   3   4
ENDBRANCH   2   3
ENDBRANCH   1   2
BRANCH   1  10
ATOM     10  C   UNL     1      42.880  12.006 -34.873  1.00  0.00     0.000 C 
BRANCH  10  11
ATOM     11  C   UNL     1      44.306  12.149 -34.315  1.00  0.00     0.000 C 
BRANCH  11  12
ATOM     12  C   UNL     1      44.335  12.382 -32.792  1.00  0.00     0.000 C 
BRANCH  12  13
ATOM     13  C   UNL     1      45.595  13.088 -32.256  1.00  0.00     0.000 C 
BRANCH  13  14
ATOM     14  C   UNL     1      46.772  12.124 -32.028  1.00  0.00     0.002 C 
BRANCH  14  15
ATOM     15  C   UNL     1      46.435  11.012 -31.023  1.00  0.00     0.028 C 
BRANCH  15  16
ATOM     16  C   UNL     1      46.212  11.543 -29.601  1.00  0.00     0.156 C 
BRANCH  16  17
ATOM     17  O   UNL     1      47.152  10.985 -28.724  1.00  0.00    -0.396 OA
ATOM     18  H   UNL     1      47.469  10.144 -29.146  1.00  0.00     0.210 HD
ENDBRANCH  16  17
ENDBRANCH  15  16
ENDBRANCH  14  15
ENDBRANCH  13  14
ENDBRANCH  12  13
ENDBRANCH  11  12
ENDBRANCH  10  11
ENDBRANCH   1  10
TORSDOF 15
ENDMDL
MODEL 3
REMARK VINA RESULT:    -3.364     19.418     21.963
REMARK INTER + INTRA:          -6.757
REMARK INTER:                  -5.765
REMARK INTRA:                  -0.992
REMARK UNBOUND:                -0.541
REMARK SMILES CCCCCCCCCCCCCCCCO
REMARK SMILES IDX 9 1 8 2 7 3 6 4 5 5 4 6 3 7 2 8 1 9 10 10 11 11 12 12 13 13
REMARK SMILES IDX 14 14 15 15 16 16 17 17
REMARK H PARENT 17 18
REMARK Flexibility Score: inf
ROOT
ATOM      1  C   UNL     1      55.487  26.256 -34.747  1.00  0.00     0.000 C 
ENDROOT
BRANCH   1   2
ATOM      2  C   UNL     1      55.247  25.086 -35.718  1.00  0.00    -0.000 C 
BRANCH   2   3
ATOM      3  C   UNL     1      55.148  25.532 -37.185  1.00  0.00    -0.000 C 
BRANCH   3   4
ATOM      4  C   UNL     1      54.830  27.030 -37.283  1.00  0.00    -0.000 C 
BRANCH   4   5
ATOM      5  C   UNL     1      54.462  27.470 -38.712  1.00  0.00    -0.000 C 
BRANCH   5   6
ATOM      6  C   UNL     1      54.746  28.952 -39.033  1.00  0.00    -0.000 C 
BRANCH   6   7
ATOM      7  C   UNL     1      54.106  29.965 -38.067  1.00  0.00    -0.000 C 
BRANCH   7   8
ATOM      8  C   UNL     1      55.046  31.125 -37.711  1.00  0.00    -0.003 C 
ATOM      9  C   UNL     1      55.553  31.001 -36.278  1.00  0.00     0.004 C 
ENDBRANCH   7   8
ENDBRANCH   6   7
ENDBRANCH   5   6
ENDBRANCH   4   5
ENDBRANCH   3   4
ENDBRANCH   2   3
ENDBRANCH   1   2
BRANCH   1  10
ATOM     10  C   UNL     1      56.957  26.684 -34.585  1.00  0.00     0.000 C 
BRANCH  10  11
ATOM     11  C   UNL     1      57.123  28.198 -34.379  1.00  0.00     0.000 C 
BRANCH  11  12
ATOM     12  C   UNL     1      56.937  28.631 -32.912  1.00  0.00     0.000 C 
BRANCH  12  13
ATOM     13  C   UNL     1      56.523  30.099 -32.704  1.00  0.00     0.000 C 
BRANCH  13  14
ATOM     14  C   UNL     1      55.611  30.298 -31.481  1.00  0.00     0.002 C 
BRANCH  14  15
ATOM     15  C   UNL     1      56.386  30.758 -30.237  1.00  0.00     0.028 C 
BRANCH  15  16
ATOM     16  C   UNL     1      56.821  29.590 -29.342  1.00  0.00     0.156 C 
BRANCH  16  17
ATOM     17  O   UNL     1      55.803  28.630 -29.274  1.00  0.00    -0.396 OA
ATOM     18  H   UNL     1      55.683  28.410 -28.314  1.00  0.00     0.210 HD
ENDBRANCH  16  17
ENDBRANCH  15  16
ENDBRANCH  14  15
ENDBRANCH  13  14
ENDBRANCH  12  13
ENDBRANCH  11  12
ENDBRANCH  10  11
ENDBRANCH   1  10
TORSDOF 15
ENDMDL
MODEL 4
REMARK VINA RESULT:    -3.291      1.291      1.717
REMARK INTER + INTRA:          -6.622
REMARK INTER:                  -5.896
REMARK INTRA:                  -0.727
REMARK UNBOUND:                -0.541
REMARK SMILES CCCCCCCCCCCCCCCCO
REMARK SMILES IDX 9 1 8 2 7 3 6 4 5 5 4 6 3 7 2 8 1 9 10 10 11 11 12 12 13 13
REMARK SMILES IDX 14 14 15 15 16 16 17 17
REMARK H PARENT 17 18
REMARK Flexibility Score: inf
ROOT
ATOM      1  C   UNL     1      41.498  12.414 -36.078  1.00  0.00     0.000 C 
ENDROOT
BRANCH   1   2
ATOM      2  C   UNL     1      42.726  11.784 -35.395  1.00  0.00    -0.000 C 
BRANCH   2   3
ATOM      3  C   UNL     1      43.522  12.786 -34.544  1.00  0.00    -0.000 C 
BRANCH   3   4
ATOM      4  C   UNL     1      44.668  12.085 -33.800  1.00  0.00    -0.000 C 
BRANCH   4   5
ATOM      5  C   UNL     1      44.882  12.635 -32.378  1.00  0.00    -0.000 C 
BRANCH   5   6
ATOM      6  C   UNL     1      46.321  12.506 -31.838  1.00  0.00    -0.000 C 
BRANCH   6   7
ATOM      7  C   UNL     1      46.624  11.193 -31.093  1.00  0.00    -0.000 C 
BRANCH   7   8
ATOM      8  C   UNL     1      46.987  11.416 -29.618  1.00  0.00    -0.003 C 
ATOM      9  C   UNL     1      45.888  10.894 -28.698  1.00  0.00     0.004 C 
ENDBRANCH   7   8
ENDBRANCH   6   7
ENDBRANCH   5   6
ENDBRANCH   4   5
ENDBRANCH   3   4
ENDBRANCH   2   3
ENDBRANCH   1   2
BRANCH   1  10
ATOM     10  C   UNL     1      41.440  13.952 -36.035  1.00  0.00     0.000 C 
BRANCH  10  11
ATOM     11  C   UNL     1      40.034  14.491 -35.723  1.00  0.00     0.000 C 
BRANCH  11  12
ATOM     12  C   UNL     1      38.911  13.531 -36.160  1.00  0.00     0.000 C 
BRANCH  12  13
ATOM     13  C   UNL     1      37.564  13.717 -35.437  1.00  0.00     0.000 C 
BRANCH  13  14
ATOM     14  C   UNL     1      37.566  14.904 -34.460  1.00  0.00     0.002 C 
BRANCH  14  15
ATOM     15  C   UNL     1      37.074  14.514 -33.057  1.00  0.00     0.028 C 
BRANCH  15  16
ATOM     16  C   UNL     1      37.012  12.994 -32.850  1.00  0.00     0.156 C 
BRANCH  16  17
ATOM     17  O   UNL     1      37.798  12.626 -31.750  1.00  0.00    -0.396 OA
ATOM     18  H   UNL     1      37.329  11.872 -31.306  1.00  0.00     0.210 HD
ENDBRANCH  16  17
ENDBRANCH  15  16
ENDBRANCH  14  15
ENDBRANCH  13  14
ENDBRANCH  12  13
ENDBRANCH  11  12
ENDBRANCH  10  11
ENDBRANCH   1  10
TORSDOF 15
ENDMDL
MODEL 5
REMARK VINA RESULT:    -2.654     19.832     22.165
REMARK INTER + INTRA:          -5.446
REMARK INTER:                  -4.496
REMARK INTRA:                  -0.950
REMARK UNBOUND:                -0.541
REMARK SMILES CCCCCCCCCCCCCCCCO
REMARK SMILES IDX 9 1 8 2 7 3 6 4 5 5 4 6 3 7 2 8 1 9 10 10 11 11 12 12 13 13
REMARK SMILES IDX 14 14 15 15 16 16 17 17
REMARK H PARENT 17 18
REMARK Flexibility Score: inf
ROOT
ATOM      1  C   UNL     1      56.720  26.698 -34.048  1.00  0.00     0.000 C 
ENDROOT
BRANCH   1   2
ATOM      2  C   UNL     1      57.033  27.983 -33.259  1.00  0.00    -0.000 C 
BRANCH   2   3
ATOM      3  C   UNL     1      56.408  29.240 -33.882  1.00  0.00    -0.000 C 
BRANCH   3   4
ATOM      4  C   UNL     1      55.829  30.161 -32.798  1.00  0.00    -0.000 C 
BRANCH   4   5
ATOM      5  C   UNL     1      56.876  31.124 -32.211  1.00  0.00    -0.000 C 
BRANCH   5   6
ATOM      6  C   UNL     1      57.125  30.975 -30.697  1.00  0.00    -0.000 C 
BRANCH   6   7
ATOM      7  C   UNL     1      56.105  30.096 -29.951  1.00  0.00    -0.000 C 
BRANCH   7   8
ATOM      8  C   UNL     1      56.523  29.796 -28.504  1.00  0.00    -0.003 C 
ATOM      9  C   UNL     1      57.011  31.059 -27.801  1.00  0.00     0.004 C 
ENDBRANCH   7   8
ENDBRANCH   6   7
ENDBRANCH   5   6
ENDBRANCH   4   5
ENDBRANCH   3   4
ENDBRANCH   2   3
ENDBRANCH   1   2
BRANCH   1  10
ATOM     10  C   UNL     1      55.320  26.645 -34.687  1.00  0.00     0.000 C 
BRANCH  10  11
ATOM     11  C   UNL     1      55.232  25.652 -35.858  1.00  0.00     0.000 C 
BRANCH  11  12
ATOM     12  C   UNL     1      55.160  26.346 -37.232  1.00  0.00     0.000 C 
BRANCH  12  13
ATOM     13  C   UNL     1      54.858  27.856 -37.194  1.00  0.00     0.000 C 
BRANCH  13  14
ATOM     14  C   UNL     1      54.630  28.458 -38.591  1.00  0.00     0.002 C 
BRANCH  14  15
ATOM     15  C   UNL     1      55.232  29.864 -38.732  1.00  0.00     0.028 C 
BRANCH  15  16
ATOM     16  C   UNL     1      54.650  30.864 -37.724  1.00  0.00     0.156 C 
BRANCH  16  17
ATOM     17  O   UNL     1      53.250  30.809 -37.745  1.00  0.00    -0.396 OA
ATOM     18  H   UNL     1      52.971  31.005 -38.677  1.00  0.00     0.210 HD
ENDBRANCH  16  17
ENDBRANCH  15  16
ENDBRANCH  14  15
ENDBRANCH  13  14
ENDBRANCH  12  13
ENDBRANCH  11  12
ENDBRANCH  10  11
ENDBRANCH   1  10
TORSDOF 15
ENDMDL
MODEL 6
REMARK VINA RESULT:    -2.414      2.081      7.324
REMARK INTER + INTRA:          -5.002
REMARK INTER:                  -4.328
REMARK INTRA:                  -0.674
REMARK UNBOUND:                -0.541
REMARK SMILES CCCCCCCCCCCCCCCCO
REMARK SMILES IDX 9 1 8 2 7 3 6 4 5 5 4 6 3 7 2 8 1 9 10 10 11 11 12 12 13 13
REMARK SMILES IDX 14 14 15 15 16 16 17 17
REMARK H PARENT 17 18
REMARK Flexibility Score: inf
ROOT
ATOM      1  C   UNL     1      40.108  13.267 -35.741  1.00  0.00     0.000 C 
ENDROOT
BRANCH   1   2
ATOM      2  C   UNL     1      39.358  14.606 -35.861  1.00  0.00    -0.000 C 
BRANCH   2   3
ATOM      3  C   UNL     1      38.099  14.673 -34.984  1.00  0.00    -0.000 C 
BRANCH   3   4
ATOM      4  C   UNL     1      37.147  13.511 -35.301  1.00  0.00    -0.000 C 
BRANCH   4   5
ATOM      5  C   UNL     1      36.875  12.611 -34.082  1.00  0.00    -0.000 C 
BRANCH   5   6
ATOM      6  C   UNL     1      36.882  13.336 -32.721  1.00  0.00    -0.000 C 
BRANCH   6   7
ATOM      7  C   UNL     1      36.875  12.414 -31.489  1.00  0.00    -0.000 C 
BRANCH   7   8
ATOM      8  C   UNL     1      37.230  13.152 -30.190  1.00  0.00    -0.003 C 
ATOM      9  C   UNL     1      37.116  14.663 -30.370  1.00  0.00     0.004 C 
ENDBRANCH   7   8
ENDBRANCH   6   7
ENDBRANCH   5   6
ENDBRANCH   4   5
ENDBRANCH   3   4
ENDBRANCH   2   3
ENDBRANCH   1   2
BRANCH   1  10
ATOM     10  C   UNL     1      41.608  13.321 -36.084  1.00  0.00     0.000 C 
BRANCH  10  11
ATOM     11  C   UNL     1      42.407  12.160 -35.469  1.00  0.00     0.000 C 
BRANCH  11  12
ATOM     12  C   UNL     1      43.821  12.022 -36.064  1.00  0.00     0.000 C 
BRANCH  12  13
ATOM     13  C   UNL     1      44.962  11.911 -35.036  1.00  0.00     0.000 C 
BRANCH  13  14
ATOM     14  C   UNL     1      44.595  12.502 -33.664  1.00  0.00     0.002 C 
BRANCH  14  15
ATOM     15  C   UNL     1      45.832  12.839 -32.818  1.00  0.00     0.028 C 
BRANCH  15  16
ATOM     16  C   UNL     1      45.939  11.977 -31.553  1.00  0.00     0.156 C 
BRANCH  16  17
ATOM     17  O   UNL     1      45.157  12.526 -30.527  1.00  0.00    -0.396 OA
ATOM     18  H   UNL     1      44.364  12.934 -30.963  1.00  0.00     0.210 HD
ENDBRANCH  16  17
ENDBRANCH  15  16
ENDBRANCH  14  15
ENDBRANCH  13  14
ENDBRANCH  12  13
ENDBRANCH  11  12
ENDBRANCH  10  11
ENDBRANCH   1  10
TORSDOF 15
ENDMDL
MODEL 7
REMARK VINA RESULT:    -2.352     19.554     21.870
REMARK INTER + INTRA:          -4.887
REMARK INTER:                  -3.614
REMARK INTRA:                  -1.273
REMARK UNBOUND:                -0.541
REMARK SMILES CCCCCCCCCCCCCCCCO
REMARK SMILES IDX 9 1 8 2 7 3 6 4 5 5 4 6 3 7 2 8 1 9 10 10 11 11 12 12 13 13
REMARK SMILES IDX 14 14 15 15 16 16 17 17
REMARK H PARENT 17 18
REMARK Flexibility Score: inf
ROOT
ATOM      1  C   UNL     1      55.508  31.125 -37.336  1.00  0.00     0.000 C 
ENDROOT
BRANCH   1   2
ATOM      2  C   UNL     1      55.218  29.964 -38.305  1.00  0.00    -0.000 C 
BRANCH   2   3
ATOM      3  C   UNL     1      54.849  28.658 -37.587  1.00  0.00    -0.000 C 
BRANCH   3   4
ATOM      4  C   UNL     1      55.085  27.445 -38.498  1.00  0.00    -0.000 C 
BRANCH   4   5
ATOM      5  C   UNL     1      54.302  26.198 -38.049  1.00  0.00    -0.000 C 
BRANCH   5   6
ATOM      6  C   UNL     1      55.137  25.133 -37.310  1.00  0.00    -0.000 C 
BRANCH   6   7
ATOM      7  C   UNL     1      55.121  25.238 -35.774  1.00  0.00    -0.000 C 
BRANCH   7   8
ATOM      8  C   UNL     1      56.174  26.216 -35.234  1.00  0.00    -0.003 C 
ATOM      9  C   UNL     1      55.600  27.077 -34.113  1.00  0.00     0.004 C 
ENDBRANCH   7   8
ENDBRANCH   6   7
ENDBRANCH   5   6
ENDBRANCH   4   5
ENDBRANCH   3   4
ENDBRANCH   2   3
ENDBRANCH   1   2
BRANCH   1  10
ATOM     10  C   UNL     1      55.483  30.754 -35.841  1.00  0.00     0.000 C 
BRANCH  10  11
ATOM     11  C   UNL     1      56.806  31.065 -35.123  1.00  0.00     0.000 C 
BRANCH  11  12
ATOM     12  C   UNL     1      56.835  30.559 -33.668  1.00  0.00     0.000 C 
BRANCH  12  13
ATOM     13  C   UNL     1      55.640  30.987 -32.796  1.00  0.00     0.000 C 
BRANCH  13  14
ATOM     14  C   UNL     1      55.819  30.623 -31.312  1.00  0.00     0.002 C 
BRANCH  14  15
ATOM     15  C   UNL     1      56.070  29.122 -31.101  1.00  0.00     0.028 C 
BRANCH  15  16
ATOM     16  C   UNL     1      56.649  28.805 -29.715  1.00  0.00     0.156 C 
BRANCH  16  17
ATOM     17  O   UNL     1      56.115  29.679 -28.758  1.00  0.00    -0.396 OA
ATOM     18  H   UNL     1      55.356  30.148 -29.194  1.00  0.00     0.210 HD
ENDBRANCH  16  17
ENDBRANCH  15  16
ENDBRANCH  14  15
ENDBRANCH  13  14
ENDBRANCH  12  13
ENDBRANCH  11  12
ENDBRANCH  10  11
ENDBRANCH   1  10
TORSDOF 15
ENDMDL
MODEL 8
REMARK VINA RESULT:    -1.984      1.143      1.896
REMARK INTER + INTRA:          -4.207
REMARK INTER:                  -3.857
REMARK INTRA:                  -0.350
REMARK UNBOUND:                -0.541
REMARK SMILES CCCCCCCCCCCCCCCCO
REMARK SMILES IDX 9 1 8 2 7 3 6 4 5 5 4 6 3 7 2 8 1 9 10 10 11 11 12 12 13 13
REMARK SMILES IDX 14 14 15 15 16 16 17 17
REMARK H PARENT 17 18
REMARK Flexibility Score: inf
ROOT
ATOM      1  C   UNL     1      39.297  13.710 -35.767  1.00  0.00     0.000 C 
ENDROOT
BRANCH   1   2
ATOM      2  C   UNL     1      40.832  13.793 -35.677  1.00  0.00    -0.000 C 
BRANCH   2   3
ATOM      3  C   UNL     1      41.536  12.552 -36.245  1.00  0.00    -0.000 C 
BRANCH   3   4
ATOM      4  C   UNL     1      43.021  12.536 -35.855  1.00  0.00    -0.000 C 
BRANCH   4   5
ATOM      5  C   UNL     1      43.267  11.918 -34.466  1.00  0.00    -0.000 C 
BRANCH   5   6
ATOM      6  C   UNL     1      44.147  12.762 -33.523  1.00  0.00    -0.000 C 
BRANCH   6   7
ATOM      7  C   UNL     1      45.648  12.424 -33.552  1.00  0.00    -0.000 C 
BRANCH   7   8
ATOM      8  C   UNL     1      46.256  12.290 -32.149  1.00  0.00    -0.003 C 
ATOM      9  C   UNL     1      45.180  12.397 -31.072  1.00  0.00     0.004 C 
ENDBRANCH   7   8
ENDBRANCH   6   7
ENDBRANCH   5   6
ENDBRANCH   4   5
ENDBRANCH   3   4
ENDBRANCH   2   3
ENDBRANCH   1   2
BRANCH   1  10
ATOM     10  C   UNL     1      38.537  14.879 -35.112  1.00  0.00     0.000 C 
BRANCH  10  11
ATOM     11  C   UNL     1      37.411  14.413 -34.175  1.00  0.00     0.000 C 
BRANCH  11  12
ATOM     12  C   UNL     1      37.438  12.896 -33.909  1.00  0.00     0.000 C 
BRANCH  12  13
ATOM     13  C   UNL     1      36.886  12.455 -32.541  1.00  0.00     0.000 C 
BRANCH  13  14
ATOM     14  C   UNL     1      37.626  13.102 -31.358  1.00  0.00     0.002 C 
BRANCH  14  15
ATOM     15  C   UNL     1      37.173  14.547 -31.098  1.00  0.00     0.028 C 
BRANCH  15  16
ATOM     16  C   UNL     1      37.883  15.187 -29.898  1.00  0.00     0.156 C 
BRANCH  16  17
ATOM     17  O   UNL     1      38.482  16.395 -30.280  1.00  0.00    -0.396 OA
ATOM     18  H   UNL     1      38.102  16.632 -31.166  1.00  0.00     0.210 HD
ENDBRANCH  16  17
ENDBRANCH  15  16
ENDBRANCH  14  15
ENDBRANCH  13  14
ENDBRANCH  12  13
ENDBRANCH  11  12
ENDBRANCH  10  11
ENDBRANCH   1  10
TORSDOF 15
ENDMDL
