MODEL 1
REMARK VINA RESULT:    -4.306      0.000      0.000
REMARK INTER + INTRA:          -5.760
REMARK INTER:                  -6.068
REMARK INTRA:                   0.309
REMARK UNBOUND:                 0.309
REMARK SMILES CC1=CCC(=C(C)C)C(=O)CC(C)=CCC1
REMARK SMILES IDX 12 1 14 2 13 3 15 4 16 5 2 6 1 7 3 8 11 10 9 11 10 12 5 13
REMARK SMILES IDX 6 14 7 15 8 16 4 17
REMARK H PARENT
REMARK Flexibility Score: 60.00
ROOT
ATOM      1  C   UNL     1     -10.445 -34.086  29.481  1.00  0.00    -0.070 C 
ATOM      2  C   UNL     1     -11.365 -34.123  28.483  1.00  0.00    -0.027 C 
ATOM      3  C   UNL     1      -9.947 -32.727  29.913  1.00  0.00     0.039 C 
ENDROOT
BRANCH   2   4
ATOM      4  C   UNL     1     -11.920 -35.364  27.828  1.00  0.00     0.032 C 
BRANCH   4   5
ATOM      5  C   UNL     1     -13.368 -35.669  28.234  1.00  0.00     0.034 C 
BRANCH   5   6
ATOM      6  C   UNL     1     -13.399 -36.736  29.310  1.00  0.00    -0.077 C 
ATOM      7  C   UNL     1     -13.448 -38.180  28.883  1.00  0.00     0.039 C 
ATOM      8  C   UNL     1     -13.304 -36.464  30.634  1.00  0.00    -0.023 CG0
ATOM      9  G   UNL     1     -13.261 -35.086  31.250  1.00  0.00     0.000 G0
ENDBRANCH   5   6
ENDBRANCH   4   5
ENDBRANCH   2   4
BRANCH   1  10
ATOM     10  C   UNL     1      -9.946 -35.311  30.242  1.00  0.00     0.111 C 
BRANCH  10  11
ATOM     11  C   UNL     1     -10.701 -35.589  31.518  1.00  0.00     0.163 C 
ATOM     12  O   UNL     1     -10.255 -36.497  32.273  1.00  0.00    -0.294 OA
BRANCH  11  13
ATOM     13  C   UNL     1     -11.904 -34.796  31.940  1.00  0.00    -0.002 C 
ATOM     14  C   UNL     1     -11.813 -33.866  32.941  1.00  0.00    -0.069 C 
ATOM     15  C   UNL     1     -10.485 -33.490  33.561  1.00  0.00     0.039 C 
ATOM     16  C   UNL     1     -13.030 -33.125  33.451  1.00  0.00     0.039 C 
BRANCH  13  17
ATOM     17  C   UNL     1     -13.245 -35.087  31.270  1.00  0.00     0.066 CG0
ATOM     18  G   UNL     1     -13.285 -36.461  30.644  1.00  0.00     0.000 G0
ENDBRANCH  13  17
ENDBRANCH  11  13
ENDBRANCH  10  11
ENDBRANCH   1  10
TORSDOF 0
ENDMDL
MODEL 2
REMARK VINA RESULT:    -4.284      1.972      3.844
REMARK INTER + INTRA:          -5.728
REMARK INTER:                  -6.456
REMARK INTRA:                   0.728
REMARK UNBOUND:                 0.309
REMARK SMILES CC1=CCC(=C(C)C)C(=O)CC(C)=CCC1
REMARK SMILES IDX 12 1 14 2 13 3 15 4 16 5 2 6 1 7 3 8 11 10 9 11 10 12 5 13
REMARK SMILES IDX 6 14 7 15 8 16 4 17
REMARK H PARENT
REMARK Flexibility Score: 60.00
ROOT
ATOM      1  C   UNL     1     -13.186 -34.618  31.644  1.00  0.00    -0.070 C 
ATOM      2  C   UNL     1     -13.623 -35.869  31.943  1.00  0.00    -0.027 C 
ATOM      3  C   UNL     1     -14.206 -33.505  31.672  1.00  0.00     0.039 C 
ENDROOT
BRANCH   2   4
ATOM      4  C   UNL     1     -12.807 -37.137  31.877  1.00  0.00     0.032 C 
BRANCH   4   5
ATOM      5  C   UNL     1     -11.985 -37.264  30.587  1.00  0.00     0.034 C 
BRANCH   5   6
ATOM      6  C   UNL     1     -12.903 -37.346  29.384  1.00  0.00    -0.077 C 
ATOM      7  C   UNL     1     -14.004 -38.375  29.395  1.00  0.00     0.039 C 
ATOM      8  C   UNL     1     -12.837 -36.492  28.335  1.00  0.00    -0.023 CG0
ATOM      9  G   UNL     1     -11.800 -35.412  28.142  1.00  0.00     0.000 G0
ENDBRANCH   5   6
ENDBRANCH   4   5
ENDBRANCH   2   4
BRANCH   1  10
ATOM     10  C   UNL     1     -11.732 -34.256  31.362  1.00  0.00     0.111 C 
BRANCH  10  11
ATOM     11  C   UNL     1     -11.508 -33.619  30.014  1.00  0.00     0.163 C 
ATOM     12  O   UNL     1     -10.655 -32.692  29.940  1.00  0.00    -0.294 OA
BRANCH  11  13
ATOM     13  C   UNL     1     -12.210 -34.081  28.770  1.00  0.00    -0.002 C 
ATOM     14  C   UNL     1     -13.242 -33.354  28.237  1.00  0.00    -0.069 C 
ATOM     15  C   UNL     1     -13.622 -31.995  28.782  1.00  0.00     0.039 C 
ATOM     16  C   UNL     1     -14.029 -33.847  27.042  1.00  0.00     0.039 C 
BRANCH  13  17
ATOM     17  C   UNL     1     -11.790 -35.407  28.140  1.00  0.00     0.066 CG0
ATOM     18  G   UNL     1     -12.831 -36.485  28.330  1.00  0.00     0.000 G0
ENDBRANCH  13  17
ENDBRANCH  11  13
ENDBRANCH  10  11
ENDBRANCH   1  10
TORSDOF 0
ENDMDL
MODEL 3
REMARK VINA RESULT:    -4.262      1.925      3.458
REMARK INTER + INTRA:          -5.698
REMARK INTER:                  -6.159
REMARK INTRA:                   0.461
REMARK UNBOUND:                 0.309
REMARK SMILES CC1=CCC(=C(C)C)C(=O)CC(C)=CCC1
REMARK SMILES IDX 12 1 14 2 13 3 15 4 16 5 2 6 1 7 3 8 11 10 9 11 10 12 5 13
REMARK SMILES IDX 6 14 7 15 8 16 4 17
REMARK H PARENT
REMARK Flexibility Score: 60.00
ROOT
ATOM      1  C   UNL     1     -13.108 -33.526  30.717  1.00  0.00    -0.070 C 
ATOM      2  C   UNL     1     -13.814 -33.159  29.617  1.00  0.00    -0.027 C 
ATOM      3  C   UNL     1     -13.885 -33.757  31.991  1.00  0.00     0.039 C 
ENDROOT
BRANCH   2   4
ATOM      4  C   UNL     1     -13.238 -32.779  28.274  1.00  0.00     0.032 C 
BRANCH   4   5
ATOM      5  C   UNL     1     -13.637 -33.743  27.148  1.00  0.00     0.034 C 
BRANCH   5   6
ATOM      6  C   UNL     1     -12.495 -34.690  26.838  1.00  0.00    -0.077 C 
ATOM      7  C   UNL     1     -11.573 -34.349  25.696  1.00  0.00     0.039 C 
ATOM      8  C   UNL     1     -12.210 -35.785  27.583  1.00  0.00    -0.023 CG0
ATOM      9  G   UNL     1     -13.023 -36.292  28.751  1.00  0.00     0.000 G0
ENDBRANCH   5   6
ENDBRANCH   4   5
ENDBRANCH   2   4
BRANCH   1  10
ATOM     10  C   UNL     1     -11.607 -33.795  30.730  1.00  0.00     0.111 C 
BRANCH  10  11
ATOM     11  C   UNL     1     -11.228 -35.181  30.271  1.00  0.00     0.163 C 
ATOM     12  O   UNL     1     -10.001 -35.429  30.112  1.00  0.00    -0.294 OA
BRANCH  11  13
ATOM     13  C   UNL     1     -12.238 -36.271  30.059  1.00  0.00    -0.002 C 
ATOM     14  C   UNL     1     -12.419 -37.249  31.000  1.00  0.00    -0.069 C 
ATOM     15  C   UNL     1     -11.727 -37.199  32.344  1.00  0.00     0.039 C 
ATOM     16  C   UNL     1     -13.360 -38.412  30.767  1.00  0.00     0.039 C 
BRANCH  13  17
ATOM     17  C   UNL     1     -13.022 -36.300  28.748  1.00  0.00     0.066 CG0
ATOM     18  G   UNL     1     -12.208 -35.788  27.584  1.00  0.00     0.000 G0
ENDBRANCH  13  17
ENDBRANCH  11  13
ENDBRANCH  10  11
ENDBRANCH   1  10
TORSDOF 0
ENDMDL
MODEL 4
REMARK VINA RESULT:    -4.139      2.298      3.304
REMARK INTER + INTRA:          -5.525
REMARK INTER:                  -6.508
REMARK INTRA:                   0.983
REMARK UNBOUND:                 0.309
REMARK SMILES CC1=CCC(=C(C)C)C(=O)CC(C)=CCC1
REMARK SMILES IDX 12 1 14 2 13 3 15 4 16 5 2 6 1 7 3 8 11 10 9 11 10 12 5 13
REMARK SMILES IDX 6 14 7 15 8 16 4 17
REMARK H PARENT
REMARK Flexibility Score: 60.00
ROOT
ATOM      1  C   UNL     1     -11.248 -34.668  28.883  1.00  0.00    -0.070 C 
ATOM      2  C   UNL     1     -10.775 -35.668  29.671  1.00  0.00    -0.027 C 
ATOM      3  C   UNL     1     -11.387 -34.958  27.408  1.00  0.00     0.039 C 
ENDROOT
BRANCH   2   4
ATOM      4  C   UNL     1     -10.461 -35.569  31.143  1.00  0.00     0.032 C 
BRANCH   4   5
ATOM      5  C   UNL     1     -11.209 -36.604  31.995  1.00  0.00     0.034 C 
BRANCH   5   6
ATOM      6  C   UNL     1     -12.631 -36.767  31.496  1.00  0.00    -0.077 C 
ATOM      7  C   UNL     1     -13.069 -38.128  31.020  1.00  0.00     0.039 C 
ATOM      8  C   UNL     1     -13.551 -35.774  31.529  1.00  0.00    -0.023 CG0
ATOM      9  G   UNL     1     -13.296 -34.349  31.957  1.00  0.00     0.000 G0
ENDBRANCH   5   6
ENDBRANCH   4   5
ENDBRANCH   2   4
BRANCH   1  10
ATOM     10  C   UNL     1     -11.717 -33.311  29.398  1.00  0.00     0.111 C 
BRANCH  10  11
ATOM     11  C   UNL     1     -13.208 -33.214  29.601  1.00  0.00     0.163 C 
ATOM     12  O   UNL     1     -13.930 -33.091  28.573  1.00  0.00    -0.294 OA
BRANCH  11  13
ATOM     13  C   UNL     1     -13.853 -33.318  30.952  1.00  0.00    -0.002 C 
ATOM     14  C   UNL     1     -14.886 -32.489  31.300  1.00  0.00    -0.069 C 
ATOM     15  C   UNL     1     -15.516 -31.540  30.304  1.00  0.00     0.039 C 
ATOM     16  C   UNL     1     -15.487 -32.507  32.689  1.00  0.00     0.039 C 
BRANCH  13  17
ATOM     17  C   UNL     1     -13.300 -34.331  31.953  1.00  0.00     0.066 CG0
ATOM     18  G   UNL     1     -13.548 -35.756  31.519  1.00  0.00     0.000 G0
ENDBRANCH  13  17
ENDBRANCH  11  13
ENDBRANCH  10  11
ENDBRANCH   1  10
TORSDOF 0
ENDMDL
MODEL 5
REMARK VINA RESULT:    -4.004      1.581      2.749
REMARK INTER + INTRA:          -5.334
REMARK INTER:                  -5.572
REMARK INTRA:                   0.238
REMARK UNBOUND:                 0.309
REMARK SMILES CC1=CCC(=C(C)C)C(=O)CC(C)=CCC1
REMARK SMILES IDX 12 1 14 2 13 3 15 4 16 5 2 6 1 7 3 8 11 10 9 11 10 12 5 13
REMARK SMILES IDX 6 14 7 15 8 16 4 17
REMARK H PARENT
REMARK Flexibility Score: 60.00
ROOT
ATOM      1  C   UNL     1     -11.950 -37.073  30.967  1.00  0.00    -0.070 C 
ATOM      2  C   UNL     1     -12.845 -37.459  30.022  1.00  0.00    -0.027 C 
ATOM      3  C   UNL     1     -12.194 -37.541  32.381  1.00  0.00     0.039 C 
ENDROOT
BRANCH   2   4
ATOM      4  C   UNL     1     -12.856 -37.027  28.576  1.00  0.00     0.032 C 
BRANCH   4   5
ATOM      5  C   UNL     1     -13.916 -35.961  28.268  1.00  0.00     0.034 C 
BRANCH   5   6
ATOM      6  C   UNL     1     -13.255 -34.620  28.016  1.00  0.00    -0.077 C 
ATOM      7  C   UNL     1     -12.885 -34.261  26.600  1.00  0.00     0.039 C 
ATOM      8  C   UNL     1     -13.052 -33.695  28.984  1.00  0.00    -0.023 CG0
ATOM      9  G   UNL     1     -13.344 -33.878  30.454  1.00  0.00     0.000 G0
ENDBRANCH   5   6
ENDBRANCH   4   5
ENDBRANCH   2   4
BRANCH   1  10
ATOM     10  C   UNL     1     -10.683 -36.272  30.681  1.00  0.00     0.111 C 
BRANCH  10  11
ATOM     11  C   UNL     1     -10.903 -34.781  30.614  1.00  0.00     0.163 C 
ATOM     12  O   UNL     1     -10.092 -34.103  29.925  1.00  0.00    -0.294 OA
BRANCH  11  13
ATOM     13  C   UNL     1     -12.065 -34.100  31.277  1.00  0.00    -0.002 C 
ATOM     14  C   UNL     1     -12.003 -33.738  32.596  1.00  0.00    -0.069 C 
ATOM     15  C   UNL     1     -10.728 -33.869  33.400  1.00  0.00     0.039 C 
ATOM     16  C   UNL     1     -13.195 -33.139  33.313  1.00  0.00     0.039 C 
BRANCH  13  17
ATOM     17  C   UNL     1     -13.339 -33.869  30.467  1.00  0.00     0.066 CG0
ATOM     18  G   UNL     1     -13.056 -33.700  28.993  1.00  0.00     0.000 G0
ENDBRANCH  13  17
ENDBRANCH  11  13
ENDBRANCH  10  11
ENDBRANCH   1  10
TORSDOF 0
ENDMDL
MODEL 6
REMARK VINA RESULT:    -3.954      1.656      4.000
REMARK INTER + INTRA:          -5.263
REMARK INTER:                  -6.056
REMARK INTRA:                   0.793
REMARK UNBOUND:                 0.309
REMARK SMILES CC1=CCC(=C(C)C)C(=O)CC(C)=CCC1
REMARK SMILES IDX 12 1 14 2 13 3 15 4 16 5 2 6 1 7 3 8 11 10 9 11 10 12 5 13
REMARK SMILES IDX 6 14 7 15 8 16 4 17
REMARK H PARENT
REMARK Flexibility Score: 60.00
ROOT
ATOM      1  C   UNL     1     -12.556 -34.573  31.921  1.00  0.00    -0.070 C 
ATOM      2  C   UNL     1     -12.306 -33.462  31.181  1.00  0.00    -0.027 C 
ATOM      3  C   UNL     1     -13.851 -34.609  32.696  1.00  0.00     0.039 C 
ENDROOT
BRANCH   2   4
ATOM      4  C   UNL     1     -11.039 -33.169  30.415  1.00  0.00     0.032 C 
BRANCH   4   5
ATOM      5  C   UNL     1     -11.204 -33.305  28.895  1.00  0.00     0.034 C 
BRANCH   5   6
ATOM      6  C   UNL     1     -12.652 -33.584  28.545  1.00  0.00    -0.077 C 
ATOM      7  C   UNL     1     -13.612 -32.423  28.500  1.00  0.00     0.039 C 
ATOM      8  C   UNL     1     -13.112 -34.808  28.194  1.00  0.00    -0.023 CG0
ATOM      9  G   UNL     1     -12.307 -36.086  28.193  1.00  0.00     0.000 G0
ENDBRANCH   5   6
ENDBRANCH   4   5
ENDBRANCH   2   4
BRANCH   1  10
ATOM     10  C   UNL     1     -11.661 -35.807  31.956  1.00  0.00     0.111 C 
BRANCH  10  11
ATOM     11  C   UNL     1     -11.280 -36.328  30.592  1.00  0.00     0.163 C 
ATOM     12  O   UNL     1     -10.051 -36.439  30.332  1.00  0.00    -0.294 OA
BRANCH  11  13
ATOM     13  C   UNL     1     -12.296 -36.765  29.577  1.00  0.00    -0.002 C 
ATOM     14  C   UNL     1     -13.168 -37.784  29.855  1.00  0.00    -0.069 C 
ATOM     15  C   UNL     1     -13.250 -38.410  31.230  1.00  0.00     0.039 C 
ATOM     16  C   UNL     1     -14.135 -38.308  28.815  1.00  0.00     0.039 C 
BRANCH  13  17
ATOM     17  C   UNL     1     -12.302 -36.090  28.207  1.00  0.00     0.066 CG0
ATOM     18  G   UNL     1     -13.105 -34.811  28.204  1.00  0.00     0.000 G0
ENDBRANCH  13  17
ENDBRANCH  11  13
ENDBRANCH  10  11
ENDBRANCH   1  10
TORSDOF 0
ENDMDL
MODEL 7
REMARK VINA RESULT:    -3.933      1.849      3.009
REMARK INTER + INTRA:          -5.234
REMARK INTER:                  -6.008
REMARK INTRA:                   0.773
REMARK UNBOUND:                 0.309
REMARK SMILES CC1=CCC(=C(C)C)C(=O)CC(C)=CCC1
REMARK SMILES IDX 12 1 14 2 13 3 15 4 16 5 2 6 1 7 3 8 11 10 9 11 10 12 5 13
REMARK SMILES IDX 6 14 7 15 8 16 4 17
REMARK H PARENT
REMARK Flexibility Score: 60.00
ROOT
ATOM      1  C   UNL     1     -12.346 -35.626  28.063  1.00  0.00    -0.070 C 
ATOM      2  C   UNL     1     -13.438 -36.413  28.250  1.00  0.00    -0.027 C 
ATOM      3  C   UNL     1     -12.248 -34.880  26.755  1.00  0.00     0.039 C 
ENDROOT
BRANCH   2   4
ATOM      4  C   UNL     1     -13.691 -37.321  29.428  1.00  0.00     0.032 C 
BRANCH   4   5
ATOM      5  C   UNL     1     -13.898 -36.562  30.746  1.00  0.00     0.034 C 
BRANCH   5   6
ATOM      6  C   UNL     1     -12.753 -36.842  31.699  1.00  0.00    -0.077 C 
ATOM      7  C   UNL     1     -12.312 -38.271  31.886  1.00  0.00     0.039 C 
ATOM      8  C   UNL     1     -12.054 -35.870  32.331  1.00  0.00    -0.023 CG0
ATOM      9  G   UNL     1     -12.355 -34.390  32.278  1.00  0.00     0.000 G0
ENDBRANCH   5   6
ENDBRANCH   4   5
ENDBRANCH   2   4
BRANCH   1  10
ATOM     10  C   UNL     1     -11.264 -35.389  29.112  1.00  0.00     0.111 C 
BRANCH  10  11
ATOM     11  C   UNL     1     -11.420 -34.095  29.871  1.00  0.00     0.163 C 
ATOM     12  O   UNL     1     -10.606 -33.165  29.614  1.00  0.00    -0.294 OA
BRANCH  11  13
ATOM     13  C   UNL     1     -12.526 -33.860  30.859  1.00  0.00    -0.002 C 
ATOM     14  C   UNL     1     -13.640 -33.146  30.505  1.00  0.00    -0.069 C 
ATOM     15  C   UNL     1     -13.876 -32.692  29.082  1.00  0.00     0.039 C 
ATOM     16  C   UNL     1     -14.723 -32.813  31.509  1.00  0.00     0.039 C 
BRANCH  13  17
ATOM     17  C   UNL     1     -12.361 -34.385  32.284  1.00  0.00     0.066 CG0
ATOM     18  G   UNL     1     -12.044 -35.862  32.315  1.00  0.00     0.000 G0
ENDBRANCH  13  17
ENDBRANCH  11  13
ENDBRANCH  10  11
ENDBRANCH   1  10
TORSDOF 0
ENDMDL
MODEL 8
REMARK VINA RESULT:    -3.859      2.165      4.572
REMARK INTER + INTRA:          -5.130
REMARK INTER:                  -5.611
REMARK INTRA:                   0.481
REMARK UNBOUND:                 0.309
REMARK SMILES CC1=CCC(=C(C)C)C(=O)CC(C)=CCC1
REMARK SMILES IDX 12 1 14 2 13 3 15 4 16 5 2 6 1 7 3 8 11 10 9 11 10 12 5 13
REMARK SMILES IDX 6 14 7 15 8 16 4 17
REMARK H PARENT
REMARK Flexibility Score: 60.00
ROOT
ATOM      1  C   UNL     1     -13.040 -36.873  29.570  1.00  0.00    -0.070 C 
ATOM      2  C   UNL     1     -13.396 -36.902  30.880  1.00  0.00    -0.027 C 
ATOM      3  C   UNL     1     -14.074 -37.314  28.563  1.00  0.00     0.039 C 
ENDROOT
BRANCH   2   4
ATOM      4  C   UNL     1     -12.496 -36.606  32.055  1.00  0.00     0.032 C 
BRANCH   4   5
ATOM      5  C   UNL     1     -12.153 -35.116  32.196  1.00  0.00     0.034 C 
BRANCH   5   6
ATOM      6  C   UNL     1     -13.366 -34.265  31.878  1.00  0.00    -0.077 C 
ATOM      7  C   UNL     1     -14.542 -34.317  32.819  1.00  0.00     0.039 C 
ATOM      8  C   UNL     1     -13.419 -33.401  30.837  1.00  0.00    -0.023 CG0
ATOM      9  G   UNL     1     -12.350 -33.221  29.785  1.00  0.00     0.000 G0
ENDBRANCH   5   6
ENDBRANCH   4   5
ENDBRANCH   2   4
BRANCH   1  10
ATOM     10  C   UNL     1     -11.703 -36.353  29.050  1.00  0.00     0.111 C 
BRANCH  10  11
ATOM     11  C   UNL     1     -11.823 -35.156  28.140  1.00  0.00     0.163 C 
ATOM     12  O   UNL     1     -11.243 -35.214  27.020  1.00  0.00    -0.294 OA
BRANCH  11  13
ATOM     13  C   UNL     1     -12.642 -33.948  28.490  1.00  0.00    -0.002 C 
ATOM     14  C   UNL     1     -13.613 -33.491  27.639  1.00  0.00    -0.069 C 
ATOM     15  C   UNL     1     -14.003 -34.254  26.392  1.00  0.00     0.039 C 
ATOM     16  C   UNL     1     -14.385 -32.220  27.922  1.00  0.00     0.039 C 
BRANCH  13  17
ATOM     17  C   UNL     1     -12.335 -33.204  29.788  1.00  0.00     0.066 CG0
ATOM     18  G   UNL     1     -13.412 -33.403  30.828  1.00  0.00     0.000 G0
ENDBRANCH  13  17
ENDBRANCH  11  13
ENDBRANCH  10  11
ENDBRANCH   1  10
TORSDOF 0
ENDMDL
MODEL 9
REMARK VINA RESULT:    -3.734      1.981      4.242
REMARK INTER + INTRA:          -4.953
REMARK INTER:                  -6.600
REMARK INTRA:                   1.647
REMARK UNBOUND:                 0.309
REMARK SMILES CC1=CCC(=C(C)C)C(=O)CC(C)=CCC1
REMARK SMILES IDX 12 1 14 2 13 3 15 4 16 5 2 6 1 7 3 8 11 10 9 11 10 12 5 13
REMARK SMILES IDX 6 14 7 15 8 16 4 17
REMARK H PARENT
REMARK Flexibility Score: 60.00
ROOT
ATOM      1  C   UNL     1     -13.220 -33.191  29.368  1.00  0.00    -0.070 C 
ATOM      2  C   UNL     1     -13.980 -33.044  30.483  1.00  0.00    -0.027 C 
ATOM      3  C   UNL     1     -13.880 -32.910  28.039  1.00  0.00     0.039 C 
ENDROOT
BRANCH   2   4
ATOM      4  C   UNL     1     -13.561 -33.367  31.896  1.00  0.00     0.032 C 
BRANCH   4   5
ATOM      5  C   UNL     1     -12.895 -34.744  32.033  1.00  0.00     0.034 C 
BRANCH   5   6
ATOM      6  C   UNL     1     -11.421 -34.585  32.346  1.00  0.00    -0.077 C 
ATOM      7  C   UNL     1     -11.008 -33.508  33.315  1.00  0.00     0.039 C 
ATOM      8  C   UNL     1     -10.463 -35.412  31.864  1.00  0.00    -0.023 CG0
ATOM      9  G   UNL     1     -10.681 -36.534  30.876  1.00  0.00     0.000 G0
ENDBRANCH   5   6
ENDBRANCH   4   5
ENDBRANCH   2   4
BRANCH   1  10
ATOM     10  C   UNL     1     -11.735 -33.541  29.375  1.00  0.00     0.111 C 
BRANCH  10  11
ATOM     11  C   UNL     1     -11.435 -34.953  28.939  1.00  0.00     0.163 C 
ATOM     12  O   UNL     1     -10.886 -35.113  27.815  1.00  0.00    -0.294 OA
BRANCH  11  13
ATOM     13  C   UNL     1     -11.709 -36.147  29.808  1.00  0.00    -0.002 C 
ATOM     14  C   UNL     1     -12.876 -36.852  29.680  1.00  0.00    -0.069 C 
ATOM     15  C   UNL     1     -13.868 -36.558  28.576  1.00  0.00     0.039 C 
ATOM     16  C   UNL     1     -13.219 -37.998  30.608  1.00  0.00     0.039 C 
BRANCH  13  17
ATOM     17  C   UNL     1     -10.685 -36.528  30.875  1.00  0.00     0.066 CG0
ATOM     18  G   UNL     1     -10.460 -35.417  31.873  1.00  0.00     0.000 G0
ENDBRANCH  13  17
ENDBRANCH  11  13
ENDBRANCH  10  11
ENDBRANCH   1  10
TORSDOF 0
ENDMDL
