MODEL 1
REMARK VINA RESULT:    -4.727      0.000      0.000
REMARK INTER + INTRA:         -11.230
REMARK INTER:                  -9.148
REMARK INTRA:                  -2.082
REMARK UNBOUND:                -2.082
REMARK SMILES CCCCCCCCCCCCCCCCCC(=O)[O-]
REMARK SMILES IDX 10 1 11 2 12 3 13 4 14 5 15 6 16 7 17 8 18 9 19 10 20 11
REMARK SMILES IDX 9 12 8 13 7 14 6 15 5 16 4 17 3 18 2 19 1 20
REMARK H PARENT
REMARK Flexibility Score: inf
ROOT
ATOM      1  C   UNL     1       2.754 -12.675   3.972  1.00  0.00     0.000 C 
ENDROOT
BRANCH   1   2
ATOM      2  C   UNL     1       3.689 -11.603   3.384  1.00  0.00     0.000 C 
BRANCH   2   3
ATOM      3  C   UNL     1       3.123 -10.965   2.105  1.00  0.00     0.000 C 
BRANCH   3   4
ATOM      4  C   UNL     1       4.088 -11.078   0.912  1.00  0.00     0.000 C 
BRANCH   4   5
ATOM      5  C   UNL     1       4.559 -12.521   0.666  1.00  0.00     0.000 C 
BRANCH   5   6
ATOM      6  C   UNL     1       6.028 -12.596   0.214  1.00  0.00     0.000 C 
BRANCH   6   7
ATOM      7  C   UNL     1       6.941 -13.224   1.281  1.00  0.00     0.006 C 
BRANCH   7   8
ATOM      8  C   UNL     1       8.424 -13.187   0.889  1.00  0.00     0.053 C 
BRANCH   8   9
ATOM      9  C   UNL     1       8.849 -14.510   0.337  1.00  0.00     0.041 C 
ATOM     10  O   UNL     1       9.935 -14.614  -0.294  1.00  0.00    -0.550 OA
ATOM     11  O   UNL     1       8.022 -15.619   0.472  1.00  0.00    -0.550 OA
ENDBRANCH   8   9
ENDBRANCH   7   8
ENDBRANCH   6   7
ENDBRANCH   5   6
ENDBRANCH   4   5
ENDBRANCH   3   4
ENDBRANCH   2   3
ENDBRANCH   1   2
BRANCH   1  12
ATOM     12  C   UNL     1       3.499 -13.963   4.359  1.00  0.00     0.000 C 
BRANCH  12  13
ATOM     13  C   UNL     1       4.912 -13.689   4.902  1.00  0.00    -0.000 C 
BRANCH  13  14
ATOM     14  C   UNL     1       4.931 -13.487   6.426  1.00  0.00    -0.000 C 
BRANCH  14  15
ATOM     15  C   UNL     1       5.929 -12.404   6.872  1.00  0.00    -0.000 C 
BRANCH  15  16
ATOM     16  C   UNL     1       5.340 -10.982   6.749  1.00  0.00    -0.000 C 
BRANCH  16  17
ATOM     17  C   UNL     1       3.828 -10.911   7.041  1.00  0.00    -0.000 C 
BRANCH  17  18
ATOM     18  C   UNL     1       3.116  -9.684   6.446  1.00  0.00    -0.000 C 
BRANCH  18  19
ATOM     19  C   UNL     1       4.077  -8.733   5.719  1.00  0.00    -0.003 C 
ATOM     20  C   UNL     1       3.780  -7.279   6.070  1.00  0.00     0.004 C 
ENDBRANCH  18  19
ENDBRANCH  17  18
ENDBRANCH  16  17
ENDBRANCH  15  16
ENDBRANCH  14  15
ENDBRANCH  13  14
ENDBRANCH  12  13
ENDBRANCH   1  12
TORSDOF 16
ENDMDL
MODEL 2
REMARK VINA RESULT:    -4.662      4.405      7.797
REMARK INTER + INTRA:         -11.104
REMARK INTER:                  -9.404
REMARK INTRA:                  -1.700
REMARK UNBOUND:                -2.082
REMARK SMILES CCCCCCCCCCCCCCCCCC(=O)[O-]
REMARK SMILES IDX 10 1 11 2 12 3 13 4 14 5 15 6 16 7 17 8 18 9 19 10 20 11
REMARK SMILES IDX 9 12 8 13 7 14 6 15 5 16 4 17 3 18 2 19 1 20
REMARK H PARENT
REMARK Flexibility Score: inf
ROOT
ATOM      1  C   UNL     1       4.981 -13.587   6.453  1.00  0.00     0.000 C 
ENDROOT
BRANCH   1   2
ATOM      2  C   UNL     1       5.902 -12.353   6.463  1.00  0.00     0.000 C 
BRANCH   2   3
ATOM      3  C   UNL     1       5.305 -11.180   7.257  1.00  0.00     0.000 C 
BRANCH   3   4
ATOM      4  C   UNL     1       3.833 -10.913   6.899  1.00  0.00     0.000 C 
BRANCH   4   5
ATOM      5  C   UNL     1       3.496  -9.413   6.852  1.00  0.00     0.000 C 
BRANCH   5   6
ATOM      6  C   UNL     1       4.462  -8.617   5.957  1.00  0.00     0.000 C 
BRANCH   6   7
ATOM      7  C   UNL     1       3.914  -7.228   5.589  1.00  0.00     0.006 C 
BRANCH   7   8
ATOM      8  C   UNL     1       2.707  -6.821   6.445  1.00  0.00     0.053 C 
BRANCH   8   9
ATOM      9  C   UNL     1       2.972  -5.520   7.133  1.00  0.00     0.041 C 
ATOM     10  O   UNL     1       2.459  -4.456   6.696  1.00  0.00    -0.550 OA
ATOM     11  O   UNL     1       3.828  -5.474   8.227  1.00  0.00    -0.550 OA
ENDBRANCH   8   9
ENDBRANCH   7   8
ENDBRANCH   6   7
ENDBRANCH   5   6
ENDBRANCH   4   5
ENDBRANCH   3   4
ENDBRANCH   2   3
ENDBRANCH   1   2
BRANCH   1  12
ATOM     12  C   UNL     1       4.679 -14.089   5.031  1.00  0.00     0.000 C 
BRANCH  12  13
ATOM     13  C   UNL     1       4.886 -13.000   3.963  1.00  0.00    -0.000 C 
BRANCH  13  14
ATOM     14  C   UNL     1       3.570 -12.565   3.300  1.00  0.00    -0.000 C 
BRANCH  14  15
ATOM     15  C   UNL     1       3.680 -11.202   2.593  1.00  0.00    -0.000 C 
BRANCH  15  16
ATOM     16  C   UNL     1       3.958 -11.349   1.082  1.00  0.00    -0.000 C 
BRANCH  16  17
ATOM     17  C   UNL     1       4.077 -12.814   0.614  1.00  0.00    -0.000 C 
BRANCH  17  18
ATOM     18  C   UNL     1       5.294 -13.107  -0.280  1.00  0.00    -0.000 C 
BRANCH  18  19
ATOM     19  C   UNL     1       6.513 -12.245   0.076  1.00  0.00    -0.003 C 
ATOM     20  C   UNL     1       7.471 -12.999   0.993  1.00  0.00     0.004 C 
ENDBRANCH  18  19
ENDBRANCH  17  18
ENDBRANCH  16  17
ENDBRANCH  15  16
ENDBRANCH  14  15
ENDBRANCH  13  14
ENDBRANCH  12  13
ENDBRANCH   1  12
TORSDOF 16
ENDMDL
MODEL 3
REMARK VINA RESULT:    -4.529      0.978      2.995
REMARK INTER + INTRA:         -10.846
REMARK INTER:                  -9.183
REMARK INTRA:                  -1.663
REMARK UNBOUND:                -2.082
REMARK SMILES CCCCCCCCCCCCCCCCCC(=O)[O-]
REMARK SMILES IDX 10 1 11 2 12 3 13 4 14 5 15 6 16 7 17 8 18 9 19 10 20 11
REMARK SMILES IDX 9 12 8 13 7 14 6 15 5 16 4 17 3 18 2 19 1 20
REMARK H PARENT
REMARK Flexibility Score: inf
ROOT
ATOM      1  C   UNL     1       3.489 -10.929   3.279  1.00  0.00     0.000 C 
ENDROOT
BRANCH   1   2
ATOM      2  C   UNL     1       3.134 -10.591   1.819  1.00  0.00     0.000 C 
BRANCH   2   3
ATOM      3  C   UNL     1       4.094 -11.245   0.813  1.00  0.00     0.000 C 
BRANCH   3   4
ATOM      4  C   UNL     1       4.613 -12.611   1.294  1.00  0.00     0.000 C 
BRANCH   4   5
ATOM      5  C   UNL     1       5.351 -13.387   0.190  1.00  0.00     0.000 C 
BRANCH   5   6
ATOM      6  C   UNL     1       6.753 -12.821  -0.095  1.00  0.00     0.000 C 
BRANCH   6   7
ATOM      7  C   UNL     1       7.762 -13.159   1.016  1.00  0.00     0.006 C 
BRANCH   7   8
ATOM      8  C   UNL     1       8.991 -13.913   0.490  1.00  0.00     0.053 C 
BRANCH   8   9
ATOM      9  C   UNL     1       8.573 -15.162  -0.216  1.00  0.00     0.041 C 
ATOM     10  O   UNL     1       8.553 -15.203  -1.475  1.00  0.00    -0.550 OA
ATOM     11  O   UNL     1       8.153 -16.268   0.514  1.00  0.00    -0.550 OA
ENDBRANCH   8   9
ENDBRANCH   7   8
ENDBRANCH   6   7
ENDBRANCH   5   6
ENDBRANCH   4   5
ENDBRANCH   3   4
ENDBRANCH   2   3
ENDBRANCH   1   2
BRANCH   1  12
ATOM     12  C   UNL     1       2.246 -11.152   4.154  1.00  0.00     0.000 C 
BRANCH  12  13
ATOM     13  C   UNL     1       2.110 -10.100   5.269  1.00  0.00    -0.000 C 
BRANCH  13  14
ATOM     14  C   UNL     1       3.265  -9.086   5.268  1.00  0.00    -0.000 C 
BRANCH  14  15
ATOM     15  C   UNL     1       4.158  -9.198   6.518  1.00  0.00    -0.000 C 
BRANCH  15  16
ATOM     16  C   UNL     1       4.200 -10.635   7.078  1.00  0.00    -0.000 C 
BRANCH  16  17
ATOM     17  C   UNL     1       5.627 -11.161   7.328  1.00  0.00    -0.000 C 
BRANCH  17  18
ATOM     18  C   UNL     1       6.009 -12.402   6.504  1.00  0.00    -0.000 C 
BRANCH  18  19
ATOM     19  C   UNL     1       4.855 -13.407   6.373  1.00  0.00    -0.003 C 
ATOM     20  C   UNL     1       4.725 -13.911   4.939  1.00  0.00     0.004 C 
ENDBRANCH  18  19
ENDBRANCH  17  18
ENDBRANCH  16  17
ENDBRANCH  15  16
ENDBRANCH  14  15
ENDBRANCH  13  14
ENDBRANCH  12  13
ENDBRANCH   1  12
TORSDOF 16
ENDMDL
MODEL 4
REMARK VINA RESULT:    -4.504      1.177      3.471
REMARK INTER + INTRA:         -10.799
REMARK INTER:                  -8.555
REMARK INTRA:                  -2.244
REMARK UNBOUND:                -2.082
REMARK SMILES CCCCCCCCCCCCCCCCCC(=O)[O-]
REMARK SMILES IDX 10 1 11 2 12 3 13 4 14 5 15 6 16 7 17 8 18 9 19 10 20 11
REMARK SMILES IDX 9 12 8 13 7 14 6 15 5 16 4 17 3 18 2 19 1 20
REMARK H PARENT
REMARK Flexibility Score: inf
ROOT
ATOM      1  C   UNL     1       4.882 -13.431   6.220  1.00  0.00     0.000 C 
ENDROOT
BRANCH   1   2
ATOM      2  C   UNL     1       4.988 -13.910   4.760  1.00  0.00     0.000 C 
BRANCH   2   3
ATOM      3  C   UNL     1       3.614 -14.066   4.090  1.00  0.00     0.000 C 
BRANCH   3   4
ATOM      4  C   UNL     1       3.664 -13.805   2.574  1.00  0.00     0.000 C 
BRANCH   4   5
ATOM      5  C   UNL     1       4.894 -12.984   2.155  1.00  0.00     0.000 C 
BRANCH   5   6
ATOM      6  C   UNL     1       4.907 -12.664   0.649  1.00  0.00     0.000 C 
BRANCH   6   7
ATOM      7  C   UNL     1       6.326 -12.407   0.114  1.00  0.00     0.006 C 
BRANCH   7   8
ATOM      8  C   UNL     1       7.418 -12.952   1.044  1.00  0.00     0.053 C 
BRANCH   8   9
ATOM      9  C   UNL     1       8.093 -14.131   0.421  1.00  0.00     0.041 C 
ATOM     10  O   UNL     1       7.409 -15.086  -0.035  1.00  0.00    -0.550 OA
ATOM     11  O   UNL     1       9.481 -14.202   0.388  1.00  0.00    -0.550 OA
ENDBRANCH   8   9
ENDBRANCH   7   8
ENDBRANCH   6   7
ENDBRANCH   5   6
ENDBRANCH   4   5
ENDBRANCH   3   4
ENDBRANCH   2   3
ENDBRANCH   1   2
BRANCH   1  12
ATOM     12  C   UNL     1       5.769 -12.209   6.508  1.00  0.00     0.000 C 
BRANCH  12  13
ATOM     13  C   UNL     1       5.005 -11.077   7.218  1.00  0.00    -0.000 C 
BRANCH  13  14
ATOM     14  C   UNL     1       3.626 -10.812   6.593  1.00  0.00    -0.000 C 
BRANCH  14  15
ATOM     15  C   UNL     1       3.676  -9.776   5.455  1.00  0.00    -0.000 C 
BRANCH  15  16
ATOM     16  C   UNL     1       3.489 -10.424   4.067  1.00  0.00    -0.000 C 
BRANCH  16  17
ATOM     17  C   UNL     1       2.459  -9.699   3.179  1.00  0.00    -0.000 C 
BRANCH  17  18
ATOM     18  C   UNL     1       2.687  -9.859   1.667  1.00  0.00    -0.000 C 
BRANCH  18  19
ATOM     19  C   UNL     1       1.483 -10.484   0.947  1.00  0.00    -0.003 C 
ATOM     20  C   UNL     1       0.897 -11.636   1.758  1.00  0.00     0.004 C 
ENDBRANCH  18  19
ENDBRANCH  17  18
ENDBRANCH  16  17
ENDBRANCH  15  16
ENDBRANCH  14  15
ENDBRANCH  13  14
ENDBRANCH  12  13
ENDBRANCH   1  12
TORSDOF 16
ENDMDL
MODEL 5
REMARK VINA RESULT:    -4.504      3.781      7.653
REMARK INTER + INTRA:         -10.799
REMARK INTER:                  -9.221
REMARK INTRA:                  -1.578
REMARK UNBOUND:                -2.082
REMARK SMILES CCCCCCCCCCCCCCCCCC(=O)[O-]
REMARK SMILES IDX 10 1 11 2 12 3 13 4 14 5 15 6 16 7 17 8 18 9 19 10 20 11
REMARK SMILES IDX 9 12 8 13 7 14 6 15 5 16 4 17 3 18 2 19 1 20
REMARK H PARENT
REMARK Flexibility Score: inf
ROOT
ATOM      1  C   UNL     1       3.674 -14.085   4.334  1.00  0.00     0.000 C 
ENDROOT
BRANCH   1   2
ATOM      2  C   UNL     1       5.008 -13.864   5.070  1.00  0.00     0.000 C 
BRANCH   2   3
ATOM      3  C   UNL     1       4.817 -13.247   6.465  1.00  0.00     0.000 C 
BRANCH   3   4
ATOM      4  C   UNL     1       6.048 -12.451   6.932  1.00  0.00     0.000 C 
BRANCH   4   5
ATOM      5  C   UNL     1       5.709 -10.997   7.299  1.00  0.00     0.000 C 
BRANCH   5   6
ATOM      6  C   UNL     1       4.277 -10.602   6.895  1.00  0.00     0.000 C 
BRANCH   6   7
ATOM      7  C   UNL     1       4.241  -9.350   6.002  1.00  0.00     0.006 C 
BRANCH   7   8
ATOM      8  C   UNL     1       3.682  -8.120   6.730  1.00  0.00     0.053 C 
BRANCH   8   9
ATOM      9  C   UNL     1       2.194  -8.213   6.842  1.00  0.00     0.041 C 
ATOM     10  O   UNL     1       1.633  -8.075   7.961  1.00  0.00    -0.550 OA
ATOM     11  O   UNL     1       1.428  -8.505   5.719  1.00  0.00    -0.550 OA
ENDBRANCH   8   9
ENDBRANCH   7   8
ENDBRANCH   6   7
ENDBRANCH   5   6
ENDBRANCH   4   5
ENDBRANCH   3   4
ENDBRANCH   2   3
ENDBRANCH   1   2
BRANCH   1  12
ATOM     12  C   UNL     1       2.819 -12.810   4.262  1.00  0.00     0.000 C 
BRANCH  12  13
ATOM     13  C   UNL     1       3.427 -11.740   3.337  1.00  0.00    -0.000 C 
BRANCH  13  14
ATOM     14  C   UNL     1       3.074 -11.969   1.859  1.00  0.00    -0.000 C 
BRANCH  14  15
ATOM     15  C   UNL     1       4.276 -11.759   0.920  1.00  0.00    -0.000 C 
BRANCH  15  16
ATOM     16  C   UNL     1       5.417 -12.761   1.201  1.00  0.00    -0.000 C 
BRANCH  16  17
ATOM     17  C   UNL     1       6.633 -12.592   0.268  1.00  0.00    -0.000 C 
BRANCH  17  18
ATOM     18  C   UNL     1       7.978 -13.015   0.881  1.00  0.00    -0.000 C 
BRANCH  18  19
ATOM     19  C   UNL     1       8.361 -14.461   0.534  1.00  0.00    -0.003 C 
ATOM     20  C   UNL     1       9.758 -14.529  -0.075  1.00  0.00     0.004 C 
ENDBRANCH  18  19
ENDBRANCH  17  18
ENDBRANCH  16  17
ENDBRANCH  15  16
ENDBRANCH  14  15
ENDBRANCH  13  14
ENDBRANCH  12  13
ENDBRANCH   1  12
TORSDOF 16
ENDMDL
MODEL 6
REMARK VINA RESULT:    -4.487      3.432      7.152
REMARK INTER + INTRA:         -10.766
REMARK INTER:                  -8.622
REMARK INTRA:                  -2.145
REMARK UNBOUND:                -2.082
REMARK SMILES CCCCCCCCCCCCCCCCCC(=O)[O-]
REMARK SMILES IDX 10 1 11 2 12 3 13 4 14 5 15 6 16 7 17 8 18 9 19 10 20 11
REMARK SMILES IDX 9 12 8 13 7 14 6 15 5 16 4 17 3 18 2 19 1 20
REMARK H PARENT
REMARK Flexibility Score: inf
ROOT
ATOM      1  C   UNL     1       2.292 -12.528   4.179  1.00  0.00     0.000 C 
ENDROOT
BRANCH   1   2
ATOM      2  C   UNL     1       2.599 -13.976   3.756  1.00  0.00     0.000 C 
BRANCH   2   3
ATOM      3  C   UNL     1       3.896 -14.511   4.384  1.00  0.00     0.000 C 
BRANCH   3   4
ATOM      4  C   UNL     1       4.833 -13.383   4.852  1.00  0.00     0.000 C 
BRANCH   4   5
ATOM      5  C   UNL     1       5.216 -13.510   6.336  1.00  0.00     0.000 C 
BRANCH   5   6
ATOM      6  C   UNL     1       5.443 -12.144   7.008  1.00  0.00     0.000 C 
BRANCH   6   7
ATOM      7  C   UNL     1       4.865 -10.980   6.185  1.00  0.00     0.006 C 
BRANCH   7   8
ATOM      8  C   UNL     1       3.696 -10.279   6.890  1.00  0.00     0.053 C 
BRANCH   8   9
ATOM      9  C   UNL     1       3.535  -8.886   6.372  1.00  0.00     0.041 C 
ATOM     10  O   UNL     1       2.726  -8.646   5.437  1.00  0.00    -0.550 OA
ATOM     11  O   UNL     1       4.317  -7.858   6.887  1.00  0.00    -0.550 OA
ENDBRANCH   8   9
ENDBRANCH   7   8
ENDBRANCH   6   7
ENDBRANCH   5   6
ENDBRANCH   4   5
ENDBRANCH   3   4
ENDBRANCH   2   3
ENDBRANCH   1   2
BRANCH   1  12
ATOM     12  C   UNL     1       2.095 -11.589   2.977  1.00  0.00     0.000 C 
BRANCH  12  13
ATOM     13  C   UNL     1       3.338 -10.728   2.690  1.00  0.00    -0.000 C 
BRANCH  13  14
ATOM     14  C   UNL     1       3.741 -10.749   1.207  1.00  0.00    -0.000 C 
BRANCH  14  15
ATOM     15  C   UNL     1       3.870 -12.176   0.644  1.00  0.00    -0.000 C 
BRANCH  15  16
ATOM     16  C   UNL     1       5.133 -12.896   1.162  1.00  0.00    -0.000 C 
BRANCH  16  17
ATOM     17  C   UNL     1       6.419 -12.513   0.404  1.00  0.00    -0.000 C 
BRANCH  17  18
ATOM     18  C   UNL     1       7.044 -13.652  -0.420  1.00  0.00    -0.000 C 
BRANCH  18  19
ATOM     19  C   UNL     1       7.855 -14.631   0.441  1.00  0.00    -0.003 C 
ATOM     20  C   UNL     1       9.353 -14.397   0.276  1.00  0.00     0.004 C 
ENDBRANCH  18  19
ENDBRANCH  17  18
ENDBRANCH  16  17
ENDBRANCH  15  16
ENDBRANCH  14  15
ENDBRANCH  13  14
ENDBRANCH  12  13
ENDBRANCH   1  12
TORSDOF 16
ENDMDL
MODEL 7
REMARK VINA RESULT:    -4.439      1.260      3.463
REMARK INTER + INTRA:         -10.672
REMARK INTER:                  -8.586
REMARK INTRA:                  -2.086
REMARK UNBOUND:                -2.082
REMARK SMILES CCCCCCCCCCCCCCCCCC(=O)[O-]
REMARK SMILES IDX 10 1 11 2 12 3 13 4 14 5 15 6 16 7 17 8 18 9 19 10 20 11
REMARK SMILES IDX 9 12 8 13 7 14 6 15 5 16 4 17 3 18 2 19 1 20
REMARK H PARENT
REMARK Flexibility Score: inf
ROOT
ATOM      1  C   UNL     1       2.420 -10.163   5.186  1.00  0.00     0.000 C 
ENDROOT
BRANCH   1   2
ATOM      2  C   UNL     1       1.923 -10.553   3.782  1.00  0.00     0.000 C 
BRANCH   2   3
ATOM      3  C   UNL     1       3.022 -10.435   2.715  1.00  0.00     0.000 C 
BRANCH   3   4
ATOM      4  C   UNL     1       3.021 -11.620   1.733  1.00  0.00     0.000 C 
BRANCH   4   5
ATOM      5  C   UNL     1       4.300 -11.686   0.882  1.00  0.00     0.000 C 
BRANCH   5   6
ATOM      6  C   UNL     1       5.271 -12.782   1.355  1.00  0.00     0.000 C 
BRANCH   6   7
ATOM      7  C   UNL     1       5.443 -13.905   0.319  1.00  0.00     0.006 C 
BRANCH   7   8
ATOM      8  C   UNL     1       6.739 -13.768  -0.493  1.00  0.00     0.053 C 
BRANCH   8   9
ATOM      9  C   UNL     1       7.893 -14.336   0.269  1.00  0.00     0.041 C 
ATOM     10  O   UNL     1       8.703 -13.571   0.856  1.00  0.00    -0.550 OA
ATOM     11  O   UNL     1       8.106 -15.709   0.288  1.00  0.00    -0.550 OA
ENDBRANCH   8   9
ENDBRANCH   7   8
ENDBRANCH   6   7
ENDBRANCH   5   6
ENDBRANCH   4   5
ENDBRANCH   3   4
ENDBRANCH   2   3
ENDBRANCH   1   2
BRANCH   1  12
ATOM     12  C   UNL     1       3.867  -9.644   5.180  1.00  0.00     0.000 C 
BRANCH  12  13
ATOM     13  C   UNL     1       4.529  -9.721   6.567  1.00  0.00    -0.000 C 
BRANCH  13  14
ATOM     14  C   UNL     1       4.548 -11.148   7.135  1.00  0.00    -0.000 C 
BRANCH  14  15
ATOM     15  C   UNL     1       5.645 -12.026   6.504  1.00  0.00    -0.000 C 
BRANCH  15  16
ATOM     16  C   UNL     1       5.182 -13.485   6.306  1.00  0.00    -0.000 C 
BRANCH  16  17
ATOM     17  C   UNL     1       4.739 -13.804   4.864  1.00  0.00    -0.000 C 
BRANCH  17  18
ATOM     18  C   UNL     1       3.217 -13.807   4.643  1.00  0.00    -0.000 C 
BRANCH  18  19
ATOM     19  C   UNL     1       2.746 -14.976   3.767  1.00  0.00    -0.003 C 
ATOM     20  C   UNL     1       1.569 -15.704   4.409  1.00  0.00     0.004 C 
ENDBRANCH  18  19
ENDBRANCH  17  18
ENDBRANCH  16  17
ENDBRANCH  15  16
ENDBRANCH  14  15
ENDBRANCH  13  14
ENDBRANCH  12  13
ENDBRANCH   1  12
TORSDOF 16
ENDMDL
MODEL 8
REMARK VINA RESULT:    -4.429      0.937      2.166
REMARK INTER + INTRA:         -10.653
REMARK INTER:                  -9.076
REMARK INTRA:                  -1.577
REMARK UNBOUND:                -2.082
REMARK SMILES CCCCCCCCCCCCCCCCCC(=O)[O-]
REMARK SMILES IDX 10 1 11 2 12 3 13 4 14 5 15 6 16 7 17 8 18 9 19 10 20 11
REMARK SMILES IDX 9 12 8 13 7 14 6 15 5 16 4 17 3 18 2 19 1 20
REMARK H PARENT
REMARK Flexibility Score: inf
ROOT
ATOM      1  C   UNL     1       4.791 -13.540   4.682  1.00  0.00     0.000 C 
ENDROOT
BRANCH   1   2
ATOM      2  C   UNL     1       3.398 -13.941   4.164  1.00  0.00     0.000 C 
BRANCH   2   3
ATOM      3  C   UNL     1       2.809 -12.904   3.195  1.00  0.00     0.000 C 
BRANCH   3   4
ATOM      4  C   UNL     1       3.802 -11.775   2.864  1.00  0.00     0.000 C 
BRANCH   4   5
ATOM      5  C   UNL     1       3.823 -11.425   1.367  1.00  0.00     0.000 C 
BRANCH   5   6
ATOM      6  C   UNL     1       4.477 -12.524   0.511  1.00  0.00     0.000 C 
BRANCH   6   7
ATOM      7  C   UNL     1       6.003 -12.361   0.408  1.00  0.00     0.006 C 
BRANCH   7   8
ATOM      8  C   UNL     1       6.766 -13.340   1.311  1.00  0.00     0.053 C 
BRANCH   8   9
ATOM      9  C   UNL     1       7.797 -14.081   0.522  1.00  0.00     0.041 C 
ATOM     10  O   UNL     1       9.016 -13.784   0.635  1.00  0.00    -0.550 OA
ATOM     11  O   UNL     1       7.409 -15.065  -0.379  1.00  0.00    -0.550 OA
ENDBRANCH   8   9
ENDBRANCH   7   8
ENDBRANCH   6   7
ENDBRANCH   5   6
ENDBRANCH   4   5
ENDBRANCH   3   4
ENDBRANCH   2   3
ENDBRANCH   1   2
BRANCH   1  12
ATOM     12  C   UNL     1       4.824 -13.348   6.207  1.00  0.00     0.000 C 
BRANCH  12  13
ATOM     13  C   UNL     1       5.956 -12.409   6.662  1.00  0.00    -0.000 C 
BRANCH  13  14
ATOM     14  C   UNL     1       5.430 -11.144   7.358  1.00  0.00    -0.000 C 
BRANCH  14  15
ATOM     15  C   UNL     1       3.991 -10.788   6.941  1.00  0.00    -0.000 C 
BRANCH  15  16
ATOM     16  C   UNL     1       3.954  -9.762   5.789  1.00  0.00    -0.000 C 
BRANCH  16  17
ATOM     17  C   UNL     1       3.097  -8.517   6.095  1.00  0.00    -0.000 C 
BRANCH  17  18
ATOM     18  C   UNL     1       3.785  -7.174   5.798  1.00  0.00    -0.000 C 
BRANCH  18  19
ATOM     19  C   UNL     1       3.125  -5.995   6.528  1.00  0.00    -0.003 C 
ATOM     20  C   UNL     1       3.744  -5.788   7.907  1.00  0.00     0.004 C 
ENDBRANCH  18  19
ENDBRANCH  17  18
ENDBRANCH  16  17
ENDBRANCH  15  16
ENDBRANCH  14  15
ENDBRANCH  13  14
ENDBRANCH  12  13
ENDBRANCH   1  12
TORSDOF 16
ENDMDL
MODEL 9
REMARK VINA RESULT:    -4.390      2.859      6.429
REMARK INTER + INTRA:         -10.579
REMARK INTER:                  -8.520
REMARK INTRA:                  -2.059
REMARK UNBOUND:                -2.082
REMARK SMILES CCCCCCCCCCCCCCCCCC(=O)[O-]
REMARK SMILES IDX 10 1 11 2 12 3 13 4 14 5 15 6 16 7 17 8 18 9 19 10 20 11
REMARK SMILES IDX 9 12 8 13 7 14 6 15 5 16 4 17 3 18 2 19 1 20
REMARK H PARENT
REMARK Flexibility Score: inf
ROOT
ATOM      1  C   UNL     1       2.722  -9.480   5.805  1.00  0.00     0.000 C 
ENDROOT
BRANCH   1   2
ATOM      2  C   UNL     1       4.178  -9.799   6.190  1.00  0.00     0.000 C 
BRANCH   2   3
ATOM      3  C   UNL     1       4.306 -11.112   6.979  1.00  0.00     0.000 C 
BRANCH   3   4
ATOM      4  C   UNL     1       5.512 -11.955   6.529  1.00  0.00     0.000 C 
BRANCH   4   5
ATOM      5  C   UNL     1       5.102 -13.341   6.003  1.00  0.00     0.000 C 
BRANCH   5   6
ATOM      6  C   UNL     1       4.176 -13.259   4.776  1.00  0.00     0.000 C 
BRANCH   6   7
ATOM      7  C   UNL     1       3.693 -14.642   4.308  1.00  0.00     0.006 C 
BRANCH   7   8
ATOM      8  C   UNL     1       2.302 -14.597   3.663  1.00  0.00     0.053 C 
BRANCH   8   9
ATOM      9  C   UNL     1       1.557 -15.863   3.943  1.00  0.00     0.041 C 
ATOM     10  O   UNL     1       1.169 -16.125   5.112  1.00  0.00    -0.550 OA
ATOM     11  O   UNL     1       1.336 -16.781   2.922  1.00  0.00    -0.550 OA
ENDBRANCH   8   9
ENDBRANCH   7   8
ENDBRANCH   6   7
ENDBRANCH   5   6
ENDBRANCH   4   5
ENDBRANCH   3   4
ENDBRANCH   2   3
ENDBRANCH   1   2
BRANCH   1  12
ATOM     12  C   UNL     1       2.564  -9.137   4.315  1.00  0.00     0.000 C 
BRANCH  12  13
ATOM     13  C   UNL     1       2.353 -10.386   3.439  1.00  0.00    -0.000 C 
BRANCH  13  14
ATOM     14  C   UNL     1       3.399 -10.506   2.320  1.00  0.00    -0.000 C 
BRANCH  14  15
ATOM     15  C   UNL     1       3.194 -11.755   1.443  1.00  0.00    -0.000 C 
BRANCH  15  16
ATOM     16  C   UNL     1       4.457 -12.111   0.631  1.00  0.00    -0.000 C 
BRANCH  16  17
ATOM     17  C   UNL     1       5.054 -13.487   0.986  1.00  0.00    -0.000 C 
BRANCH  17  18
ATOM     18  C   UNL     1       6.414 -13.433   1.703  1.00  0.00    -0.000 C 
BRANCH  18  19
ATOM     19  C   UNL     1       7.531 -12.867   0.815  1.00  0.00    -0.003 C 
ATOM     20  C   UNL     1       8.665 -13.873   0.650  1.00  0.00     0.004 C 
ENDBRANCH  18  19
ENDBRANCH  17  18
ENDBRANCH  16  17
ENDBRANCH  15  16
ENDBRANCH  14  15
ENDBRANCH  13  14
ENDBRANCH  12  13
ENDBRANCH   1  12
TORSDOF 16
ENDMDL
