MODEL 1
REMARK VINA RESULT:    -3.711      0.000      0.000
REMARK INTER + INTRA:         -13.094
REMARK INTER:                  -9.351
REMARK INTRA:                  -3.743
REMARK UNBOUND:                -3.743
REMARK SMILES CCCCCCCCCCCCCCCCCCCCCCCCCCCC(=O)[O-]
REMARK SMILES IDX 15 1 16 2 17 3 18 4 19 5 20 6 21 7 22 8 23 9 24 10 25 11
REMARK SMILES IDX 26 12 27 13 28 14 29 15 30 16 14 17 13 18 12 19 11 20 10 21
REMARK SMILES IDX 9 22 8 23 7 24 6 25 5 26 4 27 3 28 2 29 1 30
REMARK H PARENT
REMARK Flexibility Score: inf
ROOT
ATOM      1  C   UNL     1      12.574   6.980  11.168  1.00  0.00     0.000 C 
ENDROOT
BRANCH   1   2
ATOM      2  C   UNL     1      12.416   5.470  10.931  1.00  0.00     0.000 C 
BRANCH   2   3
ATOM      3  C   UNL     1      12.003   5.133   9.489  1.00  0.00     0.000 C 
BRANCH   3   4
ATOM      4  C   UNL     1      12.029   6.322   8.509  1.00  0.00     0.000 C 
BRANCH   4   5
ATOM      5  C   UNL     1      10.631   6.760   8.020  1.00  0.00     0.000 C 
BRANCH   5   6
ATOM      6  C   UNL     1      10.497   6.694   6.488  1.00  0.00     0.000 C 
BRANCH   6   7
ATOM      7  C   UNL     1      11.728   7.257   5.761  1.00  0.00     0.000 C 
BRANCH   7   8
ATOM      8  C   UNL     1      11.474   8.646   5.156  1.00  0.00     0.000 C 
BRANCH   8   9
ATOM      9  C   UNL     1       9.987   9.008   5.231  1.00  0.00     0.000 C 
BRANCH   9  10
ATOM     10  C   UNL     1       9.772  10.304   6.027  1.00  0.00     0.000 C 
BRANCH  10  11
ATOM     11  C   UNL     1       8.921  10.093   7.292  1.00  0.00     0.000 C 
BRANCH  11  12
ATOM     12  C   UNL     1       8.799  11.356   8.170  1.00  0.00     0.006 C 
BRANCH  12  13
ATOM     13  C   UNL     1       7.373  11.922   8.176  1.00  0.00     0.053 C 
BRANCH  13  14
ATOM     14  C   UNL     1       7.349  13.289   7.572  1.00  0.00     0.041 C 
ATOM     15  O   UNL     1       6.251  13.868   7.359  1.00  0.00    -0.550 OA
ATOM     16  O   UNL     1       8.537  13.902   7.189  1.00  0.00    -0.550 OA
ENDBRANCH  13  14
ENDBRANCH  12  13
ENDBRANCH  11  12
ENDBRANCH  10  11
ENDBRANCH   9  10
ENDBRANCH   8   9
ENDBRANCH   7   8
ENDBRANCH   6   7
ENDBRANCH   5   6
ENDBRANCH   4   5
ENDBRANCH   3   4
ENDBRANCH   2   3
ENDBRANCH   1   2
BRANCH   1  17
ATOM     17  C   UNL     1      13.382   7.254  12.442  1.00  0.00     0.000 C 
BRANCH  17  18
ATOM     18  C   UNL     1      14.720   7.928  12.107  1.00  0.00     0.000 C 
BRANCH  18  19
ATOM     19  C   UNL     1      15.870   7.471  13.023  1.00  0.00     0.000 C 
BRANCH  19  20
ATOM     20  C   UNL     1      15.787   6.005  13.486  1.00  0.00     0.000 C 
BRANCH  20  21
ATOM     21  C   UNL     1      16.664   5.061  12.648  1.00  0.00     0.000 C 
BRANCH  21  22
ATOM     22  C   UNL     1      15.917   4.576  11.397  1.00  0.00    -0.000 C 
BRANCH  22  23
ATOM     23  C   UNL     1      16.591   5.024  10.092  1.00  0.00    -0.000 C 
BRANCH  23  24
ATOM     24  C   UNL     1      15.655   5.843   9.189  1.00  0.00    -0.000 C 
BRANCH  24  25
ATOM     25  C   UNL     1      15.449   5.151   7.835  1.00  0.00    -0.000 C 
BRANCH  25  26
ATOM     26  C   UNL     1      15.373   6.148   6.667  1.00  0.00    -0.000 C 
BRANCH  26  27
ATOM     27  C   UNL     1      16.760   6.560   6.149  1.00  0.00    -0.000 C 
BRANCH  27  28
ATOM     28  C   UNL     1      16.655   7.774   5.214  1.00  0.00    -0.000 C 
BRANCH  28  29
ATOM     29  C   UNL     1      15.261   7.913   4.582  1.00  0.00    -0.003 C 
ATOM     30  C   UNL     1      14.961   9.339   4.121  1.00  0.00     0.004 C 
ENDBRANCH  28  29
ENDBRANCH  27  28
ENDBRANCH  26  27
ENDBRANCH  25  26
ENDBRANCH  24  25
ENDBRANCH  23  24
ENDBRANCH  22  23
ENDBRANCH  21  22
ENDBRANCH  20  21
ENDBRANCH  19  20
ENDBRANCH  18  19
ENDBRANCH  17  18
ENDBRANCH   1  17
TORSDOF 26
ENDMDL
MODEL 2
REMARK VINA RESULT:    -3.710      2.767      5.459
REMARK INTER + INTRA:         -13.092
REMARK INTER:                  -7.945
REMARK INTRA:                  -5.147
REMARK UNBOUND:                -3.743
REMARK SMILES CCCCCCCCCCCCCCCCCCCCCCCCCCCC(=O)[O-]
REMARK SMILES IDX 15 1 16 2 17 3 18 4 19 5 20 6 21 7 22 8 23 9 24 10 25 11
REMARK SMILES IDX 26 12 27 13 28 14 29 15 30 16 14 17 13 18 12 19 11 20 10 21
REMARK SMILES IDX 9 22 8 23 7 24 6 25 5 26 4 27 3 28 2 29 1 30
REMARK H PARENT
REMARK Flexibility Score: inf
ROOT
ATOM      1  C   UNL     1      10.257   9.160  12.316  1.00  0.00     0.000 C 
ENDROOT
BRANCH   1   2
ATOM      2  C   UNL     1       8.995   9.061  11.444  1.00  0.00     0.000 C 
BRANCH   2   3
ATOM      3  C   UNL     1       9.235   9.515   9.995  1.00  0.00     0.000 C 
BRANCH   3   4
ATOM      4  C   UNL     1       8.828  10.969   9.692  1.00  0.00     0.000 C 
BRANCH   4   5
ATOM      5  C   UNL     1       8.981  11.365   8.207  1.00  0.00     0.000 C 
BRANCH   5   6
ATOM      6  C   UNL     1       7.917  10.705   7.310  1.00  0.00     0.000 C 
BRANCH   6   7
ATOM      7  C   UNL     1       6.492  10.882   7.855  1.00  0.00     0.000 C 
BRANCH   7   8
ATOM      8  C   UNL     1       5.659   9.595   7.765  1.00  0.00     0.000 C 
BRANCH   8   9
ATOM      9  C   UNL     1       6.475   8.462   7.131  1.00  0.00     0.000 C 
BRANCH   9  10
ATOM     10  C   UNL     1       6.827   7.386   8.168  1.00  0.00     0.000 C 
BRANCH  10  11
ATOM     11  C   UNL     1       8.216   6.766   7.936  1.00  0.00     0.000 C 
BRANCH  11  12
ATOM     12  C   UNL     1       8.790   7.047   6.531  1.00  0.00     0.006 C 
BRANCH  12  13
ATOM     13  C   UNL     1      10.116   7.816   6.591  1.00  0.00     0.053 C 
BRANCH  13  14
ATOM     14  C   UNL     1      10.231   8.752   5.431  1.00  0.00     0.041 C 
ATOM     15  O   UNL     1      11.268   9.450   5.280  1.00  0.00    -0.550 OA
ATOM     16  O   UNL     1       9.168   8.899   4.546  1.00  0.00    -0.550 OA
ENDBRANCH  13  14
ENDBRANCH  12  13
ENDBRANCH  11  12
ENDBRANCH  10  11
ENDBRANCH   9  10
ENDBRANCH   8   9
ENDBRANCH   7   8
ENDBRANCH   6   7
ENDBRANCH   5   6
ENDBRANCH   4   5
ENDBRANCH   3   4
ENDBRANCH   2   3
ENDBRANCH   1   2
BRANCH   1  17
ATOM     17  C   UNL     1      10.180   8.193  13.504  1.00  0.00     0.000 C 
BRANCH  17  18
ATOM     18  C   UNL     1      11.517   7.466  13.704  1.00  0.00     0.000 C 
BRANCH  18  19
ATOM     19  C   UNL     1      11.826   6.456  12.583  1.00  0.00     0.000 C 
BRANCH  19  20
ATOM     20  C   UNL     1      10.644   5.559  12.174  1.00  0.00     0.000 C 
BRANCH  20  21
ATOM     21  C   UNL     1      10.342   5.614  10.668  1.00  0.00     0.000 C 
BRANCH  21  22
ATOM     22  C   UNL     1      11.402   6.438   9.921  1.00  0.00    -0.000 C 
BRANCH  22  23
ATOM     23  C   UNL     1      12.130   5.627   8.838  1.00  0.00    -0.000 C 
BRANCH  23  24
ATOM     24  C   UNL     1      13.658   5.760   8.923  1.00  0.00    -0.000 C 
BRANCH  24  25
ATOM     25  C   UNL     1      14.211   5.002  10.138  1.00  0.00    -0.000 C 
BRANCH  25  26
ATOM     26  C   UNL     1      15.242   5.825  10.929  1.00  0.00    -0.000 C 
BRANCH  26  27
ATOM     27  C   UNL     1      15.052   7.340  10.752  1.00  0.00    -0.000 C 
BRANCH  27  28
ATOM     28  C   UNL     1      15.082   8.056  12.110  1.00  0.00    -0.000 C 
BRANCH  28  29
ATOM     29  C   UNL     1      15.440   7.112  13.268  1.00  0.00    -0.003 C 
ATOM     30  C   UNL     1      16.452   7.723  14.236  1.00  0.00     0.004 C 
ENDBRANCH  28  29
ENDBRANCH  27  28
ENDBRANCH  26  27
ENDBRANCH  25  26
ENDBRANCH  24  25
ENDBRANCH  23  24
ENDBRANCH  22  23
ENDBRANCH  21  22
ENDBRANCH  20  21
ENDBRANCH  19  20
ENDBRANCH  18  19
ENDBRANCH  17  18
ENDBRANCH   1  17
TORSDOF 26
ENDMDL
MODEL 3
REMARK VINA RESULT:    -3.709      2.971      6.435
REMARK INTER + INTRA:         -13.090
REMARK INTER:                  -9.537
REMARK INTRA:                  -3.553
REMARK UNBOUND:                -3.743
REMARK SMILES CCCCCCCCCCCCCCCCCCCCCCCCCCCC(=O)[O-]
REMARK SMILES IDX 15 1 16 2 17 3 18 4 19 5 20 6 21 7 22 8 23 9 24 10 25 11
REMARK SMILES IDX 26 12 27 13 28 14 29 15 30 16 14 17 13 18 12 19 11 20 10 21
REMARK SMILES IDX 9 22 8 23 7 24 6 25 5 26 4 27 3 28 2 29 1 30
REMARK H PARENT
REMARK Flexibility Score: inf
ROOT
ATOM      1  C   UNL     1      12.317   7.003   4.571  1.00  0.00     0.000 C 
ENDROOT
BRANCH   1   2
ATOM      2  C   UNL     1      12.458   6.457   6.000  1.00  0.00     0.000 C 
BRANCH   2   3
ATOM      3  C   UNL     1      11.112   6.360   6.736  1.00  0.00     0.000 C 
BRANCH   3   4
ATOM      4  C   UNL     1      11.002   7.218   8.011  1.00  0.00     0.000 C 
BRANCH   4   5
ATOM      5  C   UNL     1       9.587   7.781   8.267  1.00  0.00     0.000 C 
BRANCH   5   6
ATOM      6  C   UNL     1       9.519   9.307   8.078  1.00  0.00     0.000 C 
BRANCH   6   7
ATOM      7  C   UNL     1       9.494   9.721   6.599  1.00  0.00     0.000 C 
BRANCH   7   8
ATOM      8  C   UNL     1       8.434   8.960   5.789  1.00  0.00     0.000 C 
BRANCH   8   9
ATOM      9  C   UNL     1       9.004   8.499   4.443  1.00  0.00     0.000 C 
BRANCH   9  10
ATOM     10  C   UNL     1       8.595   7.051   4.136  1.00  0.00     0.000 C 
BRANCH  10  11
ATOM     11  C   UNL     1       8.767   6.685   2.651  1.00  0.00     0.000 C 
BRANCH  11  12
ATOM     12  C   UNL     1       9.874   7.494   1.941  1.00  0.00     0.006 C 
BRANCH  12  13
ATOM     13  C   UNL     1       9.665   7.552   0.423  1.00  0.00     0.053 C 
BRANCH  13  14
ATOM     14  C   UNL     1       9.178   8.905   0.013  1.00  0.00     0.041 C 
ATOM     15  O   UNL     1       9.940   9.689  -0.613  1.00  0.00    -0.550 OA
ATOM     16  O   UNL     1       7.902   9.325   0.372  1.00  0.00    -0.550 OA
ENDBRANCH  13  14
ENDBRANCH  12  13
ENDBRANCH  11  12
ENDBRANCH  10  11
ENDBRANCH   9  10
ENDBRANCH   8   9
ENDBRANCH   7   8
ENDBRANCH   6   7
ENDBRANCH   5   6
ENDBRANCH   4   5
ENDBRANCH   3   4
ENDBRANCH   2   3
ENDBRANCH   1   2
BRANCH   1  17
ATOM     17  C   UNL     1      12.646   8.499   4.519  1.00  0.00     0.000 C 
BRANCH  17  18
ATOM     18  C   UNL     1      13.765   8.778   3.505  1.00  0.00     0.000 C 
BRANCH  18  19
ATOM     19  C   UNL     1      14.993   9.459   4.137  1.00  0.00     0.000 C 
BRANCH  19  20
ATOM     20  C   UNL     1      16.284   8.620   4.111  1.00  0.00     0.000 C 
BRANCH  20  21
ATOM     21  C   UNL     1      16.630   8.010   5.479  1.00  0.00     0.000 C 
BRANCH  21  22
ATOM     22  C   UNL     1      16.015   6.611   5.633  1.00  0.00    -0.000 C 
BRANCH  22  23
ATOM     23  C   UNL     1      16.504   5.883   6.894  1.00  0.00    -0.000 C 
BRANCH  23  24
ATOM     24  C   UNL     1      15.597   6.127   8.110  1.00  0.00    -0.000 C 
BRANCH  24  25
ATOM     25  C   UNL     1      16.013   5.245   9.295  1.00  0.00    -0.000 C 
BRANCH  25  26
ATOM     26  C   UNL     1      15.852   5.957  10.648  1.00  0.00    -0.000 C 
BRANCH  26  27
ATOM     27  C   UNL     1      14.930   7.184  10.565  1.00  0.00    -0.000 C 
BRANCH  27  28
ATOM     28  C   UNL     1      14.985   7.997  11.867  1.00  0.00    -0.000 C 
BRANCH  28  29
ATOM     29  C   UNL     1      15.630   7.217  13.023  1.00  0.00    -0.003 C 
ATOM     30  C   UNL     1      14.610   6.751  14.061  1.00  0.00     0.004 C 
ENDBRANCH  28  29
ENDBRANCH  27  28
ENDBRANCH  26  27
ENDBRANCH  25  26
ENDBRANCH  24  25
ENDBRANCH  23  24
ENDBRANCH  22  23
ENDBRANCH  21  22
ENDBRANCH  20  21
ENDBRANCH  19  20
ENDBRANCH  18  19
ENDBRANCH  17  18
ENDBRANCH   1  17
TORSDOF 26
ENDMDL
MODEL 4
REMARK VINA RESULT:    -3.679      1.269      2.969
REMARK INTER + INTRA:         -13.013
REMARK INTER:                  -9.082
REMARK INTRA:                  -3.932
REMARK UNBOUND:                -3.743
REMARK SMILES CCCCCCCCCCCCCCCCCCCCCCCCCCCC(=O)[O-]
REMARK SMILES IDX 15 1 16 2 17 3 18 4 19 5 20 6 21 7 22 8 23 9 24 10 25 11
REMARK SMILES IDX 26 12 27 13 28 14 29 15 30 16 14 17 13 18 12 19 11 20 10 21
REMARK SMILES IDX 9 22 8 23 7 24 6 25 5 26 4 27 3 28 2 29 1 30
REMARK H PARENT
REMARK Flexibility Score: inf
ROOT
ATOM      1  C   UNL     1      13.228   7.353  12.021  1.00  0.00     0.000 C 
ENDROOT
BRANCH   1   2
ATOM      2  C   UNL     1      12.644   5.994  12.437  1.00  0.00     0.000 C 
BRANCH   2   3
ATOM      3  C   UNL     1      11.698   5.403  11.379  1.00  0.00     0.000 C 
BRANCH   3   4
ATOM      4  C   UNL     1      12.380   4.529  10.310  1.00  0.00     0.000 C 
BRANCH   4   5
ATOM      5  C   UNL     1      12.081   4.966   8.860  1.00  0.00     0.000 C 
BRANCH   5   6
ATOM      6  C   UNL     1      11.797   6.475   8.748  1.00  0.00     0.000 C 
BRANCH   6   7
ATOM      7  C   UNL     1      10.802   6.809   7.626  1.00  0.00     0.000 C 
BRANCH   7   8
ATOM      8  C   UNL     1      10.315   8.265   7.680  1.00  0.00     0.000 C 
BRANCH   8   9
ATOM      9  C   UNL     1      10.416   8.923   6.300  1.00  0.00     0.000 C 
BRANCH   9  10
ATOM     10  C   UNL     1       9.117   9.661   5.943  1.00  0.00     0.000 C 
BRANCH  10  11
ATOM     11  C   UNL     1       7.940   9.271   6.854  1.00  0.00     0.000 C 
BRANCH  11  12
ATOM     12  C   UNL     1       7.252  10.480   7.523  1.00  0.00     0.006 C 
BRANCH  12  13
ATOM     13  C   UNL     1       8.257  11.408   8.217  1.00  0.00     0.053 C 
BRANCH  13  14
ATOM     14  C   UNL     1       8.213  12.774   7.612  1.00  0.00     0.041 C 
ATOM     15  O   UNL     1       7.153  13.452   7.654  1.00  0.00    -0.550 OA
ATOM     16  O   UNL     1       9.326  13.277   6.947  1.00  0.00    -0.550 OA
ENDBRANCH  13  14
ENDBRANCH  12  13
ENDBRANCH  11  12
ENDBRANCH  10  11
ENDBRANCH   9  10
ENDBRANCH   8   9
ENDBRANCH   7   8
ENDBRANCH   6   7
ENDBRANCH   5   6
ENDBRANCH   4   5
ENDBRANCH   3   4
ENDBRANCH   2   3
ENDBRANCH   1   2
BRANCH   1  17
ATOM     17  C   UNL     1      14.751   7.272  11.869  1.00  0.00     0.000 C 
BRANCH  17  18
ATOM     18  C   UNL     1      15.141   6.948  10.419  1.00  0.00     0.000 C 
BRANCH  18  19
ATOM     19  C   UNL     1      15.882   5.606  10.281  1.00  0.00     0.000 C 
BRANCH  19  20
ATOM     20  C   UNL     1      16.240   5.209   8.837  1.00  0.00     0.000 C 
BRANCH  20  21
ATOM     21  C   UNL     1      15.511   6.058   7.783  1.00  0.00     0.000 C 
BRANCH  21  22
ATOM     22  C   UNL     1      16.287   6.080   6.457  1.00  0.00    -0.000 C 
BRANCH  22  23
ATOM     23  C   UNL     1      15.365   6.185   5.232  1.00  0.00    -0.000 C 
BRANCH  23  24
ATOM     24  C   UNL     1      13.931   5.719   5.526  1.00  0.00    -0.000 C 
BRANCH  24  25
ATOM     25  C   UNL     1      12.905   6.589   4.786  1.00  0.00    -0.000 C 
BRANCH  25  26
ATOM     26  C   UNL     1      13.411   8.021   4.544  1.00  0.00    -0.000 C 
BRANCH  26  27
ATOM     27  C   UNL     1      13.236   8.473   3.086  1.00  0.00    -0.000 C 
BRANCH  27  28
ATOM     28  C   UNL     1      14.356   9.440   2.675  1.00  0.00    -0.000 C 
BRANCH  28  29
ATOM     29  C   UNL     1      15.450   9.564   3.746  1.00  0.00    -0.003 C 
ATOM     30  C   UNL     1      16.808   9.951   3.161  1.00  0.00     0.004 C 
ENDBRANCH  28  29
ENDBRANCH  27  28
ENDBRANCH  26  27
ENDBRANCH  25  26
ENDBRANCH  24  25
ENDBRANCH  23  24
ENDBRANCH  22  23
ENDBRANCH  21  22
ENDBRANCH  20  21
ENDBRANCH  19  20
ENDBRANCH  18  19
ENDBRANCH  17  18
ENDBRANCH   1  17
TORSDOF 26
ENDMDL
MODEL 5
REMARK VINA RESULT:    -3.675      2.202      5.035
REMARK INTER + INTRA:         -13.004
REMARK INTER:                  -8.621
REMARK INTRA:                  -4.383
REMARK UNBOUND:                -3.743
REMARK SMILES CCCCCCCCCCCCCCCCCCCCCCCCCCCC(=O)[O-]
REMARK SMILES IDX 15 1 16 2 17 3 18 4 19 5 20 6 21 7 22 8 23 9 24 10 25 11
REMARK SMILES IDX 26 12 27 13 28 14 29 15 30 16 14 17 13 18 12 19 11 20 10 21
REMARK SMILES IDX 9 22 8 23 7 24 6 25 5 26 4 27 3 28 2 29 1 30
REMARK H PARENT
REMARK Flexibility Score: inf
ROOT
ATOM      1  C   UNL     1       9.800   7.903   9.539  1.00  0.00     0.000 C 
ENDROOT
BRANCH   1   2
ATOM      2  C   UNL     1      10.303   6.617   8.864  1.00  0.00     0.000 C 
BRANCH   2   3
ATOM      3  C   UNL     1      11.622   6.822   8.101  1.00  0.00     0.000 C 
BRANCH   3   4
ATOM      4  C   UNL     1      11.639   6.261   6.667  1.00  0.00     0.000 C 
BRANCH   4   5
ATOM      5  C   UNL     1      10.766   7.058   5.672  1.00  0.00     0.000 C 
BRANCH   5   6
ATOM      6  C   UNL     1      11.299   8.482   5.433  1.00  0.00     0.000 C 
BRANCH   6   7
ATOM      7  C   UNL     1      10.218   9.558   5.618  1.00  0.00     0.000 C 
BRANCH   7   8
ATOM      8  C   UNL     1       8.852   8.965   5.994  1.00  0.00     0.000 C 
BRANCH   8   9
ATOM      9  C   UNL     1       8.070   9.927   6.896  1.00  0.00     0.000 C 
BRANCH   9  10
ATOM     10  C   UNL     1       9.000  10.979   7.519  1.00  0.00     0.000 C 
BRANCH  10  11
ATOM     11  C   UNL     1       8.325  12.352   7.681  1.00  0.00     0.000 C 
BRANCH  11  12
ATOM     12  C   UNL     1       6.804  12.265   7.927  1.00  0.00     0.006 C 
BRANCH  12  13
ATOM     13  C   UNL     1       6.073  13.542   7.493  1.00  0.00     0.053 C 
BRANCH  13  14
ATOM     14  C   UNL     1       5.445  14.213   8.673  1.00  0.00     0.041 C 
ATOM     15  O   UNL     1       6.163  14.641   9.614  1.00  0.00    -0.550 OA
ATOM     16  O   UNL     1       4.061  14.313   8.762  1.00  0.00    -0.550 OA
ENDBRANCH  13  14
ENDBRANCH  12  13
ENDBRANCH  11  12
ENDBRANCH  10  11
ENDBRANCH   9  10
ENDBRANCH   8   9
ENDBRANCH   7   8
ENDBRANCH   6   7
ENDBRANCH   5   6
ENDBRANCH   4   5
ENDBRANCH   3   4
ENDBRANCH   2   3
ENDBRANCH   1   2
BRANCH   1  17
ATOM     17  C   UNL     1       8.306   7.800   9.871  1.00  0.00     0.000 C 
BRANCH  17  18
ATOM     18  C   UNL     1       7.826   9.049  10.623  1.00  0.00     0.000 C 
BRANCH  18  19
ATOM     19  C   UNL     1       8.954  10.064  10.885  1.00  0.00     0.000 C 
BRANCH  19  20
ATOM     20  C   UNL     1       9.373  10.202  12.361  1.00  0.00     0.000 C 
BRANCH  20  21
ATOM     21  C   UNL     1       8.592   9.265  13.296  1.00  0.00     0.000 C 
BRANCH  21  22
ATOM     22  C   UNL     1       9.533   8.275  13.999  1.00  0.00    -0.000 C 
BRANCH  22  23
ATOM     23  C   UNL     1      10.930   8.228  13.361  1.00  0.00    -0.000 C 
BRANCH  23  24
ATOM     24  C   UNL     1      11.210   6.900  12.641  1.00  0.00    -0.000 C 
BRANCH  24  25
ATOM     25  C   UNL     1      12.574   6.931  11.936  1.00  0.00    -0.000 C 
BRANCH  25  26
ATOM     26  C   UNL     1      13.746   7.059  12.924  1.00  0.00    -0.000 C 
BRANCH  26  27
ATOM     27  C   UNL     1      15.080   7.362  12.224  1.00  0.00    -0.000 C 
BRANCH  27  28
ATOM     28  C   UNL     1      14.934   7.251  10.699  1.00  0.00    -0.000 C 
BRANCH  28  29
ATOM     29  C   UNL     1      15.687   6.043  10.121  1.00  0.00    -0.003 C 
ATOM     30  C   UNL     1      15.374   5.803   8.644  1.00  0.00     0.004 C 
ENDBRANCH  28  29
ENDBRANCH  27  28
ENDBRANCH  26  27
ENDBRANCH  25  26
ENDBRANCH  24  25
ENDBRANCH  23  24
ENDBRANCH  22  23
ENDBRANCH  21  22
ENDBRANCH  20  21
ENDBRANCH  19  20
ENDBRANCH  18  19
ENDBRANCH  17  18
ENDBRANCH   1  17
TORSDOF 26
ENDMDL
MODEL 6
REMARK VINA RESULT:    -3.664      2.429      7.503
REMARK INTER + INTRA:         -12.976
REMARK INTER:                  -9.538
REMARK INTRA:                  -3.438
REMARK UNBOUND:                -3.743
REMARK SMILES CCCCCCCCCCCCCCCCCCCCCCCCCCCC(=O)[O-]
REMARK SMILES IDX 15 1 16 2 17 3 18 4 19 5 20 6 21 7 22 8 23 9 24 10 25 11
REMARK SMILES IDX 26 12 27 13 28 14 29 15 30 16 14 17 13 18 12 19 11 20 10 21
REMARK SMILES IDX 9 22 8 23 7 24 6 25 5 26 4 27 3 28 2 29 1 30
REMARK H PARENT
REMARK Flexibility Score: inf
ROOT
ATOM      1  C   UNL     1      11.717   7.202  13.208  1.00  0.00     0.000 C 
ENDROOT
BRANCH   1   2
ATOM      2  C   UNL     1      12.799   6.194  13.628  1.00  0.00     0.000 C 
BRANCH   2   3
ATOM      3  C   UNL     1      14.035   6.869  14.244  1.00  0.00     0.000 C 
BRANCH   3   4
ATOM      4  C   UNL     1      15.273   6.921  13.329  1.00  0.00     0.000 C 
BRANCH   4   5
ATOM      5  C   UNL     1      15.138   7.907  12.148  1.00  0.00     0.000 C 
BRANCH   5   6
ATOM      6  C   UNL     1      15.126   7.192  10.784  1.00  0.00     0.000 C 
BRANCH   6   7
ATOM      7  C   UNL     1      15.962   5.904  10.784  1.00  0.00     0.000 C 
BRANCH   7   8
ATOM      8  C   UNL     1      16.051   5.256   9.394  1.00  0.00     0.000 C 
BRANCH   8   9
ATOM      9  C   UNL     1      15.496   6.196   8.319  1.00  0.00     0.000 C 
BRANCH   9  10
ATOM     10  C   UNL     1      16.285   6.065   7.008  1.00  0.00     0.000 C 
BRANCH  10  11
ATOM     11  C   UNL     1      15.428   6.358   5.764  1.00  0.00     0.000 C 
BRANCH  11  12
ATOM     12  C   UNL     1      16.144   7.237   4.716  1.00  0.00     0.006 C 
BRANCH  12  13
ATOM     13  C   UNL     1      15.545   8.647   4.636  1.00  0.00     0.053 C 
BRANCH  13  14
ATOM     14  C   UNL     1      14.290   8.637   3.824  1.00  0.00     0.041 C 
ATOM     15  O   UNL     1      13.315   9.361   4.158  1.00  0.00    -0.550 OA
ATOM     16  O   UNL     1      14.174   7.786   2.731  1.00  0.00    -0.550 OA
ENDBRANCH  13  14
ENDBRANCH  12  13
ENDBRANCH  11  12
ENDBRANCH  10  11
ENDBRANCH   9  10
ENDBRANCH   8   9
ENDBRANCH   7   8
ENDBRANCH   6   7
ENDBRANCH   5   6
ENDBRANCH   4   5
ENDBRANCH   3   4
ENDBRANCH   2   3
ENDBRANCH   1   2
BRANCH   1  17
ATOM     17  C   UNL     1      11.471   7.144  11.696  1.00  0.00     0.000 C 
BRANCH  17  18
ATOM     18  C   UNL     1      11.446   5.691  11.201  1.00  0.00     0.000 C 
BRANCH  18  19
ATOM     19  C   UNL     1      12.086   5.518   9.811  1.00  0.00     0.000 C 
BRANCH  19  20
ATOM     20  C   UNL     1      11.692   6.589   8.777  1.00  0.00     0.000 C 
BRANCH  20  21
ATOM     21  C   UNL     1      12.093   6.213   7.342  1.00  0.00     0.000 C 
BRANCH  21  22
ATOM     22  C   UNL     1      11.325   7.057   6.314  1.00  0.00    -0.000 C 
BRANCH  22  23
ATOM     23  C   UNL     1      10.451   8.138   6.968  1.00  0.00    -0.000 C 
BRANCH  23  24
ATOM     24  C   UNL     1      10.228   9.355   6.056  1.00  0.00    -0.000 C 
BRANCH  24  25
ATOM     25  C   UNL     1       9.211  10.326   6.670  1.00  0.00    -0.000 C 
BRANCH  25  26
ATOM     26  C   UNL     1       9.164  10.241   8.205  1.00  0.00    -0.000 C 
BRANCH  26  27
ATOM     27  C   UNL     1       7.807  10.671   8.781  1.00  0.00    -0.000 C 
BRANCH  27  28
ATOM     28  C   UNL     1       6.829  11.044   7.657  1.00  0.00    -0.000 C 
BRANCH  28  29
ATOM     29  C   UNL     1       6.248  12.456   7.826  1.00  0.00    -0.003 C 
ATOM     30  C   UNL     1       7.299  13.552   7.652  1.00  0.00     0.004 C 
ENDBRANCH  28  29
ENDBRANCH  27  28
ENDBRANCH  26  27
ENDBRANCH  25  26
ENDBRANCH  24  25
ENDBRANCH  23  24
ENDBRANCH  22  23
ENDBRANCH  21  22
ENDBRANCH  20  21
ENDBRANCH  19  20
ENDBRANCH  18  19
ENDBRANCH  17  18
ENDBRANCH   1  17
TORSDOF 26
ENDMDL
MODEL 7
REMARK VINA RESULT:    -3.619      5.870      9.107
REMARK INTER + INTRA:         -12.863
REMARK INTER:                  -8.213
REMARK INTRA:                  -4.650
REMARK UNBOUND:                -3.743
REMARK SMILES CCCCCCCCCCCCCCCCCCCCCCCCCCCC(=O)[O-]
REMARK SMILES IDX 15 1 16 2 17 3 18 4 19 5 20 6 21 7 22 8 23 9 24 10 25 11
REMARK SMILES IDX 26 12 27 13 28 14 29 15 30 16 14 17 13 18 12 19 11 20 10 21
REMARK SMILES IDX 9 22 8 23 7 24 6 25 5 26 4 27 3 28 2 29 1 30
REMARK H PARENT
REMARK Flexibility Score: inf
ROOT
ATOM      1  C   UNL     1       6.154  13.055   7.836  1.00  0.00     0.000 C 
ENDROOT
BRANCH   1   2
ATOM      2  C   UNL     1       7.690  13.105   7.812  1.00  0.00     0.000 C 
BRANCH   2   3
ATOM      3  C   UNL     1       8.332  11.708   7.837  1.00  0.00     0.000 C 
BRANCH   3   4
ATOM      4  C   UNL     1       9.455  11.489   6.806  1.00  0.00     0.000 C 
BRANCH   4   5
ATOM      5  C   UNL     1       9.439  10.091   6.151  1.00  0.00     0.000 C 
BRANCH   5   6
ATOM      6  C   UNL     1       8.231   9.247   6.596  1.00  0.00     0.000 C 
BRANCH   6   7
ATOM      7  C   UNL     1       8.645   7.931   7.272  1.00  0.00     0.000 C 
BRANCH   7   8
ATOM      8  C   UNL     1       8.113   6.694   6.533  1.00  0.00     0.000 C 
BRANCH   8   9
ATOM      9  C   UNL     1       6.994   7.080   5.559  1.00  0.00     0.000 C 
BRANCH   9  10
ATOM     10  C   UNL     1       7.283   6.553   4.146  1.00  0.00     0.000 C 
BRANCH  10  11
ATOM     11  C   UNL     1       8.673   6.962   3.630  1.00  0.00     0.000 C 
BRANCH  11  12
ATOM     12  C   UNL     1       8.638   8.148   2.641  1.00  0.00     0.006 C 
BRANCH  12  13
ATOM     13  C   UNL     1       7.411   8.100   1.723  1.00  0.00     0.053 C 
BRANCH  13  14
ATOM     14  C   UNL     1       7.718   8.739   0.406  1.00  0.00     0.041 C 
ATOM     15  O   UNL     1       6.943   8.575  -0.573  1.00  0.00    -0.550 OA
ATOM     16  O   UNL     1       8.890   9.468   0.242  1.00  0.00    -0.550 OA
ENDBRANCH  13  14
ENDBRANCH  12  13
ENDBRANCH  11  12
ENDBRANCH  10  11
ENDBRANCH   9  10
ENDBRANCH   8   9
ENDBRANCH   7   8
ENDBRANCH   6   7
ENDBRANCH   5   6
ENDBRANCH   4   5
ENDBRANCH   3   4
ENDBRANCH   2   3
ENDBRANCH   1   2
BRANCH   1  17
ATOM     17  C   UNL     1       5.653  11.606   7.816  1.00  0.00     0.000 C 
BRANCH  17  18
ATOM     18  C   UNL     1       4.119  11.559   7.759  1.00  0.00     0.000 C 
BRANCH  18  19
ATOM     19  C   UNL     1       3.561  10.124   7.754  1.00  0.00     0.000 C 
BRANCH  19  20
ATOM     20  C   UNL     1       4.559   9.042   7.304  1.00  0.00     0.000 C 
BRANCH  20  21
ATOM     21  C   UNL     1       4.813   7.974   8.381  1.00  0.00     0.000 C 
BRANCH  21  22
ATOM     22  C   UNL     1       4.155   8.365   9.713  1.00  0.00    -0.000 C 
BRANCH  22  23
ATOM     23  C   UNL     1       5.182   8.686  10.809  1.00  0.00    -0.000 C 
BRANCH  23  24
ATOM     24  C   UNL     1       6.630   8.653  10.295  1.00  0.00    -0.000 C 
BRANCH  24  25
ATOM     25  C   UNL     1       7.400   9.907  10.735  1.00  0.00    -0.000 C 
BRANCH  25  26
ATOM     26  C   UNL     1       8.913   9.660  10.852  1.00  0.00    -0.000 C 
BRANCH  26  27
ATOM     27  C   UNL     1       9.540  10.378  12.057  1.00  0.00    -0.000 C 
BRANCH  27  28
ATOM     28  C   UNL     1      10.119  11.738  11.642  1.00  0.00    -0.000 C 
BRANCH  28  29
ATOM     29  C   UNL     1       9.379  12.917  12.291  1.00  0.00    -0.003 C 
ATOM     30  C   UNL     1       8.113  13.310  11.530  1.00  0.00     0.004 C 
ENDBRANCH  28  29
ENDBRANCH  27  28
ENDBRANCH  26  27
ENDBRANCH  25  26
ENDBRANCH  24  25
ENDBRANCH  23  24
ENDBRANCH  22  23
ENDBRANCH  21  22
ENDBRANCH  20  21
ENDBRANCH  19  20
ENDBRANCH  18  19
ENDBRANCH  17  18
ENDBRANCH   1  17
TORSDOF 26
ENDMDL
MODEL 8
REMARK VINA RESULT:    -3.593      1.791      2.684
REMARK INTER + INTRA:         -12.798
REMARK INTER:                  -9.058
REMARK INTRA:                  -3.741
REMARK UNBOUND:                -3.743
REMARK SMILES CCCCCCCCCCCCCCCCCCCCCCCCCCCC(=O)[O-]
REMARK SMILES IDX 15 1 16 2 17 3 18 4 19 5 20 6 21 7 22 8 23 9 24 10 25 11
REMARK SMILES IDX 26 12 27 13 28 14 29 15 30 16 14 17 13 18 12 19 11 20 10 21
REMARK SMILES IDX 9 22 8 23 7 24 6 25 5 26 4 27 3 28 2 29 1 30
REMARK H PARENT
REMARK Flexibility Score: inf
ROOT
ATOM      1  C   UNL     1      10.034   8.114  11.641  1.00  0.00     0.000 C 
ENDROOT
BRANCH   1   2
ATOM      2  C   UNL     1      10.163   7.210  10.405  1.00  0.00     0.000 C 
BRANCH   2   3
ATOM      3  C   UNL     1      11.532   6.517  10.314  1.00  0.00     0.000 C 
BRANCH   3   4
ATOM      4  C   UNL     1      12.086   6.352   8.886  1.00  0.00     0.000 C 
BRANCH   4   5
ATOM      5  C   UNL     1      11.077   6.723   7.777  1.00  0.00     0.000 C 
BRANCH   5   6
ATOM      6  C   UNL     1      11.606   6.397   6.369  1.00  0.00     0.000 C 
BRANCH   6   7
ATOM      7  C   UNL     1      11.780   7.649   5.497  1.00  0.00     0.000 C 
BRANCH   7   8
ATOM      8  C   UNL     1      10.859   8.802   5.926  1.00  0.00     0.000 C 
BRANCH   8   9
ATOM      9  C   UNL     1       9.549   8.776   5.131  1.00  0.00     0.000 C 
BRANCH   9  10
ATOM     10  C   UNL     1       8.340   8.605   6.063  1.00  0.00     0.000 C 
BRANCH  10  11
ATOM     11  C   UNL     1       8.078   9.847   6.933  1.00  0.00     0.000 C 
BRANCH  11  12
ATOM     12  C   UNL     1       8.537   9.681   8.397  1.00  0.00     0.006 C 
BRANCH  12  13
ATOM     13  C   UNL     1       9.131  10.975   8.968  1.00  0.00     0.053 C 
BRANCH  13  14
ATOM     14  C   UNL     1       8.229  11.550  10.012  1.00  0.00     0.041 C 
ATOM     15  O   UNL     1       7.276  10.866  10.471  1.00  0.00    -0.550 OA
ATOM     16  O   UNL     1       8.403  12.862  10.437  1.00  0.00    -0.550 OA
ENDBRANCH  13  14
ENDBRANCH  12  13
ENDBRANCH  11  12
ENDBRANCH  10  11
ENDBRANCH   9  10
ENDBRANCH   8   9
ENDBRANCH   7   8
ENDBRANCH   6   7
ENDBRANCH   5   6
ENDBRANCH   4   5
ENDBRANCH   3   4
ENDBRANCH   2   3
ENDBRANCH   1   2
BRANCH   1  17
ATOM     17  C   UNL     1      11.281   8.013  12.527  1.00  0.00     0.000 C 
BRANCH  17  18
ATOM     18  C   UNL     1      10.915   7.520  13.934  1.00  0.00     0.000 C 
BRANCH  18  19
ATOM     19  C   UNL     1      12.114   6.925  14.694  1.00  0.00     0.000 C 
BRANCH  19  20
ATOM     20  C   UNL     1      13.277   6.452  13.803  1.00  0.00     0.000 C 
BRANCH  20  21
ATOM     21  C   UNL     1      14.656   6.846  14.356  1.00  0.00     0.000 C 
BRANCH  21  22
ATOM     22  C   UNL     1      15.583   7.336  13.234  1.00  0.00    -0.000 C 
BRANCH  22  23
ATOM     23  C   UNL     1      14.817   7.992  12.075  1.00  0.00    -0.000 C 
BRANCH  23  24
ATOM     24  C   UNL     1      15.119   7.338  10.717  1.00  0.00    -0.000 C 
BRANCH  24  25
ATOM     25  C   UNL     1      15.637   5.904  10.899  1.00  0.00    -0.000 C 
BRANCH  25  26
ATOM     26  C   UNL     1      16.101   5.272   9.576  1.00  0.00    -0.000 C 
BRANCH  26  27
ATOM     27  C   UNL     1      15.641   6.068   8.345  1.00  0.00    -0.000 C 
BRANCH  27  28
ATOM     28  C   UNL     1      16.093   5.379   7.049  1.00  0.00    -0.000 C 
BRANCH  28  29
ATOM     29  C   UNL     1      16.317   6.374   5.900  1.00  0.00    -0.003 C 
ATOM     30  C   UNL     1      15.219   6.308   4.839  1.00  0.00     0.004 C 
ENDBRANCH  28  29
ENDBRANCH  27  28
ENDBRANCH  26  27
ENDBRANCH  25  26
ENDBRANCH  24  25
ENDBRANCH  23  24
ENDBRANCH  22  23
ENDBRANCH  21  22
ENDBRANCH  20  21
ENDBRANCH  19  20
ENDBRANCH  18  19
ENDBRANCH  17  18
ENDBRANCH   1  17
TORSDOF 26
ENDMDL
MODEL 9
REMARK VINA RESULT:    -3.577      3.263      9.202
REMARK INTER + INTRA:         -12.757
REMARK INTER:                  -8.390
REMARK INTRA:                  -4.367
REMARK UNBOUND:                -3.743
REMARK SMILES CCCCCCCCCCCCCCCCCCCCCCCCCCCC(=O)[O-]
REMARK SMILES IDX 15 1 16 2 17 3 18 4 19 5 20 6 21 7 22 8 23 9 24 10 25 11
REMARK SMILES IDX 26 12 27 13 28 14 29 15 30 16 14 17 13 18 12 19 11 20 10 21
REMARK SMILES IDX 9 22 8 23 7 24 6 25 5 26 4 27 3 28 2 29 1 30
REMARK H PARENT
REMARK Flexibility Score: inf
ROOT
ATOM      1  C   UNL     1      10.717   7.643   7.592  1.00  0.00     0.000 C 
ENDROOT
BRANCH   1   2
ATOM      2  C   UNL     1      11.404   6.423   8.225  1.00  0.00     0.000 C 
BRANCH   2   3
ATOM      3  C   UNL     1      10.528   5.726   9.279  1.00  0.00     0.000 C 
BRANCH   3   4
ATOM      4  C   UNL     1       9.407   6.598   9.875  1.00  0.00     0.000 C 
BRANCH   4   5
ATOM      5  C   UNL     1       9.532   6.825  11.397  1.00  0.00     0.000 C 
BRANCH   5   6
ATOM      6  C   UNL     1      10.400   8.050  11.740  1.00  0.00     0.000 C 
BRANCH   6   7
ATOM      7  C   UNL     1      11.624   7.687  12.593  1.00  0.00     0.000 C 
BRANCH   7   8
ATOM      8  C   UNL     1      12.728   6.993  11.781  1.00  0.00     0.000 C 
BRANCH   8   9
ATOM      9  C   UNL     1      14.096   7.620  12.074  1.00  0.00     0.000 C 
BRANCH   9  10
ATOM     10  C   UNL     1      15.075   7.376  10.916  1.00  0.00     0.000 C 
BRANCH  10  11
ATOM     11  C   UNL     1      15.686   5.964  10.939  1.00  0.00     0.000 C 
BRANCH  11  12
ATOM     12  C   UNL     1      16.027   5.418   9.536  1.00  0.00     0.006 C 
BRANCH  12  13
ATOM     13  C   UNL     1      14.802   5.384   8.614  1.00  0.00     0.053 C 
BRANCH  13  14
ATOM     14  C   UNL     1      15.178   5.799   7.228  1.00  0.00     0.041 C 
ATOM     15  O   UNL     1      16.350   6.187   6.979  1.00  0.00    -0.550 OA
ATOM     16  O   UNL     1      14.219   5.814   6.221  1.00  0.00    -0.550 OA
ENDBRANCH  13  14
ENDBRANCH  12  13
ENDBRANCH  11  12
ENDBRANCH  10  11
ENDBRANCH   9  10
ENDBRANCH   8   9
ENDBRANCH   7   8
ENDBRANCH   6   7
ENDBRANCH   5   6
ENDBRANCH   4   5
ENDBRANCH   3   4
ENDBRANCH   2   3
ENDBRANCH   1   2
BRANCH   1  17
ATOM     17  C   UNL     1      10.349   7.369   6.130  1.00  0.00     0.000 C 
BRANCH  17  18
ATOM     18  C   UNL     1       9.271   8.347   5.644  1.00  0.00     0.000 C 
BRANCH  18  19
ATOM     19  C   UNL     1       8.671   9.194   6.781  1.00  0.00     0.000 C 
BRANCH  19  20
ATOM     20  C   UNL     1       9.101  10.673   6.786  1.00  0.00     0.000 C 
BRANCH  20  21
ATOM     21  C   UNL     1       9.129  11.285   8.196  1.00  0.00     0.000 C 
BRANCH  21  22
ATOM     22  C   UNL     1       8.668  10.267   9.250  1.00  0.00    -0.000 C 
BRANCH  22  23
ATOM     23  C   UNL     1       8.002  10.931  10.465  1.00  0.00    -0.000 C 
BRANCH  23  24
ATOM     24  C   UNL     1       7.993  12.465  10.373  1.00  0.00    -0.000 C 
BRANCH  24  25
ATOM     25  C   UNL     1       6.557  13.007  10.319  1.00  0.00    -0.000 C 
BRANCH  25  26
ATOM     26  C   UNL     1       6.329  13.958   9.133  1.00  0.00    -0.000 C 
BRANCH  26  27
ATOM     27  C   UNL     1       6.130  13.212   7.804  1.00  0.00    -0.000 C 
BRANCH  27  28
ATOM     28  C   UNL     1       4.966  12.215   7.906  1.00  0.00    -0.000 C 
BRANCH  28  29
ATOM     29  C   UNL     1       5.397  10.773   7.599  1.00  0.00    -0.003 C 
ATOM     30  C   UNL     1       4.960   9.784   8.679  1.00  0.00     0.004 C 
ENDBRANCH  28  29
ENDBRANCH  27  28
ENDBRANCH  26  27
ENDBRANCH  25  26
ENDBRANCH  24  25
ENDBRANCH  23  24
ENDBRANCH  22  23
ENDBRANCH  21  22
ENDBRANCH  20  21
ENDBRANCH  19  20
ENDBRANCH  18  19
ENDBRANCH  17  18
ENDBRANCH   1  17
TORSDOF 26
ENDMDL
