MODEL 1
REMARK VINA RESULT:    -4.980      0.000      0.000
REMARK INTER + INTRA:          -8.896
REMARK INTER:                  -7.455
REMARK INTRA:                  -1.441
REMARK UNBOUND:                -1.441
REMARK SMILES COC(=O)C1=CO[C@@H](O[C@@H]2O[C@@H](CO)[C@H](O)[C@H](O)[C@@H]2O)[C@H]2C(CO)=CC[C@@H]12
REMARK SMILES IDX 9 1 8 2 5 3 6 4 27 5 7 6 21 7 26 8 22 9 25 10 3 11 4 12 2 13
REMARK SMILES IDX 1 14 23 15 24 16 10 18 19 19 11 20 17 21 12 22 15 23 20 24
REMARK SMILES IDX 18 26 13 28 14 29 16 31
REMARK H PARENT 24 17 20 25 18 27 14 30 16 32
REMARK Flexibility Score: inf
ROOT
ATOM      1  O   UNL     1      30.883  -7.216 -27.537  1.00  0.00    -0.310 OA
ENDROOT
BRANCH   1   2
ATOM      2  C   UNL     1      31.928  -8.165 -27.367  1.00  0.00     0.316 C 
ATOM      3  C   UNL     1      32.198  -9.353 -24.682  1.00  0.00     0.076 C 
ATOM      4  C   UNL     1      31.478 -10.021 -25.586  1.00  0.00     0.202 C 
ATOM      5  C   UNL     1      33.091  -8.168 -25.021  1.00  0.00     0.047 C 
ATOM      6  O   UNL     1      31.424  -9.502 -26.932  1.00  0.00    -0.471 OA
ATOM      7  C   UNL     1      33.104  -7.670 -26.490  1.00  0.00     0.094 C 
ATOM      8  C   UNL     1      32.813  -6.915 -24.158  1.00  0.00     0.037 C 
ATOM      9  C   UNL     1      33.135  -6.178 -26.357  1.00  0.00    -0.039 C 
ATOM     10  C   UNL     1      32.962  -5.779 -25.105  1.00  0.00    -0.024 C 
BRANCH   3  11
ATOM     11  C   UNL     1      32.231  -9.912 -23.310  1.00  0.00     0.337 C 
ATOM     12  O   UNL     1      33.325  -9.970 -22.676  1.00  0.00    -0.246 OA
BRANCH  11  13
ATOM     13  O   UNL     1      31.065 -10.416 -22.727  1.00  0.00    -0.466 OA
ATOM     14  C   UNL     1      30.660 -10.071 -21.408  1.00  0.00     0.282 C 
ENDBRANCH  11  13
ENDBRANCH   3  11
BRANCH   9  15
ATOM     15  C   UNL     1      33.321  -5.229 -27.508  1.00  0.00     0.187 C 
BRANCH  15  16
ATOM     16  O   UNL     1      32.076  -4.714 -27.891  1.00  0.00    -0.392 OA
ATOM     17  H   UNL     1      32.198  -3.748 -28.091  1.00  0.00     0.211 HD
ENDBRANCH  15  16
ENDBRANCH   9  15
ENDBRANCH   1   2
BRANCH   1  18
ATOM     18  C   UNL     1      29.843  -7.654 -28.391  1.00  0.00     0.286 C 
ATOM     19  C   UNL     1      28.692  -6.647 -28.265  1.00  0.00     0.202 C 
ATOM     20  O   UNL     1      30.354  -7.780 -29.714  1.00  0.00    -0.341 OA
ATOM     21  C   UNL     1      27.486  -7.141 -29.084  1.00  0.00     0.179 C 
ATOM     22  C   UNL     1      29.420  -7.533 -30.760  1.00  0.00     0.178 C 
ATOM     23  C   UNL     1      27.925  -7.826 -30.404  1.00  0.00     0.177 C 
BRANCH  19  24
ATOM     24  O   UNL     1      29.125  -5.383 -28.708  1.00  0.00    -0.385 OA
ATOM     25  H   UNL     1      28.826  -5.285 -29.651  1.00  0.00     0.211 HD
ENDBRANCH  19  24
BRANCH  21  26
ATOM     26  O   UNL     1      26.601  -6.076 -29.339  1.00  0.00    -0.387 OA
ATOM     27  H   UNL     1      25.719  -6.349 -28.962  1.00  0.00     0.211 HD
ENDBRANCH  21  26
BRANCH  22  28
ATOM     28  C   UNL     1      29.855  -8.352 -31.987  1.00  0.00     0.191 C 
BRANCH  28  29
ATOM     29  O   UNL     1      28.842  -9.245 -32.364  1.00  0.00    -0.394 OA
ATOM     30  H   UNL     1      28.462  -9.627 -31.535  1.00  0.00     0.210 HD
ENDBRANCH  28  29
ENDBRANCH  22  28
BRANCH  23  31
ATOM     31  O   UNL     1      27.102  -7.382 -31.464  1.00  0.00    -0.387 OA
ATOM     32  H   UNL     1      26.876  -8.170 -32.025  1.00  0.00     0.211 HD
ENDBRANCH  23  31
ENDBRANCH   1  18
TORSDOF 11
ENDMDL
MODEL 2
REMARK VINA RESULT:    -4.906      2.280      6.613
REMARK INTER + INTRA:          -8.785
REMARK INTER:                  -7.084
REMARK INTRA:                  -1.701
REMARK UNBOUND:                -1.441
REMARK SMILES COC(=O)C1=CO[C@@H](O[C@@H]2O[C@@H](CO)[C@H](O)[C@H](O)[C@@H]2O)[C@H]2C(CO)=CC[C@@H]12
REMARK SMILES IDX 9 1 8 2 5 3 6 4 27 5 7 6 21 7 26 8 22 9 25 10 3 11 4 12 2 13
REMARK SMILES IDX 1 14 23 15 24 16 10 18 19 19 11 20 17 21 12 22 15 23 20 24
REMARK SMILES IDX 18 26 13 28 14 29 16 31
REMARK H PARENT 24 17 20 25 18 27 14 30 16 32
REMARK Flexibility Score: inf
ROOT
ATOM      1  O   UNL     1      30.541  -6.499 -30.022  1.00  0.00    -0.310 OA
ENDROOT
BRANCH   1   2
ATOM      2  C   UNL     1      29.584  -5.473 -30.254  1.00  0.00     0.316 C 
ATOM      3  C   UNL     1      27.644  -4.975 -28.091  1.00  0.00     0.076 C 
ATOM      4  C   UNL     1      28.744  -4.222 -28.122  1.00  0.00     0.202 C 
ATOM      5  C   UNL     1      27.208  -5.882 -29.235  1.00  0.00     0.047 C 
ATOM      6  O   UNL     1      29.652  -4.385 -29.233  1.00  0.00    -0.471 OA
ATOM      7  C   UNL     1      28.139  -5.983 -30.471  1.00  0.00     0.094 C 
ATOM      8  C   UNL     1      26.931  -7.339 -28.799  1.00  0.00     0.037 C 
ATOM      9  C   UNL     1      28.090  -7.437 -30.832  1.00  0.00    -0.039 C 
ATOM     10  C   UNL     1      27.454  -8.162 -29.922  1.00  0.00    -0.024 C 
BRANCH   3  11
ATOM     11  C   UNL     1      26.734  -4.783 -26.937  1.00  0.00     0.337 C 
ATOM     12  O   UNL     1      27.203  -4.738 -25.763  1.00  0.00    -0.246 OA
BRANCH  11  13
ATOM     13  O   UNL     1      25.353  -4.692 -27.137  1.00  0.00    -0.466 OA
ATOM     14  C   UNL     1      24.419  -5.434 -26.363  1.00  0.00     0.282 C 
ENDBRANCH  11  13
ENDBRANCH   3  11
BRANCH   9  15
ATOM     15  C   UNL     1      28.705  -8.023 -32.073  1.00  0.00     0.187 C 
BRANCH  15  16
ATOM     16  O   UNL     1      29.844  -8.758 -31.722  1.00  0.00    -0.392 OA
ATOM     17  H   UNL     1      30.066  -9.353 -32.487  1.00  0.00     0.211 HD
ENDBRANCH  15  16
ENDBRANCH   9  15
ENDBRANCH   1   2
BRANCH   1  18
ATOM     18  C   UNL     1      30.926  -6.630 -28.666  1.00  0.00     0.286 C 
ATOM     19  C   UNL     1      30.668  -8.086 -28.255  1.00  0.00     0.202 C 
ATOM     20  O   UNL     1      32.285  -6.226 -28.531  1.00  0.00    -0.341 OA
ATOM     21  C   UNL     1      30.958  -8.254 -26.753  1.00  0.00     0.179 C 
ATOM     22  C   UNL     1      33.024  -6.887 -27.509  1.00  0.00     0.178 C 
ATOM     23  C   UNL     1      32.175  -7.406 -26.301  1.00  0.00     0.177 C 
BRANCH  19  24
ATOM     24  O   UNL     1      31.476  -8.941 -29.028  1.00  0.00    -0.385 OA
ATOM     25  H   UNL     1      31.252  -8.773 -29.982  1.00  0.00     0.211 HD
ENDBRANCH  19  24
BRANCH  21  26
ATOM     26  O   UNL     1      31.147  -9.614 -26.442  1.00  0.00    -0.387 OA
ATOM     27  H   UNL     1      31.183  -9.671 -25.448  1.00  0.00     0.211 HD
ENDBRANCH  21  26
BRANCH  22  28
ATOM     28  C   UNL     1      34.125  -5.930 -27.025  1.00  0.00     0.191 C 
BRANCH  28  29
ATOM     29  O   UNL     1      33.737  -5.298 -25.835  1.00  0.00    -0.394 OA
ATOM     30  H   UNL     1      34.502  -5.350 -25.211  1.00  0.00     0.210 HD
ENDBRANCH  28  29
ENDBRANCH  22  28
BRANCH  23  31
ATOM     31  O   UNL     1      33.002  -8.180 -25.454  1.00  0.00    -0.387 OA
ATOM     32  H   UNL     1      33.706  -8.599 -26.016  1.00  0.00     0.211 HD
ENDBRANCH  23  31
ENDBRANCH   1  18
TORSDOF 11
ENDMDL
MODEL 3
REMARK VINA RESULT:    -4.825      3.395      7.253
REMARK INTER + INTRA:          -8.663
REMARK INTER:                  -7.089
REMARK INTRA:                  -1.574
REMARK UNBOUND:                -1.441
REMARK SMILES COC(=O)C1=CO[C@@H](O[C@@H]2O[C@@H](CO)[C@H](O)[C@H](O)[C@@H]2O)[C@H]2C(CO)=CC[C@@H]12
REMARK SMILES IDX 9 1 8 2 5 3 6 4 27 5 7 6 21 7 26 8 22 9 25 10 3 11 4 12 2 13
REMARK SMILES IDX 1 14 23 15 24 16 10 18 19 19 11 20 17 21 12 22 15 23 20 24
REMARK SMILES IDX 18 26 13 28 14 29 16 31
REMARK H PARENT 24 17 20 25 18 27 14 30 16 32
REMARK Flexibility Score: inf
ROOT
ATOM      1  O   UNL     1      29.589  -5.874 -28.877  1.00  0.00    -0.310 OA
ENDROOT
BRANCH   1   2
ATOM      2  C   UNL     1      29.063  -4.911 -29.781  1.00  0.00     0.316 C 
ATOM      3  C   UNL     1      27.914  -2.476 -28.578  1.00  0.00     0.076 C 
ATOM      4  C   UNL     1      29.188  -2.431 -28.972  1.00  0.00     0.202 C 
ATOM      5  C   UNL     1      26.956  -3.601 -28.944  1.00  0.00     0.047 C 
ATOM      6  O   UNL     1      29.732  -3.581 -29.655  1.00  0.00    -0.471 OA
ATOM      7  C   UNL     1      27.519  -4.793 -29.761  1.00  0.00     0.094 C 
ATOM      8  C   UNL     1      26.243  -4.230 -27.724  1.00  0.00     0.037 C 
ATOM      9  C   UNL     1      26.858  -5.988 -29.143  1.00  0.00    -0.039 C 
ATOM     10  C   UNL     1      26.188  -5.681 -28.041  1.00  0.00    -0.024 C 
BRANCH   3  11
ATOM     11  C   UNL     1      27.388  -1.280 -27.880  1.00  0.00     0.337 C 
ATOM     12  O   UNL     1      27.658  -1.090 -26.658  1.00  0.00    -0.246 OA
BRANCH  11  13
ATOM     13  O   UNL     1      26.560  -0.378 -28.555  1.00  0.00    -0.466 OA
ATOM     14  C   UNL     1      27.059   0.799 -29.178  1.00  0.00     0.282 C 
ENDBRANCH  11  13
ENDBRANCH   3  11
BRANCH   9  15
ATOM     15  C   UNL     1      26.953  -7.385 -29.691  1.00  0.00     0.187 C 
BRANCH  15  16
ATOM     16  O   UNL     1      27.716  -8.174 -28.820  1.00  0.00    -0.392 OA
ATOM     17  H   UNL     1      27.351  -8.050 -27.904  1.00  0.00     0.211 HD
ENDBRANCH  15  16
ENDBRANCH   9  15
ENDBRANCH   1   2
BRANCH   1  18
ATOM     18  C   UNL     1      30.945  -6.206 -29.117  1.00  0.00     0.286 C 
ATOM     19  C   UNL     1      31.298  -7.383 -28.198  1.00  0.00     0.202 C 
ATOM     20  O   UNL     1      31.113  -6.488 -30.502  1.00  0.00    -0.341 OA
ATOM     21  C   UNL     1      32.796  -7.707 -28.331  1.00  0.00     0.179 C 
ATOM     22  C   UNL     1      32.120  -7.444 -30.817  1.00  0.00     0.178 C 
ATOM     23  C   UNL     1      33.296  -7.538 -29.790  1.00  0.00     0.177 C 
BRANCH  19  24
ATOM     24  O   UNL     1      30.504  -8.496 -28.535  1.00  0.00    -0.385 OA
ATOM     25  H   UNL     1      29.640  -8.396 -28.055  1.00  0.00     0.211 HD
ENDBRANCH  19  24
BRANCH  21  26
ATOM     26  O   UNL     1      33.059  -9.005 -27.855  1.00  0.00    -0.387 OA
ATOM     27  H   UNL     1      32.601  -9.078 -26.972  1.00  0.00     0.211 HD
ENDBRANCH  21  26
BRANCH  22  28
ATOM     28  C   UNL     1      32.654  -7.125 -32.223  1.00  0.00     0.191 C 
BRANCH  28  29
ATOM     29  O   UNL     1      33.309  -8.241 -32.764  1.00  0.00    -0.394 OA
ATOM     30  H   UNL     1      33.112  -8.258 -33.732  1.00  0.00     0.210 HD
ENDBRANCH  28  29
ENDBRANCH  22  28
BRANCH  23  31
ATOM     31  O   UNL     1      34.125  -8.631 -30.134  1.00  0.00    -0.387 OA
ATOM     32  H   UNL     1      34.565  -8.953 -29.304  1.00  0.00     0.211 HD
ENDBRANCH  23  31
ENDBRANCH   1  18
TORSDOF 11
ENDMDL
MODEL 4
REMARK VINA RESULT:    -4.686      4.320      7.039
REMARK INTER + INTRA:          -8.455
REMARK INTER:                  -6.935
REMARK INTRA:                  -1.519
REMARK UNBOUND:                -1.441
REMARK SMILES COC(=O)C1=CO[C@@H](O[C@@H]2O[C@@H](CO)[C@H](O)[C@H](O)[C@@H]2O)[C@H]2C(CO)=CC[C@@H]12
REMARK SMILES IDX 9 1 8 2 5 3 6 4 27 5 7 6 21 7 26 8 22 9 25 10 3 11 4 12 2 13
REMARK SMILES IDX 1 14 23 15 24 16 10 18 19 19 11 20 17 21 12 22 15 23 20 24
REMARK SMILES IDX 18 26 13 28 14 29 16 31
REMARK H PARENT 24 17 20 25 18 27 14 30 16 32
REMARK Flexibility Score: inf
ROOT
ATOM      1  O   UNL     1      25.993  -6.269 -27.826  1.00  0.00    -0.310 OA
ENDROOT
BRANCH   1   2
ATOM      2  C   UNL     1      26.048  -6.099 -26.415  1.00  0.00     0.316 C 
ATOM      3  C   UNL     1      23.694  -7.010 -24.891  1.00  0.00     0.076 C 
ATOM      4  C   UNL     1      24.715  -7.860 -25.022  1.00  0.00     0.202 C 
ATOM      5  C   UNL     1      23.775  -5.532 -25.248  1.00  0.00     0.047 C 
ATOM      6  O   UNL     1      25.913  -7.391 -25.677  1.00  0.00    -0.471 OA
ATOM      7  C   UNL     1      25.098  -5.008 -25.865  1.00  0.00     0.094 C 
ATOM      8  C   UNL     1      22.654  -5.064 -26.205  1.00  0.00     0.037 C 
ATOM      9  C   UNL     1      24.640  -4.055 -26.926  1.00  0.00    -0.039 C 
ATOM     10  C   UNL     1      23.328  -4.101 -27.115  1.00  0.00    -0.024 C 
BRANCH   3  11
ATOM     11  C   UNL     1      22.480  -7.523 -24.215  1.00  0.00     0.337 C 
ATOM     12  O   UNL     1      21.983  -6.891 -23.239  1.00  0.00    -0.246 OA
BRANCH  11  13
ATOM     13  O   UNL     1      21.902  -8.729 -24.627  1.00  0.00    -0.466 OA
ATOM     14  C   UNL     1      20.848  -9.355 -23.907  1.00  0.00     0.282 C 
ENDBRANCH  11  13
ENDBRANCH   3  11
BRANCH   9  15
ATOM     15  C   UNL     1      25.556  -3.156 -27.710  1.00  0.00     0.187 C 
BRANCH  15  16
ATOM     16  O   UNL     1      25.627  -3.607 -29.034  1.00  0.00    -0.392 OA
ATOM     17  H   UNL     1      25.107  -4.452 -29.092  1.00  0.00     0.211 HD
ENDBRANCH  15  16
ENDBRANCH   9  15
ENDBRANCH   1   2
BRANCH   1  18
ATOM     18  C   UNL     1      27.000  -7.118 -28.343  1.00  0.00     0.286 C 
ATOM     19  C   UNL     1      27.045  -6.905 -29.861  1.00  0.00     0.202 C 
ATOM     20  O   UNL     1      28.230  -6.829 -27.685  1.00  0.00    -0.341 OA
ATOM     21  C   UNL     1      28.043  -7.894 -30.489  1.00  0.00     0.179 C 
ATOM     22  C   UNL     1      29.405  -7.030 -28.464  1.00  0.00     0.178 C 
ATOM     23  C   UNL     1      29.285  -8.112 -29.587  1.00  0.00     0.177 C 
BRANCH  19  24
ATOM     24  O   UNL     1      27.406  -5.573 -30.138  1.00  0.00    -0.385 OA
ATOM     25  H   UNL     1      27.851  -5.569 -31.027  1.00  0.00     0.211 HD
ENDBRANCH  19  24
BRANCH  21  26
ATOM     26  O   UNL     1      28.422  -7.456 -31.772  1.00  0.00    -0.387 OA
ATOM     27  H   UNL     1      28.367  -8.253 -32.368  1.00  0.00     0.211 HD
ENDBRANCH  21  26
BRANCH  22  28
ATOM     28  C   UNL     1      30.557  -7.371 -27.504  1.00  0.00     0.191 C 
BRANCH  28  29
ATOM     29  O   UNL     1      30.753  -8.758 -27.447  1.00  0.00    -0.394 OA
ATOM     30  H   UNL     1      30.147  -9.114 -26.753  1.00  0.00     0.210 HD
ENDBRANCH  28  29
ENDBRANCH  22  28
BRANCH  23  31
ATOM     31  O   UNL     1      30.456  -8.088 -30.380  1.00  0.00    -0.387 OA
ATOM     32  H   UNL     1      30.544  -8.974 -30.819  1.00  0.00     0.211 HD
ENDBRANCH  23  31
ENDBRANCH   1  18
TORSDOF 11
ENDMDL
MODEL 5
REMARK VINA RESULT:    -4.609      2.465      6.798
REMARK INTER + INTRA:          -8.340
REMARK INTER:                  -6.673
REMARK INTRA:                  -1.667
REMARK UNBOUND:                -1.441
REMARK SMILES COC(=O)C1=CO[C@@H](O[C@@H]2O[C@@H](CO)[C@H](O)[C@H](O)[C@@H]2O)[C@H]2C(CO)=CC[C@@H]12
REMARK SMILES IDX 9 1 8 2 5 3 6 4 27 5 7 6 21 7 26 8 22 9 25 10 3 11 4 12 2 13
REMARK SMILES IDX 1 14 23 15 24 16 10 18 19 19 11 20 17 21 12 22 15 23 20 24
REMARK SMILES IDX 18 26 13 28 14 29 16 31
REMARK H PARENT 24 17 20 25 18 27 14 30 16 32
REMARK Flexibility Score: inf
ROOT
ATOM      1  O   UNL     1      31.052  -8.492 -29.790  1.00  0.00    -0.310 OA
ENDROOT
BRANCH   1   2
ATOM      2  C   UNL     1      31.896  -8.072 -30.856  1.00  0.00     0.316 C 
ATOM      3  C   UNL     1      32.950  -5.324 -30.689  1.00  0.00     0.076 C 
ATOM      4  C   UNL     1      33.714  -6.311 -30.216  1.00  0.00     0.202 C 
ATOM      5  C   UNL     1      31.703  -5.552 -31.533  1.00  0.00     0.047 C 
ATOM      6  O   UNL     1      33.255  -7.669 -30.385  1.00  0.00    -0.471 OA
ATOM      7  C   UNL     1      31.264  -7.016 -31.794  1.00  0.00     0.094 C 
ATOM      8  C   UNL     1      30.448  -4.828 -30.992  1.00  0.00     0.037 C 
ATOM      9  C   UNL     1      29.771  -6.962 -31.678  1.00  0.00    -0.039 C 
ATOM     10  C   UNL     1      29.340  -5.790 -31.232  1.00  0.00    -0.024 C 
BRANCH   3  11
ATOM     11  C   UNL     1      33.450  -3.942 -30.499  1.00  0.00     0.337 C 
ATOM     12  O   UNL     1      33.680  -3.507 -29.334  1.00  0.00    -0.246 OA
BRANCH  11  13
ATOM     13  O   UNL     1      33.630  -3.101 -31.602  1.00  0.00    -0.466 OA
ATOM     14  C   UNL     1      32.788  -1.984 -31.856  1.00  0.00     0.282 C 
ENDBRANCH  11  13
ENDBRANCH   3  11
BRANCH   9  15
ATOM     15  C   UNL     1      28.854  -8.108 -32.008  1.00  0.00     0.187 C 
BRANCH  15  16
ATOM     16  O   UNL     1      28.154  -8.488 -30.857  1.00  0.00    -0.392 OA
ATOM     17  H   UNL     1      27.610  -9.288 -31.086  1.00  0.00     0.211 HD
ENDBRANCH  15  16
ENDBRANCH   9  15
ENDBRANCH   1   2
BRANCH   1  18
ATOM     18  C   UNL     1      31.455  -8.020 -28.518  1.00  0.00     0.286 C 
ATOM     19  C   UNL     1      30.388  -7.027 -28.038  1.00  0.00     0.202 C 
ATOM     20  O   UNL     1      31.637  -9.134 -27.649  1.00  0.00    -0.341 OA
ATOM     21  C   UNL     1      30.838  -6.393 -26.710  1.00  0.00     0.179 C 
ATOM     22  C   UNL     1      31.366  -8.890 -26.273  1.00  0.00     0.178 C 
ATOM     23  C   UNL     1      31.574  -7.413 -25.803  1.00  0.00     0.177 C 
BRANCH  19  24
ATOM     24  O   UNL     1      29.158  -7.696 -27.892  1.00  0.00    -0.385 OA
ATOM     25  H   UNL     1      28.570  -7.393 -28.634  1.00  0.00     0.211 HD
ENDBRANCH  19  24
BRANCH  21  26
ATOM     26  O   UNL     1      29.735  -5.827 -26.042  1.00  0.00    -0.387 OA
ATOM     27  H   UNL     1      30.086  -5.460 -25.185  1.00  0.00     0.211 HD
ENDBRANCH  21  26
BRANCH  22  28
ATOM     28  C   UNL     1      32.232  -9.850 -25.442  1.00  0.00     0.191 C 
BRANCH  28  29
ATOM     29  O   UNL     1      31.504 -10.350 -24.353  1.00  0.00    -0.394 OA
ATOM     30  H   UNL     1      31.626 -11.331 -24.343  1.00  0.00     0.210 HD
ENDBRANCH  28  29
ENDBRANCH  22  28
BRANCH  23  31
ATOM     31  O   UNL     1      31.112  -7.281 -24.472  1.00  0.00    -0.387 OA
ATOM     32  H   UNL     1      30.722  -8.153 -24.198  1.00  0.00     0.211 HD
ENDBRANCH  23  31
ENDBRANCH   1  18
TORSDOF 11
ENDMDL
MODEL 6
REMARK VINA RESULT:    -4.511      4.672      7.623
REMARK INTER + INTRA:          -8.193
REMARK INTER:                  -6.920
REMARK INTRA:                  -1.273
REMARK UNBOUND:                -1.441
REMARK SMILES COC(=O)C1=CO[C@@H](O[C@@H]2O[C@@H](CO)[C@H](O)[C@H](O)[C@@H]2O)[C@H]2C(CO)=CC[C@@H]12
REMARK SMILES IDX 9 1 8 2 5 3 6 4 27 5 7 6 21 7 26 8 22 9 25 10 3 11 4 12 2 13
REMARK SMILES IDX 1 14 23 15 24 16 10 18 19 19 11 20 17 21 12 22 15 23 20 24
REMARK SMILES IDX 18 26 13 28 14 29 16 31
REMARK H PARENT 24 17 20 25 18 27 14 30 16 32
REMARK Flexibility Score: inf
ROOT
ATOM      1  O   UNL     1      30.281  -4.029 -30.615  1.00  0.00    -0.310 OA
ENDROOT
BRANCH   1   2
ATOM      2  C   UNL     1      31.293  -3.402 -29.837  1.00  0.00     0.316 C 
ATOM      3  C   UNL     1      31.547  -0.479 -30.126  1.00  0.00     0.076 C 
ATOM      4  C   UNL     1      30.794  -0.940 -29.125  1.00  0.00     0.202 C 
ATOM      5  C   UNL     1      32.479  -1.353 -30.954  1.00  0.00     0.047 C 
ATOM      6  O   UNL     1      30.745  -2.366 -28.910  1.00  0.00    -0.471 OA
ATOM      7  C   UNL     1      32.496  -2.875 -30.657  1.00  0.00     0.094 C 
ATOM      8  C   UNL     1      32.256  -1.226 -32.478  1.00  0.00     0.037 C 
ATOM      9  C   UNL     1      32.582  -3.499 -32.017  1.00  0.00    -0.039 C 
ATOM     10  C   UNL     1      32.437  -2.610 -32.991  1.00  0.00    -0.024 C 
BRANCH   3  11
ATOM     11  C   UNL     1      31.575   0.990 -30.319  1.00  0.00     0.337 C 
ATOM     12  O   UNL     1      32.598   1.654 -29.983  1.00  0.00    -0.246 OA
BRANCH  11  13
ATOM     13  O   UNL     1      30.457   1.653 -30.835  1.00  0.00    -0.466 OA
ATOM     14  C   UNL     1      30.499   3.012 -31.251  1.00  0.00     0.282 C 
ENDBRANCH  11  13
ENDBRANCH   3  11
BRANCH   9  15
ATOM     15  C   UNL     1      32.791  -4.967 -32.264  1.00  0.00     0.187 C 
BRANCH  15  16
ATOM     16  O   UNL     1      31.743  -5.458 -33.053  1.00  0.00    -0.392 OA
ATOM     17  H   UNL     1      31.695  -4.896 -33.872  1.00  0.00     0.211 HD
ENDBRANCH  15  16
ENDBRANCH   9  15
ENDBRANCH   1   2
BRANCH   1  18
ATOM     18  C   UNL     1      29.914  -5.315 -30.151  1.00  0.00     0.286 C 
ATOM     19  C   UNL     1      28.757  -5.132 -29.161  1.00  0.00     0.202 C 
ATOM     20  O   UNL     1      29.590  -6.134 -31.270  1.00  0.00    -0.341 OA
ATOM     21  C   UNL     1      28.397  -6.491 -28.534  1.00  0.00     0.179 C 
ATOM     22  C   UNL     1      28.603  -7.134 -31.034  1.00  0.00     0.178 C 
ATOM     23  C   UNL     1      28.513  -7.648 -29.560  1.00  0.00     0.177 C 
BRANCH  19  24
ATOM     24  O   UNL     1      27.652  -4.571 -29.829  1.00  0.00    -0.385 OA
ATOM     25  H   UNL     1      26.897  -4.555 -29.183  1.00  0.00     0.211 HD
ENDBRANCH  19  24
BRANCH  21  26
ATOM     26  O   UNL     1      27.108  -6.443 -27.971  1.00  0.00    -0.387 OA
ATOM     27  H   UNL     1      26.495  -6.147 -28.699  1.00  0.00     0.211 HD
ENDBRANCH  21  26
BRANCH  22  28
ATOM     28  C   UNL     1      28.871  -8.300 -31.999  1.00  0.00     0.191 C 
BRANCH  28  29
ATOM     29  O   UNL     1      30.101  -8.906 -31.707  1.00  0.00    -0.394 OA
ATOM     30  H   UNL     1      30.304  -9.531 -32.445  1.00  0.00     0.210 HD
ENDBRANCH  28  29
ENDBRANCH  22  28
BRANCH  23  31
ATOM     31  O   UNL     1      27.394  -8.504 -29.436  1.00  0.00    -0.387 OA
ATOM     32  H   UNL     1      27.696  -9.430 -29.631  1.00  0.00     0.211 HD
ENDBRANCH  23  31
ENDBRANCH   1  18
TORSDOF 11
ENDMDL
MODEL 7
REMARK VINA RESULT:    -4.474      2.671      4.121
REMARK INTER + INTRA:          -8.138
REMARK INTER:                  -7.180
REMARK INTRA:                  -0.958
REMARK UNBOUND:                -1.441
REMARK SMILES COC(=O)C1=CO[C@@H](O[C@@H]2O[C@@H](CO)[C@H](O)[C@H](O)[C@@H]2O)[C@H]2C(CO)=CC[C@@H]12
REMARK SMILES IDX 9 1 8 2 5 3 6 4 27 5 7 6 21 7 26 8 22 9 25 10 3 11 4 12 2 13
REMARK SMILES IDX 1 14 23 15 24 16 10 18 19 19 11 20 17 21 12 22 15 23 20 24
REMARK SMILES IDX 18 26 13 28 14 29 16 31
REMARK H PARENT 24 17 20 25 18 27 14 30 16 32
REMARK Flexibility Score: inf
ROOT
ATOM      1  O   UNL     1      31.303  -7.584 -31.100  1.00  0.00    -0.310 OA
ENDROOT
BRANCH   1   2
ATOM      2  C   UNL     1      32.258  -8.397 -30.428  1.00  0.00     0.316 C 
ATOM      3  C   UNL     1      33.136  -7.464 -27.773  1.00  0.00     0.076 C 
ATOM      4  C   UNL     1      32.135  -8.345 -27.821  1.00  0.00     0.202 C 
ATOM      5  C   UNL     1      34.013  -7.116 -28.968  1.00  0.00     0.047 C 
ATOM      6  O   UNL     1      31.764  -8.887 -29.106  1.00  0.00    -0.471 OA
ATOM      7  C   UNL     1      33.672  -7.774 -30.331  1.00  0.00     0.094 C 
ATOM      8  C   UNL     1      34.106  -5.598 -29.247  1.00  0.00     0.037 C 
ATOM      9  C   UNL     1      33.883  -6.667 -31.319  1.00  0.00    -0.039 C 
ATOM     10  C   UNL     1      34.099  -5.499 -30.731  1.00  0.00    -0.024 C 
BRANCH   3  11
ATOM     11  C   UNL     1      33.491  -6.928 -26.438  1.00  0.00     0.337 C 
ATOM     12  O   UNL     1      34.125  -7.648 -25.614  1.00  0.00    -0.246 OA
BRANCH  11  13
ATOM     13  O   UNL     1      33.090  -5.640 -26.069  1.00  0.00    -0.466 OA
ATOM     14  C   UNL     1      31.743  -5.198 -26.178  1.00  0.00     0.282 C 
ENDBRANCH  11  13
ENDBRANCH   3  11
BRANCH   9  15
ATOM     15  C   UNL     1      33.837  -6.845 -32.812  1.00  0.00     0.187 C 
BRANCH  15  16
ATOM     16  O   UNL     1      33.637  -8.198 -33.111  1.00  0.00    -0.392 OA
ATOM     17  H   UNL     1      33.426  -8.667 -32.260  1.00  0.00     0.211 HD
ENDBRANCH  15  16
ENDBRANCH   9  15
ENDBRANCH   1   2
BRANCH   1  18
ATOM     18  C   UNL     1      30.337  -7.005 -30.243  1.00  0.00     0.286 C 
ATOM     19  C   UNL     1      30.465  -5.482 -30.372  1.00  0.00     0.202 C 
ATOM     20  O   UNL     1      29.051  -7.506 -30.592  1.00  0.00    -0.341 OA
ATOM     21  C   UNL     1      29.516  -4.800 -29.370  1.00  0.00     0.179 C 
ATOM     22  C   UNL     1      27.963  -6.614 -30.371  1.00  0.00     0.178 C 
ATOM     23  C   UNL     1      28.178  -5.570 -29.226  1.00  0.00     0.177 C 
BRANCH  19  24
ATOM     24  O   UNL     1      30.170  -5.097 -31.694  1.00  0.00    -0.385 OA
ATOM     25  H   UNL     1      30.910  -4.507 -31.999  1.00  0.00     0.211 HD
ENDBRANCH  19  24
BRANCH  21  26
ATOM     26  O   UNL     1      29.291  -3.462 -29.743  1.00  0.00    -0.387 OA
ATOM     27  H   UNL     1      28.303  -3.351 -29.806  1.00  0.00     0.211 HD
ENDBRANCH  21  26
BRANCH  22  28
ATOM     28  C   UNL     1      26.705  -7.457 -30.106  1.00  0.00     0.191 C 
BRANCH  28  29
ATOM     29  O   UNL     1      27.027  -8.821 -30.073  1.00  0.00    -0.394 OA
ATOM     30  H   UNL     1      27.997  -8.891 -29.899  1.00  0.00     0.210 HD
ENDBRANCH  28  29
ENDBRANCH  22  28
BRANCH  23  31
ATOM     31  O   UNL     1      27.102  -4.652 -29.230  1.00  0.00    -0.387 OA
ATOM     32  H   UNL     1      26.343  -5.075 -29.712  1.00  0.00     0.211 HD
ENDBRANCH  23  31
ENDBRANCH   1  18
TORSDOF 11
ENDMDL
MODEL 8
REMARK VINA RESULT:    -4.393      3.650      6.450
REMARK INTER + INTRA:          -8.016
REMARK INTER:                  -7.310
REMARK INTRA:                  -0.707
REMARK UNBOUND:                -1.441
REMARK SMILES COC(=O)C1=CO[C@@H](O[C@@H]2O[C@@H](CO)[C@H](O)[C@H](O)[C@@H]2O)[C@H]2C(CO)=CC[C@@H]12
REMARK SMILES IDX 9 1 8 2 5 3 6 4 27 5 7 6 21 7 26 8 22 9 25 10 3 11 4 12 2 13
REMARK SMILES IDX 1 14 23 15 24 16 10 18 19 19 11 20 17 21 12 22 15 23 20 24
REMARK SMILES IDX 18 26 13 28 14 29 16 31
REMARK H PARENT 24 17 20 25 18 27 14 30 16 32
REMARK Flexibility Score: inf
ROOT
ATOM      1  O   UNL     1      32.394  -7.092 -30.381  1.00  0.00    -0.310 OA
ENDROOT
BRANCH   1   2
ATOM      2  C   UNL     1      33.259  -6.042 -29.968  1.00  0.00     0.316 C 
ATOM      3  C   UNL     1      32.073  -3.347 -29.816  1.00  0.00     0.076 C 
ATOM      4  C   UNL     1      32.105  -4.074 -28.697  1.00  0.00     0.202 C 
ATOM      5  C   UNL     1      32.834  -3.712 -31.083  1.00  0.00     0.047 C 
ATOM      6  O   UNL     1      32.775  -5.352 -28.734  1.00  0.00    -0.471 OA
ATOM      7  C   UNL     1      33.632  -5.042 -31.089  1.00  0.00     0.094 C 
ATOM      8  C   UNL     1      31.947  -3.751 -32.349  1.00  0.00     0.037 C 
ATOM      9  C   UNL     1      33.386  -5.595 -32.460  1.00  0.00    -0.039 C 
ATOM     10  C   UNL     1      32.468  -4.907 -33.125  1.00  0.00    -0.024 C 
BRANCH   3  11
ATOM     11  C   UNL     1      31.377  -2.041 -29.743  1.00  0.00     0.337 C 
ATOM     12  O   UNL     1      32.025  -0.968 -29.912  1.00  0.00    -0.246 OA
BRANCH  11  13
ATOM     13  O   UNL     1      30.011  -1.987 -29.448  1.00  0.00    -0.466 OA
ATOM     14  C   UNL     1      29.367  -0.789 -29.032  1.00  0.00     0.282 C 
ENDBRANCH  11  13
ENDBRANCH   3  11
BRANCH   9  15
ATOM     15  C   UNL     1      34.080  -6.805 -33.022  1.00  0.00     0.187 C 
BRANCH  15  16
ATOM     16  O   UNL     1      33.164  -7.860 -33.122  1.00  0.00    -0.392 OA
ATOM     17  H   UNL     1      32.316  -7.489 -33.485  1.00  0.00     0.211 HD
ENDBRANCH  15  16
ENDBRANCH   9  15
ENDBRANCH   1   2
BRANCH   1  18
ATOM     18  C   UNL     1      31.022  -6.743 -30.372  1.00  0.00     0.286 C 
ATOM     19  C   UNL     1      30.345  -7.513 -31.513  1.00  0.00     0.202 C 
ATOM     20  O   UNL     1      30.482  -7.029 -29.086  1.00  0.00    -0.341 OA
ATOM     21  C   UNL     1      28.873  -7.079 -31.623  1.00  0.00     0.179 C 
ATOM     22  C   UNL     1      29.107  -7.399 -29.064  1.00  0.00     0.178 C 
ATOM     23  C   UNL     1      28.241  -6.819 -30.231  1.00  0.00     0.177 C 
BRANCH  19  24
ATOM     24  O   UNL     1      30.451  -8.897 -31.272  1.00  0.00    -0.385 OA
ATOM     25  H   UNL     1      31.392  -9.077 -31.011  1.00  0.00     0.211 HD
ENDBRANCH  19  24
BRANCH  21  26
ATOM     26  O   UNL     1      28.134  -8.038 -32.341  1.00  0.00    -0.387 OA
ATOM     27  H   UNL     1      28.347  -8.921 -31.931  1.00  0.00     0.211 HD
ENDBRANCH  21  26
BRANCH  22  28
ATOM     28  C   UNL     1      28.526  -6.987 -27.702  1.00  0.00     0.191 C 
BRANCH  28  29
ATOM     29  O   UNL     1      29.386  -7.374 -26.665  1.00  0.00    -0.394 OA
ATOM     30  H   UNL     1      29.203  -8.325 -26.470  1.00  0.00     0.210 HD
ENDBRANCH  28  29
ENDBRANCH  22  28
BRANCH  23  31
ATOM     31  O   UNL     1      26.951  -7.397 -30.182  1.00  0.00    -0.387 OA
ATOM     32  H   UNL     1      27.062  -8.380 -30.094  1.00  0.00     0.211 HD
ENDBRANCH  23  31
ENDBRANCH   1  18
TORSDOF 11
ENDMDL
MODEL 9
REMARK VINA RESULT:    -4.388      4.520      7.114
REMARK INTER + INTRA:          -8.009
REMARK INTER:                  -6.755
REMARK INTRA:                  -1.255
REMARK UNBOUND:                -1.441
REMARK SMILES COC(=O)C1=CO[C@@H](O[C@@H]2O[C@@H](CO)[C@H](O)[C@H](O)[C@@H]2O)[C@H]2C(CO)=CC[C@@H]12
REMARK SMILES IDX 9 1 8 2 5 3 6 4 27 5 7 6 21 7 26 8 22 9 25 10 3 11 4 12 2 13
REMARK SMILES IDX 1 14 23 15 24 16 10 18 19 19 11 20 17 21 12 22 15 23 20 24
REMARK SMILES IDX 18 26 13 28 14 29 16 31
REMARK H PARENT 24 17 20 25 18 27 14 30 16 32
REMARK Flexibility Score: inf
ROOT
ATOM      1  O   UNL     1      30.556  -4.782 -30.865  1.00  0.00    -0.310 OA
ENDROOT
BRANCH   1   2
ATOM      2  C   UNL     1      30.838  -4.181 -29.607  1.00  0.00     0.316 C 
ATOM      3  C   UNL     1      31.348  -1.277 -29.627  1.00  0.00     0.076 C 
ATOM      4  C   UNL     1      30.104  -1.687 -29.369  1.00  0.00     0.202 C 
ATOM      5  C   UNL     1      32.554  -2.205 -29.651  1.00  0.00     0.047 C 
ATOM      6  O   UNL     1      29.863  -3.105 -29.255  1.00  0.00    -0.471 OA
ATOM      7  C   UNL     1      32.305  -3.721 -29.433  1.00  0.00     0.094 C 
ATOM      8  C   UNL     1      33.390  -2.101 -30.948  1.00  0.00     0.037 C 
ATOM      9  C   UNL     1      33.234  -4.375 -30.412  1.00  0.00    -0.039 C 
ATOM     10  C   UNL     1      33.801  -3.501 -31.232  1.00  0.00    -0.024 C 
BRANCH   3  11
ATOM     11  C   UNL     1      31.560   0.185 -29.738  1.00  0.00     0.337 C 
ATOM     12  O   UNL     1      32.144   0.813 -28.808  1.00  0.00    -0.246 OA
BRANCH  11  13
ATOM     13  O   UNL     1      31.080   0.883 -30.851  1.00  0.00    -0.466 OA
ATOM     14  C   UNL     1      30.369   2.109 -30.734  1.00  0.00     0.282 C 
ENDBRANCH  11  13
ENDBRANCH   3  11
BRANCH   9  15
ATOM     15  C   UNL     1      33.488  -5.856 -30.478  1.00  0.00     0.187 C 
BRANCH  15  16
ATOM     16  O   UNL     1      33.069  -6.342 -31.722  1.00  0.00    -0.392 OA
ATOM     17  H   UNL     1      32.096  -6.536 -31.658  1.00  0.00     0.211 HD
ENDBRANCH  15  16
ENDBRANCH   9  15
ENDBRANCH   1   2
BRANCH   1  18
ATOM     18  C   UNL     1      29.340  -5.506 -30.896  1.00  0.00     0.286 C 
ATOM     19  C   UNL     1      29.612  -6.828 -31.626  1.00  0.00     0.202 C 
ATOM     20  O   UNL     1      28.867  -5.672 -29.563  1.00  0.00    -0.341 OA
ATOM     21  C   UNL     1      28.292  -7.602 -31.794  1.00  0.00     0.179 C 
ATOM     22  C   UNL     1      28.124  -6.862 -29.318  1.00  0.00     0.178 C 
ATOM     23  C   UNL     1      27.369  -7.445 -30.558  1.00  0.00     0.177 C 
BRANCH  19  24
ATOM     24  O   UNL     1      30.554  -7.580 -30.899  1.00  0.00    -0.385 OA
ATOM     25  H   UNL     1      31.456  -7.286 -31.198  1.00  0.00     0.211 HD
ENDBRANCH  19  24
BRANCH  21  26
ATOM     26  O   UNL     1      28.554  -8.960 -32.058  1.00  0.00    -0.387 OA
ATOM     27  H   UNL     1      27.707  -9.344 -32.417  1.00  0.00     0.211 HD
ENDBRANCH  21  26
BRANCH  22  28
ATOM     28  C   UNL     1      27.142  -6.580 -28.169  1.00  0.00     0.191 C 
BRANCH  28  29
ATOM     29  O   UNL     1      26.710  -7.780 -27.587  1.00  0.00    -0.394 OA
ATOM     30  H   UNL     1      27.516  -8.287 -27.325  1.00  0.00     0.210 HD
ENDBRANCH  28  29
ENDBRANCH  22  28
BRANCH  23  31
ATOM     31  O   UNL     1      26.819  -8.702 -30.215  1.00  0.00    -0.387 OA
ATOM     32  H   UNL     1      25.840  -8.582 -30.094  1.00  0.00     0.211 HD
ENDBRANCH  23  31
ENDBRANCH   1  18
TORSDOF 11
ENDMDL
