MODEL 1
REMARK VINA RESULT:    -5.475      0.000      0.000
REMARK INTER + INTRA:         -13.161
REMARK INTER:                 -10.596
REMARK INTRA:                  -2.565
REMARK UNBOUND:                -2.565
REMARK SMILES CCCCCCCCCCCCCCCCCC(=O)[O-]
REMARK SMILES IDX 10 1 11 2 12 3 13 4 14 5 15 6 16 7 17 8 18 9 19 10 20 11
REMARK SMILES IDX 9 12 8 13 7 14 6 15 5 16 4 17 3 18 2 19 1 20
REMARK H PARENT
REMARK Flexibility Score: inf
ROOT
ATOM      1  C   UNL     1       4.341   4.588   7.261  1.00  0.00     0.000 C 
ENDROOT
BRANCH   1   2
ATOM      2  C   UNL     1       3.552   5.789   7.824  1.00  0.00     0.000 C 
BRANCH   2   3
ATOM      3  C   UNL     1       4.388   6.707   8.738  1.00  0.00     0.000 C 
BRANCH   3   4
ATOM      4  C   UNL     1       4.195   8.215   8.499  1.00  0.00     0.000 C 
BRANCH   4   5
ATOM      5  C   UNL     1       2.718   8.640   8.539  1.00  0.00     0.000 C 
BRANCH   5   6
ATOM      6  C   UNL     1       2.342   9.372   9.839  1.00  0.00     0.000 C 
BRANCH   6   7
ATOM      7  C   UNL     1       1.107   8.812  10.568  1.00  0.00     0.006 C 
BRANCH   7   8
ATOM      8  C   UNL     1       0.544   7.548   9.906  1.00  0.00     0.053 C 
BRANCH   8   9
ATOM      9  C   UNL     1       0.715   6.361  10.802  1.00  0.00     0.041 C 
ATOM     10  O   UNL     1       0.803   5.204  10.310  1.00  0.00    -0.550 OA
ATOM     11  O   UNL     1       0.765   6.527  12.180  1.00  0.00    -0.550 OA
ENDBRANCH   8   9
ENDBRANCH   7   8
ENDBRANCH   6   7
ENDBRANCH   5   6
ENDBRANCH   4   5
ENDBRANCH   3   4
ENDBRANCH   2   3
ENDBRANCH   1   2
BRANCH   1  12
ATOM     12  C   UNL     1       5.543   4.217   8.148  1.00  0.00     0.000 C 
BRANCH  12  13
ATOM     13  C   UNL     1       6.889   4.402   7.430  1.00  0.00    -0.000 C 
BRANCH  13  14
ATOM     14  C   UNL     1       7.991   4.924   8.367  1.00  0.00    -0.000 C 
BRANCH  14  15
ATOM     15  C   UNL     1       8.712   6.157   7.798  1.00  0.00    -0.000 C 
BRANCH  15  16
ATOM     16  C   UNL     1       7.749   7.319   7.510  1.00  0.00    -0.000 C 
BRANCH  16  17
ATOM     17  C   UNL     1       7.869   7.783   6.050  1.00  0.00    -0.000 C 
BRANCH  17  18
ATOM     18  C   UNL     1       6.589   8.494   5.557  1.00  0.00    -0.000 C 
BRANCH  18  19
ATOM     19  C   UNL     1       5.510   7.531   5.032  1.00  0.00    -0.003 C 
ATOM     20  C   UNL     1       6.089   6.288   4.362  1.00  0.00     0.004 C 
ENDBRANCH  18  19
ENDBRANCH  17  18
ENDBRANCH  16  17
ENDBRANCH  15  16
ENDBRANCH  14  15
ENDBRANCH  13  14
ENDBRANCH  12  13
ENDBRANCH   1  12
TORSDOF 16
ENDMDL
MODEL 2
REMARK VINA RESULT:    -5.464      1.420      2.192
REMARK INTER + INTRA:         -13.139
REMARK INTER:                 -10.424
REMARK INTRA:                  -2.715
REMARK UNBOUND:                -2.565
REMARK SMILES CCCCCCCCCCCCCCCCCC(=O)[O-]
REMARK SMILES IDX 10 1 11 2 12 3 13 4 14 5 15 6 16 7 17 8 18 9 19 10 20 11
REMARK SMILES IDX 9 12 8 13 7 14 6 15 5 16 4 17 3 18 2 19 1 20
REMARK H PARENT
REMARK Flexibility Score: inf
ROOT
ATOM      1  C   UNL     1       4.666   6.023   8.633  1.00  0.00     0.000 C 
ENDROOT
BRANCH   1   2
ATOM      2  C   UNL     1       3.726   7.061   7.983  1.00  0.00     0.000 C 
BRANCH   2   3
ATOM      3  C   UNL     1       3.139   6.607   6.632  1.00  0.00     0.000 C 
BRANCH   3   4
ATOM      4  C   UNL     1       1.650   6.224   6.664  1.00  0.00     0.000 C 
BRANCH   4   5
ATOM      5  C   UNL     1       1.037   6.333   8.071  1.00  0.00     0.000 C 
BRANCH   5   6
ATOM      6  C   UNL     1       0.962   4.977   8.795  1.00  0.00     0.000 C 
BRANCH   6   7
ATOM      7  C   UNL     1       1.427   4.996  10.262  1.00  0.00     0.006 C 
BRANCH   7   8
ATOM      8  C   UNL     1       1.229   6.361  10.935  1.00  0.00     0.053 C 
BRANCH   8   9
ATOM      9  C   UNL     1       0.161   6.284  11.982  1.00  0.00     0.041 C 
ATOM     10  O   UNL     1       0.347   6.804  13.114  1.00  0.00    -0.550 OA
ATOM     11  O   UNL     1      -1.034   5.629  11.714  1.00  0.00    -0.550 OA
ENDBRANCH   8   9
ENDBRANCH   7   8
ENDBRANCH   6   7
ENDBRANCH   5   6
ENDBRANCH   4   5
ENDBRANCH   3   4
ENDBRANCH   2   3
ENDBRANCH   1   2
BRANCH   1  12
ATOM     12  C   UNL     1       4.721   4.709   7.831  1.00  0.00     0.000 C 
BRANCH  12  13
ATOM     13  C   UNL     1       6.138   4.372   7.343  1.00  0.00    -0.000 C 
BRANCH  13  14
ATOM     14  C   UNL     1       7.202   4.571   8.435  1.00  0.00    -0.000 C 
BRANCH  14  15
ATOM     15  C   UNL     1       8.447   5.310   7.917  1.00  0.00    -0.000 C 
BRANCH  15  16
ATOM     16  C   UNL     1       8.259   6.835   7.900  1.00  0.00    -0.000 C 
BRANCH  16  17
ATOM     17  C   UNL     1       8.063   7.348   6.465  1.00  0.00    -0.000 C 
BRANCH  17  18
ATOM     18  C   UNL     1       6.791   8.213   6.325  1.00  0.00    -0.000 C 
BRANCH  18  19
ATOM     19  C   UNL     1       6.062   8.029   4.982  1.00  0.00    -0.003 C 
ATOM     20  C   UNL     1       6.148   6.605   4.443  1.00  0.00     0.004 C 
ENDBRANCH  18  19
ENDBRANCH  17  18
ENDBRANCH  16  17
ENDBRANCH  15  16
ENDBRANCH  14  15
ENDBRANCH  13  14
ENDBRANCH  12  13
ENDBRANCH   1  12
TORSDOF 16
ENDMDL
MODEL 3
REMARK VINA RESULT:    -5.409      1.689      3.365
REMARK INTER + INTRA:         -13.034
REMARK INTER:                 -10.434
REMARK INTRA:                  -2.600
REMARK UNBOUND:                -2.565
REMARK SMILES CCCCCCCCCCCCCCCCCC(=O)[O-]
REMARK SMILES IDX 10 1 11 2 12 3 13 4 14 5 15 6 16 7 17 8 18 9 19 10 20 11
REMARK SMILES IDX 9 12 8 13 7 14 6 15 5 16 4 17 3 18 2 19 1 20
REMARK H PARENT
REMARK Flexibility Score: inf
ROOT
ATOM      1  C   UNL     1       2.342   7.080   8.187  1.00  0.00     0.000 C 
ENDROOT
BRANCH   1   2
ATOM      2  C   UNL     1       1.812   8.452   8.653  1.00  0.00     0.000 C 
BRANCH   2   3
ATOM      3  C   UNL     1       2.351   8.893  10.027  1.00  0.00     0.000 C 
BRANCH   3   4
ATOM      4  C   UNL     1       1.279   9.119  11.107  1.00  0.00     0.000 C 
BRANCH   4   5
ATOM      5  C   UNL     1       1.672   8.524  12.470  1.00  0.00     0.000 C 
BRANCH   5   6
ATOM      6  C   UNL     1       0.801   7.320  12.870  1.00  0.00     0.000 C 
BRANCH   6   7
ATOM      7  C   UNL     1       0.678   6.221  11.799  1.00  0.00     0.006 C 
BRANCH   7   8
ATOM      8  C   UNL     1      -0.772   5.963  11.371  1.00  0.00     0.053 C 
BRANCH   8   9
ATOM      9  C   UNL     1      -0.882   5.909   9.879  1.00  0.00     0.041 C 
ATOM     10  O   UNL     1      -1.413   6.862   9.248  1.00  0.00    -0.550 OA
ATOM     11  O   UNL     1      -0.411   4.803   9.184  1.00  0.00    -0.550 OA
ENDBRANCH   8   9
ENDBRANCH   7   8
ENDBRANCH   6   7
ENDBRANCH   5   6
ENDBRANCH   4   5
ENDBRANCH   3   4
ENDBRANCH   2   3
ENDBRANCH   1   2
BRANCH   1  12
ATOM     12  C   UNL     1       3.135   6.360   9.294  1.00  0.00     0.000 C 
BRANCH  12  13
ATOM     13  C   UNL     1       3.215   4.841   9.072  1.00  0.00    -0.000 C 
BRANCH  13  14
ATOM     14  C   UNL     1       3.913   4.473   7.752  1.00  0.00    -0.000 C 
BRANCH  14  15
ATOM     15  C   UNL     1       5.343   3.951   7.967  1.00  0.00    -0.000 C 
BRANCH  15  16
ATOM     16  C   UNL     1       6.392   4.791   7.223  1.00  0.00    -0.000 C 
BRANCH  16  17
ATOM     17  C   UNL     1       5.741   5.621   6.106  1.00  0.00    -0.000 C 
BRANCH  17  18
ATOM     18  C   UNL     1       6.224   7.088   6.113  1.00  0.00    -0.000 C 
BRANCH  18  19
ATOM     19  C   UNL     1       5.990   7.810   7.452  1.00  0.00    -0.003 C 
ATOM     20  C   UNL     1       5.268   9.145   7.295  1.00  0.00     0.004 C 
ENDBRANCH  18  19
ENDBRANCH  17  18
ENDBRANCH  16  17
ENDBRANCH  15  16
ENDBRANCH  14  15
ENDBRANCH  13  14
ENDBRANCH  12  13
ENDBRANCH   1  12
TORSDOF 16
ENDMDL
MODEL 4
REMARK VINA RESULT:    -5.345      1.078      2.542
REMARK INTER + INTRA:         -12.910
REMARK INTER:                 -10.717
REMARK INTRA:                  -2.192
REMARK UNBOUND:                -2.565
REMARK SMILES CCCCCCCCCCCCCCCCCC(=O)[O-]
REMARK SMILES IDX 10 1 11 2 12 3 13 4 14 5 15 6 16 7 17 8 18 9 19 10 20 11
REMARK SMILES IDX 9 12 8 13 7 14 6 15 5 16 4 17 3 18 2 19 1 20
REMARK H PARENT
REMARK Flexibility Score: inf
ROOT
ATOM      1  C   UNL     1       4.355   6.910   8.843  1.00  0.00     0.000 C 
ENDROOT
BRANCH   1   2
ATOM      2  C   UNL     1       4.254   8.375   8.367  1.00  0.00     0.000 C 
BRANCH   2   3
ATOM      3  C   UNL     1       2.815   8.927   8.356  1.00  0.00     0.000 C 
BRANCH   3   4
ATOM      4  C   UNL     1       2.350   9.562   9.678  1.00  0.00     0.000 C 
BRANCH   4   5
ATOM      5  C   UNL     1       1.133   8.846  10.287  1.00  0.00     0.000 C 
BRANCH   5   6
ATOM      6  C   UNL     1       1.491   8.009  11.527  1.00  0.00     0.000 C 
BRANCH   6   7
ATOM      7  C   UNL     1       1.217   6.500  11.396  1.00  0.00     0.006 C 
BRANCH   7   8
ATOM      8  C   UNL     1      -0.083   6.066  12.084  1.00  0.00     0.053 C 
BRANCH   8   9
ATOM      9  C   UNL     1      -1.019   5.438  11.099  1.00  0.00     0.041 C 
ATOM     10  O   UNL     1      -1.186   5.958   9.964  1.00  0.00    -0.550 OA
ATOM     11  O   UNL     1      -1.718   4.285  11.436  1.00  0.00    -0.550 OA
ENDBRANCH   8   9
ENDBRANCH   7   8
ENDBRANCH   6   7
ENDBRANCH   5   6
ENDBRANCH   4   5
ENDBRANCH   3   4
ENDBRANCH   2   3
ENDBRANCH   1   2
BRANCH   1  12
ATOM     12  C   UNL     1       3.513   5.959   7.972  1.00  0.00     0.000 C 
BRANCH  12  13
ATOM     13  C   UNL     1       4.371   4.936   7.212  1.00  0.00    -0.000 C 
BRANCH  13  14
ATOM     14  C   UNL     1       5.434   4.276   8.107  1.00  0.00    -0.000 C 
BRANCH  14  15
ATOM     15  C   UNL     1       6.846   4.365   7.505  1.00  0.00    -0.000 C 
BRANCH  15  16
ATOM     16  C   UNL     1       7.864   4.972   8.483  1.00  0.00    -0.000 C 
BRANCH  16  17
ATOM     17  C   UNL     1       8.636   6.126   7.826  1.00  0.00    -0.000 C 
BRANCH  17  18
ATOM     18  C   UNL     1       7.707   7.288   7.414  1.00  0.00    -0.000 C 
BRANCH  18  19
ATOM     19  C   UNL     1       7.751   7.612   5.910  1.00  0.00    -0.003 C 
ATOM     20  C   UNL     1       6.386   7.517   5.236  1.00  0.00     0.004 C 
ENDBRANCH  18  19
ENDBRANCH  17  18
ENDBRANCH  16  17
ENDBRANCH  15  16
ENDBRANCH  14  15
ENDBRANCH  13  14
ENDBRANCH  12  13
ENDBRANCH   1  12
TORSDOF 16
ENDMDL
MODEL 5
REMARK VINA RESULT:    -5.340      3.120      6.981
REMARK INTER + INTRA:         -12.900
REMARK INTER:                 -10.295
REMARK INTRA:                  -2.605
REMARK UNBOUND:                -2.565
REMARK SMILES CCCCCCCCCCCCCCCCCC(=O)[O-]
REMARK SMILES IDX 10 1 11 2 12 3 13 4 14 5 15 6 16 7 17 8 18 9 19 10 20 11
REMARK SMILES IDX 9 12 8 13 7 14 6 15 5 16 4 17 3 18 2 19 1 20
REMARK H PARENT
REMARK Flexibility Score: inf
ROOT
ATOM      1  C   UNL     1       3.028   7.259   6.468  1.00  0.00     0.000 C 
ENDROOT
BRANCH   1   2
ATOM      2  C   UNL     1       2.009   6.134   6.745  1.00  0.00     0.000 C 
BRANCH   2   3
ATOM      3  C   UNL     1       2.567   4.991   7.616  1.00  0.00     0.000 C 
BRANCH   3   4
ATOM      4  C   UNL     1       3.938   5.269   8.256  1.00  0.00     0.000 C 
BRANCH   4   5
ATOM      5  C   UNL     1       5.059   4.398   7.664  1.00  0.00     0.000 C 
BRANCH   5   6
ATOM      6  C   UNL     1       5.943   5.162   6.663  1.00  0.00     0.000 C 
BRANCH   6   7
ATOM      7  C   UNL     1       7.024   6.055   7.298  1.00  0.00     0.006 C 
BRANCH   7   8
ATOM      8  C   UNL     1       6.704   7.551   7.187  1.00  0.00     0.053 C 
BRANCH   8   9
ATOM      9  C   UNL     1       7.002   8.056   5.810  1.00  0.00     0.041 C 
ATOM     10  O   UNL     1       6.065   8.426   5.054  1.00  0.00    -0.550 OA
ATOM     11  O   UNL     1       8.314   8.107   5.353  1.00  0.00    -0.550 OA
ENDBRANCH   8   9
ENDBRANCH   7   8
ENDBRANCH   6   7
ENDBRANCH   5   6
ENDBRANCH   4   5
ENDBRANCH   3   4
ENDBRANCH   2   3
ENDBRANCH   1   2
BRANCH   1  12
ATOM     12  C   UNL     1       2.581   8.606   7.066  1.00  0.00     0.000 C 
BRANCH  12  13
ATOM     13  C   UNL     1       3.244   8.903   8.420  1.00  0.00    -0.000 C 
BRANCH  13  14
ATOM     14  C   UNL     1       2.228   8.978   9.571  1.00  0.00    -0.000 C 
BRANCH  14  15
ATOM     15  C   UNL     1       2.287   7.747  10.490  1.00  0.00    -0.000 C 
BRANCH  15  16
ATOM     16  C   UNL     1       0.908   7.102  10.697  1.00  0.00    -0.000 C 
BRANCH  16  17
ATOM     17  C   UNL     1      -0.037   7.439   9.533  1.00  0.00    -0.000 C 
BRANCH  17  18
ATOM     18  C   UNL     1      -0.959   6.255   9.169  1.00  0.00    -0.000 C 
BRANCH  18  19
ATOM     19  C   UNL     1      -0.545   4.925   9.824  1.00  0.00    -0.003 C 
ATOM     20  C   UNL     1      -1.354   4.594  11.074  1.00  0.00     0.004 C 
ENDBRANCH  18  19
ENDBRANCH  17  18
ENDBRANCH  16  17
ENDBRANCH  15  16
ENDBRANCH  14  15
ENDBRANCH  13  14
ENDBRANCH  12  13
ENDBRANCH   1  12
TORSDOF 16
ENDMDL
MODEL 6
REMARK VINA RESULT:    -5.329      1.921      3.642
REMARK INTER + INTRA:         -12.878
REMARK INTER:                 -10.200
REMARK INTRA:                  -2.679
REMARK UNBOUND:                -2.565
REMARK SMILES CCCCCCCCCCCCCCCCCC(=O)[O-]
REMARK SMILES IDX 10 1 11 2 12 3 13 4 14 5 15 6 16 7 17 8 18 9 19 10 20 11
REMARK SMILES IDX 9 12 8 13 7 14 6 15 5 16 4 17 3 18 2 19 1 20
REMARK H PARENT
REMARK Flexibility Score: inf
ROOT
ATOM      1  C   UNL     1       3.140   4.764   8.670  1.00  0.00     0.000 C 
ENDROOT
BRANCH   1   2
ATOM      2  C   UNL     1       1.772   4.060   8.800  1.00  0.00     0.000 C 
BRANCH   2   3
ATOM      3  C   UNL     1       0.900   4.605   9.948  1.00  0.00     0.000 C 
BRANCH   3   4
ATOM      4  C   UNL     1      -0.567   4.886   9.576  1.00  0.00     0.000 C 
BRANCH   4   5
ATOM      5  C   UNL     1      -0.980   6.343   9.844  1.00  0.00     0.000 C 
BRANCH   5   6
ATOM      6  C   UNL     1       0.003   7.363   9.242  1.00  0.00     0.000 C 
BRANCH   6   7
ATOM      7  C   UNL     1       0.559   8.396  10.238  1.00  0.00     0.006 C 
BRANCH   7   8
ATOM      8  C   UNL     1       1.725   7.852  11.074  1.00  0.00     0.053 C 
BRANCH   8   9
ATOM      9  C   UNL     1       1.369   7.833  12.529  1.00  0.00     0.041 C 
ATOM     10  O   UNL     1       1.848   8.698  13.309  1.00  0.00    -0.550 OA
ATOM     11  O   UNL     1       0.518   6.855  13.026  1.00  0.00    -0.550 OA
ENDBRANCH   8   9
ENDBRANCH   7   8
ENDBRANCH   6   7
ENDBRANCH   5   6
ENDBRANCH   4   5
ENDBRANCH   3   4
ENDBRANCH   2   3
ENDBRANCH   1   2
BRANCH   1  12
ATOM     12  C   UNL     1       3.385   5.296   7.246  1.00  0.00     0.000 C 
BRANCH  12  13
ATOM     13  C   UNL     1       2.150   5.992   6.653  1.00  0.00    -0.000 C 
BRANCH  13  14
ATOM     14  C   UNL     1       2.421   7.460   6.282  1.00  0.00    -0.000 C 
BRANCH  14  15
ATOM     15  C   UNL     1       3.025   8.260   7.448  1.00  0.00    -0.000 C 
BRANCH  15  16
ATOM     16  C   UNL     1       4.293   9.025   7.041  1.00  0.00    -0.000 C 
BRANCH  16  17
ATOM     17  C   UNL     1       5.526   8.478   7.778  1.00  0.00    -0.000 C 
BRANCH  17  18
ATOM     18  C   UNL     1       6.330   7.485   6.911  1.00  0.00    -0.000 C 
BRANCH  18  19
ATOM     19  C   UNL     1       6.359   7.852   5.417  1.00  0.00    -0.003 C 
ATOM     20  C   UNL     1       6.080   6.664   4.502  1.00  0.00     0.004 C 
ENDBRANCH  18  19
ENDBRANCH  17  18
ENDBRANCH  16  17
ENDBRANCH  15  16
ENDBRANCH  14  15
ENDBRANCH  13  14
ENDBRANCH  12  13
ENDBRANCH   1  12
TORSDOF 16
ENDMDL
MODEL 7
REMARK VINA RESULT:    -5.317      2.088      6.494
REMARK INTER + INTRA:         -12.855
REMARK INTER:                 -10.470
REMARK INTRA:                  -2.385
REMARK UNBOUND:                -2.565
REMARK SMILES CCCCCCCCCCCCCCCCCC(=O)[O-]
REMARK SMILES IDX 10 1 11 2 12 3 13 4 14 5 15 6 16 7 17 8 18 9 19 10 20 11
REMARK SMILES IDX 9 12 8 13 7 14 6 15 5 16 4 17 3 18 2 19 1 20
REMARK H PARENT
REMARK Flexibility Score: inf
ROOT
ATOM      1  C   UNL     1       2.809   8.210   7.686  1.00  0.00     0.000 C 
ENDROOT
BRANCH   1   2
ATOM      2  C   UNL     1       3.985   9.055   7.151  1.00  0.00     0.000 C 
BRANCH   2   3
ATOM      3  C   UNL     1       5.360   8.618   7.694  1.00  0.00     0.000 C 
BRANCH   3   4
ATOM      4  C   UNL     1       6.385   8.212   6.621  1.00  0.00     0.000 C 
BRANCH   4   5
ATOM      5  C   UNL     1       6.800   6.734   6.723  1.00  0.00     0.000 C 
BRANCH   5   6
ATOM      6  C   UNL     1       5.618   5.767   6.530  1.00  0.00     0.000 C 
BRANCH   6   7
ATOM      7  C   UNL     1       5.468   4.696   7.625  1.00  0.00     0.006 C 
BRANCH   7   8
ATOM      8  C   UNL     1       4.128   4.784   8.367  1.00  0.00     0.053 C 
BRANCH   8   9
ATOM      9  C   UNL     1       3.025   4.203   7.538  1.00  0.00     0.041 C 
ATOM     10  O   UNL     1       2.121   4.948   7.075  1.00  0.00    -0.550 OA
ATOM     11  O   UNL     1       2.986   2.837   7.287  1.00  0.00    -0.550 OA
ENDBRANCH   8   9
ENDBRANCH   7   8
ENDBRANCH   6   7
ENDBRANCH   5   6
ENDBRANCH   4   5
ENDBRANCH   3   4
ENDBRANCH   2   3
ENDBRANCH   1   2
BRANCH   1  12
ATOM     12  C   UNL     1       2.785   8.159   9.225  1.00  0.00     0.000 C 
BRANCH  12  13
ATOM     13  C   UNL     1       2.094   9.381   9.848  1.00  0.00    -0.000 C 
BRANCH  13  14
ATOM     14  C   UNL     1       1.304   9.029  11.120  1.00  0.00    -0.000 C 
BRANCH  14  15
ATOM     15  C   UNL     1       1.620   7.616  11.636  1.00  0.00    -0.000 C 
BRANCH  15  16
ATOM     16  C   UNL     1       0.504   7.054  12.530  1.00  0.00    -0.000 C 
BRANCH  16  17
ATOM     17  C   UNL     1      -0.224   5.892  11.836  1.00  0.00    -0.000 C 
BRANCH  17  18
ATOM     18  C   UNL     1       0.396   5.555  10.462  1.00  0.00    -0.000 C 
BRANCH  18  19
ATOM     19  C   UNL     1      -0.603   5.637   9.295  1.00  0.00    -0.003 C 
ATOM     20  C   UNL     1      -1.221   7.022   9.131  1.00  0.00     0.004 C 
ENDBRANCH  18  19
ENDBRANCH  17  18
ENDBRANCH  16  17
ENDBRANCH  15  16
ENDBRANCH  14  15
ENDBRANCH  13  14
ENDBRANCH  12  13
ENDBRANCH   1  12
TORSDOF 16
ENDMDL
MODEL 8
REMARK VINA RESULT:    -5.309      2.593      6.928
REMARK INTER + INTRA:         -12.840
REMARK INTER:                 -10.112
REMARK INTRA:                  -2.728
REMARK UNBOUND:                -2.565
REMARK SMILES CCCCCCCCCCCCCCCCCC(=O)[O-]
REMARK SMILES IDX 10 1 11 2 12 3 13 4 14 5 15 6 16 7 17 8 18 9 19 10 20 11
REMARK SMILES IDX 9 12 8 13 7 14 6 15 5 16 4 17 3 18 2 19 1 20
REMARK H PARENT
REMARK Flexibility Score: inf
ROOT
ATOM      1  C   UNL     1       3.474   6.682   9.296  1.00  0.00     0.000 C 
ENDROOT
BRANCH   1   2
ATOM      2  C   UNL     1       2.933   5.255   9.526  1.00  0.00     0.000 C 
BRANCH   2   3
ATOM      3  C   UNL     1       2.929   4.380   8.256  1.00  0.00     0.000 C 
BRANCH   3   4
ATOM      4  C   UNL     1       4.092   4.640   7.283  1.00  0.00     0.000 C 
BRANCH   4   5
ATOM      5  C   UNL     1       5.417   4.019   7.759  1.00  0.00     0.000 C 
BRANCH   5   6
ATOM      6  C   UNL     1       6.512   5.070   8.013  1.00  0.00     0.000 C 
BRANCH   6   7
ATOM      7  C   UNL     1       6.725   6.078   6.870  1.00  0.00     0.006 C 
BRANCH   7   8
ATOM      8  C   UNL     1       6.500   7.532   7.305  1.00  0.00     0.053 C 
BRANCH   8   9
ATOM      9  C   UNL     1       5.370   8.145   6.538  1.00  0.00     0.041 C 
ATOM     10  O   UNL     1       4.916   7.572   5.513  1.00  0.00    -0.550 OA
ATOM     11  O   UNL     1       4.826   9.356   6.946  1.00  0.00    -0.550 OA
ENDBRANCH   8   9
ENDBRANCH   7   8
ENDBRANCH   6   7
ENDBRANCH   5   6
ENDBRANCH   4   5
ENDBRANCH   3   4
ENDBRANCH   2   3
ENDBRANCH   1   2
BRANCH   1  12
ATOM     12  C   UNL     1       2.366   7.658   8.860  1.00  0.00     0.000 C 
BRANCH  12  13
ATOM     13  C   UNL     1       2.159   8.805   9.862  1.00  0.00    -0.000 C 
BRANCH  13  14
ATOM     14  C   UNL     1       0.902   8.613  10.727  1.00  0.00    -0.000 C 
BRANCH  14  15
ATOM     15  C   UNL     1       1.226   8.038  12.116  1.00  0.00    -0.000 C 
BRANCH  15  16
ATOM     16  C   UNL     1       0.762   6.582  12.272  1.00  0.00    -0.000 C 
BRANCH  16  17
ATOM     17  C   UNL     1      -0.569   6.348  11.540  1.00  0.00    -0.000 C 
BRANCH  17  18
ATOM     18  C   UNL     1      -0.664   4.925  10.946  1.00  0.00    -0.000 C 
BRANCH  18  19
ATOM     19  C   UNL     1      -0.630   4.894   9.407  1.00  0.00    -0.003 C 
ATOM     20  C   UNL     1      -1.012   6.227   8.772  1.00  0.00     0.004 C 
ENDBRANCH  18  19
ENDBRANCH  17  18
ENDBRANCH  16  17
ENDBRANCH  15  16
ENDBRANCH  14  15
ENDBRANCH  13  14
ENDBRANCH  12  13
ENDBRANCH   1  12
TORSDOF 16
ENDMDL
MODEL 9
REMARK VINA RESULT:    -5.286      2.976      6.531
REMARK INTER + INTRA:         -12.795
REMARK INTER:                 -10.243
REMARK INTRA:                  -2.551
REMARK UNBOUND:                -2.565
REMARK SMILES CCCCCCCCCCCCCCCCCC(=O)[O-]
REMARK SMILES IDX 10 1 11 2 12 3 13 4 14 5 15 6 16 7 17 8 18 9 19 10 20 11
REMARK SMILES IDX 9 12 8 13 7 14 6 15 5 16 4 17 3 18 2 19 1 20
REMARK H PARENT
REMARK Flexibility Score: inf
ROOT
ATOM      1  C   UNL     1       0.700   7.747  12.864  1.00  0.00     0.000 C 
ENDROOT
BRANCH   1   2
ATOM      2  C   UNL     1       1.617   8.792  12.193  1.00  0.00     0.000 C 
BRANCH   2   3
ATOM      3  C   UNL     1       1.346   8.980  10.688  1.00  0.00     0.000 C 
BRANCH   3   4
ATOM      4  C   UNL     1       2.576   8.815   9.778  1.00  0.00     0.000 C 
BRANCH   4   5
ATOM      5  C   UNL     1       2.389   9.470   8.399  1.00  0.00     0.000 C 
BRANCH   5   6
ATOM      6  C   UNL     1       3.065   8.678   7.265  1.00  0.00     0.000 C 
BRANCH   6   7
ATOM      7  C   UNL     1       4.569   8.951   7.088  1.00  0.00     0.006 C 
BRANCH   7   8
ATOM      8  C   UNL     1       5.239   7.989   6.098  1.00  0.00     0.053 C 
BRANCH   8   9
ATOM      9  C   UNL     1       6.698   7.848   6.402  1.00  0.00     0.041 C 
ATOM     10  O   UNL     1       7.087   7.029   7.277  1.00  0.00    -0.550 OA
ATOM     11  O   UNL     1       7.630   8.629   5.730  1.00  0.00    -0.550 OA
ENDBRANCH   8   9
ENDBRANCH   7   8
ENDBRANCH   6   7
ENDBRANCH   5   6
ENDBRANCH   4   5
ENDBRANCH   3   4
ENDBRANCH   2   3
ENDBRANCH   1   2
BRANCH   1  12
ATOM     12  C   UNL     1       0.750   6.386  12.147  1.00  0.00     0.000 C 
BRANCH  12  13
ATOM     13  C   UNL     1      -0.641   5.879  11.739  1.00  0.00    -0.000 C 
BRANCH  13  14
ATOM     14  C   UNL     1      -0.637   5.177  10.370  1.00  0.00    -0.000 C 
BRANCH  14  15
ATOM     15  C   UNL     1      -0.531   6.169   9.200  1.00  0.00    -0.000 C 
BRANCH  15  16
ATOM     16  C   UNL     1       0.751   5.972   8.377  1.00  0.00    -0.000 C 
BRANCH  16  17
ATOM     17  C   UNL     1       1.553   4.765   8.889  1.00  0.00    -0.000 C 
BRANCH  17  18
ATOM     18  C   UNL     1       2.894   5.186   9.527  1.00  0.00    -0.000 C 
BRANCH  18  19
ATOM     19  C   UNL     1       4.038   5.350   8.510  1.00  0.00    -0.003 C 
ATOM     20  C   UNL     1       3.903   4.430   7.301  1.00  0.00     0.004 C 
ENDBRANCH  18  19
ENDBRANCH  17  18
ENDBRANCH  16  17
ENDBRANCH  15  16
ENDBRANCH  14  15
ENDBRANCH  13  14
ENDBRANCH  12  13
ENDBRANCH   1  12
TORSDOF 16
ENDMDL
