MODEL 1
REMARK VINA RESULT:    -3.899      0.000      0.000
REMARK INTER + INTRA:          -8.136
REMARK INTER:                  -6.748
REMARK INTRA:                  -1.388
REMARK UNBOUND:                -1.388
REMARK SMILES CCCCCCCCCCCCCCO
REMARK SMILES IDX 8 1 7 2 6 3 5 4 4 5 3 6 2 7 1 8 9 9 10 10 11 11 12 12 13 13
REMARK SMILES IDX 14 14 15 15
REMARK H PARENT 15 16
REMARK Flexibility Score: inf
ROOT
ATOM      1  C   UNL     1      27.740  -2.315  21.685  1.00  0.00     0.000 C 
ENDROOT
BRANCH   1   2
ATOM      2  C   UNL     1      26.341  -1.685  21.786  1.00  0.00    -0.000 C 
BRANCH   2   3
ATOM      3  C   UNL     1      26.133  -0.537  20.782  1.00  0.00    -0.000 C 
BRANCH   3   4
ATOM      4  C   UNL     1      27.420  -0.180  20.022  1.00  0.00    -0.000 C 
BRANCH   4   5
ATOM      5  C   UNL     1      27.193  -0.056  18.506  1.00  0.00    -0.000 C 
BRANCH   5   6
ATOM      6  C   UNL     1      25.999  -0.893  18.017  1.00  0.00    -0.000 C 
BRANCH   6   7
ATOM      7  C   UNL     1      26.431  -2.095  17.166  1.00  0.00    -0.003 C 
ATOM      8  C   UNL     1      26.808  -3.283  18.046  1.00  0.00     0.004 C 
ENDBRANCH   6   7
ENDBRANCH   5   6
ENDBRANCH   4   5
ENDBRANCH   3   4
ENDBRANCH   2   3
ENDBRANCH   1   2
BRANCH   1   9
ATOM      9  C   UNL     1      28.593  -2.060  22.940  1.00  0.00     0.000 C 
BRANCH   9  10
ATOM     10  C   UNL     1      29.854  -1.236  22.639  1.00  0.00     0.000 C 
BRANCH  10  11
ATOM     11  C   UNL     1      29.973   0.015  23.526  1.00  0.00     0.000 C 
BRANCH  11  12
ATOM     12  C   UNL     1      28.804   0.978  23.277  1.00  0.00     0.002 C 
BRANCH  12  13
ATOM     13  C   UNL     1      29.249   2.445  23.154  1.00  0.00     0.028 C 
BRANCH  13  14
ATOM     14  C   UNL     1      29.252   3.198  24.490  1.00  0.00     0.156 C 
BRANCH  14  15
ATOM     15  O   UNL     1      28.939   4.549  24.288  1.00  0.00    -0.396 OA
ATOM     16  H   UNL     1      28.794   4.936  25.190  1.00  0.00     0.210 HD
ENDBRANCH  14  15
ENDBRANCH  13  14
ENDBRANCH  12  13
ENDBRANCH  11  12
ENDBRANCH  10  11
ENDBRANCH   9  10
ENDBRANCH   1   9
TORSDOF 13
ENDMDL
MODEL 2
REMARK VINA RESULT:    -3.847      1.239      2.123
REMARK INTER + INTRA:          -8.046
REMARK INTER:                  -7.339
REMARK INTRA:                  -0.707
REMARK UNBOUND:                -1.388
REMARK SMILES CCCCCCCCCCCCCCO
REMARK SMILES IDX 8 1 7 2 6 3 5 4 4 5 3 6 2 7 1 8 9 9 10 10 11 11 12 12 13 13
REMARK SMILES IDX 14 14 15 15
REMARK H PARENT 15 16
REMARK Flexibility Score: inf
ROOT
ATOM      1  C   UNL     1      27.056  -0.242  20.776  1.00  0.00     0.000 C 
ENDROOT
BRANCH   1   2
ATOM      2  C   UNL     1      27.757  -0.447  19.424  1.00  0.00    -0.000 C 
BRANCH   2   3
ATOM      3  C   UNL     1      26.961   0.143  18.246  1.00  0.00    -0.000 C 
BRANCH   3   4
ATOM      4  C   UNL     1      26.025  -0.887  17.594  1.00  0.00    -0.000 C 
BRANCH   4   5
ATOM      5  C   UNL     1      26.586  -2.317  17.661  1.00  0.00    -0.000 C 
BRANCH   5   6
ATOM      6  C   UNL     1      26.436  -3.073  16.330  1.00  0.00    -0.000 C 
BRANCH   6   7
ATOM      7  C   UNL     1      25.087  -2.805  15.648  1.00  0.00    -0.003 C 
ATOM      8  C   UNL     1      23.977  -3.640  16.277  1.00  0.00     0.004 C 
ENDBRANCH   6   7
ENDBRANCH   5   6
ENDBRANCH   4   5
ENDBRANCH   3   4
ENDBRANCH   2   3
ENDBRANCH   1   2
BRANCH   1   9
ATOM      9  C   UNL     1      27.810  -0.909  21.939  1.00  0.00     0.000 C 
BRANCH   9  10
ATOM     10  C   UNL     1      29.317  -0.604  21.918  1.00  0.00     0.000 C 
BRANCH  10  11
ATOM     11  C   UNL     1      29.781   0.188  23.151  1.00  0.00     0.000 C 
BRANCH  11  12
ATOM     12  C   UNL     1      29.424   1.675  23.015  1.00  0.00     0.002 C 
BRANCH  12  13
ATOM     13  C   UNL     1      28.697   2.235  24.250  1.00  0.00     0.028 C 
BRANCH  13  14
ATOM     14  C   UNL     1      29.393   3.452  24.871  1.00  0.00     0.156 C 
BRANCH  14  15
ATOM     15  O   UNL     1      28.922   4.633  24.283  1.00  0.00    -0.396 OA
ATOM     16  H   UNL     1      28.741   5.260  25.031  1.00  0.00     0.210 HD
ENDBRANCH  14  15
ENDBRANCH  13  14
ENDBRANCH  12  13
ENDBRANCH  11  12
ENDBRANCH  10  11
ENDBRANCH   9  10
ENDBRANCH   1   9
TORSDOF 13
ENDMDL
MODEL 3
REMARK VINA RESULT:    -3.834      2.365      5.364
REMARK INTER + INTRA:          -8.024
REMARK INTER:                  -6.089
REMARK INTRA:                  -1.935
REMARK UNBOUND:                -1.388
REMARK SMILES CCCCCCCCCCCCCCO
REMARK SMILES IDX 8 1 7 2 6 3 5 4 4 5 3 6 2 7 1 8 9 9 10 10 11 11 12 12 13 13
REMARK SMILES IDX 14 14 15 15
REMARK H PARENT 15 16
REMARK Flexibility Score: inf
ROOT
ATOM      1  C   UNL     1      31.098  -0.088  23.503  1.00  0.00     0.000 C 
ENDROOT
BRANCH   1   2
ATOM      2  C   UNL     1      30.449   1.053  24.303  1.00  0.00    -0.000 C 
BRANCH   2   3
ATOM      3  C   UNL     1      29.434   1.859  23.473  1.00  0.00    -0.000 C 
BRANCH   3   4
ATOM      4  C   UNL     1      28.008   1.766  24.036  1.00  0.00    -0.000 C 
BRANCH   4   5
ATOM      5  C   UNL     1      27.886   0.727  25.164  1.00  0.00    -0.000 C 
BRANCH   5   6
ATOM      6  C   UNL     1      26.451   0.204  25.334  1.00  0.00    -0.000 C 
BRANCH   6   7
ATOM      7  C   UNL     1      25.614   0.351  24.055  1.00  0.00    -0.003 C 
ATOM      8  C   UNL     1      24.750  -0.884  23.819  1.00  0.00     0.004 C 
ENDBRANCH   6   7
ENDBRANCH   5   6
ENDBRANCH   4   5
ENDBRANCH   3   4
ENDBRANCH   2   3
ENDBRANCH   1   2
BRANCH   1   9
ATOM      9  C   UNL     1      30.175  -0.632  22.398  1.00  0.00     0.000 C 
BRANCH   9  10
ATOM     10  C   UNL     1      29.280  -1.781  22.889  1.00  0.00     0.000 C 
BRANCH  10  11
ATOM     11  C   UNL     1      27.970  -1.897  22.093  1.00  0.00     0.000 C 
BRANCH  11  12
ATOM     12  C   UNL     1      27.748  -0.655  21.218  1.00  0.00     0.002 C 
BRANCH  12  13
ATOM     13  C   UNL     1      26.439  -0.714  20.412  1.00  0.00     0.028 C 
BRANCH  13  14
ATOM     14  C   UNL     1      26.562  -0.130  19.000  1.00  0.00     0.156 C 
BRANCH  14  15
ATOM     15  O   UNL     1      27.145   1.142  19.048  1.00  0.00    -0.396 OA
ATOM     16  H   UNL     1      28.002   1.034  19.536  1.00  0.00     0.210 HD
ENDBRANCH  14  15
ENDBRANCH  13  14
ENDBRANCH  12  13
ENDBRANCH  11  12
ENDBRANCH  10  11
ENDBRANCH   9  10
ENDBRANCH   1   9
TORSDOF 13
ENDMDL
MODEL 4
REMARK VINA RESULT:    -3.806      1.445      2.226
REMARK INTER + INTRA:          -7.975
REMARK INTER:                  -6.772
REMARK INTRA:                  -1.202
REMARK UNBOUND:                -1.388
REMARK SMILES CCCCCCCCCCCCCCO
REMARK SMILES IDX 8 1 7 2 6 3 5 4 4 5 3 6 2 7 1 8 9 9 10 10 11 11 12 12 13 13
REMARK SMILES IDX 14 14 15 15
REMARK H PARENT 15 16
REMARK Flexibility Score: inf
ROOT
ATOM      1  C   UNL     1      25.894  -1.264  21.266  1.00  0.00     0.000 C 
ENDROOT
BRANCH   1   2
ATOM      2  C   UNL     1      27.308  -1.562  20.741  1.00  0.00    -0.000 C 
BRANCH   2   3
ATOM      3  C   UNL     1      27.953  -0.349  20.048  1.00  0.00    -0.000 C 
BRANCH   3   4
ATOM      4  C   UNL     1      27.001   0.337  19.056  1.00  0.00    -0.000 C 
BRANCH   4   5
ATOM      5  C   UNL     1      27.015  -0.330  17.670  1.00  0.00    -0.000 C 
BRANCH   5   6
ATOM      6  C   UNL     1      25.784  -1.220  17.431  1.00  0.00    -0.000 C 
BRANCH   6   7
ATOM      7  C   UNL     1      26.156  -2.605  16.884  1.00  0.00    -0.003 C 
ATOM      8  C   UNL     1      25.221  -3.017  15.750  1.00  0.00     0.004 C 
ENDBRANCH   6   7
ENDBRANCH   5   6
ENDBRANCH   4   5
ENDBRANCH   3   4
ENDBRANCH   2   3
ENDBRANCH   1   2
BRANCH   1   9
ATOM      9  C   UNL     1      25.642  -1.870  22.658  1.00  0.00     0.000 C 
BRANCH   9  10
ATOM     10  C   UNL     1      26.353  -1.092  23.778  1.00  0.00     0.000 C 
BRANCH  10  11
ATOM     11  C   UNL     1      25.971   0.396  23.802  1.00  0.00     0.000 C 
BRANCH  11  12
ATOM     12  C   UNL     1      27.183   1.268  24.161  1.00  0.00     0.002 C 
BRANCH  12  13
ATOM     13  C   UNL     1      28.466   0.847  23.424  1.00  0.00     0.028 C 
BRANCH  13  14
ATOM     14  C   UNL     1      29.301   2.031  22.924  1.00  0.00     0.156 C 
BRANCH  14  15
ATOM     15  O   UNL     1      28.562   3.218  23.007  1.00  0.00    -0.396 OA
ATOM     16  H   UNL     1      28.576   3.616  22.098  1.00  0.00     0.210 HD
ENDBRANCH  14  15
ENDBRANCH  13  14
ENDBRANCH  12  13
ENDBRANCH  11  12
ENDBRANCH  10  11
ENDBRANCH   9  10
ENDBRANCH   1   9
TORSDOF 13
ENDMDL
MODEL 5
REMARK VINA RESULT:    -3.766      6.497      8.880
REMARK INTER + INTRA:          -7.905
REMARK INTER:                  -7.290
REMARK INTRA:                  -0.615
REMARK UNBOUND:                -1.388
REMARK SMILES CCCCCCCCCCCCCCO
REMARK SMILES IDX 8 1 7 2 6 3 5 4 4 5 3 6 2 7 1 8 9 9 10 10 11 11 12 12 13 13
REMARK SMILES IDX 14 14 15 15
REMARK H PARENT 15 16
REMARK Flexibility Score: inf
ROOT
ATOM      1  C   UNL     1      22.839  -3.508  16.407  1.00  0.00     0.000 C 
ENDROOT
BRANCH   1   2
ATOM      2  C   UNL     1      21.434  -4.091  16.192  1.00  0.00    -0.000 C 
BRANCH   2   3
ATOM      3  C   UNL     1      20.426  -3.619  17.255  1.00  0.00    -0.000 C 
BRANCH   3   4
ATOM      4  C   UNL     1      18.983  -3.593  16.728  1.00  0.00    -0.000 C 
BRANCH   4   5
ATOM      5  C   UNL     1      18.903  -3.878  15.218  1.00  0.00    -0.000 C 
BRANCH   5   6
ATOM      6  C   UNL     1      17.647  -4.677  14.834  1.00  0.00    -0.000 C 
BRANCH   6   7
ATOM      7  C   UNL     1      16.565  -3.801  14.187  1.00  0.00    -0.003 C 
ATOM      8  C   UNL     1      15.309  -3.751  15.051  1.00  0.00     0.004 C 
ENDBRANCH   6   7
ENDBRANCH   5   6
ENDBRANCH   4   5
ENDBRANCH   3   4
ENDBRANCH   2   3
ENDBRANCH   1   2
BRANCH   1   9
ATOM      9  C   UNL     1      23.912  -4.599  16.570  1.00  0.00     0.000 C 
BRANCH   9  10
ATOM     10  C   UNL     1      25.222  -4.253  15.844  1.00  0.00     0.000 C 
BRANCH  10  11
ATOM     11  C   UNL     1      25.427  -2.739  15.676  1.00  0.00     0.000 C 
BRANCH  11  12
ATOM     12  C   UNL     1      26.464  -2.211  16.678  1.00  0.00     0.002 C 
BRANCH  12  13
ATOM     13  C   UNL     1      25.934  -1.052  17.539  1.00  0.00     0.028 C 
BRANCH  13  14
ATOM     14  C   UNL     1      27.027  -0.083  18.003  1.00  0.00     0.156 C 
BRANCH  14  15
ATOM     15  O   UNL     1      27.933   0.163  16.963  1.00  0.00    -0.396 OA
ATOM     16  H   UNL     1      27.498  -0.168  16.135  1.00  0.00     0.210 HD
ENDBRANCH  14  15
ENDBRANCH  13  14
ENDBRANCH  12  13
ENDBRANCH  11  12
ENDBRANCH  10  11
ENDBRANCH   9  10
ENDBRANCH   1   9
TORSDOF 13
ENDMDL
MODEL 6
REMARK VINA RESULT:    -3.739      2.586      5.503
REMARK INTER + INTRA:          -7.859
REMARK INTER:                  -5.877
REMARK INTRA:                  -1.982
REMARK UNBOUND:                -1.388
REMARK SMILES CCCCCCCCCCCCCCO
REMARK SMILES IDX 8 1 7 2 6 3 5 4 4 5 3 6 2 7 1 8 9 9 10 10 11 11 12 12 13 13
REMARK SMILES IDX 14 14 15 15
REMARK H PARENT 15 16
REMARK Flexibility Score: inf
ROOT
ATOM      1  C   UNL     1      26.277   0.713  23.883  1.00  0.00     0.000 C 
ENDROOT
BRANCH   1   2
ATOM      2  C   UNL     1      27.591   1.003  24.627  1.00  0.00    -0.000 C 
BRANCH   2   3
ATOM      3  C   UNL     1      28.479   2.020  23.890  1.00  0.00    -0.000 C 
BRANCH   3   4
ATOM      4  C   UNL     1      29.239   1.393  22.710  1.00  0.00    -0.000 C 
BRANCH   4   5
ATOM      5  C   UNL     1      30.207   0.284  23.157  1.00  0.00    -0.000 C 
BRANCH   5   6
ATOM      6  C   UNL     1      29.963  -1.044  22.423  1.00  0.00    -0.000 C 
BRANCH   6   7
ATOM      7  C   UNL     1      29.327  -2.110  23.327  1.00  0.00    -0.003 C 
ATOM      8  C   UNL     1      30.031  -2.173  24.679  1.00  0.00     0.004 C 
ENDBRANCH   6   7
ENDBRANCH   5   6
ENDBRANCH   4   5
ENDBRANCH   3   4
ENDBRANCH   2   3
ENDBRANCH   1   2
BRANCH   1   9
ATOM      9  C   UNL     1      25.866  -0.767  23.966  1.00  0.00     0.000 C 
BRANCH   9  10
ATOM     10  C   UNL     1      25.786  -1.436  22.584  1.00  0.00     0.000 C 
BRANCH  10  11
ATOM     11  C   UNL     1      26.316  -0.536  21.456  1.00  0.00     0.000 C 
BRANCH  11  12
ATOM     12  C   UNL     1      26.962  -1.373  20.343  1.00  0.00     0.002 C 
BRANCH  12  13
ATOM     13  C   UNL     1      27.769  -0.525  19.345  1.00  0.00     0.028 C 
BRANCH  13  14
ATOM     14  C   UNL     1      27.026  -0.253  18.031  1.00  0.00     0.156 C 
BRANCH  14  15
ATOM     15  O   UNL     1      27.917   0.212  17.056  1.00  0.00    -0.396 OA
ATOM     16  H   UNL     1      28.469  -0.569  16.792  1.00  0.00     0.210 HD
ENDBRANCH  14  15
ENDBRANCH  13  14
ENDBRANCH  12  13
ENDBRANCH  11  12
ENDBRANCH  10  11
ENDBRANCH   9  10
ENDBRANCH   1   9
TORSDOF 13
ENDMDL
MODEL 7
REMARK VINA RESULT:    -3.725      2.646      6.037
REMARK INTER + INTRA:          -7.834
REMARK INTER:                  -6.399
REMARK INTRA:                  -1.435
REMARK UNBOUND:                -1.388
REMARK SMILES CCCCCCCCCCCCCCO
REMARK SMILES IDX 8 1 7 2 6 3 5 4 4 5 3 6 2 7 1 8 9 9 10 10 11 11 12 12 13 13
REMARK SMILES IDX 14 14 15 15
REMARK H PARENT 15 16
REMARK Flexibility Score: inf
ROOT
ATOM      1  C   UNL     1      26.025  -0.323  22.950  1.00  0.00     0.000 C 
ENDROOT
BRANCH   1   2
ATOM      2  C   UNL     1      26.388   0.809  23.924  1.00  0.00    -0.000 C 
BRANCH   2   3
ATOM      3  C   UNL     1      27.803   0.656  24.512  1.00  0.00    -0.000 C 
BRANCH   3   4
ATOM      4  C   UNL     1      28.662   1.914  24.311  1.00  0.00    -0.000 C 
BRANCH   4   5
ATOM      5  C   UNL     1      29.769   1.710  23.263  1.00  0.00    -0.000 C 
BRANCH   5   6
ATOM      6  C   UNL     1      30.433   0.327  23.366  1.00  0.00    -0.000 C 
BRANCH   6   7
ATOM      7  C   UNL     1      31.919   0.412  23.740  1.00  0.00    -0.003 C 
ATOM      8  C   UNL     1      32.095   0.722  25.223  1.00  0.00     0.004 C 
ENDBRANCH   6   7
ENDBRANCH   5   6
ENDBRANCH   4   5
ENDBRANCH   3   4
ENDBRANCH   2   3
ENDBRANCH   1   2
BRANCH   1   9
ATOM      9  C   UNL     1      27.211  -1.263  22.668  1.00  0.00     0.000 C 
BRANCH   9  10
ATOM     10  C   UNL     1      27.444  -1.484  21.165  1.00  0.00     0.000 C 
BRANCH  10  11
ATOM     11  C   UNL     1      28.107  -0.277  20.482  1.00  0.00     0.000 C 
BRANCH  11  12
ATOM     12  C   UNL     1      27.176   0.337  19.427  1.00  0.00     0.002 C 
BRANCH  12  13
ATOM     13  C   UNL     1      27.070  -0.514  18.150  1.00  0.00     0.028 C 
BRANCH  13  14
ATOM     14  C   UNL     1      25.658  -1.052  17.887  1.00  0.00     0.156 C 
BRANCH  14  15
ATOM     15  O   UNL     1      24.785  -0.642  18.903  1.00  0.00    -0.396 OA
ATOM     16  H   UNL     1      24.905   0.339  18.991  1.00  0.00     0.210 HD
ENDBRANCH  14  15
ENDBRANCH  13  14
ENDBRANCH  12  13
ENDBRANCH  11  12
ENDBRANCH  10  11
ENDBRANCH   9  10
ENDBRANCH   1   9
TORSDOF 13
ENDMDL
MODEL 8
REMARK VINA RESULT:    -3.660      2.833      6.044
REMARK INTER + INTRA:          -7.722
REMARK INTER:                  -5.871
REMARK INTRA:                  -1.851
REMARK UNBOUND:                -1.388
REMARK SMILES CCCCCCCCCCCCCCO
REMARK SMILES IDX 8 1 7 2 6 3 5 4 4 5 3 6 2 7 1 8 9 9 10 10 11 11 12 12 13 13
REMARK SMILES IDX 14 14 15 15
REMARK H PARENT 15 16
REMARK Flexibility Score: inf
ROOT
ATOM      1  C   UNL     1      26.369   0.129  23.367  1.00  0.00     0.000 C 
ENDROOT
BRANCH   1   2
ATOM      2  C   UNL     1      26.213   0.355  24.880  1.00  0.00    -0.000 C 
BRANCH   2   3
ATOM      3  C   UNL     1      27.139  -0.548  25.714  1.00  0.00    -0.000 C 
BRANCH   3   4
ATOM      4  C   UNL     1      28.439   0.161  26.125  1.00  0.00    -0.000 C 
BRANCH   4   5
ATOM      5  C   UNL     1      29.659  -0.342  25.335  1.00  0.00    -0.000 C 
BRANCH   5   6
ATOM      6  C   UNL     1      30.173   0.692  24.320  1.00  0.00    -0.000 C 
BRANCH   6   7
ATOM      7  C   UNL     1      29.700   2.117  24.639  1.00  0.00    -0.003 C 
ATOM      8  C   UNL     1      29.018   2.753  23.432  1.00  0.00     0.004 C 
ENDBRANCH   6   7
ENDBRANCH   5   6
ENDBRANCH   4   5
ENDBRANCH   3   4
ENDBRANCH   2   3
ENDBRANCH   1   2
BRANCH   1   9
ATOM      9  C   UNL     1      26.679  -1.338  23.019  1.00  0.00     0.000 C 
BRANCH   9  10
ATOM     10  C   UNL     1      27.934  -1.485  22.144  1.00  0.00     0.000 C 
BRANCH  10  11
ATOM     11  C   UNL     1      28.282  -0.196  21.382  1.00  0.00     0.000 C 
BRANCH  11  12
ATOM     12  C   UNL     1      28.240  -0.426  19.865  1.00  0.00     0.002 C 
BRANCH  12  13
ATOM     13  C   UNL     1      26.855  -0.151  19.253  1.00  0.00     0.028 C 
BRANCH  13  14
ATOM     14  C   UNL     1      26.809  -0.342  17.732  1.00  0.00     0.156 C 
BRANCH  14  15
ATOM     15  O   UNL     1      27.971   0.171  17.142  1.00  0.00    -0.396 OA
ATOM     16  H   UNL     1      28.579  -0.602  17.013  1.00  0.00     0.210 HD
ENDBRANCH  14  15
ENDBRANCH  13  14
ENDBRANCH  12  13
ENDBRANCH  11  12
ENDBRANCH  10  11
ENDBRANCH   9  10
ENDBRANCH   1   9
TORSDOF 13
ENDMDL
MODEL 9
REMARK VINA RESULT:    -3.654      1.271      2.290
REMARK INTER + INTRA:          -7.712
REMARK INTER:                  -6.353
REMARK INTRA:                  -1.358
REMARK UNBOUND:                -1.388
REMARK SMILES CCCCCCCCCCCCCCO
REMARK SMILES IDX 8 1 7 2 6 3 5 4 4 5 3 6 2 7 1 8 9 9 10 10 11 11 12 12 13 13
REMARK SMILES IDX 14 14 15 15
REMARK H PARENT 15 16
REMARK Flexibility Score: inf
ROOT
ATOM      1  C   UNL     1      26.345  -1.308  21.351  1.00  0.00     0.000 C 
ENDROOT
BRANCH   1   2
ATOM      2  C   UNL     1      27.115  -2.485  20.729  1.00  0.00    -0.000 C 
BRANCH   2   3
ATOM      3  C   UNL     1      26.207  -3.685  20.406  1.00  0.00    -0.000 C 
BRANCH   3   4
ATOM      4  C   UNL     1      25.771  -3.714  18.933  1.00  0.00    -0.000 C 
BRANCH   4   5
ATOM      5  C   UNL     1      26.916  -3.345  17.973  1.00  0.00    -0.000 C 
BRANCH   5   6
ATOM      6  C   UNL     1      26.510  -2.263  16.959  1.00  0.00    -0.000 C 
BRANCH   6   7
ATOM      7  C   UNL     1      25.893  -1.027  17.629  1.00  0.00    -0.003 C 
ATOM      8  C   UNL     1      26.954   0.033  17.908  1.00  0.00     0.004 C 
ENDBRANCH   6   7
ENDBRANCH   5   6
ENDBRANCH   4   5
ENDBRANCH   3   4
ENDBRANCH   2   3
ENDBRANCH   1   2
BRANCH   1   9
ATOM      9  C   UNL     1      27.279  -0.258  21.978  1.00  0.00     0.000 C 
BRANCH   9  10
ATOM     10  C   UNL     1      28.705  -0.320  21.406  1.00  0.00     0.000 C 
BRANCH  10  11
ATOM     11  C   UNL     1      29.756  -0.678  22.469  1.00  0.00     0.000 C 
BRANCH  11  12
ATOM     12  C   UNL     1      29.492   0.077  23.780  1.00  0.00     0.002 C 
BRANCH  12  13
ATOM     13  C   UNL     1      30.032   1.517  23.763  1.00  0.00     0.028 C 
BRANCH  13  14
ATOM     14  C   UNL     1      28.961   2.576  24.051  1.00  0.00     0.156 C 
BRANCH  14  15
ATOM     15  O   UNL     1      28.455   3.095  22.852  1.00  0.00    -0.396 OA
ATOM     16  H   UNL     1      28.882   2.573  22.124  1.00  0.00     0.210 HD
ENDBRANCH  14  15
ENDBRANCH  13  14
ENDBRANCH  12  13
ENDBRANCH  11  12
ENDBRANCH  10  11
ENDBRANCH   9  10
ENDBRANCH   1   9
TORSDOF 13
ENDMDL
