MODEL 1
REMARK VINA RESULT:    -3.973      0.000      0.000
REMARK INTER + INTRA:          -9.016
REMARK INTER:                  -7.224
REMARK INTRA:                  -1.793
REMARK UNBOUND:                -1.793
REMARK SMILES CCCCCCCCCCCCCCCC(=O)[O-]
REMARK SMILES IDX 9 1 10 2 11 3 12 4 13 5 14 6 15 7 16 8 17 9 18 10 8 11 7 12
REMARK SMILES IDX 6 13 5 14 4 15 3 16 2 17 1 18
REMARK H PARENT
REMARK Flexibility Score: inf
ROOT
ATOM      1  C   UNL     1      14.347  34.436  20.420  1.00  0.00     0.000 C 
ENDROOT
BRANCH   1   2
ATOM      2  C   UNL     1      13.753  35.856  20.446  1.00  0.00     0.000 C 
BRANCH   2   3
ATOM      3  C   UNL     1      12.986  36.204  19.159  1.00  0.00     0.000 C 
BRANCH   3   4
ATOM      4  C   UNL     1      11.602  36.811  19.445  1.00  0.00     0.000 C 
BRANCH   4   5
ATOM      5  C   UNL     1      10.477  35.762  19.385  1.00  0.00     0.000 C 
BRANCH   5   6
ATOM      6  C   UNL     1       9.942  35.383  20.779  1.00  0.00     0.006 C 
BRANCH   6   7
ATOM      7  C   UNL     1      10.397  36.320  21.910  1.00  0.00     0.053 C 
BRANCH   7   8
ATOM      8  C   UNL     1      11.053  35.572  23.029  1.00  0.00     0.041 C 
ATOM      9  O   UNL     1      11.535  34.425  22.828  1.00  0.00    -0.550 OA
ATOM     10  O   UNL     1      11.165  36.156  24.284  1.00  0.00    -0.550 OA
ENDBRANCH   7   8
ENDBRANCH   6   7
ENDBRANCH   5   6
ENDBRANCH   4   5
ENDBRANCH   3   4
ENDBRANCH   2   3
ENDBRANCH   1   2
BRANCH   1  11
ATOM     11  C   UNL     1      13.497  33.425  19.622  1.00  0.00     0.000 C 
BRANCH  11  12
ATOM     12  C   UNL     1      13.601  32.001  20.196  1.00  0.00    -0.000 C 
BRANCH  12  13
ATOM     13  C   UNL     1      13.823  31.992  21.716  1.00  0.00    -0.000 C 
BRANCH  13  14
ATOM     14  C   UNL     1      14.078  30.578  22.267  1.00  0.00    -0.000 C 
BRANCH  14  15
ATOM     15  C   UNL     1      15.570  30.211  22.291  1.00  0.00    -0.000 C 
BRANCH  15  16
ATOM     16  C   UNL     1      16.479  31.248  22.978  1.00  0.00    -0.000 C 
BRANCH  16  17
ATOM     17  C   UNL     1      17.752  31.589  22.175  1.00  0.00    -0.003 C 
ATOM     18  C   UNL     1      17.468  32.506  20.985  1.00  0.00     0.004 C 
ENDBRANCH  16  17
ENDBRANCH  15  16
ENDBRANCH  14  15
ENDBRANCH  13  14
ENDBRANCH  12  13
ENDBRANCH  11  12
ENDBRANCH   1  11
TORSDOF 14
ENDMDL
MODEL 2
REMARK VINA RESULT:    -3.925      3.470      5.068
REMARK INTER + INTRA:          -8.930
REMARK INTER:                  -7.502
REMARK INTRA:                  -1.427
REMARK UNBOUND:                -1.793
REMARK SMILES CCCCCCCCCCCCCCCC(=O)[O-]
REMARK SMILES IDX 9 1 10 2 11 3 12 4 13 5 14 6 15 7 16 8 17 9 18 10 8 11 7 12
REMARK SMILES IDX 6 13 5 14 4 15 3 16 2 17 1 18
REMARK H PARENT
REMARK Flexibility Score: inf
ROOT
ATOM      1  C   UNL     1      11.217  35.400  22.091  1.00  0.00     0.000 C 
ENDROOT
BRANCH   1   2
ATOM      2  C   UNL     1      10.029  36.275  21.654  1.00  0.00     0.000 C 
BRANCH   2   3
ATOM      3  C   UNL     1       9.039  35.525  20.746  1.00  0.00     0.000 C 
BRANCH   3   4
ATOM      4  C   UNL     1       9.548  34.129  20.349  1.00  0.00     0.000 C 
BRANCH   4   5
ATOM      5  C   UNL     1       8.540  33.363  19.474  1.00  0.00     0.000 C 
BRANCH   5   6
ATOM      6  C   UNL     1       7.110  33.400  20.043  1.00  0.00     0.006 C 
BRANCH   6   7
ATOM      7  C   UNL     1       6.186  32.292  19.512  1.00  0.00     0.053 C 
BRANCH   7   8
ATOM      8  C   UNL     1       5.091  31.962  20.478  1.00  0.00     0.041 C 
ATOM      9  O   UNL     1       5.093  32.462  21.635  1.00  0.00    -0.550 OA
ATOM     10  O   UNL     1       4.048  31.131  20.090  1.00  0.00    -0.550 OA
ENDBRANCH   7   8
ENDBRANCH   6   7
ENDBRANCH   5   6
ENDBRANCH   4   5
ENDBRANCH   3   4
ENDBRANCH   2   3
ENDBRANCH   1   2
BRANCH   1  11
ATOM     11  C   UNL     1      12.583  35.919  21.593  1.00  0.00     0.000 C 
BRANCH  11  12
ATOM     12  C   UNL     1      12.531  36.366  20.121  1.00  0.00    -0.000 C 
BRANCH  12  13
ATOM     13  C   UNL     1      13.746  35.883  19.315  1.00  0.00    -0.000 C 
BRANCH  13  14
ATOM     14  C   UNL     1      13.904  34.352  19.344  1.00  0.00    -0.000 C 
BRANCH  14  15
ATOM     15  C   UNL     1      15.134  33.897  20.146  1.00  0.00    -0.000 C 
BRANCH  15  16
ATOM     16  C   UNL     1      14.850  32.814  21.204  1.00  0.00    -0.000 C 
BRANCH  16  17
ATOM     17  C   UNL     1      13.706  31.852  20.819  1.00  0.00    -0.003 C 
ATOM     18  C   UNL     1      12.485  31.999  21.727  1.00  0.00     0.004 C 
ENDBRANCH  16  17
ENDBRANCH  15  16
ENDBRANCH  14  15
ENDBRANCH  13  14
ENDBRANCH  12  13
ENDBRANCH  11  12
ENDBRANCH   1  11
TORSDOF 14
ENDMDL
MODEL 3
REMARK VINA RESULT:    -3.860      2.628      6.258
REMARK INTER + INTRA:          -8.812
REMARK INTER:                  -7.314
REMARK INTRA:                  -1.498
REMARK UNBOUND:                -1.793
REMARK SMILES CCCCCCCCCCCCCCCC(=O)[O-]
REMARK SMILES IDX 9 1 10 2 11 3 12 4 13 5 14 6 15 7 16 8 17 9 18 10 8 11 7 12
REMARK SMILES IDX 6 13 5 14 4 15 3 16 2 17 1 18
REMARK H PARENT
REMARK Flexibility Score: inf
ROOT
ATOM      1  C   UNL     1      13.790  35.598  20.318  1.00  0.00     0.000 C 
ENDROOT
BRANCH   1   2
ATOM      2  C   UNL     1      14.302  34.173  20.593  1.00  0.00     0.000 C 
BRANCH   2   3
ATOM      3  C   UNL     1      13.196  33.110  20.473  1.00  0.00     0.000 C 
BRANCH   3   4
ATOM      4  C   UNL     1      12.874  32.443  21.820  1.00  0.00     0.000 C 
BRANCH   4   5
ATOM      5  C   UNL     1      12.946  30.907  21.747  1.00  0.00     0.000 C 
BRANCH   5   6
ATOM      6  C   UNL     1      14.290  30.349  22.250  1.00  0.00     0.006 C 
BRANCH   6   7
ATOM      7  C   UNL     1      15.434  31.376  22.275  1.00  0.00     0.053 C 
BRANCH   7   8
ATOM      8  C   UNL     1      16.585  30.915  23.115  1.00  0.00     0.041 C 
ATOM      9  O   UNL     1      17.755  31.300  22.852  1.00  0.00    -0.550 OA
ATOM     10  O   UNL     1      16.361  30.090  24.209  1.00  0.00    -0.550 OA
ENDBRANCH   7   8
ENDBRANCH   6   7
ENDBRANCH   5   6
ENDBRANCH   4   5
ENDBRANCH   3   4
ENDBRANCH   2   3
ENDBRANCH   1   2
BRANCH   1  11
ATOM     11  C   UNL     1      13.052  35.741  18.971  1.00  0.00     0.000 C 
BRANCH  11  12
ATOM     12  C   UNL     1      12.272  37.064  18.875  1.00  0.00    -0.000 C 
BRANCH  12  13
ATOM     13  C   UNL     1      10.771  36.886  19.152  1.00  0.00    -0.000 C 
BRANCH  13  14
ATOM     14  C   UNL     1      10.367  35.407  19.283  1.00  0.00    -0.000 C 
BRANCH  14  15
ATOM     15  C   UNL     1       9.837  35.058  20.684  1.00  0.00    -0.000 C 
BRANCH  15  16
ATOM     16  C   UNL     1      10.255  36.041  21.795  1.00  0.00    -0.000 C 
BRANCH  16  17
ATOM     17  C   UNL     1      11.124  35.401  22.897  1.00  0.00    -0.003 C 
ATOM     18  C   UNL     1      11.125  36.217  24.190  1.00  0.00     0.004 C 
ENDBRANCH  16  17
ENDBRANCH  15  16
ENDBRANCH  14  15
ENDBRANCH  13  14
ENDBRANCH  12  13
ENDBRANCH  11  12
ENDBRANCH   1  11
TORSDOF 14
ENDMDL
MODEL 4
REMARK VINA RESULT:    -3.855      3.140      4.072
REMARK INTER + INTRA:          -8.804
REMARK INTER:                  -7.743
REMARK INTRA:                  -1.061
REMARK UNBOUND:                -1.793
REMARK SMILES CCCCCCCCCCCCCCCC(=O)[O-]
REMARK SMILES IDX 9 1 10 2 11 3 12 4 13 5 14 6 15 7 16 8 17 9 18 10 8 11 7 12
REMARK SMILES IDX 6 13 5 14 4 15 3 16 2 17 1 18
REMARK H PARENT
REMARK Flexibility Score: inf
ROOT
ATOM      1  C   UNL     1      11.459  35.817  22.318  1.00  0.00     0.000 C 
ENDROOT
BRANCH   1   2
ATOM      2  C   UNL     1      10.055  36.253  21.862  1.00  0.00     0.000 C 
BRANCH   2   3
ATOM      3  C   UNL     1       9.960  36.457  20.340  1.00  0.00     0.000 C 
BRANCH   3   4
ATOM      4  C   UNL     1       8.655  35.896  19.752  1.00  0.00     0.000 C 
BRANCH   4   5
ATOM      5  C   UNL     1       8.405  34.434  20.163  1.00  0.00     0.000 C 
BRANCH   5   6
ATOM      6  C   UNL     1       6.910  34.111  20.334  1.00  0.00     0.006 C 
BRANCH   6   7
ATOM      7  C   UNL     1       6.471  32.782  19.698  1.00  0.00     0.053 C 
BRANCH   7   8
ATOM      8  C   UNL     1       5.819  31.871  20.692  1.00  0.00     0.041 C 
ATOM      9  O   UNL     1       4.739  32.208  21.248  1.00  0.00    -0.550 OA
ATOM     10  O   UNL     1       6.384  30.635  20.978  1.00  0.00    -0.550 OA
ENDBRANCH   7   8
ENDBRANCH   6   7
ENDBRANCH   5   6
ENDBRANCH   4   5
ENDBRANCH   3   4
ENDBRANCH   2   3
ENDBRANCH   1   2
BRANCH   1  11
ATOM     11  C   UNL     1      12.536  35.955  21.222  1.00  0.00     0.000 C 
BRANCH  11  12
ATOM     12  C   UNL     1      13.264  34.626  20.953  1.00  0.00    -0.000 C 
BRANCH  12  13
ATOM     13  C   UNL     1      12.369  33.403  21.203  1.00  0.00    -0.000 C 
BRANCH  13  14
ATOM     14  C   UNL     1      13.159  32.189  21.721  1.00  0.00    -0.000 C 
BRANCH  14  15
ATOM     15  C   UNL     1      14.681  32.374  21.598  1.00  0.00    -0.000 C 
BRANCH  15  16
ATOM     16  C   UNL     1      15.520  31.237  22.211  1.00  0.00    -0.000 C 
BRANCH  16  17
ATOM     17  C   UNL     1      17.038  31.389  21.978  1.00  0.00    -0.003 C 
ATOM     18  C   UNL     1      17.370  32.492  20.972  1.00  0.00     0.004 C 
ENDBRANCH  16  17
ENDBRANCH  15  16
ENDBRANCH  14  15
ENDBRANCH  13  14
ENDBRANCH  12  13
ENDBRANCH  11  12
ENDBRANCH   1  11
TORSDOF 14
ENDMDL
MODEL 5
REMARK VINA RESULT:    -3.847      1.323      2.218
REMARK INTER + INTRA:          -8.787
REMARK INTER:                  -7.637
REMARK INTRA:                  -1.151
REMARK UNBOUND:                -1.793
REMARK SMILES CCCCCCCCCCCCCCCC(=O)[O-]
REMARK SMILES IDX 9 1 10 2 11 3 12 4 13 5 14 6 15 7 16 8 17 9 18 10 8 11 7 12
REMARK SMILES IDX 6 13 5 14 4 15 3 16 2 17 1 18
REMARK H PARENT
REMARK Flexibility Score: inf
ROOT
ATOM      1  C   UNL     1      13.692  35.889  20.084  1.00  0.00     0.000 C 
ENDROOT
BRANCH   1   2
ATOM      2  C   UNL     1      12.909  36.590  18.959  1.00  0.00     0.000 C 
BRANCH   2   3
ATOM      3  C   UNL     1      11.448  36.881  19.343  1.00  0.00     0.000 C 
BRANCH   3   4
ATOM      4  C   UNL     1      10.572  35.617  19.321  1.00  0.00     0.000 C 
BRANCH   4   5
ATOM      5  C   UNL     1       9.911  35.338  20.683  1.00  0.00     0.000 C 
BRANCH   5   6
ATOM      6  C   UNL     1      10.442  36.254  21.801  1.00  0.00     0.006 C 
BRANCH   6   7
ATOM      7  C   UNL     1      11.255  35.527  22.884  1.00  0.00     0.053 C 
BRANCH   7   8
ATOM      8  C   UNL     1      11.395  36.348  24.129  1.00  0.00     0.041 C 
ATOM      9  O   UNL     1      10.405  36.518  24.890  1.00  0.00    -0.550 OA
ATOM     10  O   UNL     1      12.625  36.897  24.466  1.00  0.00    -0.550 OA
ENDBRANCH   7   8
ENDBRANCH   6   7
ENDBRANCH   5   6
ENDBRANCH   4   5
ENDBRANCH   3   4
ENDBRANCH   2   3
ENDBRANCH   1   2
BRANCH   1  11
ATOM     11  C   UNL     1      14.096  34.439  19.746  1.00  0.00     0.000 C 
BRANCH  11  12
ATOM     12  C   UNL     1      14.849  33.762  20.905  1.00  0.00    -0.000 C 
BRANCH  12  13
ATOM     13  C   UNL     1      15.763  32.623  20.429  1.00  0.00    -0.000 C 
BRANCH  13  14
ATOM     14  C   UNL     1      17.215  32.791  20.908  1.00  0.00    -0.000 C 
BRANCH  14  15
ATOM     15  C   UNL     1      17.672  31.651  21.832  1.00  0.00    -0.000 C 
BRANCH  15  16
ATOM     16  C   UNL     1      16.528  30.824  22.451  1.00  0.00    -0.000 C 
BRANCH  16  17
ATOM     17  C   UNL     1      16.708  30.542  23.957  1.00  0.00    -0.003 C 
ATOM     18  C   UNL     1      17.930  31.250  24.544  1.00  0.00     0.004 C 
ENDBRANCH  16  17
ENDBRANCH  15  16
ENDBRANCH  14  15
ENDBRANCH  13  14
ENDBRANCH  12  13
ENDBRANCH  11  12
ENDBRANCH   1  11
TORSDOF 14
ENDMDL
MODEL 6
REMARK VINA RESULT:    -3.844      2.210      3.941
REMARK INTER + INTRA:          -8.784
REMARK INTER:                  -6.824
REMARK INTRA:                  -1.960
REMARK UNBOUND:                -1.793
REMARK SMILES CCCCCCCCCCCCCCCC(=O)[O-]
REMARK SMILES IDX 9 1 10 2 11 3 12 4 13 5 14 6 15 7 16 8 17 9 18 10 8 11 7 12
REMARK SMILES IDX 6 13 5 14 4 15 3 16 2 17 1 18
REMARK H PARENT
REMARK Flexibility Score: inf
ROOT
ATOM      1  C   UNL     1      10.808  35.774  22.067  1.00  0.00     0.000 C 
ENDROOT
BRANCH   1   2
ATOM      2  C   UNL     1       9.848  36.388  21.033  1.00  0.00     0.000 C 
BRANCH   2   3
ATOM      3  C   UNL     1       8.881  35.355  20.431  1.00  0.00     0.000 C 
BRANCH   3   4
ATOM      4  C   UNL     1       9.535  34.513  19.322  1.00  0.00     0.000 C 
BRANCH   4   5
ATOM      5  C   UNL     1       9.670  33.030  19.713  1.00  0.00     0.000 C 
BRANCH   5   6
ATOM      6  C   UNL     1      11.131  32.544  19.709  1.00  0.00     0.006 C 
BRANCH   6   7
ATOM      7  C   UNL     1      11.732  32.330  21.108  1.00  0.00     0.053 C 
BRANCH   7   8
ATOM      8  C   UNL     1      12.630  31.133  21.157  1.00  0.00     0.041 C 
ATOM      9  O   UNL     1      13.175  30.706  20.104  1.00  0.00    -0.550 OA
ATOM     10  O   UNL     1      12.895  30.511  22.369  1.00  0.00    -0.550 OA
ENDBRANCH   7   8
ENDBRANCH   6   7
ENDBRANCH   5   6
ENDBRANCH   4   5
ENDBRANCH   3   4
ENDBRANCH   2   3
ENDBRANCH   1   2
BRANCH   1  11
ATOM     11  C   UNL     1      12.298  36.012  21.745  1.00  0.00     0.000 C 
BRANCH  11  12
ATOM     12  C   UNL     1      12.534  36.269  20.247  1.00  0.00    -0.000 C 
BRANCH  12  13
ATOM     13  C   UNL     1      13.597  35.336  19.648  1.00  0.00    -0.000 C 
BRANCH  13  14
ATOM     14  C   UNL     1      14.384  34.569  20.725  1.00  0.00    -0.000 C 
BRANCH  14  15
ATOM     15  C   UNL     1      15.447  33.632  20.130  1.00  0.00    -0.000 C 
BRANCH  15  16
ATOM     16  C   UNL     1      16.006  32.585  21.112  1.00  0.00    -0.000 C 
BRANCH  16  17
ATOM     17  C   UNL     1      17.543  32.455  21.075  1.00  0.00    -0.003 C 
ATOM     18  C   UNL     1      18.077  31.492  22.136  1.00  0.00     0.004 C 
ENDBRANCH  16  17
ENDBRANCH  15  16
ENDBRANCH  14  15
ENDBRANCH  13  14
ENDBRANCH  12  13
ENDBRANCH  11  12
ENDBRANCH   1  11
TORSDOF 14
ENDMDL
MODEL 7
REMARK VINA RESULT:    -3.833      2.708      6.754
REMARK INTER + INTRA:          -8.764
REMARK INTER:                  -7.081
REMARK INTRA:                  -1.683
REMARK UNBOUND:                -1.793
REMARK SMILES CCCCCCCCCCCCCCCC(=O)[O-]
REMARK SMILES IDX 9 1 10 2 11 3 12 4 13 5 14 6 15 7 16 8 17 9 18 10 8 11 7 12
REMARK SMILES IDX 6 13 5 14 4 15 3 16 2 17 1 18
REMARK H PARENT
REMARK Flexibility Score: inf
ROOT
ATOM      1  C   UNL     1      13.169  35.818  20.618  1.00  0.00     0.000 C 
ENDROOT
BRANCH   1   2
ATOM      2  C   UNL     1      13.928  34.479  20.586  1.00  0.00     0.000 C 
BRANCH   2   3
ATOM      3  C   UNL     1      13.260  33.438  19.673  1.00  0.00     0.000 C 
BRANCH   3   4
ATOM      4  C   UNL     1      12.740  32.219  20.453  1.00  0.00     0.000 C 
BRANCH   4   5
ATOM      5  C   UNL     1      13.286  32.165  21.891  1.00  0.00     0.000 C 
BRANCH   5   6
ATOM      6  C   UNL     1      14.172  30.932  22.146  1.00  0.00     0.006 C 
BRANCH   6   7
ATOM      7  C   UNL     1      15.614  31.069  21.631  1.00  0.00     0.053 C 
BRANCH   7   8
ATOM      8  C   UNL     1      16.602  31.189  22.751  1.00  0.00     0.041 C 
ATOM      9  O   UNL     1      16.296  30.802  23.910  1.00  0.00    -0.550 OA
ATOM     10  O   UNL     1      17.871  31.695  22.507  1.00  0.00    -0.550 OA
ENDBRANCH   7   8
ENDBRANCH   6   7
ENDBRANCH   5   6
ENDBRANCH   4   5
ENDBRANCH   3   4
ENDBRANCH   2   3
ENDBRANCH   1   2
BRANCH   1  11
ATOM     11  C   UNL     1      12.496  36.117  21.974  1.00  0.00     0.000 C 
BRANCH  11  12
ATOM     12  C   UNL     1      11.144  35.398  22.121  1.00  0.00    -0.000 C 
BRANCH  12  13
ATOM     13  C   UNL     1       9.954  36.299  21.759  1.00  0.00    -0.000 C 
BRANCH  13  14
ATOM     14  C   UNL     1       9.242  35.849  20.471  1.00  0.00    -0.000 C 
BRANCH  14  15
ATOM     15  C   UNL     1       9.711  34.467  19.985  1.00  0.00    -0.000 C 
BRANCH  15  16
ATOM     16  C   UNL     1       8.596  33.409  19.879  1.00  0.00    -0.000 C 
BRANCH  16  17
ATOM     17  C   UNL     1       7.174  33.984  20.049  1.00  0.00    -0.003 C 
ATOM     18  C   UNL     1       6.156  32.920  20.460  1.00  0.00     0.004 C 
ENDBRANCH  16  17
ENDBRANCH  15  16
ENDBRANCH  14  15
ENDBRANCH  13  14
ENDBRANCH  12  13
ENDBRANCH  11  12
ENDBRANCH   1  11
TORSDOF 14
ENDMDL
MODEL 8
REMARK VINA RESULT:    -3.817      2.478      3.401
REMARK INTER + INTRA:          -8.733
REMARK INTER:                  -7.761
REMARK INTRA:                  -0.972
REMARK UNBOUND:                -1.793
REMARK SMILES CCCCCCCCCCCCCCCC(=O)[O-]
REMARK SMILES IDX 9 1 10 2 11 3 12 4 13 5 14 6 15 7 16 8 17 9 18 10 8 11 7 12
REMARK SMILES IDX 6 13 5 14 4 15 3 16 2 17 1 18
REMARK H PARENT
REMARK Flexibility Score: inf
ROOT
ATOM      1  C   UNL     1      13.000  35.824  20.985  1.00  0.00     0.000 C 
ENDROOT
BRANCH   1   2
ATOM      2  C   UNL     1      12.231  35.937  22.314  1.00  0.00     0.000 C 
BRANCH   2   3
ATOM      3  C   UNL     1      10.781  35.437  22.206  1.00  0.00     0.000 C 
BRANCH   3   4
ATOM      4  C   UNL     1       9.838  36.494  21.607  1.00  0.00     0.000 C 
BRANCH   4   5
ATOM      5  C   UNL     1       9.427  36.162  20.161  1.00  0.00     0.000 C 
BRANCH   5   6
ATOM      6  C   UNL     1       8.912  34.719  20.006  1.00  0.00     0.006 C 
BRANCH   6   7
ATOM      7  C   UNL     1       7.384  34.577  20.092  1.00  0.00     0.053 C 
BRANCH   7   8
ATOM      8  C   UNL     1       6.954  33.143  20.141  1.00  0.00     0.041 C 
ATOM      9  O   UNL     1       5.747  32.850  20.350  1.00  0.00    -0.550 OA
ATOM     10  O   UNL     1       7.880  32.131  19.920  1.00  0.00    -0.550 OA
ENDBRANCH   7   8
ENDBRANCH   6   7
ENDBRANCH   5   6
ENDBRANCH   4   5
ENDBRANCH   3   4
ENDBRANCH   2   3
ENDBRANCH   1   2
BRANCH   1  11
ATOM     11  C   UNL     1      13.249  34.369  20.536  1.00  0.00     0.000 C 
BRANCH  11  12
ATOM     12  C   UNL     1      14.569  34.221  19.759  1.00  0.00    -0.000 C 
BRANCH  12  13
ATOM     13  C   UNL     1      15.550  33.254  20.440  1.00  0.00    -0.000 C 
BRANCH  13  14
ATOM     14  C   UNL     1      14.860  32.342  21.470  1.00  0.00    -0.000 C 
BRANCH  14  15
ATOM     15  C   UNL     1      15.842  31.392  22.174  1.00  0.00    -0.000 C 
BRANCH  15  16
ATOM     16  C   UNL     1      17.329  31.766  22.014  1.00  0.00    -0.000 C 
BRANCH  16  17
ATOM     17  C   UNL     1      18.248  31.133  23.079  1.00  0.00    -0.003 C 
ATOM     18  C   UNL     1      17.594  31.078  24.460  1.00  0.00     0.004 C 
ENDBRANCH  16  17
ENDBRANCH  15  16
ENDBRANCH  14  15
ENDBRANCH  13  14
ENDBRANCH  12  13
ENDBRANCH  11  12
ENDBRANCH   1  11
TORSDOF 14
ENDMDL
