MODEL 1
REMARK VINA RESULT:    -4.122      0.000      0.000
REMARK INTER + INTRA:         -11.492
REMARK INTER:                  -9.423
REMARK INTRA:                  -2.070
REMARK UNBOUND:                -2.070
REMARK SMILES CCCCCCCCCCCCCCCCCCCCCCCC(=O)[O-]
REMARK SMILES IDX 13 1 14 2 15 3 16 4 17 5 18 6 19 7 20 8 21 9 22 10 23 11
REMARK SMILES IDX 24 12 25 13 26 14 12 15 11 16 10 17 9 18 8 19 7 20 6 21 5 22
REMARK SMILES IDX 4 23 3 24 2 25 1 26
REMARK H PARENT
REMARK Flexibility Score: inf
ROOT
ATOM      1  C   UNL     1      -7.851  -9.106   0.480  1.00  0.00     0.000 C 
ENDROOT
BRANCH   1   2
ATOM      2  C   UNL     1      -6.955 -10.151  -0.207  1.00  0.00     0.000 C 
BRANCH   2   3
ATOM      3  C   UNL     1      -6.188 -11.024   0.801  1.00  0.00     0.000 C 
BRANCH   3   4
ATOM      4  C   UNL     1      -5.017 -11.792   0.159  1.00  0.00     0.000 C 
BRANCH   4   5
ATOM      5  C   UNL     1      -5.050 -13.324   0.346  1.00  0.00     0.000 C 
BRANCH   5   6
ATOM      6  C   UNL     1      -6.421 -13.988   0.123  1.00  0.00     0.000 C 
BRANCH   6   7
ATOM      7  C   UNL     1      -6.795 -14.980   1.235  1.00  0.00     0.000 C 
BRANCH   7   8
ATOM      8  C   UNL     1      -5.563 -15.612   1.910  1.00  0.00     0.000 C 
BRANCH   8   9
ATOM      9  C   UNL     1      -5.530 -17.152   1.911  1.00  0.00     0.000 C 
BRANCH   9  10
ATOM     10  C   UNL     1      -5.801 -17.818   0.548  1.00  0.00     0.006 C 
BRANCH  10  11
ATOM     11  C   UNL     1      -6.726 -19.046   0.626  1.00  0.00     0.053 C 
BRANCH  11  12
ATOM     12  C   UNL     1      -6.708 -19.860  -0.632  1.00  0.00     0.041 C 
ATOM     13  O   UNL     1      -5.831 -19.649  -1.510  1.00  0.00    -0.550 OA
ATOM     14  O   UNL     1      -7.636 -20.877  -0.821  1.00  0.00    -0.550 OA
ENDBRANCH  11  12
ENDBRANCH  10  11
ENDBRANCH   9  10
ENDBRANCH   8   9
ENDBRANCH   7   8
ENDBRANCH   6   7
ENDBRANCH   5   6
ENDBRANCH   4   5
ENDBRANCH   3   4
ENDBRANCH   2   3
ENDBRANCH   1   2
BRANCH   1  15
ATOM     15  C   UNL     1      -7.841  -7.748  -0.238  1.00  0.00     0.000 C 
BRANCH  15  16
ATOM     16  C   UNL     1      -6.425  -7.153  -0.257  1.00  0.00     0.000 C 
BRANCH  16  17
ATOM     17  C   UNL     1      -6.127  -6.290   0.980  1.00  0.00     0.000 C 
BRANCH  17  18
ATOM     18  C   UNL     1      -5.407  -4.979   0.629  1.00  0.00    -0.000 C 
BRANCH  18  19
ATOM     19  C   UNL     1      -6.020  -3.797   1.388  1.00  0.00    -0.000 C 
BRANCH  19  20
ATOM     20  C   UNL     1      -6.476  -4.221   2.793  1.00  0.00    -0.000 C 
BRANCH  20  21
ATOM     21  C   UNL     1      -7.948  -3.871   3.076  1.00  0.00    -0.000 C 
BRANCH  21  22
ATOM     22  C   UNL     1      -8.907  -5.074   3.105  1.00  0.00    -0.000 C 
BRANCH  22  23
ATOM     23  C   UNL     1      -9.788  -5.167   1.847  1.00  0.00    -0.000 C 
BRANCH  23  24
ATOM     24  C   UNL     1     -10.617  -6.460   1.799  1.00  0.00    -0.000 C 
BRANCH  24  25
ATOM     25  C   UNL     1     -11.301  -6.670   0.440  1.00  0.00    -0.003 C 
ATOM     26  C   UNL     1     -11.630  -5.335  -0.221  1.00  0.00     0.004 C 
ENDBRANCH  24  25
ENDBRANCH  23  24
ENDBRANCH  22  23
ENDBRANCH  21  22
ENDBRANCH  20  21
ENDBRANCH  19  20
ENDBRANCH  18  19
ENDBRANCH  17  18
ENDBRANCH  16  17
ENDBRANCH  15  16
ENDBRANCH   1  15
TORSDOF 22
ENDMDL
MODEL 2
REMARK VINA RESULT:    -3.898      3.907     10.742
REMARK INTER + INTRA:         -10.981
REMARK INTER:                  -8.836
REMARK INTRA:                  -2.145
REMARK UNBOUND:                -2.070
REMARK SMILES CCCCCCCCCCCCCCCCCCCCCCCC(=O)[O-]
REMARK SMILES IDX 13 1 14 2 15 3 16 4 17 5 18 6 19 7 20 8 21 9 22 10 23 11
REMARK SMILES IDX 24 12 25 13 26 14 12 15 11 16 10 17 9 18 8 19 7 20 6 21 5 22
REMARK SMILES IDX 4 23 3 24 2 25 1 26
REMARK H PARENT
REMARK Flexibility Score: inf
ROOT
ATOM      1  C   UNL     1      -6.923  -7.702  -0.231  1.00  0.00     0.000 C 
ENDROOT
BRANCH   1   2
ATOM      2  C   UNL     1      -6.513  -6.546   0.697  1.00  0.00     0.000 C 
BRANCH   2   3
ATOM      3  C   UNL     1      -6.317  -7.000   2.154  1.00  0.00     0.000 C 
BRANCH   3   4
ATOM      4  C   UNL     1      -5.313  -6.123   2.925  1.00  0.00     0.000 C 
BRANCH   4   5
ATOM      5  C   UNL     1      -5.038  -4.735   2.308  1.00  0.00     0.000 C 
BRANCH   5   6
ATOM      6  C   UNL     1      -5.694  -3.547   3.036  1.00  0.00     0.000 C 
BRANCH   6   7
ATOM      7  C   UNL     1      -6.770  -2.846   2.190  1.00  0.00     0.000 C 
BRANCH   7   8
ATOM      8  C   UNL     1      -8.174  -2.938   2.816  1.00  0.00     0.000 C 
BRANCH   8   9
ATOM      9  C   UNL     1      -8.720  -4.366   3.003  1.00  0.00     0.000 C 
BRANCH   9  10
ATOM     10  C   UNL     1      -9.754  -4.820   1.954  1.00  0.00     0.006 C 
BRANCH  10  11
ATOM     11  C   UNL     1     -10.004  -6.339   1.939  1.00  0.00     0.053 C 
BRANCH  11  12
ATOM     12  C   UNL     1     -10.579  -6.815   0.640  1.00  0.00     0.041 C 
ATOM     13  O   UNL     1     -11.507  -6.172   0.085  1.00  0.00    -0.550 OA
ATOM     14  O   UNL     1     -10.066  -7.948   0.021  1.00  0.00    -0.550 OA
ENDBRANCH  11  12
ENDBRANCH  10  11
ENDBRANCH   9  10
ENDBRANCH   8   9
ENDBRANCH   7   8
ENDBRANCH   6   7
ENDBRANCH   5   6
ENDBRANCH   4   5
ENDBRANCH   3   4
ENDBRANCH   2   3
ENDBRANCH   1   2
BRANCH   1  15
ATOM     15  C   UNL     1      -6.147  -8.997   0.051  1.00  0.00     0.000 C 
BRANCH  15  16
ATOM     16  C   UNL     1      -6.914 -10.218  -0.479  1.00  0.00     0.000 C 
BRANCH  16  17
ATOM     17  C   UNL     1      -6.542 -11.517   0.254  1.00  0.00     0.000 C 
BRANCH  17  18
ATOM     18  C   UNL     1      -5.087 -11.943   0.004  1.00  0.00    -0.000 C 
BRANCH  18  19
ATOM     19  C   UNL     1      -4.945 -13.469   0.055  1.00  0.00    -0.000 C 
BRANCH  19  20
ATOM     20  C   UNL     1      -6.273 -14.131   0.453  1.00  0.00    -0.000 C 
BRANCH  20  21
ATOM     21  C   UNL     1      -6.128 -15.101   1.640  1.00  0.00    -0.000 C 
BRANCH  21  22
ATOM     22  C   UNL     1      -5.054 -16.189   1.461  1.00  0.00    -0.000 C 
BRANCH  22  23
ATOM     23  C   UNL     1      -5.456 -17.262   0.435  1.00  0.00    -0.000 C 
BRANCH  23  24
ATOM     24  C   UNL     1      -6.787 -17.945   0.784  1.00  0.00    -0.000 C 
BRANCH  24  25
ATOM     25  C   UNL     1      -6.959 -19.296   0.074  1.00  0.00    -0.003 C 
ATOM     26  C   UNL     1      -5.653 -19.746  -0.574  1.00  0.00     0.004 C 
ENDBRANCH  24  25
ENDBRANCH  23  24
ENDBRANCH  22  23
ENDBRANCH  21  22
ENDBRANCH  20  21
ENDBRANCH  19  20
ENDBRANCH  18  19
ENDBRANCH  17  18
ENDBRANCH  16  17
ENDBRANCH  15  16
ENDBRANCH   1  15
TORSDOF 22
ENDMDL
MODEL 3
REMARK VINA RESULT:    -3.770      4.193     11.178
REMARK INTER + INTRA:         -10.688
REMARK INTER:                  -8.533
REMARK INTRA:                  -2.155
REMARK UNBOUND:                -2.070
REMARK SMILES CCCCCCCCCCCCCCCCCCCCCCCC(=O)[O-]
REMARK SMILES IDX 13 1 14 2 15 3 16 4 17 5 18 6 19 7 20 8 21 9 22 10 23 11
REMARK SMILES IDX 24 12 25 13 26 14 12 15 11 16 10 17 9 18 8 19 7 20 6 21 5 22
REMARK SMILES IDX 4 23 3 24 2 25 1 26
REMARK H PARENT
REMARK Flexibility Score: inf
ROOT
ATOM      1  C   UNL     1      -6.880 -10.379  -0.598  1.00  0.00     0.000 C 
ENDROOT
BRANCH   1   2
ATOM      2  C   UNL     1      -7.242  -8.965  -0.113  1.00  0.00     0.000 C 
BRANCH   2   3
ATOM      3  C   UNL     1      -8.390  -8.968   0.911  1.00  0.00     0.000 C 
BRANCH   3   4
ATOM      4  C   UNL     1      -7.899  -9.122   2.362  1.00  0.00     0.000 C 
BRANCH   4   5
ATOM      5  C   UNL     1      -6.534  -8.469   2.671  1.00  0.00     0.000 C 
BRANCH   5   6
ATOM      6  C   UNL     1      -6.593  -6.999   3.124  1.00  0.00     0.000 C 
BRANCH   6   7
ATOM      7  C   UNL     1      -6.245  -6.010   2.000  1.00  0.00     0.000 C 
BRANCH   7   8
ATOM      8  C   UNL     1      -7.199  -4.802   1.950  1.00  0.00     0.000 C 
BRANCH   8   9
ATOM      9  C   UNL     1      -8.500  -4.957   2.761  1.00  0.00     0.000 C 
BRANCH   9  10
ATOM     10  C   UNL     1      -9.796  -4.983   1.929  1.00  0.00     0.006 C 
BRANCH  10  11
ATOM     11  C   UNL     1     -10.669  -6.228   2.172  1.00  0.00     0.053 C 
BRANCH  11  12
ATOM     12  C   UNL     1     -11.517  -6.576   0.987  1.00  0.00     0.041 C 
ATOM     13  O   UNL     1     -12.772  -6.529   1.070  1.00  0.00    -0.550 OA
ATOM     14  O   UNL     1     -10.923  -6.919  -0.221  1.00  0.00    -0.550 OA
ENDBRANCH  11  12
ENDBRANCH  10  11
ENDBRANCH   9  10
ENDBRANCH   8   9
ENDBRANCH   7   8
ENDBRANCH   6   7
ENDBRANCH   5   6
ENDBRANCH   4   5
ENDBRANCH   3   4
ENDBRANCH   2   3
ENDBRANCH   1   2
BRANCH   1  15
ATOM     15  C   UNL     1      -5.626 -10.942   0.087  1.00  0.00     0.000 C 
BRANCH  15  16
ATOM     16  C   UNL     1      -5.981 -12.151   0.966  1.00  0.00     0.000 C 
BRANCH  16  17
ATOM     17  C   UNL     1      -6.123 -13.451   0.159  1.00  0.00     0.000 C 
BRANCH  17  18
ATOM     18  C   UNL     1      -5.285 -14.602   0.736  1.00  0.00    -0.000 C 
BRANCH  18  19
ATOM     19  C   UNL     1      -6.172 -15.800   1.095  1.00  0.00    -0.000 C 
BRANCH  19  20
ATOM     20  C   UNL     1      -6.190 -16.036   2.613  1.00  0.00    -0.000 C 
BRANCH  20  21
ATOM     21  C   UNL     1      -5.744 -17.457   3.005  1.00  0.00    -0.000 C 
BRANCH  21  22
ATOM     22  C   UNL     1      -5.856 -18.504   1.883  1.00  0.00    -0.000 C 
BRANCH  22  23
ATOM     23  C   UNL     1      -6.460 -19.834   2.365  1.00  0.00    -0.000 C 
BRANCH  23  24
ATOM     24  C   UNL     1      -6.354 -20.948   1.312  1.00  0.00    -0.000 C 
BRANCH  24  25
ATOM     25  C   UNL     1      -6.179 -20.397  -0.111  1.00  0.00    -0.003 C 
ATOM     26  C   UNL     1      -7.499 -20.424  -0.876  1.00  0.00     0.004 C 
ENDBRANCH  24  25
ENDBRANCH  23  24
ENDBRANCH  22  23
ENDBRANCH  21  22
ENDBRANCH  20  21
ENDBRANCH  19  20
ENDBRANCH  18  19
ENDBRANCH  17  18
ENDBRANCH  16  17
ENDBRANCH  15  16
ENDBRANCH   1  15
TORSDOF 22
ENDMDL
MODEL 4
REMARK VINA RESULT:    -3.740      1.219      3.222
REMARK INTER + INTRA:         -10.621
REMARK INTER:                  -9.169
REMARK INTRA:                  -1.452
REMARK UNBOUND:                -2.070
REMARK SMILES CCCCCCCCCCCCCCCCCCCCCCCC(=O)[O-]
REMARK SMILES IDX 13 1 14 2 15 3 16 4 17 5 18 6 19 7 20 8 21 9 22 10 23 11
REMARK SMILES IDX 24 12 25 13 26 14 12 15 11 16 10 17 9 18 8 19 7 20 6 21 5 22
REMARK SMILES IDX 4 23 3 24 2 25 1 26
REMARK H PARENT
REMARK Flexibility Score: inf
ROOT
ATOM      1  C   UNL     1      -6.738 -10.117  -0.606  1.00  0.00     0.000 C 
ENDROOT
BRANCH   1   2
ATOM      2  C   UNL     1      -6.378 -11.406   0.153  1.00  0.00     0.000 C 
BRANCH   2   3
ATOM      3  C   UNL     1      -6.022 -11.142   1.627  1.00  0.00     0.000 C 
BRANCH   3   4
ATOM      4  C   UNL     1      -7.037 -11.758   2.607  1.00  0.00     0.000 C 
BRANCH   4   5
ATOM      5  C   UNL     1      -6.794 -13.240   2.967  1.00  0.00     0.000 C 
BRANCH   5   6
ATOM      6  C   UNL     1      -6.393 -14.148   1.791  1.00  0.00     0.000 C 
BRANCH   6   7
ATOM      7  C   UNL     1      -5.461 -15.297   2.211  1.00  0.00     0.000 C 
BRANCH   7   8
ATOM      8  C   UNL     1      -6.167 -16.665   2.220  1.00  0.00     0.000 C 
BRANCH   8   9
ATOM      9  C   UNL     1      -6.373 -17.308   0.835  1.00  0.00     0.000 C 
BRANCH   9  10
ATOM     10  C   UNL     1      -6.021 -18.806   0.744  1.00  0.00     0.006 C 
BRANCH  10  11
ATOM     11  C   UNL     1      -5.529 -19.248  -0.646  1.00  0.00     0.053 C 
BRANCH  11  12
ATOM     12  C   UNL     1      -6.481 -20.189  -1.320  1.00  0.00     0.041 C 
ATOM     13  O   UNL     1      -6.145 -20.777  -2.381  1.00  0.00    -0.550 OA
ATOM     14  O   UNL     1      -7.726 -20.444  -0.760  1.00  0.00    -0.550 OA
ENDBRANCH  11  12
ENDBRANCH  10  11
ENDBRANCH   9  10
ENDBRANCH   8   9
ENDBRANCH   7   8
ENDBRANCH   6   7
ENDBRANCH   5   6
ENDBRANCH   4   5
ENDBRANCH   3   4
ENDBRANCH   2   3
ENDBRANCH   1   2
BRANCH   1  15
ATOM     15  C   UNL     1      -6.948  -8.915   0.326  1.00  0.00     0.000 C 
BRANCH  15  16
ATOM     16  C   UNL     1      -8.003  -7.958  -0.249  1.00  0.00     0.000 C 
BRANCH  16  17
ATOM     17  C   UNL     1      -9.441  -8.387   0.086  1.00  0.00     0.000 C 
BRANCH  17  18
ATOM     18  C   UNL     1     -10.354  -7.197   0.413  1.00  0.00    -0.000 C 
BRANCH  18  19
ATOM     19  C   UNL     1      -9.543  -6.019   0.966  1.00  0.00    -0.000 C 
BRANCH  19  20
ATOM     20  C   UNL     1      -9.565  -6.008   2.503  1.00  0.00    -0.000 C 
BRANCH  20  21
ATOM     21  C   UNL     1      -8.196  -6.336   3.125  1.00  0.00    -0.000 C 
BRANCH  21  22
ATOM     22  C   UNL     1      -6.984  -5.793   2.348  1.00  0.00    -0.000 C 
BRANCH  22  23
ATOM     23  C   UNL     1      -6.565  -4.384   2.803  1.00  0.00    -0.000 C 
BRANCH  23  24
ATOM     24  C   UNL     1      -6.183  -3.472   1.626  1.00  0.00    -0.000 C 
BRANCH  24  25
ATOM     25  C   UNL     1      -4.915  -3.948   0.901  1.00  0.00    -0.003 C 
ATOM     26  C   UNL     1      -5.046  -3.768  -0.608  1.00  0.00     0.004 C 
ENDBRANCH  24  25
ENDBRANCH  23  24
ENDBRANCH  22  23
ENDBRANCH  21  22
ENDBRANCH  20  21
ENDBRANCH  19  20
ENDBRANCH  18  19
ENDBRANCH  17  18
ENDBRANCH  16  17
ENDBRANCH  15  16
ENDBRANCH   1  15
TORSDOF 22
ENDMDL
MODEL 5
REMARK VINA RESULT:    -3.532     19.973     22.653
REMARK INTER + INTRA:         -10.143
REMARK INTER:                  -6.468
REMARK INTRA:                  -3.675
REMARK UNBOUND:                -2.070
REMARK SMILES CCCCCCCCCCCCCCCCCCCCCCCC(=O)[O-]
REMARK SMILES IDX 13 1 14 2 15 3 16 4 17 5 18 6 19 7 20 8 21 9 22 10 23 11
REMARK SMILES IDX 24 12 25 13 26 14 12 15 11 16 10 17 9 18 8 19 7 20 6 21 5 22
REMARK SMILES IDX 4 23 3 24 2 25 1 26
REMARK H PARENT
REMARK Flexibility Score: inf
ROOT
ATOM      1  C   UNL     1     -20.474  -5.531 -13.907  1.00  0.00     0.000 C 
ENDROOT
BRANCH   1   2
ATOM      2  C   UNL     1     -19.882  -5.781 -15.304  1.00  0.00     0.000 C 
BRANCH   2   3
ATOM      3  C   UNL     1     -20.779  -5.242 -16.431  1.00  0.00     0.000 C 
BRANCH   3   4
ATOM      4  C   UNL     1     -21.704  -6.319 -17.028  1.00  0.00     0.000 C 
BRANCH   4   5
ATOM      5  C   UNL     1     -22.939  -6.677 -16.174  1.00  0.00     0.000 C 
BRANCH   5   6
ATOM      6  C   UNL     1     -24.166  -7.173 -16.962  1.00  0.00     0.000 C 
BRANCH   6   7
ATOM      7  C   UNL     1     -24.465  -8.663 -16.731  1.00  0.00     0.000 C 
BRANCH   7   8
ATOM      8  C   UNL     1     -23.196  -9.536 -16.746  1.00  0.00     0.000 C 
BRANCH   8   9
ATOM      9  C   UNL     1     -23.111 -10.593 -15.629  1.00  0.00     0.000 C 
BRANCH   9  10
ATOM     10  C   UNL     1     -21.845 -10.526 -14.752  1.00  0.00     0.006 C 
BRANCH  10  11
ATOM     11  C   UNL     1     -21.371  -9.093 -14.449  1.00  0.00     0.053 C 
BRANCH  11  12
ATOM     12  C   UNL     1     -20.311  -9.049 -13.391  1.00  0.00     0.041 C 
ATOM     13  O   UNL     1     -19.107  -9.253 -13.693  1.00  0.00    -0.550 OA
ATOM     14  O   UNL     1     -20.647  -8.750 -12.076  1.00  0.00    -0.550 OA
ENDBRANCH  11  12
ENDBRANCH  10  11
ENDBRANCH   9  10
ENDBRANCH   8   9
ENDBRANCH   7   8
ENDBRANCH   6   7
ENDBRANCH   5   6
ENDBRANCH   4   5
ENDBRANCH   3   4
ENDBRANCH   2   3
ENDBRANCH   1   2
BRANCH   1  15
ATOM     15  C   UNL     1     -19.877  -4.296 -13.218  1.00  0.00     0.000 C 
BRANCH  15  16
ATOM     16  C   UNL     1     -20.985  -3.324 -12.784  1.00  0.00     0.000 C 
BRANCH  16  17
ATOM     17  C   UNL     1     -22.264  -4.047 -12.330  1.00  0.00     0.000 C 
BRANCH  17  18
ATOM     18  C   UNL     1     -23.478  -3.109 -12.251  1.00  0.00    -0.000 C 
BRANCH  18  19
ATOM     19  C   UNL     1     -24.742  -3.804 -12.772  1.00  0.00    -0.000 C 
BRANCH  19  20
ATOM     20  C   UNL     1     -24.551  -4.277 -14.222  1.00  0.00    -0.000 C 
BRANCH  20  21
ATOM     21  C   UNL     1     -24.660  -3.132 -15.246  1.00  0.00    -0.000 C 
BRANCH  21  22
ATOM     22  C   UNL     1     -23.351  -2.792 -15.980  1.00  0.00    -0.000 C 
BRANCH  22  23
ATOM     23  C   UNL     1     -22.728  -1.467 -15.508  1.00  0.00    -0.000 C 
BRANCH  23  24
ATOM     24  C   UNL     1     -21.518  -1.047 -16.357  1.00  0.00    -0.000 C 
BRANCH  24  25
ATOM     25  C   UNL     1     -20.220  -0.980 -15.539  1.00  0.00    -0.003 C 
ATOM     26  C   UNL     1     -19.189  -1.976 -16.063  1.00  0.00     0.004 C 
ENDBRANCH  24  25
ENDBRANCH  23  24
ENDBRANCH  22  23
ENDBRANCH  21  22
ENDBRANCH  20  21
ENDBRANCH  19  20
ENDBRANCH  18  19
ENDBRANCH  17  18
ENDBRANCH  16  17
ENDBRANCH  15  16
ENDBRANCH   1  15
TORSDOF 22
ENDMDL
MODEL 6
REMARK VINA RESULT:    -3.475     19.570     22.496
REMARK INTER + INTRA:         -10.014
REMARK INTER:                  -6.330
REMARK INTRA:                  -3.684
REMARK UNBOUND:                -2.070
REMARK SMILES CCCCCCCCCCCCCCCCCCCCCCCC(=O)[O-]
REMARK SMILES IDX 13 1 14 2 15 3 16 4 17 5 18 6 19 7 20 8 21 9 22 10 23 11
REMARK SMILES IDX 24 12 25 13 26 14 12 15 11 16 10 17 9 18 8 19 7 20 6 21 5 22
REMARK SMILES IDX 4 23 3 24 2 25 1 26
REMARK H PARENT
REMARK Flexibility Score: inf
ROOT
ATOM      1  C   UNL     1     -19.890  -4.042 -14.568  1.00  0.00     0.000 C 
ENDROOT
BRANCH   1   2
ATOM      2  C   UNL     1     -20.559  -5.405 -14.818  1.00  0.00     0.000 C 
BRANCH   2   3
ATOM      3  C   UNL     1     -20.337  -5.917 -16.252  1.00  0.00     0.000 C 
BRANCH   3   4
ATOM      4  C   UNL     1     -21.648  -6.311 -16.957  1.00  0.00     0.000 C 
BRANCH   4   5
ATOM      5  C   UNL     1     -22.798  -6.744 -16.021  1.00  0.00     0.000 C 
BRANCH   5   6
ATOM      6  C   UNL     1     -24.095  -7.181 -16.727  1.00  0.00     0.000 C 
BRANCH   6   7
ATOM      7  C   UNL     1     -24.409  -8.673 -16.534  1.00  0.00     0.000 C 
BRANCH   7   8
ATOM      8  C   UNL     1     -23.168  -9.570 -16.699  1.00  0.00     0.000 C 
BRANCH   8   9
ATOM      9  C   UNL     1     -23.031 -10.702 -15.663  1.00  0.00     0.000 C 
BRANCH   9  10
ATOM     10  C   UNL     1     -21.828 -10.581 -14.708  1.00  0.00     0.006 C 
BRANCH  10  11
ATOM     11  C   UNL     1     -21.343  -9.135 -14.494  1.00  0.00     0.053 C 
BRANCH  11  12
ATOM     12  C   UNL     1     -20.281  -9.035 -13.442  1.00  0.00     0.041 C 
ATOM     13  O   UNL     1     -19.067  -9.135 -13.757  1.00  0.00    -0.550 OA
ATOM     14  O   UNL     1     -20.628  -8.795 -12.119  1.00  0.00    -0.550 OA
ENDBRANCH  11  12
ENDBRANCH  10  11
ENDBRANCH   9  10
ENDBRANCH   8   9
ENDBRANCH   7   8
ENDBRANCH   6   7
ENDBRANCH   5   6
ENDBRANCH   4   5
ENDBRANCH   3   4
ENDBRANCH   2   3
ENDBRANCH   1   2
BRANCH   1  15
ATOM     15  C   UNL     1     -19.804  -3.179 -15.835  1.00  0.00     0.000 C 
BRANCH  15  16
ATOM     16  C   UNL     1     -20.198  -1.725 -15.532  1.00  0.00     0.000 C 
BRANCH  16  17
ATOM     17  C   UNL     1     -21.719  -1.533 -15.419  1.00  0.00     0.000 C 
BRANCH  17  18
ATOM     18  C   UNL     1     -22.477  -2.078 -16.639  1.00  0.00    -0.000 C 
BRANCH  18  19
ATOM     19  C   UNL     1     -23.365  -3.265 -16.248  1.00  0.00    -0.000 C 
BRANCH  19  20
ATOM     20  C   UNL     1     -24.473  -2.828 -15.278  1.00  0.00    -0.000 C 
BRANCH  20  21
ATOM     21  C   UNL     1     -24.758  -3.872 -14.182  1.00  0.00    -0.000 C 
BRANCH  21  22
ATOM     22  C   UNL     1     -23.583  -4.147 -13.227  1.00  0.00    -0.000 C 
BRANCH  22  23
ATOM     23  C   UNL     1     -23.294  -2.970 -12.280  1.00  0.00    -0.000 C 
BRANCH  23  24
ATOM     24  C   UNL     1     -21.828  -2.924 -11.824  1.00  0.00    -0.000 C 
BRANCH  24  25
ATOM     25  C   UNL     1     -21.222  -1.516 -11.931  1.00  0.00    -0.003 C 
ATOM     26  C   UNL     1     -20.462  -1.148 -10.661  1.00  0.00     0.004 C 
ENDBRANCH  24  25
ENDBRANCH  23  24
ENDBRANCH  22  23
ENDBRANCH  21  22
ENDBRANCH  20  21
ENDBRANCH  19  20
ENDBRANCH  18  19
ENDBRANCH  17  18
ENDBRANCH  16  17
ENDBRANCH  15  16
ENDBRANCH   1  15
TORSDOF 22
ENDMDL
MODEL 7
REMARK VINA RESULT:    -3.265     20.536     24.427
REMARK INTER + INTRA:          -9.533
REMARK INTER:                  -5.947
REMARK INTRA:                  -3.586
REMARK UNBOUND:                -2.070
REMARK SMILES CCCCCCCCCCCCCCCCCCCCCCCC(=O)[O-]
REMARK SMILES IDX 13 1 14 2 15 3 16 4 17 5 18 6 19 7 20 8 21 9 22 10 23 11
REMARK SMILES IDX 24 12 25 13 26 14 12 15 11 16 10 17 9 18 8 19 7 20 6 21 5 22
REMARK SMILES IDX 4 23 3 24 2 25 1 26
REMARK H PARENT
REMARK Flexibility Score: inf
ROOT
ATOM      1  C   UNL     1     -21.046  -5.987 -13.573  1.00  0.00     0.000 C 
ENDROOT
BRANCH   1   2
ATOM      2  C   UNL     1     -21.612  -4.591 -13.263  1.00  0.00     0.000 C 
BRANCH   2   3
ATOM      3  C   UNL     1     -20.578  -3.670 -12.594  1.00  0.00     0.000 C 
BRANCH   3   4
ATOM      4  C   UNL     1     -21.176  -2.324 -12.145  1.00  0.00     0.000 C 
BRANCH   4   5
ATOM      5  C   UNL     1     -21.731  -1.436 -13.280  1.00  0.00     0.000 C 
BRANCH   5   6
ATOM      6  C   UNL     1     -20.752  -1.147 -14.433  1.00  0.00     0.000 C 
BRANCH   6   7
ATOM      7  C   UNL     1     -21.365  -1.406 -15.818  1.00  0.00     0.000 C 
BRANCH   7   8
ATOM      8  C   UNL     1     -22.625  -2.289 -15.758  1.00  0.00     0.000 C 
BRANCH   8   9
ATOM      9  C   UNL     1     -23.955  -1.558 -16.027  1.00  0.00     0.000 C 
BRANCH   9  10
ATOM     10  C   UNL     1     -25.121  -1.947 -15.096  1.00  0.00     0.006 C 
BRANCH  10  11
ATOM     11  C   UNL     1     -24.891  -3.257 -14.321  1.00  0.00     0.053 C 
BRANCH  11  12
ATOM     12  C   UNL     1     -24.931  -3.061 -12.836  1.00  0.00     0.041 C 
ATOM     13  O   UNL     1     -24.843  -4.051 -12.065  1.00  0.00    -0.550 OA
ATOM     14  O   UNL     1     -25.031  -1.783 -12.302  1.00  0.00    -0.550 OA
ENDBRANCH  11  12
ENDBRANCH  10  11
ENDBRANCH   9  10
ENDBRANCH   8   9
ENDBRANCH   7   8
ENDBRANCH   6   7
ENDBRANCH   5   6
ENDBRANCH   4   5
ENDBRANCH   3   4
ENDBRANCH   2   3
ENDBRANCH   1   2
BRANCH   1  15
ATOM     15  C   UNL     1     -20.063  -5.983 -14.753  1.00  0.00     0.000 C 
BRANCH  15  16
ATOM     16  C   UNL     1     -20.762  -5.530 -16.043  1.00  0.00     0.000 C 
BRANCH  16  17
ATOM     17  C   UNL     1     -21.864  -6.504 -16.495  1.00  0.00     0.000 C 
BRANCH  17  18
ATOM     18  C   UNL     1     -23.265  -5.876 -16.450  1.00  0.00    -0.000 C 
BRANCH  18  19
ATOM     19  C   UNL     1     -24.336  -6.942 -16.195  1.00  0.00    -0.000 C 
BRANCH  19  20
ATOM     20  C   UNL     1     -24.043  -8.219 -16.998  1.00  0.00    -0.000 C 
BRANCH  20  21
ATOM     21  C   UNL     1     -25.023  -9.365 -16.683  1.00  0.00    -0.000 C 
BRANCH  21  22
ATOM     22  C   UNL     1     -24.459 -10.468 -15.770  1.00  0.00    -0.000 C 
BRANCH  22  23
ATOM     23  C   UNL     1     -23.007 -10.843 -16.112  1.00  0.00    -0.000 C 
BRANCH  23  24
ATOM     24  C   UNL     1     -22.089 -10.835 -14.880  1.00  0.00    -0.000 C 
BRANCH  24  25
ATOM     25  C   UNL     1     -21.495  -9.447 -14.597  1.00  0.00    -0.003 C 
ATOM     26  C   UNL     1     -20.464  -9.510 -13.474  1.00  0.00     0.004 C 
ENDBRANCH  24  25
ENDBRANCH  23  24
ENDBRANCH  22  23
ENDBRANCH  21  22
ENDBRANCH  20  21
ENDBRANCH  19  20
ENDBRANCH  18  19
ENDBRANCH  17  18
ENDBRANCH  16  17
ENDBRANCH  15  16
ENDBRANCH   1  15
TORSDOF 22
ENDMDL
MODEL 8
REMARK VINA RESULT:    -3.222     20.282     23.035
REMARK INTER + INTRA:          -9.435
REMARK INTER:                  -5.929
REMARK INTRA:                  -3.506
REMARK UNBOUND:                -2.070
REMARK SMILES CCCCCCCCCCCCCCCCCCCCCCCC(=O)[O-]
REMARK SMILES IDX 13 1 14 2 15 3 16 4 17 5 18 6 19 7 20 8 21 9 22 10 23 11
REMARK SMILES IDX 24 12 25 13 26 14 12 15 11 16 10 17 9 18 8 19 7 20 6 21 5 22
REMARK SMILES IDX 4 23 3 24 2 25 1 26
REMARK H PARENT
REMARK Flexibility Score: inf
ROOT
ATOM      1  C   UNL     1     -20.348  -7.493 -13.049  1.00  0.00     0.000 C 
ENDROOT
BRANCH   1   2
ATOM      2  C   UNL     1     -19.937  -7.787 -14.502  1.00  0.00     0.000 C 
BRANCH   2   3
ATOM      3  C   UNL     1     -19.421  -6.536 -15.233  1.00  0.00     0.000 C 
BRANCH   3   4
ATOM      4  C   UNL     1     -19.901  -6.456 -16.694  1.00  0.00     0.000 C 
BRANCH   4   5
ATOM      5  C   UNL     1     -20.904  -5.322 -17.001  1.00  0.00     0.000 C 
BRANCH   5   6
ATOM      6  C   UNL     1     -21.792  -4.889 -15.820  1.00  0.00     0.000 C 
BRANCH   6   7
ATOM      7  C   UNL     1     -23.294  -4.969 -16.140  1.00  0.00     0.000 C 
BRANCH   7   8
ATOM      8  C   UNL     1     -23.645  -6.149 -17.064  1.00  0.00     0.000 C 
BRANCH   8   9
ATOM      9  C   UNL     1     -24.694  -7.132 -16.509  1.00  0.00     0.000 C 
BRANCH   9  10
ATOM     10  C   UNL     1     -24.445  -8.617 -16.835  1.00  0.00     0.006 C 
BRANCH  10  11
ATOM     11  C   UNL     1     -23.070  -9.135 -16.377  1.00  0.00     0.053 C 
BRANCH  11  12
ATOM     12  C   UNL     1     -23.164 -10.428 -15.625  1.00  0.00     0.041 C 
ATOM     13  O   UNL     1     -22.134 -10.940 -15.115  1.00  0.00    -0.550 OA
ATOM     14  O   UNL     1     -24.395 -11.051 -15.456  1.00  0.00    -0.550 OA
ENDBRANCH  11  12
ENDBRANCH  10  11
ENDBRANCH   9  10
ENDBRANCH   8   9
ENDBRANCH   7   8
ENDBRANCH   6   7
ENDBRANCH   5   6
ENDBRANCH   4   5
ENDBRANCH   3   4
ENDBRANCH   2   3
ENDBRANCH   1   2
BRANCH   1  15
ATOM     15  C   UNL     1     -20.527  -5.993 -12.771  1.00  0.00     0.000 C 
BRANCH  15  16
ATOM     16  C   UNL     1     -22.007  -5.655 -12.537  1.00  0.00     0.000 C 
BRANCH  16  17
ATOM     17  C   UNL     1     -22.237  -4.162 -12.250  1.00  0.00     0.000 C 
BRANCH  17  18
ATOM     18  C   UNL     1     -23.713  -3.830 -11.987  1.00  0.00    -0.000 C 
BRANCH  18  19
ATOM     19  C   UNL     1     -24.115  -2.526 -12.686  1.00  0.00    -0.000 C 
BRANCH  19  20
ATOM     20  C   UNL     1     -24.825  -2.812 -14.018  1.00  0.00    -0.000 C 
BRANCH  20  21
ATOM     21  C   UNL     1     -24.569  -1.727 -15.081  1.00  0.00    -0.000 C 
BRANCH  21  22
ATOM     22  C   UNL     1     -23.309  -0.875 -14.846  1.00  0.00    -0.000 C 
BRANCH  22  23
ATOM     23  C   UNL     1     -22.104  -1.347 -15.678  1.00  0.00    -0.000 C 
BRANCH  23  24
ATOM     24  C   UNL     1     -20.839  -1.540 -14.829  1.00  0.00    -0.000 C 
BRANCH  24  25
ATOM     25  C   UNL     1     -19.653  -2.066 -15.652  1.00  0.00    -0.003 C 
ATOM     26  C   UNL     1     -19.690  -1.522 -17.077  1.00  0.00     0.004 C 
ENDBRANCH  24  25
ENDBRANCH  23  24
ENDBRANCH  22  23
ENDBRANCH  21  22
ENDBRANCH  20  21
ENDBRANCH  19  20
ENDBRANCH  18  19
ENDBRANCH  17  18
ENDBRANCH  16  17
ENDBRANCH  15  16
ENDBRANCH   1  15
TORSDOF 22
ENDMDL
