MODEL 1
REMARK VINA RESULT:    -4.607      0.000      0.000
REMARK INTER + INTRA:         -10.894
REMARK INTER:                  -8.378
REMARK INTRA:                  -2.516
REMARK UNBOUND:                -2.516
REMARK SMILES CCCCCC=CCC=CCCCCCCCC(=O)[O-]
REMARK SMILES IDX 11 1 12 2 13 3 14 4 15 5 16 6 17 7 18 8 19 9 20 10 10 11
REMARK SMILES IDX 9 12 8 13 7 14 6 15 5 16 4 17 3 18 2 19 1 20
REMARK H PARENT
REMARK Flexibility Score: inf
ROOT
ATOM      1  C   UNL     1      16.152   2.819  -1.693  1.00  0.00     0.027 C 
ENDROOT
BRANCH   1   2
ATOM      2  C   UNL     1      16.420   3.638  -0.420  1.00  0.00     0.004 C 
BRANCH   2   3
ATOM      3  C   UNL     1      15.127   4.018   0.321  1.00  0.00     0.000 C 
BRANCH   3   4
ATOM      4  C   UNL     1      15.001   3.432   1.740  1.00  0.00     0.000 C 
BRANCH   4   5
ATOM      5  C   UNL     1      14.794   1.903   1.763  1.00  0.00     0.000 C 
BRANCH   5   6
ATOM      6  C   UNL     1      15.721   1.205   2.773  1.00  0.00     0.006 C 
BRANCH   6   7
ATOM      7  C   UNL     1      15.696   1.884   4.149  1.00  0.00     0.053 C 
BRANCH   7   8
ATOM      8  C   UNL     1      16.815   1.408   5.023  1.00  0.00     0.041 C 
ATOM      9  O   UNL     1      17.617   2.237   5.531  1.00  0.00    -0.550 OA
ATOM     10  O   UNL     1      16.990   0.050   5.253  1.00  0.00    -0.550 OA
ENDBRANCH   7   8
ENDBRANCH   6   7
ENDBRANCH   5   6
ENDBRANCH   4   5
ENDBRANCH   3   4
ENDBRANCH   2   3
ENDBRANCH   1   2
BRANCH   1  11
ATOM     11  C   UNL     1      16.505   1.369  -1.486  1.00  0.00    -0.031 C 
ATOM     12  C   UNL     1      15.703   0.330  -1.783  1.00  0.00    -0.027 C 
BRANCH  12  13
ATOM     13  C   UNL     1      14.335   0.439  -2.411  1.00  0.00     0.054 C 
BRANCH  13  14
ATOM     14  C   UNL     1      13.312   0.769  -1.363  1.00  0.00    -0.027 C 
ATOM     15  C   UNL     1      12.700   1.962  -1.333  1.00  0.00    -0.031 C 
BRANCH  15  16
ATOM     16  C   UNL     1      11.679   2.296  -0.282  1.00  0.00     0.027 C 
BRANCH  16  17
ATOM     17  C   UNL     1      11.077   3.687  -0.518  1.00  0.00     0.004 C 
BRANCH  17  18
ATOM     18  C   UNL     1      11.277   4.588   0.711  1.00  0.00     0.000 C 
BRANCH  18  19
ATOM     19  C   UNL     1      10.907   3.886   2.027  1.00  0.00    -0.003 C 
ATOM     20  C   UNL     1      11.658   4.451   3.233  1.00  0.00     0.004 C 
ENDBRANCH  18  19
ENDBRANCH  17  18
ENDBRANCH  16  17
ENDBRANCH  15  16
ENDBRANCH  13  14
ENDBRANCH  12  13
ENDBRANCH   1  11
TORSDOF 14
ENDMDL
MODEL 2
REMARK VINA RESULT:    -4.548      4.236      7.139
REMARK INTER + INTRA:         -10.786
REMARK INTER:                  -9.298
REMARK INTRA:                  -1.488
REMARK UNBOUND:                -2.516
REMARK SMILES CCCCCC=CCC=CCCCCCCCC(=O)[O-]
REMARK SMILES IDX 11 1 12 2 13 3 14 4 15 5 16 6 17 7 18 8 19 9 20 10 10 11
REMARK SMILES IDX 9 12 8 13 7 14 6 15 5 16 4 17 3 18 2 19 1 20
REMARK H PARENT
REMARK Flexibility Score: inf
ROOT
ATOM      1  C   UNL     1      13.439   3.955   1.521  1.00  0.00     0.027 C 
ENDROOT
BRANCH   1   2
ATOM      2  C   UNL     1      12.420   3.906   2.670  1.00  0.00     0.004 C 
BRANCH   2   3
ATOM      3  C   UNL     1      11.310   4.959   2.522  1.00  0.00     0.000 C 
BRANCH   3   4
ATOM      4  C   UNL     1      10.860   5.222   1.072  1.00  0.00     0.000 C 
BRANCH   4   5
ATOM      5  C   UNL     1       9.440   4.705   0.761  1.00  0.00     0.000 C 
BRANCH   5   6
ATOM      6  C   UNL     1       8.522   5.816   0.222  1.00  0.00     0.006 C 
BRANCH   6   7
ATOM      7  C   UNL     1       9.305   6.906  -0.522  1.00  0.00     0.053 C 
BRANCH   7   8
ATOM      8  C   UNL     1       9.340   6.654  -1.998  1.00  0.00     0.041 C 
ATOM      9  O   UNL     1       8.577   7.296  -2.768  1.00  0.00    -0.550 OA
ATOM     10  O   UNL     1      10.193   5.689  -2.520  1.00  0.00    -0.550 OA
ENDBRANCH   7   8
ENDBRANCH   6   7
ENDBRANCH   5   6
ENDBRANCH   4   5
ENDBRANCH   3   4
ENDBRANCH   2   3
ENDBRANCH   1   2
BRANCH   1  11
ATOM     11  C   UNL     1      14.639   3.095   1.825  1.00  0.00    -0.031 C 
ATOM     12  C   UNL     1      15.754   3.035   1.075  1.00  0.00    -0.027 C 
BRANCH  12  13
ATOM     13  C   UNL     1      16.010   3.847  -0.170  1.00  0.00     0.054 C 
BRANCH  13  14
ATOM     14  C   UNL     1      16.254   2.935  -1.338  1.00  0.00    -0.027 C 
ATOM     15  C   UNL     1      16.761   1.704  -1.172  1.00  0.00    -0.031 C 
BRANCH  15  16
ATOM     16  C   UNL     1      17.010   0.792  -2.340  1.00  0.00     0.027 C 
BRANCH  16  17
ATOM     17  C   UNL     1      15.720   0.081  -2.771  1.00  0.00     0.004 C 
BRANCH  17  18
ATOM     18  C   UNL     1      14.967  -0.477  -1.554  1.00  0.00     0.000 C 
BRANCH  18  19
ATOM     19  C   UNL     1      13.524   0.046  -1.461  1.00  0.00    -0.003 C 
ATOM     20  C   UNL     1      13.216   1.127  -2.498  1.00  0.00     0.004 C 
ENDBRANCH  18  19
ENDBRANCH  17  18
ENDBRANCH  16  17
ENDBRANCH  15  16
ENDBRANCH  13  14
ENDBRANCH  12  13
ENDBRANCH   1  11
TORSDOF 14
ENDMDL
MODEL 3
REMARK VINA RESULT:    -4.546      1.052      4.309
REMARK INTER + INTRA:         -10.783
REMARK INTER:                  -8.009
REMARK INTRA:                  -2.774
REMARK UNBOUND:                -2.516
REMARK SMILES CCCCCC=CCC=CCCCCCCCC(=O)[O-]
REMARK SMILES IDX 11 1 12 2 13 3 14 4 15 5 16 6 17 7 18 8 19 9 20 10 10 11
REMARK SMILES IDX 9 12 8 13 7 14 6 15 5 16 4 17 3 18 2 19 1 20
REMARK H PARENT
REMARK Flexibility Score: inf
ROOT
ATOM      1  C   UNL     1      12.411   4.748   1.853  1.00  0.00     0.027 C 
ENDROOT
BRANCH   1   2
ATOM      2  C   UNL     1      13.932   4.889   1.684  1.00  0.00     0.004 C 
BRANCH   2   3
ATOM      3  C   UNL     1      14.520   3.836   0.730  1.00  0.00     0.000 C 
BRANCH   3   4
ATOM      4  C   UNL     1      15.637   2.967   1.339  1.00  0.00     0.000 C 
BRANCH   4   5
ATOM      5  C   UNL     1      15.270   1.472   1.448  1.00  0.00     0.000 C 
BRANCH   5   6
ATOM      6  C   UNL     1      15.617   0.886   2.827  1.00  0.00     0.006 C 
BRANCH   6   7
ATOM      7  C   UNL     1      15.558   1.943   3.938  1.00  0.00     0.053 C 
BRANCH   7   8
ATOM      8  C   UNL     1      16.530   1.646   5.039  1.00  0.00     0.041 C 
ATOM      9  O   UNL     1      16.614   0.481   5.511  1.00  0.00    -0.550 OA
ATOM     10  O   UNL     1      17.320   2.661   5.563  1.00  0.00    -0.550 OA
ENDBRANCH   7   8
ENDBRANCH   6   7
ENDBRANCH   5   6
ENDBRANCH   4   5
ENDBRANCH   3   4
ENDBRANCH   2   3
ENDBRANCH   1   2
BRANCH   1  11
ATOM     11  C   UNL     1      12.072   3.572   2.732  1.00  0.00    -0.031 C 
ATOM     12  C   UNL     1      11.429   2.464   2.323  1.00  0.00    -0.027 C 
BRANCH  12  13
ATOM     13  C   UNL     1      10.976   2.192   0.909  1.00  0.00     0.054 C 
BRANCH  13  14
ATOM     14  C   UNL     1      11.874   1.174   0.268  1.00  0.00    -0.027 C 
ATOM     15  C   UNL     1      12.345   1.341  -0.978  1.00  0.00    -0.031 C 
BRANCH  15  16
ATOM     16  C   UNL     1      13.240   0.320  -1.623  1.00  0.00     0.027 C 
BRANCH  16  17
ATOM     17  C   UNL     1      14.260   0.989  -2.553  1.00  0.00     0.004 C 
BRANCH  17  18
ATOM     18  C   UNL     1      15.691   0.552  -2.205  1.00  0.00     0.000 C 
BRANCH  18  19
ATOM     19  C   UNL     1      16.652   1.742  -2.048  1.00  0.00    -0.003 C 
ATOM     20  C   UNL     1      18.060   1.316  -1.630  1.00  0.00     0.004 C 
ENDBRANCH  18  19
ENDBRANCH  17  18
ENDBRANCH  16  17
ENDBRANCH  15  16
ENDBRANCH  13  14
ENDBRANCH  12  13
ENDBRANCH   1  11
TORSDOF 14
ENDMDL
MODEL 4
REMARK VINA RESULT:    -4.530      2.816      4.987
REMARK INTER + INTRA:         -10.753
REMARK INTER:                  -8.138
REMARK INTRA:                  -2.615
REMARK UNBOUND:                -2.516
REMARK SMILES CCCCCC=CCC=CCCCCCCCC(=O)[O-]
REMARK SMILES IDX 11 1 12 2 13 3 14 4 15 5 16 6 17 7 18 8 19 9 20 10 10 11
REMARK SMILES IDX 9 12 8 13 7 14 6 15 5 16 4 17 3 18 2 19 1 20
REMARK H PARENT
REMARK Flexibility Score: inf
ROOT
ATOM      1  C   UNL     1      13.517   2.091   1.107  1.00  0.00     0.027 C 
ENDROOT
BRANCH   1   2
ATOM      2  C   UNL     1      12.676   1.773  -0.140  1.00  0.00     0.004 C 
BRANCH   2   3
ATOM      3  C   UNL     1      13.090   2.610  -1.362  1.00  0.00     0.000 C 
BRANCH   3   4
ATOM      4  C   UNL     1      13.570   1.789  -2.574  1.00  0.00     0.000 C 
BRANCH   4   5
ATOM      5  C   UNL     1      13.912   0.323  -2.233  1.00  0.00     0.000 C 
BRANCH   5   6
ATOM      6  C   UNL     1      15.423   0.044  -2.317  1.00  0.00     0.006 C 
BRANCH   6   7
ATOM      7  C   UNL     1      16.158   0.442  -1.030  1.00  0.00     0.053 C 
BRANCH   7   8
ATOM      8  C   UNL     1      17.127   1.559  -1.268  1.00  0.00     0.041 C 
ATOM      9  O   UNL     1      18.218   1.336  -1.858  1.00  0.00    -0.550 OA
ATOM     10  O   UNL     1      16.840   2.839  -0.812  1.00  0.00    -0.550 OA
ENDBRANCH   7   8
ENDBRANCH   6   7
ENDBRANCH   5   6
ENDBRANCH   4   5
ENDBRANCH   3   4
ENDBRANCH   2   3
ENDBRANCH   1   2
BRANCH   1  11
ATOM     11  C   UNL     1      13.956   3.533   1.108  1.00  0.00    -0.031 C 
ATOM     12  C   UNL     1      13.326   4.530   1.755  1.00  0.00    -0.027 C 
BRANCH  12  13
ATOM     13  C   UNL     1      12.101   4.368   2.622  1.00  0.00     0.054 C 
BRANCH  13  14
ATOM     14  C   UNL     1      10.918   5.024   1.970  1.00  0.00    -0.027 C 
ATOM     15  C   UNL     1      10.892   5.269   0.651  1.00  0.00    -0.031 C 
BRANCH  15  16
ATOM     16  C   UNL     1       9.711   5.930  -0.003  1.00  0.00     0.027 C 
BRANCH  16  17
ATOM     17  C   UNL     1       8.764   4.889  -0.614  1.00  0.00     0.004 C 
BRANCH  17  18
ATOM     18  C   UNL     1       9.546   3.679  -1.148  1.00  0.00     0.000 C 
BRANCH  18  19
ATOM     19  C   UNL     1       8.917   2.339  -0.737  1.00  0.00    -0.003 C 
ATOM     20  C   UNL     1       9.073   2.043   0.756  1.00  0.00     0.004 C 
ENDBRANCH  18  19
ENDBRANCH  17  18
ENDBRANCH  16  17
ENDBRANCH  15  16
ENDBRANCH  13  14
ENDBRANCH  12  13
ENDBRANCH   1  11
TORSDOF 14
ENDMDL
MODEL 5
REMARK VINA RESULT:    -4.497      3.766      5.777
REMARK INTER + INTRA:         -10.693
REMARK INTER:                  -8.233
REMARK INTRA:                  -2.460
REMARK UNBOUND:                -2.516
REMARK SMILES CCCCCC=CCC=CCCCCCCCC(=O)[O-]
REMARK SMILES IDX 11 1 12 2 13 3 14 4 15 5 16 6 17 7 18 8 19 9 20 10 10 11
REMARK SMILES IDX 9 12 8 13 7 14 6 15 5 16 4 17 3 18 2 19 1 20
REMARK H PARENT
REMARK Flexibility Score: inf
ROOT
ATOM      1  C   UNL     1      15.757   2.888   1.592  1.00  0.00     0.027 C 
ENDROOT
BRANCH   1   2
ATOM      2  C   UNL     1      14.360   2.625   2.178  1.00  0.00     0.004 C 
BRANCH   2   3
ATOM      3  C   UNL     1      13.359   3.743   1.844  1.00  0.00     0.000 C 
BRANCH   3   4
ATOM      4  C   UNL     1      12.158   3.841   2.805  1.00  0.00     0.000 C 
BRANCH   4   5
ATOM      5  C   UNL     1      11.087   4.856   2.354  1.00  0.00     0.000 C 
BRANCH   5   6
ATOM      6  C   UNL     1      11.285   5.302   0.895  1.00  0.00     0.006 C 
BRANCH   6   7
ATOM      7  C   UNL     1       9.979   5.794   0.256  1.00  0.00     0.053 C 
BRANCH   7   8
ATOM      8  C   UNL     1       9.709   5.112  -1.050  1.00  0.00     0.041 C 
ATOM      9  O   UNL     1      10.158   5.599  -2.121  1.00  0.00    -0.550 OA
ATOM     10  O   UNL     1       8.939   3.957  -1.087  1.00  0.00    -0.550 OA
ENDBRANCH   7   8
ENDBRANCH   6   7
ENDBRANCH   5   6
ENDBRANCH   4   5
ENDBRANCH   3   4
ENDBRANCH   2   3
ENDBRANCH   1   2
BRANCH   1  11
ATOM     11  C   UNL     1      15.680   3.817   0.408  1.00  0.00    -0.031 C 
ATOM     12  C   UNL     1      16.225   3.576  -0.798  1.00  0.00    -0.027 C 
BRANCH  12  13
ATOM     13  C   UNL     1      16.967   2.319  -1.182  1.00  0.00     0.054 C 
BRANCH  13  14
ATOM     14  C   UNL     1      16.031   1.349  -1.842  1.00  0.00    -0.027 C 
ATOM     15  C   UNL     1      15.363   0.426  -1.133  1.00  0.00    -0.031 C 
BRANCH  15  16
ATOM     16  C   UNL     1      14.429  -0.548  -1.794  1.00  0.00     0.027 C 
BRANCH  16  17
ATOM     17  C   UNL     1      13.007  -0.417  -1.233  1.00  0.00     0.004 C 
BRANCH  17  18
ATOM     18  C   UNL     1      12.189   0.601  -2.042  1.00  0.00     0.000 C 
BRANCH  18  19
ATOM     19  C   UNL     1      11.847   1.863  -1.232  1.00  0.00    -0.003 C 
ATOM     20  C   UNL     1      12.711   3.065  -1.614  1.00  0.00     0.004 C 
ENDBRANCH  18  19
ENDBRANCH  17  18
ENDBRANCH  16  17
ENDBRANCH  15  16
ENDBRANCH  13  14
ENDBRANCH  12  13
ENDBRANCH   1  11
TORSDOF 14
ENDMDL
MODEL 6
REMARK VINA RESULT:    -4.472      3.127      5.159
REMARK INTER + INTRA:         -10.648
REMARK INTER:                  -8.178
REMARK INTRA:                  -2.470
REMARK UNBOUND:                -2.516
REMARK SMILES CCCCCC=CCC=CCCCCCCCC(=O)[O-]
REMARK SMILES IDX 11 1 12 2 13 3 14 4 15 5 16 6 17 7 18 8 19 9 20 10 10 11
REMARK SMILES IDX 9 12 8 13 7 14 6 15 5 16 4 17 3 18 2 19 1 20
REMARK H PARENT
REMARK Flexibility Score: inf
ROOT
ATOM      1  C   UNL     1      16.961   2.630  -0.637  1.00  0.00     0.027 C 
ENDROOT
BRANCH   1   2
ATOM      2  C   UNL     1      16.668   1.758  -1.869  1.00  0.00     0.004 C 
BRANCH   2   3
ATOM      3  C   UNL     1      15.977   0.434  -1.504  1.00  0.00     0.000 C 
BRANCH   3   4
ATOM      4  C   UNL     1      14.924  -0.046  -2.522  1.00  0.00     0.000 C 
BRANCH   4   5
ATOM      5  C   UNL     1      13.667   0.846  -2.580  1.00  0.00     0.000 C 
BRANCH   5   6
ATOM      6  C   UNL     1      13.086   1.124  -1.183  1.00  0.00     0.006 C 
BRANCH   6   7
ATOM      7  C   UNL     1      12.036   2.244  -1.203  1.00  0.00     0.053 C 
BRANCH   7   8
ATOM      8  C   UNL     1      10.744   1.803  -0.588  1.00  0.00     0.041 C 
ATOM      9  O   UNL     1      10.679   1.573   0.649  1.00  0.00    -0.550 OA
ATOM     10  O   UNL     1       9.620   1.619  -1.383  1.00  0.00    -0.550 OA
ENDBRANCH   7   8
ENDBRANCH   6   7
ENDBRANCH   5   6
ENDBRANCH   4   5
ENDBRANCH   3   4
ENDBRANCH   2   3
ENDBRANCH   1   2
BRANCH   1  11
ATOM     11  C   UNL     1      16.091   3.860  -0.626  1.00  0.00    -0.031 C 
ATOM     12  C   UNL     1      15.142   4.126   0.291  1.00  0.00    -0.027 C 
BRANCH  12  13
ATOM     13  C   UNL     1      14.820   3.260   1.484  1.00  0.00     0.054 C 
BRANCH  13  14
ATOM     14  C   UNL     1      13.466   3.615   2.027  1.00  0.00    -0.027 C 
ATOM     15  C   UNL     1      12.663   4.483   1.392  1.00  0.00    -0.031 C 
BRANCH  15  16
ATOM     16  C   UNL     1      11.309   4.843   1.937  1.00  0.00     0.027 C 
BRANCH  16  17
ATOM     17  C   UNL     1      10.477   5.601   0.893  1.00  0.00     0.004 C 
BRANCH  17  18
ATOM     18  C   UNL     1       9.168   4.858   0.587  1.00  0.00     0.000 C 
BRANCH  18  19
ATOM     19  C   UNL     1       8.654   5.127  -0.836  1.00  0.00    -0.003 C 
ATOM     20  C   UNL     1       9.778   5.198  -1.870  1.00  0.00     0.004 C 
ENDBRANCH  18  19
ENDBRANCH  17  18
ENDBRANCH  16  17
ENDBRANCH  15  16
ENDBRANCH  13  14
ENDBRANCH  12  13
ENDBRANCH   1  11
TORSDOF 14
ENDMDL
MODEL 7
REMARK VINA RESULT:    -4.467      1.117      2.652
REMARK INTER + INTRA:         -10.639
REMARK INTER:                  -7.553
REMARK INTRA:                  -3.086
REMARK UNBOUND:                -2.516
REMARK SMILES CCCCCC=CCC=CCCCCCCCC(=O)[O-]
REMARK SMILES IDX 11 1 12 2 13 3 14 4 15 5 16 6 17 7 18 8 19 9 20 10 10 11
REMARK SMILES IDX 9 12 8 13 7 14 6 15 5 16 4 17 3 18 2 19 1 20
REMARK H PARENT
REMARK Flexibility Score: inf
ROOT
ATOM      1  C   UNL     1      14.712   0.390  -2.536  1.00  0.00     0.027 C 
ENDROOT
BRANCH   1   2
ATOM      2  C   UNL     1      13.838  -0.359  -1.518  1.00  0.00     0.004 C 
BRANCH   2   3
ATOM      3  C   UNL     1      13.482   0.503  -0.296  1.00  0.00     0.000 C 
BRANCH   3   4
ATOM      4  C   UNL     1      13.883  -0.105   1.062  1.00  0.00     0.000 C 
BRANCH   4   5
ATOM      5  C   UNL     1      15.148   0.530   1.676  1.00  0.00     0.000 C 
BRANCH   5   6
ATOM      6  C   UNL     1      14.940   0.937   3.145  1.00  0.00     0.006 C 
BRANCH   6   7
ATOM      7  C   UNL     1      15.976   1.967   3.615  1.00  0.00     0.053 C 
BRANCH   7   8
ATOM      8  C   UNL     1      16.639   1.545   4.889  1.00  0.00     0.041 C 
ATOM      9  O   UNL     1      17.414   2.336   5.491  1.00  0.00    -0.550 OA
ATOM     10  O   UNL     1      16.427   0.270   5.397  1.00  0.00    -0.550 OA
ENDBRANCH   7   8
ENDBRANCH   6   7
ENDBRANCH   5   6
ENDBRANCH   4   5
ENDBRANCH   3   4
ENDBRANCH   2   3
ENDBRANCH   1   2
BRANCH   1  11
ATOM     11  C   UNL     1      16.140   0.477  -2.061  1.00  0.00    -0.031 C 
ATOM     12  C   UNL     1      16.769   1.614  -1.712  1.00  0.00    -0.027 C 
BRANCH  12  13
ATOM     13  C   UNL     1      16.140   2.986  -1.696  1.00  0.00     0.054 C 
BRANCH  13  14
ATOM     14  C   UNL     1      15.853   3.404  -0.283  1.00  0.00    -0.027 C 
ATOM     15  C   UNL     1      14.740   4.084   0.034  1.00  0.00    -0.031 C 
BRANCH  15  16
ATOM     16  C   UNL     1      14.453   4.507   1.447  1.00  0.00     0.027 C 
BRANCH  16  17
ATOM     17  C   UNL     1      13.120   3.928   1.938  1.00  0.00     0.004 C 
BRANCH  17  18
ATOM     18  C   UNL     1      12.093   3.867   0.797  1.00  0.00     0.000 C 
BRANCH  18  19
ATOM     19  C   UNL     1      10.959   2.867   1.073  1.00  0.00    -0.003 C 
ATOM     20  C   UNL     1      11.132   2.125   2.400  1.00  0.00     0.004 C 
ENDBRANCH  18  19
ENDBRANCH  17  18
ENDBRANCH  16  17
ENDBRANCH  15  16
ENDBRANCH  13  14
ENDBRANCH  12  13
ENDBRANCH   1  11
TORSDOF 14
ENDMDL
MODEL 8
REMARK VINA RESULT:    -4.434      3.129      5.583
REMARK INTER + INTRA:         -10.579
REMARK INTER:                  -8.311
REMARK INTRA:                  -2.268
REMARK UNBOUND:                -2.516
REMARK SMILES CCCCCC=CCC=CCCCCCCCC(=O)[O-]
REMARK SMILES IDX 11 1 12 2 13 3 14 4 15 5 16 6 17 7 18 8 19 9 20 10 10 11
REMARK SMILES IDX 9 12 8 13 7 14 6 15 5 16 4 17 3 18 2 19 1 20
REMARK H PARENT
REMARK Flexibility Score: inf
ROOT
ATOM      1  C   UNL     1      14.446   0.728  -2.740  1.00  0.00     0.027 C 
ENDROOT
BRANCH   1   2
ATOM      2  C   UNL     1      13.622  -0.016  -1.677  1.00  0.00     0.004 C 
BRANCH   2   3
ATOM      3  C   UNL     1      12.224   0.592  -1.481  1.00  0.00     0.000 C 
BRANCH   3   4
ATOM      4  C   UNL     1      12.189   1.860  -0.606  1.00  0.00     0.000 C 
BRANCH   4   5
ATOM      5  C   UNL     1      12.217   1.569   0.909  1.00  0.00     0.000 C 
BRANCH   5   6
ATOM      6  C   UNL     1      12.094   2.852   1.749  1.00  0.00     0.006 C 
BRANCH   6   7
ATOM      7  C   UNL     1      11.703   4.068   0.899  1.00  0.00     0.053 C 
BRANCH   7   8
ATOM      8  C   UNL     1      10.270   4.451   1.105  1.00  0.00     0.041 C 
ATOM      9  O   UNL     1       9.372   3.566   1.104  1.00  0.00    -0.550 OA
ATOM     10  O   UNL     1       9.921   5.786   1.268  1.00  0.00    -0.550 OA
ENDBRANCH   7   8
ENDBRANCH   6   7
ENDBRANCH   5   6
ENDBRANCH   4   5
ENDBRANCH   3   4
ENDBRANCH   2   3
ENDBRANCH   1   2
BRANCH   1  11
ATOM     11  C   UNL     1      15.893   0.824  -2.332  1.00  0.00    -0.031 C 
ATOM     12  C   UNL     1      16.471   1.913  -1.793  1.00  0.00    -0.027 C 
BRANCH  12  13
ATOM     13  C   UNL     1      15.761   3.204  -1.467  1.00  0.00     0.054 C 
BRANCH  13  14
ATOM     14  C   UNL     1      15.741   3.420   0.018  1.00  0.00    -0.027 C 
ATOM     15  C   UNL     1      15.737   2.388   0.877  1.00  0.00    -0.031 C 
BRANCH  15  16
ATOM     16  C   UNL     1      15.712   2.603   2.364  1.00  0.00     0.027 C 
BRANCH  16  17
ATOM     17  C   UNL     1      15.326   1.314   3.102  1.00  0.00     0.004 C 
BRANCH  17  18
ATOM     18  C   UNL     1      15.426   1.501   4.624  1.00  0.00     0.000 C 
BRANCH  18  19
ATOM     19  C   UNL     1      16.853   1.287   5.154  1.00  0.00    -0.003 C 
ATOM     20  C   UNL     1      17.541   2.595   5.550  1.00  0.00     0.004 C 
ENDBRANCH  18  19
ENDBRANCH  17  18
ENDBRANCH  16  17
ENDBRANCH  15  16
ENDBRANCH  13  14
ENDBRANCH  12  13
ENDBRANCH   1  11
TORSDOF 14
ENDMDL
MODEL 9
REMARK VINA RESULT:    -4.419      4.122      7.042
REMARK INTER + INTRA:         -10.552
REMARK INTER:                  -8.078
REMARK INTRA:                  -2.473
REMARK UNBOUND:                -2.516
REMARK SMILES CCCCCC=CCC=CCCCCCCCC(=O)[O-]
REMARK SMILES IDX 11 1 12 2 13 3 14 4 15 5 16 6 17 7 18 8 19 9 20 10 10 11
REMARK SMILES IDX 9 12 8 13 7 14 6 15 5 16 4 17 3 18 2 19 1 20
REMARK H PARENT
REMARK Flexibility Score: inf
ROOT
ATOM      1  C   UNL     1      12.819   4.539   1.720  1.00  0.00     0.027 C 
ENDROOT
BRANCH   1   2
ATOM      2  C   UNL     1      11.372   4.947   1.401  1.00  0.00     0.004 C 
BRANCH   2   3
ATOM      3  C   UNL     1      10.446   3.735   1.205  1.00  0.00     0.000 C 
BRANCH   3   4
ATOM      4  C   UNL     1       9.852   3.599  -0.210  1.00  0.00     0.000 C 
BRANCH   4   5
ATOM      5  C   UNL     1      10.363   4.665  -1.202  1.00  0.00     0.000 C 
BRANCH   5   6
ATOM      6  C   UNL     1       9.212   5.392  -1.919  1.00  0.00     0.006 C 
BRANCH   6   7
ATOM      7  C   UNL     1       8.129   5.869  -0.943  1.00  0.00     0.053 C 
BRANCH   7   8
ATOM      8  C   UNL     1       8.558   7.094  -0.195  1.00  0.00     0.041 C 
ATOM      9  O   UNL     1       8.575   7.092   1.065  1.00  0.00    -0.550 OA
ATOM     10  O   UNL     1       8.909   8.246  -0.887  1.00  0.00    -0.550 OA
ENDBRANCH   7   8
ENDBRANCH   6   7
ENDBRANCH   5   6
ENDBRANCH   4   5
ENDBRANCH   3   4
ENDBRANCH   2   3
ENDBRANCH   1   2
BRANCH   1  11
ATOM     11  C   UNL     1      12.886   3.110   2.194  1.00  0.00    -0.031 C 
ATOM     12  C   UNL     1      14.019   2.402   2.351  1.00  0.00    -0.027 C 
BRANCH  12  13
ATOM     13  C   UNL     1      15.414   2.930   2.121  1.00  0.00     0.054 C 
BRANCH  13  14
ATOM     14  C   UNL     1      15.954   2.408   0.822  1.00  0.00    -0.027 C 
ATOM     15  C   UNL     1      15.658   1.174   0.385  1.00  0.00    -0.031 C 
BRANCH  15  16
ATOM     16  C   UNL     1      16.202   0.648  -0.913  1.00  0.00     0.027 C 
BRANCH  16  17
ATOM     17  C   UNL     1      15.198   0.852  -2.056  1.00  0.00     0.004 C 
BRANCH  17  18
ATOM     18  C   UNL     1      13.761   0.595  -1.579  1.00  0.00     0.000 C 
BRANCH  18  19
ATOM     19  C   UNL     1      12.855   1.827  -1.737  1.00  0.00    -0.003 C 
ATOM     20  C   UNL     1      13.641   3.109  -2.015  1.00  0.00     0.004 C 
ENDBRANCH  18  19
ENDBRANCH  17  18
ENDBRANCH  16  17
ENDBRANCH  15  16
ENDBRANCH  13  14
ENDBRANCH  12  13
ENDBRANCH   1  11
TORSDOF 14
ENDMDL
