MODEL 1
REMARK VINA RESULT:    -4.127      0.000      0.000
REMARK INTER + INTRA:          -6.320
REMARK INTER:                  -6.057
REMARK INTRA:                  -0.263
REMARK UNBOUND:                -0.263
REMARK SMILES O=C([O-])CCCCCCCC(=O)[O-]
REMARK SMILES IDX 7 1 6 2 5 3 4 4 2 5 1 6 3 7 8 8 9 9 10 10 11 11 12 12 13 13
REMARK H PARENT
REMARK Flexibility Score: inf
ROOT
ATOM      1  C   UNL     1       0.960   2.411   8.464  1.00  0.00     0.000 C 
ENDROOT
BRANCH   1   2
ATOM      2  C   UNL     1       1.542   1.785   7.185  1.00  0.00     0.000 C 
BRANCH   2   3
ATOM      3  C   UNL     1       1.760   0.267   7.311  1.00  0.00     0.006 C 
BRANCH   3   4
ATOM      4  C   UNL     1       1.492  -0.518   6.016  1.00  0.00     0.053 C 
BRANCH   4   5
ATOM      5  C   UNL     1       2.636  -1.415   5.658  1.00  0.00     0.041 C 
ATOM      6  O   UNL     1       2.545  -2.199   4.678  1.00  0.00    -0.550 OA
ATOM      7  O   UNL     1       3.817  -1.363   6.389  1.00  0.00    -0.550 OA
ENDBRANCH   4   5
ENDBRANCH   3   4
ENDBRANCH   2   3
ENDBRANCH   1   2
BRANCH   1   8
ATOM      8  C   UNL     1       0.308   3.782   8.215  1.00  0.00     0.000 C 
BRANCH   8   9
ATOM      9  C   UNL     1       0.553   4.373   6.811  1.00  0.00     0.006 C 
BRANCH   9  10
ATOM     10  C   UNL     1      -0.088   5.751   6.578  1.00  0.00     0.053 C 
BRANCH  10  11
ATOM     11  C   UNL     1      -0.627   5.890   5.188  1.00  0.00     0.041 C 
ATOM     12  O   UNL     1      -1.619   6.632   4.964  1.00  0.00    -0.550 OA
ATOM     13  O   UNL     1      -0.011   5.227   4.134  1.00  0.00    -0.550 OA
ENDBRANCH  10  11
ENDBRANCH   9  10
ENDBRANCH   8   9
ENDBRANCH   1   8
TORSDOF 8
ENDMDL
MODEL 2
REMARK VINA RESULT:    -3.990      0.540      6.893
REMARK INTER + INTRA:          -6.120
REMARK INTER:                  -5.927
REMARK INTRA:                  -0.193
REMARK UNBOUND:                -0.263
REMARK SMILES O=C([O-])CCCCCCCC(=O)[O-]
REMARK SMILES IDX 7 1 6 2 5 3 4 4 2 5 1 6 3 7 8 8 9 9 10 10 11 11 12 12 13 13
REMARK H PARENT
REMARK Flexibility Score: inf
ROOT
ATOM      1  C   UNL     1       1.580   2.384   7.939  1.00  0.00     0.000 C 
ENDROOT
BRANCH   1   2
ATOM      2  C   UNL     1       0.528   3.501   7.833  1.00  0.00     0.000 C 
BRANCH   2   3
ATOM      3  C   UNL     1       0.822   4.487   6.687  1.00  0.00     0.006 C 
BRANCH   3   4
ATOM      4  C   UNL     1      -0.178   5.651   6.587  1.00  0.00     0.053 C 
BRANCH   4   5
ATOM      5  C   UNL     1      -0.650   5.864   5.182  1.00  0.00     0.041 C 
ATOM      6  O   UNL     1      -1.618   6.632   4.947  1.00  0.00    -0.550 OA
ATOM      7  O   UNL     1       0.000   5.236   4.127  1.00  0.00    -0.550 OA
ENDBRANCH   4   5
ENDBRANCH   3   4
ENDBRANCH   2   3
ENDBRANCH   1   2
BRANCH   1   8
ATOM      8  C   UNL     1       1.535   1.405   6.753  1.00  0.00     0.000 C 
BRANCH   8   9
ATOM      9  C   UNL     1       2.141   0.014   7.034  1.00  0.00     0.006 C 
BRANCH   9  10
ATOM     10  C   UNL     1       1.954  -1.005   5.899  1.00  0.00     0.053 C 
BRANCH  10  11
ATOM     11  C   UNL     1       3.226  -1.730   5.582  1.00  0.00     0.041 C 
ATOM     12  O   UNL     1       4.123  -1.850   6.456  1.00  0.00    -0.550 OA
ATOM     13  O   UNL     1       3.405  -2.303   4.328  1.00  0.00    -0.550 OA
ENDBRANCH  10  11
ENDBRANCH   9  10
ENDBRANCH   8   9
ENDBRANCH   1   8
TORSDOF 8
ENDMDL
MODEL 3
REMARK VINA RESULT:    -3.843      5.172      6.146
REMARK INTER + INTRA:          -5.903
REMARK INTER:                  -5.571
REMARK INTRA:                  -0.332
REMARK UNBOUND:                -0.263
REMARK SMILES O=C([O-])CCCCCCCC(=O)[O-]
REMARK SMILES IDX 7 1 6 2 5 3 4 4 2 5 1 6 3 7 8 8 9 9 10 10 11 11 12 12 13 13
REMARK H PARENT
REMARK Flexibility Score: inf
ROOT
ATOM      1  C   UNL     1      -1.516  -2.788   5.568  1.00  0.00     0.000 C 
ENDROOT
BRANCH   1   2
ATOM      2  C   UNL     1      -0.123  -2.472   6.139  1.00  0.00     0.000 C 
BRANCH   2   3
ATOM      3  C   UNL     1       0.640  -1.429   5.303  1.00  0.00     0.006 C 
BRANCH   3   4
ATOM      4  C   UNL     1       2.103  -1.228   5.730  1.00  0.00     0.053 C 
BRANCH   4   5
ATOM      5  C   UNL     1       2.973  -2.370   5.305  1.00  0.00     0.041 C 
ATOM      6  O   UNL     1       3.641  -2.297   4.241  1.00  0.00    -0.550 OA
ATOM      7  O   UNL     1       3.068  -3.505   6.100  1.00  0.00    -0.550 OA
ENDBRANCH   4   5
ENDBRANCH   3   4
ENDBRANCH   2   3
ENDBRANCH   1   2
BRANCH   1   8
ATOM      8  C   UNL     1      -1.814  -2.027   4.264  1.00  0.00     0.000 C 
BRANCH   8   9
ATOM      9  C   UNL     1      -3.279  -2.107   3.785  1.00  0.00     0.006 C 
BRANCH   9  10
ATOM     10  C   UNL     1      -4.158  -0.923   4.219  1.00  0.00     0.053 C 
BRANCH  10  11
ATOM     11  C   UNL     1      -4.878  -1.200   5.502  1.00  0.00     0.041 C 
ATOM     12  O   UNL     1      -5.061  -2.386   5.884  1.00  0.00    -0.550 OA
ATOM     13  O   UNL     1      -5.318  -0.146   6.294  1.00  0.00    -0.550 OA
ENDBRANCH  10  11
ENDBRANCH   9  10
ENDBRANCH   8   9
ENDBRANCH   1   8
TORSDOF 8
ENDMDL
MODEL 4
REMARK VINA RESULT:    -3.725      7.825     10.797
REMARK INTER + INTRA:          -5.731
REMARK INTER:                  -5.469
REMARK INTRA:                  -0.262
REMARK UNBOUND:                -0.263
REMARK SMILES O=C([O-])CCCCCCCC(=O)[O-]
REMARK SMILES IDX 7 1 6 2 5 3 4 4 2 5 1 6 3 7 8 8 9 9 10 10 11 11 12 12 13 13
REMARK H PARENT
REMARK Flexibility Score: inf
ROOT
ATOM      1  C   UNL     1      -2.568  -5.113   0.627  1.00  0.00     0.000 C 
ENDROOT
BRANCH   1   2
ATOM      2  C   UNL     1      -3.579  -4.757   1.730  1.00  0.00     0.000 C 
BRANCH   2   3
ATOM      3  C   UNL     1      -3.016  -3.751   2.751  1.00  0.00     0.006 C 
BRANCH   3   4
ATOM      4  C   UNL     1      -4.083  -2.866   3.416  1.00  0.00     0.053 C 
BRANCH   4   5
ATOM      5  C   UNL     1      -3.502  -1.594   3.951  1.00  0.00     0.041 C 
ATOM      6  O   UNL     1      -2.288  -1.322   3.761  1.00  0.00    -0.550 OA
ATOM      7  O   UNL     1      -4.309  -0.694   4.635  1.00  0.00    -0.550 OA
ENDBRANCH   4   5
ENDBRANCH   3   4
ENDBRANCH   2   3
ENDBRANCH   1   2
BRANCH   1   8
ATOM      8  C   UNL     1      -3.215  -5.224  -0.764  1.00  0.00     0.000 C 
BRANCH   8   9
ATOM      9  C   UNL     1      -2.313  -4.788  -1.938  1.00  0.00     0.006 C 
BRANCH   9  10
ATOM     10  C   UNL     1      -0.901  -4.342  -1.525  1.00  0.00     0.053 C 
BRANCH  10  11
ATOM     11  C   UNL     1       0.152  -4.914  -2.424  1.00  0.00     0.041 C 
ATOM     12  O   UNL     1      -0.113  -5.175  -3.626  1.00  0.00    -0.550 OA
ATOM     13  O   UNL     1       1.438  -5.125  -1.940  1.00  0.00    -0.550 OA
ENDBRANCH  10  11
ENDBRANCH   9  10
ENDBRANCH   8   9
ENDBRANCH   1   8
TORSDOF 8
ENDMDL
MODEL 5
REMARK VINA RESULT:    -3.702      5.194      7.537
REMARK INTER + INTRA:          -5.697
REMARK INTER:                  -5.053
REMARK INTRA:                  -0.644
REMARK UNBOUND:                -0.263
REMARK SMILES O=C([O-])CCCCCCCC(=O)[O-]
REMARK SMILES IDX 7 1 6 2 5 3 4 4 2 5 1 6 3 7 8 8 9 9 10 10 11 11 12 12 13 13
REMARK H PARENT
REMARK Flexibility Score: inf
ROOT
ATOM      1  C   UNL     1      -0.816  -3.754   6.356  1.00  0.00     0.000 C 
ENDROOT
BRANCH   1   2
ATOM      2  C   UNL     1      -2.296  -3.900   5.961  1.00  0.00     0.000 C 
BRANCH   2   3
ATOM      3  C   UNL     1      -2.481  -4.572   4.588  1.00  0.00     0.006 C 
BRANCH   3   4
ATOM      4  C   UNL     1      -2.377  -3.607   3.396  1.00  0.00     0.053 C 
BRANCH   4   5
ATOM      5  C   UNL     1      -3.240  -2.397   3.578  1.00  0.00     0.041 C 
ATOM      6  O   UNL     1      -2.718  -1.262   3.729  1.00  0.00    -0.550 OA
ATOM      7  O   UNL     1      -4.624  -2.519   3.549  1.00  0.00    -0.550 OA
ENDBRANCH   4   5
ENDBRANCH   3   4
ENDBRANCH   2   3
ENDBRANCH   1   2
BRANCH   1   8
ATOM      8  C   UNL     1      -0.357  -2.286   6.420  1.00  0.00     0.000 C 
BRANCH   8   9
ATOM      9  C   UNL     1       0.446  -1.803   5.194  1.00  0.00     0.006 C 
BRANCH   9  10
ATOM     10  C   UNL     1       1.874  -1.332   5.512  1.00  0.00     0.053 C 
BRANCH  10  11
ATOM     11  C   UNL     1       2.891  -2.393   5.226  1.00  0.00     0.041 C 
ATOM     12  O   UNL     1       3.682  -2.267   4.254  1.00  0.00    -0.550 OA
ATOM     13  O   UNL     1       2.989  -3.504   6.054  1.00  0.00    -0.550 OA
ENDBRANCH  10  11
ENDBRANCH   9  10
ENDBRANCH   8   9
ENDBRANCH   1   8
TORSDOF 8
ENDMDL
MODEL 6
REMARK VINA RESULT:    -3.691      5.152      7.630
REMARK INTER + INTRA:          -5.681
REMARK INTER:                  -5.280
REMARK INTRA:                  -0.401
REMARK UNBOUND:                -0.263
REMARK SMILES O=C([O-])CCCCCCCC(=O)[O-]
REMARK SMILES IDX 7 1 6 2 5 3 4 4 2 5 1 6 3 7 8 8 9 9 10 10 11 11 12 12 13 13
REMARK H PARENT
REMARK Flexibility Score: inf
ROOT
ATOM      1  C   UNL     1      -1.663  -2.538   5.847  1.00  0.00     0.000 C 
ENDROOT
BRANCH   1   2
ATOM      2  C   UNL     1      -2.223  -2.917   4.465  1.00  0.00     0.000 C 
BRANCH   2   3
ATOM      3  C   UNL     1      -2.902  -1.732   3.754  1.00  0.00     0.006 C 
BRANCH   3   4
ATOM      4  C   UNL     1      -3.973  -1.022   4.597  1.00  0.00     0.053 C 
BRANCH   4   5
ATOM      5  C   UNL     1      -5.234  -1.825   4.693  1.00  0.00     0.041 C 
ATOM      6  O   UNL     1      -5.752  -2.061   5.815  1.00  0.00    -0.550 OA
ATOM      7  O   UNL     1      -5.854  -2.287   3.539  1.00  0.00    -0.550 OA
ENDBRANCH   4   5
ENDBRANCH   3   4
ENDBRANCH   2   3
ENDBRANCH   1   2
BRANCH   1   8
ATOM      8  C   UNL     1      -0.125  -2.550   5.893  1.00  0.00     0.000 C 
BRANCH   8   9
ATOM      9  C   UNL     1       0.554  -1.334   5.230  1.00  0.00     0.006 C 
BRANCH   9  10
ATOM     10  C   UNL     1       1.806  -0.825   5.962  1.00  0.00     0.053 C 
BRANCH  10  11
ATOM     11  C   UNL     1       3.024  -1.623   5.611  1.00  0.00     0.041 C 
ATOM     12  O   UNL     1       3.094  -2.220   4.505  1.00  0.00    -0.550 OA
ATOM     13  O   UNL     1       4.097  -1.678   6.493  1.00  0.00    -0.550 OA
ENDBRANCH  10  11
ENDBRANCH   9  10
ENDBRANCH   8   9
ENDBRANCH   1   8
TORSDOF 8
ENDMDL
MODEL 7
REMARK VINA RESULT:    -3.678      5.229      7.752
REMARK INTER + INTRA:          -5.662
REMARK INTER:                  -5.371
REMARK INTRA:                  -0.291
REMARK UNBOUND:                -0.263
REMARK SMILES O=C([O-])CCCCCCCC(=O)[O-]
REMARK SMILES IDX 7 1 6 2 5 3 4 4 2 5 1 6 3 7 8 8 9 9 10 10 11 11 12 12 13 13
REMARK H PARENT
REMARK Flexibility Score: inf
ROOT
ATOM      1  C   UNL     1      -1.537  -2.652   4.504  1.00  0.00     0.000 C 
ENDROOT
BRANCH   1   2
ATOM      2  C   UNL     1      -2.687  -1.674   4.207  1.00  0.00     0.000 C 
BRANCH   2   3
ATOM      3  C   UNL     1      -3.888  -1.864   5.152  1.00  0.00     0.006 C 
BRANCH   3   4
ATOM      4  C   UNL     1      -4.826  -0.648   5.229  1.00  0.00     0.053 C 
BRANCH   4   5
ATOM      5  C   UNL     1      -5.449  -0.506   6.584  1.00  0.00     0.041 C 
ATOM      6  O   UNL     1      -5.346  -1.433   7.429  1.00  0.00    -0.550 OA
ATOM      7  O   UNL     1      -6.117   0.663   6.923  1.00  0.00    -0.550 OA
ENDBRANCH   4   5
ENDBRANCH   3   4
ENDBRANCH   2   3
ENDBRANCH   1   2
BRANCH   1   8
ATOM      8  C   UNL     1      -1.119  -2.650   5.985  1.00  0.00     0.000 C 
BRANCH   8   9
ATOM      9  C   UNL     1       0.398  -2.503   6.231  1.00  0.00     0.006 C 
BRANCH   9  10
ATOM     10  C   UNL     1       1.106  -1.524   5.282  1.00  0.00     0.053 C 
BRANCH  10  11
ATOM     11  C   UNL     1       2.597  -1.635   5.373  1.00  0.00     0.041 C 
ATOM     12  O   UNL     1       3.211  -1.137   6.352  1.00  0.00    -0.550 OA
ATOM     13  O   UNL     1       3.304  -2.319   4.392  1.00  0.00    -0.550 OA
ENDBRANCH  10  11
ENDBRANCH   9  10
ENDBRANCH   8   9
ENDBRANCH   1   8
TORSDOF 8
ENDMDL
MODEL 8
REMARK VINA RESULT:    -3.596      7.895     10.061
REMARK INTER + INTRA:          -5.541
REMARK INTER:                  -5.148
REMARK INTRA:                  -0.393
REMARK UNBOUND:                -0.263
REMARK SMILES O=C([O-])CCCCCCCC(=O)[O-]
REMARK SMILES IDX 7 1 6 2 5 3 4 4 2 5 1 6 3 7 8 8 9 9 10 10 11 11 12 12 13 13
REMARK H PARENT
REMARK Flexibility Score: inf
ROOT
ATOM      1  C   UNL     1      -3.509  -5.834   0.397  1.00  0.00     0.000 C 
ENDROOT
BRANCH   1   2
ATOM      2  C   UNL     1      -2.962  -5.251  -0.917  1.00  0.00     0.000 C 
BRANCH   2   3
ATOM      3  C   UNL     1      -1.541  -4.678  -0.768  1.00  0.00     0.006 C 
BRANCH   3   4
ATOM      4  C   UNL     1      -1.038  -3.914  -2.004  1.00  0.00     0.053 C 
BRANCH   4   5
ATOM      5  C   UNL     1       0.091  -4.628  -2.682  1.00  0.00     0.041 C 
ATOM      6  O   UNL     1       0.077  -4.796  -3.929  1.00  0.00    -0.550 OA
ATOM      7  O   UNL     1       1.173  -5.081  -1.939  1.00  0.00    -0.550 OA
ENDBRANCH   4   5
ENDBRANCH   3   4
ENDBRANCH   2   3
ENDBRANCH   1   2
BRANCH   1   8
ATOM      8  C   UNL     1      -3.869  -4.750   1.428  1.00  0.00     0.000 C 
BRANCH   8   9
ATOM      9  C   UNL     1      -2.997  -4.749   2.702  1.00  0.00     0.006 C 
BRANCH   9  10
ATOM     10  C   UNL     1      -2.329  -3.401   3.016  1.00  0.00     0.053 C 
BRANCH  10  11
ATOM     11  C   UNL     1      -3.245  -2.481   3.762  1.00  0.00     0.041 C 
ATOM     12  O   UNL     1      -3.162  -1.235   3.602  1.00  0.00    -0.550 OA
ATOM     13  O   UNL     1      -4.216  -3.003   4.609  1.00  0.00    -0.550 OA
ENDBRANCH  10  11
ENDBRANCH   9  10
ENDBRANCH   8   9
ENDBRANCH   1   8
TORSDOF 8
ENDMDL
MODEL 9
REMARK VINA RESULT:    -3.560      5.844      7.205
REMARK INTER + INTRA:          -5.488
REMARK INTER:                  -5.080
REMARK INTRA:                  -0.408
REMARK UNBOUND:                -0.263
REMARK SMILES O=C([O-])CCCCCCCC(=O)[O-]
REMARK SMILES IDX 7 1 6 2 5 3 4 4 2 5 1 6 3 7 8 8 9 9 10 10 11 11 12 12 13 13
REMARK H PARENT
REMARK Flexibility Score: inf
ROOT
ATOM      1  C   UNL     1      -3.117  -1.857   3.728  1.00  0.00     0.000 C 
ENDROOT
BRANCH   1   2
ATOM      2  C   UNL     1      -2.382  -2.277   5.012  1.00  0.00     0.000 C 
BRANCH   2   3
ATOM      3  C   UNL     1      -0.866  -2.448   4.800  1.00  0.00     0.006 C 
BRANCH   3   4
ATOM      4  C   UNL     1      -0.011  -2.037   6.010  1.00  0.00     0.053 C 
BRANCH   4   5
ATOM      5  C   UNL     1       1.258  -1.360   5.594  1.00  0.00     0.041 C 
ATOM      6  O   UNL     1       1.512  -0.192   5.988  1.00  0.00    -0.550 OA
ATOM      7  O   UNL     1       2.176  -2.031   4.796  1.00  0.00    -0.550 OA
ENDBRANCH   4   5
ENDBRANCH   3   4
ENDBRANCH   2   3
ENDBRANCH   1   2
BRANCH   1   8
ATOM      8  C   UNL     1      -4.401  -1.056   4.009  1.00  0.00     0.000 C 
BRANCH   8   9
ATOM      9  C   UNL     1      -4.664  -0.753   5.499  1.00  0.00     0.006 C 
BRANCH   9  10
ATOM     10  C   UNL     1      -6.051  -1.185   6.003  1.00  0.00     0.053 C 
BRANCH  10  11
ATOM     11  C   UNL     1      -6.448  -2.526   5.468  1.00  0.00     0.041 C 
ATOM     12  O   UNL     1      -7.383  -2.623   4.630  1.00  0.00    -0.550 OA
ATOM     13  O   UNL     1      -5.762  -3.666   5.869  1.00  0.00    -0.550 OA
ENDBRANCH  10  11
ENDBRANCH   9  10
ENDBRANCH   8   9
ENDBRANCH   1   8
TORSDOF 8
ENDMDL
