MODEL 1
REMARK VINA RESULT:    -4.740      0.000      0.000
REMARK INTER + INTRA:          -5.708
REMARK INTER:                  -5.710
REMARK INTRA:                   0.002
REMARK UNBOUND:                 0.002
REMARK SMILES CC[C@H](C)[C@@H]([NH3+])C(=O)[O-]
REMARK SMILES IDX 3 1 4 2 5 3 6 4 7 8 8 9 9 10 2 11 1 12
REMARK H PARENT 6 5 6 6 6 7
REMARK Flexibility Score: inf
ROOT
ATOM      1  C   UNL     1     -45.903  -4.522  -6.649  1.00  0.00     0.050 C 
ATOM      2  C   UNL     1     -45.599  -5.779  -5.813  1.00  0.00     0.014 C 
ENDROOT
BRANCH   1   3
ATOM      3  C   UNL     1     -47.061  -3.677  -6.030  1.00  0.00     0.230 C 
BRANCH   3   4
ATOM      4  N   UNL     1     -46.760  -2.238  -6.069  1.00  0.00    -0.350 N 
ATOM      5  H   UNL     1     -46.032  -2.001  -5.357  1.00  0.00     0.345 HD
ATOM      6  H   UNL     1     -46.426  -1.954  -7.019  1.00  0.00     0.345 HD
ATOM      7  H   UNL     1     -47.617  -1.686  -5.831  1.00  0.00     0.345 HD
ENDBRANCH   3   4
BRANCH   3   8
ATOM      8  C   UNL     1     -48.361  -3.931  -6.754  1.00  0.00     0.099 C 
ATOM      9  O   UNL     1     -49.016  -4.982  -6.527  1.00  0.00    -0.544 OA
ATOM     10  O   UNL     1     -48.841  -3.008  -7.674  1.00  0.00    -0.544 OA
ENDBRANCH   3   8
ENDBRANCH   1   3
BRANCH   1  11
ATOM     11  C   UNL     1     -46.142  -4.898  -8.137  1.00  0.00     0.006 C 
ATOM     12  C   UNL     1     -46.290  -6.400  -8.398  1.00  0.00     0.004 C 
ENDBRANCH   1  11
TORSDOF 4
ENDMDL
MODEL 2
REMARK VINA RESULT:    -4.634      1.878      2.209
REMARK INTER + INTRA:          -5.580
REMARK INTER:                  -5.543
REMARK INTRA:                  -0.037
REMARK UNBOUND:                 0.002
REMARK SMILES CC[C@H](C)[C@@H]([NH3+])C(=O)[O-]
REMARK SMILES IDX 3 1 4 2 5 3 6 4 7 8 8 9 9 10 2 11 1 12
REMARK H PARENT 6 5 6 6 6 7
REMARK Flexibility Score: inf
ROOT
ATOM      1  C   UNL     1     -47.601  -4.882  -6.574  1.00  0.00     0.050 C 
ATOM      2  C   UNL     1     -48.867  -5.550  -7.143  1.00  0.00     0.014 C 
ENDROOT
BRANCH   1   3
ATOM      3  C   UNL     1     -47.459  -3.403  -7.053  1.00  0.00     0.230 C 
BRANCH   3   4
ATOM      4  N   UNL     1     -48.126  -3.187  -8.346  1.00  0.00    -0.350 N 
ATOM      5  H   UNL     1     -48.819  -3.949  -8.527  1.00  0.00     0.345 HD
ATOM      6  H   UNL     1     -48.613  -2.261  -8.363  1.00  0.00     0.345 HD
ATOM      7  H   UNL     1     -47.424  -3.217  -9.122  1.00  0.00     0.345 HD
ENDBRANCH   3   4
BRANCH   3   8
ATOM      8  C   UNL     1     -48.031  -2.448  -6.034  1.00  0.00     0.099 C 
ATOM      9  O   UNL     1     -48.810  -2.870  -5.140  1.00  0.00    -0.544 OA
ATOM     10  O   UNL     1     -47.701  -1.099  -6.077  1.00  0.00    -0.544 OA
ENDBRANCH   3   8
ENDBRANCH   1   3
BRANCH   1  11
ATOM     11  C   UNL     1     -46.346  -5.749  -6.866  1.00  0.00     0.006 C 
ATOM     12  C   UNL     1     -46.349  -6.432  -8.236  1.00  0.00     0.004 C 
ENDBRANCH   1  11
TORSDOF 4
ENDMDL
MODEL 3
REMARK VINA RESULT:    -4.495      1.804      2.494
REMARK INTER + INTRA:          -5.413
REMARK INTER:                  -5.400
REMARK INTRA:                  -0.013
REMARK UNBOUND:                 0.002
REMARK SMILES CC[C@H](C)[C@@H]([NH3+])C(=O)[O-]
REMARK SMILES IDX 3 1 4 2 5 3 6 4 7 8 8 9 9 10 2 11 1 12
REMARK H PARENT 6 5 6 6 6 7
REMARK Flexibility Score: inf
ROOT
ATOM      1  C   UNL     1     -46.994  -5.528  -7.296  1.00  0.00     0.050 C 
ATOM      2  C   UNL     1     -46.149  -4.673  -8.258  1.00  0.00     0.014 C 
ENDROOT
BRANCH   1   3
ATOM      3  C   UNL     1     -48.390  -4.884  -7.018  1.00  0.00     0.230 C 
BRANCH   3   4
ATOM      4  N   UNL     1     -48.866  -5.193  -5.661  1.00  0.00    -0.350 N 
ATOM      5  H   UNL     1     -48.989  -6.225  -5.547  1.00  0.00     0.345 HD
ATOM      6  H   UNL     1     -48.193  -4.840  -4.942  1.00  0.00     0.345 HD
ATOM      7  H   UNL     1     -49.800  -4.749  -5.499  1.00  0.00     0.345 HD
ENDBRANCH   3   4
BRANCH   3   8
ATOM      8  C   UNL     1     -48.337  -3.387  -7.196  1.00  0.00     0.099 C 
ATOM      9  O   UNL     1     -48.826  -2.855  -8.228  1.00  0.00    -0.544 OA
ATOM     10  O   UNL     1     -47.751  -2.587  -6.224  1.00  0.00    -0.544 OA
ENDBRANCH   3   8
ENDBRANCH   1   3
BRANCH   1  11
ATOM     11  C   UNL     1     -46.195  -5.851  -6.004  1.00  0.00     0.006 C 
ATOM     12  C   UNL     1     -45.119  -4.822  -5.647  1.00  0.00     0.004 C 
ENDBRANCH   1  11
TORSDOF 4
ENDMDL
MODEL 4
REMARK VINA RESULT:    -4.327      1.466      2.334
REMARK INTER + INTRA:          -5.211
REMARK INTER:                  -5.124
REMARK INTRA:                  -0.087
REMARK UNBOUND:                 0.002
REMARK SMILES CC[C@H](C)[C@@H]([NH3+])C(=O)[O-]
REMARK SMILES IDX 3 1 4 2 5 3 6 4 7 8 8 9 9 10 2 11 1 12
REMARK H PARENT 6 5 6 6 6 7
REMARK Flexibility Score: inf
ROOT
ATOM      1  C   UNL     1     -46.527  -5.011  -7.490  1.00  0.00     0.050 C 
ATOM      2  C   UNL     1     -45.598  -4.754  -8.691  1.00  0.00     0.014 C 
ENDROOT
BRANCH   1   3
ATOM      3  C   UNL     1     -47.422  -3.771  -7.172  1.00  0.00     0.230 C 
BRANCH   3   4
ATOM      4  N   UNL     1     -47.875  -3.102  -8.400  1.00  0.00    -0.350 N 
ATOM      5  H   UNL     1     -48.787  -2.619  -8.235  1.00  0.00     0.345 HD
ATOM      6  H   UNL     1     -47.165  -2.406  -8.728  1.00  0.00     0.345 HD
ATOM      7  H   UNL     1     -48.032  -3.809  -9.157  1.00  0.00     0.345 HD
ENDBRANCH   3   4
BRANCH   3   8
ATOM      8  C   UNL     1     -48.625  -4.170  -6.353  1.00  0.00     0.099 C 
ATOM      9  O   UNL     1     -49.064  -3.402  -5.457  1.00  0.00    -0.544 OA
ATOM     10  O   UNL     1     -49.255  -5.387  -6.583  1.00  0.00    -0.544 OA
ENDBRANCH   3   8
ENDBRANCH   1   3
BRANCH   1  11
ATOM     11  C   UNL     1     -45.715  -5.515  -6.266  1.00  0.00     0.006 C 
ATOM     12  C   UNL     1     -45.194  -4.407  -5.348  1.00  0.00     0.004 C 
ENDBRANCH   1  11
TORSDOF 4
ENDMDL
MODEL 5
REMARK VINA RESULT:    -4.180      2.584      3.785
REMARK INTER + INTRA:          -5.033
REMARK INTER:                  -4.973
REMARK INTRA:                  -0.060
REMARK UNBOUND:                 0.002
REMARK SMILES CC[C@H](C)[C@@H]([NH3+])C(=O)[O-]
REMARK SMILES IDX 3 1 4 2 5 3 6 4 7 8 8 9 9 10 2 11 1 12
REMARK H PARENT 6 5 6 6 6 7
REMARK Flexibility Score: inf
ROOT
ATOM      1  C   UNL     1     -47.455  -3.566  -7.192  1.00  0.00     0.050 C 
ATOM      2  C   UNL     1     -48.698  -3.003  -7.906  1.00  0.00     0.014 C 
ENDROOT
BRANCH   1   3
ATOM      3  C   UNL     1     -47.681  -5.031  -6.699  1.00  0.00     0.230 C 
BRANCH   3   4
ATOM      4  N   UNL     1     -48.870  -5.632  -7.320  1.00  0.00    -0.350 N 
ATOM      5  H   UNL     1     -48.709  -6.650  -7.500  1.00  0.00     0.345 HD
ATOM      6  H   UNL     1     -49.709  -5.515  -6.708  1.00  0.00     0.345 HD
ATOM      7  H   UNL     1     -49.058  -5.181  -8.246  1.00  0.00     0.345 HD
ENDBRANCH   3   4
BRANCH   3   8
ATOM      8  C   UNL     1     -46.477  -5.891  -6.996  1.00  0.00     0.099 C 
ATOM      9  O   UNL     1     -45.599  -6.078  -6.112  1.00  0.00    -0.544 OA
ATOM     10  O   UNL     1     -46.330  -6.481  -8.244  1.00  0.00    -0.544 OA
ENDBRANCH   3   8
ENDBRANCH   1   3
BRANCH   1  11
ATOM     11  C   UNL     1     -46.987  -2.602  -6.067  1.00  0.00     0.006 C 
ATOM     12  C   UNL     1     -47.655  -1.225  -6.090  1.00  0.00     0.004 C 
ENDBRANCH   1  11
TORSDOF 4
ENDMDL
MODEL 6
REMARK VINA RESULT:    -3.923      2.334      3.385
REMARK INTER + INTRA:          -4.723
REMARK INTER:                  -4.783
REMARK INTRA:                   0.060
REMARK UNBOUND:                 0.002
REMARK SMILES CC[C@H](C)[C@@H]([NH3+])C(=O)[O-]
REMARK SMILES IDX 3 1 4 2 5 3 6 4 7 8 8 9 9 10 2 11 1 12
REMARK H PARENT 6 5 6 6 6 7
REMARK Flexibility Score: inf
ROOT
ATOM      1  C   UNL     1     -48.239  -4.508  -7.194  1.00  0.00     0.050 C 
ATOM      2  C   UNL     1     -48.623  -4.780  -5.727  1.00  0.00     0.014 C 
ENDROOT
BRANCH   1   3
ATOM      3  C   UNL     1     -46.832  -5.087  -7.545  1.00  0.00     0.230 C 
BRANCH   3   4
ATOM      4  N   UNL     1     -46.115  -4.224  -8.495  1.00  0.00    -0.350 N 
ATOM      5  H   UNL     1     -46.691  -3.382  -8.726  1.00  0.00     0.345 HD
ATOM      6  H   UNL     1     -45.195  -3.920  -8.100  1.00  0.00     0.345 HD
ATOM      7  H   UNL     1     -45.946  -4.739  -9.391  1.00  0.00     0.345 HD
ENDBRANCH   3   4
BRANCH   3   8
ATOM      8  C   UNL     1     -45.994  -5.259  -6.301  1.00  0.00     0.099 C 
ATOM      9  O   UNL     1     -45.746  -6.412  -5.860  1.00  0.00    -0.544 OA
ATOM     10  O   UNL     1     -45.493  -4.147  -5.636  1.00  0.00    -0.544 OA
ENDBRANCH   3   8
ENDBRANCH   1   3
BRANCH   1  11
ATOM     11  C   UNL     1     -48.385  -2.997  -7.526  1.00  0.00     0.006 C 
ATOM     12  C   UNL     1     -48.077  -2.056  -6.359  1.00  0.00     0.004 C 
ENDBRANCH   1  11
TORSDOF 4
ENDMDL
MODEL 7
REMARK VINA RESULT:    -3.899     15.862     16.611
REMARK INTER + INTRA:          -4.695
REMARK INTER:                  -4.782
REMARK INTRA:                   0.087
REMARK UNBOUND:                 0.002
REMARK SMILES CC[C@H](C)[C@@H]([NH3+])C(=O)[O-]
REMARK SMILES IDX 3 1 4 2 5 3 6 4 7 8 8 9 9 10 2 11 1 12
REMARK H PARENT 6 5 6 6 6 7
REMARK Flexibility Score: inf
ROOT
ATOM      1  C   UNL     1     -42.133 -18.031   1.038  1.00  0.00     0.050 C 
ATOM      2  C   UNL     1     -41.296 -18.512   2.238  1.00  0.00     0.014 C 
ENDROOT
BRANCH   1   3
ATOM      3  C   UNL     1     -43.635 -17.836   1.416  1.00  0.00     0.230 C 
BRANCH   3   4
ATOM      4  N   UNL     1     -44.312 -19.125   1.622  1.00  0.00    -0.350 N 
ATOM      5  H   UNL     1     -43.972 -19.576   2.502  1.00  0.00     0.345 HD
ATOM      6  H   UNL     1     -45.349 -18.997   1.673  1.00  0.00     0.345 HD
ATOM      7  H   UNL     1     -44.089 -19.777   0.833  1.00  0.00     0.345 HD
ENDBRANCH   3   4
BRANCH   3   8
ATOM      8  C   UNL     1     -43.773 -16.999   2.665  1.00  0.00     0.099 C 
ATOM      9  O   UNL     1     -43.882 -15.748   2.579  1.00  0.00    -0.544 OA
ATOM     10  O   UNL     1     -43.779 -17.605   3.915  1.00  0.00    -0.544 OA
ENDBRANCH   3   8
ENDBRANCH   1   3
BRANCH   1  11
ATOM     11  C   UNL     1     -41.921 -18.963  -0.187  1.00  0.00     0.006 C 
ATOM     12  C   UNL     1     -42.478 -18.418  -1.505  1.00  0.00     0.004 C 
ENDBRANCH   1  11
TORSDOF 4
ENDMDL
MODEL 8
REMARK VINA RESULT:    -3.775     16.276     17.016
REMARK INTER + INTRA:          -4.545
REMARK INTER:                  -4.461
REMARK INTRA:                  -0.084
REMARK UNBOUND:                 0.002
REMARK SMILES CC[C@H](C)[C@@H]([NH3+])C(=O)[O-]
REMARK SMILES IDX 3 1 4 2 5 3 6 4 7 8 8 9 9 10 2 11 1 12
REMARK H PARENT 6 5 6 6 6 7
REMARK Flexibility Score: inf
ROOT
ATOM      1  C   UNL     1     -43.271 -17.905   1.945  1.00  0.00     0.050 C 
ATOM      2  C   UNL     1     -43.242 -19.035   2.991  1.00  0.00     0.014 C 
ENDROOT
BRANCH   1   3
ATOM      3  C   UNL     1     -41.955 -17.855   1.105  1.00  0.00     0.230 C 
BRANCH   3   4
ATOM      4  N   UNL     1     -40.807 -18.364   1.871  1.00  0.00    -0.350 N 
ATOM      5  H   UNL     1     -40.656 -19.378   1.664  1.00  0.00     0.345 HD
ATOM      6  H   UNL     1     -39.939 -17.827   1.641  1.00  0.00     0.345 HD
ATOM      7  H   UNL     1     -40.996 -18.282   2.897  1.00  0.00     0.345 HD
ENDBRANCH   3   4
BRANCH   3   8
ATOM      8  C   UNL     1     -42.096 -18.654  -0.167  1.00  0.00     0.099 C 
ATOM      9  O   UNL     1     -41.076 -19.125  -0.735  1.00  0.00    -0.544 OA
ATOM     10  O   UNL     1     -43.352 -18.873  -0.719  1.00  0.00    -0.544 OA
ENDBRANCH   3   8
ENDBRANCH   1   3
BRANCH   1  11
ATOM     11  C   UNL     1     -43.629 -16.549   2.612  1.00  0.00     0.006 C 
ATOM     12  C   UNL     1     -43.896 -16.631   4.117  1.00  0.00     0.004 C 
ENDBRANCH   1  11
TORSDOF 4
ENDMDL
MODEL 9
REMARK VINA RESULT:    -3.607     16.112     17.480
REMARK INTER + INTRA:          -4.343
REMARK INTER:                  -4.274
REMARK INTRA:                  -0.070
REMARK UNBOUND:                 0.002
REMARK SMILES CC[C@H](C)[C@@H]([NH3+])C(=O)[O-]
REMARK SMILES IDX 3 1 4 2 5 3 6 4 7 8 8 9 9 10 2 11 1 12
REMARK H PARENT 6 5 6 6 6 7
REMARK Flexibility Score: inf
ROOT
ATOM      1  C   UNL     1     -43.257 -17.257   3.334  1.00  0.00     0.050 C 
ATOM      2  C   UNL     1     -43.907 -16.025   2.678  1.00  0.00     0.014 C 
ENDROOT
BRANCH   1   3
ATOM      3  C   UNL     1     -43.119 -18.446   2.331  1.00  0.00     0.230 C 
BRANCH   3   4
ATOM      4  N   UNL     1     -44.223 -18.463   1.360  1.00  0.00    -0.350 N 
ATOM      5  H   UNL     1     -45.044 -17.935   1.735  1.00  0.00     0.345 HD
ATOM      6  H   UNL     1     -43.924 -18.044   0.450  1.00  0.00     0.345 HD
ATOM      7  H   UNL     1     -44.539 -19.448   1.193  1.00  0.00     0.345 HD
ENDBRANCH   3   4
BRANCH   3   8
ATOM      8  C   UNL     1     -41.807 -18.377   1.589  1.00  0.00     0.099 C 
ATOM      9  O   UNL     1     -41.782 -18.028   0.380  1.00  0.00    -0.544 OA
ATOM     10  O   UNL     1     -40.620 -18.697   2.237  1.00  0.00    -0.544 OA
ENDBRANCH   3   8
ENDBRANCH   1   3
BRANCH   1  11
ATOM     11  C   UNL     1     -44.001 -17.637   4.643  1.00  0.00     0.006 C 
ATOM     12  C   UNL     1     -44.340 -19.125   4.773  1.00  0.00     0.004 C 
ENDBRANCH   1  11
TORSDOF 4
ENDMDL
