MODEL 1
REMARK VINA RESULT:    -4.673      0.000      0.000
REMARK INTER + INTRA:          -9.312
REMARK INTER:                  -7.952
REMARK INTRA:                  -1.360
REMARK UNBOUND:                -1.360
REMARK SMILES CCCCCCCCCCCCCC(=O)[O-]
REMARK SMILES IDX 8 1 9 2 10 3 11 4 12 5 13 6 14 7 15 8 16 9 7 10 6 11 5 12
REMARK SMILES IDX 4 13 3 14 2 15 1 16
REMARK H PARENT
REMARK Flexibility Score: inf
ROOT
ATOM      1  C   UNL     1       5.036 -35.934  22.531  1.00  0.00     0.000 C 
ENDROOT
BRANCH   1   2
ATOM      2  C   UNL     1       6.009 -36.187  21.368  1.00  0.00     0.000 C 
BRANCH   2   3
ATOM      3  C   UNL     1       5.291 -36.280  20.010  1.00  0.00     0.000 C 
BRANCH   3   4
ATOM      4  C   UNL     1       3.976 -37.072  20.092  1.00  0.00     0.000 C 
BRANCH   4   5
ATOM      5  C   UNL     1       3.905 -38.215  19.068  1.00  0.00     0.006 C 
BRANCH   5   6
ATOM      6  C   UNL     1       2.654 -38.089  18.192  1.00  0.00     0.053 C 
BRANCH   6   7
ATOM      7  C   UNL     1       3.011 -37.558  16.840  1.00  0.00     0.041 C 
ATOM      8  O   UNL     1       3.356 -36.356  16.704  1.00  0.00    -0.550 OA
ATOM      9  O   UNL     1       3.011 -38.404  15.739  1.00  0.00    -0.550 OA
ENDBRANCH   6   7
ENDBRANCH   5   6
ENDBRANCH   4   5
ENDBRANCH   3   4
ENDBRANCH   2   3
ENDBRANCH   1   2
BRANCH   1  10
ATOM     10  C   UNL     1       5.760 -35.666  23.863  1.00  0.00     0.000 C 
BRANCH  10  11
ATOM     11  C   UNL     1       6.125 -36.960  24.610  1.00  0.00    -0.000 C 
BRANCH  11  12
ATOM     12  C   UNL     1       4.903 -37.862  24.858  1.00  0.00    -0.000 C 
BRANCH  12  13
ATOM     13  C   UNL     1       5.095 -39.282  24.300  1.00  0.00    -0.000 C 
BRANCH  13  14
ATOM     14  C   UNL     1       4.473 -39.460  22.904  1.00  0.00    -0.000 C 
BRANCH  14  15
ATOM     15  C   UNL     1       5.429 -40.151  21.919  1.00  0.00    -0.003 C 
ATOM     16  C   UNL     1       5.818 -41.560  22.365  1.00  0.00     0.004 C 
ENDBRANCH  14  15
ENDBRANCH  13  14
ENDBRANCH  12  13
ENDBRANCH  11  12
ENDBRANCH  10  11
ENDBRANCH   1  10
TORSDOF 12
ENDMDL
MODEL 2
REMARK VINA RESULT:    -4.609      0.875      1.661
REMARK INTER + INTRA:          -9.202
REMARK INTER:                  -7.948
REMARK INTRA:                  -1.254
REMARK UNBOUND:                -1.360
REMARK SMILES CCCCCCCCCCCCCC(=O)[O-]
REMARK SMILES IDX 8 1 9 2 10 3 11 4 12 5 13 6 14 7 15 8 16 9 7 10 6 11 5 12
REMARK SMILES IDX 4 13 3 14 2 15 1 16
REMARK H PARENT
REMARK Flexibility Score: inf
ROOT
ATOM      1  C   UNL     1       6.006 -35.978  21.239  1.00  0.00     0.000 C 
ENDROOT
BRANCH   1   2
ATOM      2  C   UNL     1       5.420 -36.417  19.887  1.00  0.00     0.000 C 
BRANCH   2   3
ATOM      3  C   UNL     1       4.046 -37.094  20.032  1.00  0.00     0.000 C 
BRANCH   3   4
ATOM      4  C   UNL     1       3.802 -38.168  18.960  1.00  0.00     0.000 C 
BRANCH   4   5
ATOM      5  C   UNL     1       2.665 -37.798  17.995  1.00  0.00     0.006 C 
BRANCH   5   6
ATOM      6  C   UNL     1       3.110 -37.958  16.538  1.00  0.00     0.053 C 
BRANCH   6   7
ATOM      7  C   UNL     1       2.193 -37.209  15.624  1.00  0.00     0.041 C 
ATOM      8  O   UNL     1       1.246 -36.528  16.097  1.00  0.00    -0.550 OA
ATOM      9  O   UNL     1       2.414 -37.223  14.253  1.00  0.00    -0.550 OA
ENDBRANCH   6   7
ENDBRANCH   5   6
ENDBRANCH   4   5
ENDBRANCH   3   4
ENDBRANCH   2   3
ENDBRANCH   1   2
BRANCH   1  10
ATOM     10  C   UNL     1       4.960 -35.982  22.369  1.00  0.00     0.000 C 
BRANCH  10  11
ATOM     11  C   UNL     1       5.588 -35.776  23.758  1.00  0.00    -0.000 C 
BRANCH  11  12
ATOM     12  C   UNL     1       6.075 -37.094  24.385  1.00  0.00    -0.000 C 
BRANCH  12  13
ATOM     13  C   UNL     1       4.917 -37.964  24.902  1.00  0.00    -0.000 C 
BRANCH  13  14
ATOM     14  C   UNL     1       4.973 -39.405  24.366  1.00  0.00    -0.000 C 
BRANCH  14  15
ATOM     15  C   UNL     1       4.382 -39.530  22.953  1.00  0.00    -0.003 C 
ATOM     16  C   UNL     1       5.397 -40.044  21.933  1.00  0.00     0.004 C 
ENDBRANCH  14  15
ENDBRANCH  13  14
ENDBRANCH  12  13
ENDBRANCH  11  12
ENDBRANCH  10  11
ENDBRANCH   1  10
TORSDOF 12
ENDMDL
MODEL 3
REMARK VINA RESULT:    -4.556      2.618      6.058
REMARK INTER + INTRA:          -9.112
REMARK INTER:                  -8.264
REMARK INTRA:                  -0.848
REMARK UNBOUND:                -1.360
REMARK SMILES CCCCCCCCCCCCCC(=O)[O-]
REMARK SMILES IDX 8 1 9 2 10 3 11 4 12 5 13 6 14 7 15 8 16 9 7 10 6 11 5 12
REMARK SMILES IDX 4 13 3 14 2 15 1 16
REMARK H PARENT
REMARK Flexibility Score: inf
ROOT
ATOM      1  C   UNL     1       5.869 -36.344  21.322  1.00  0.00     0.000 C 
ENDROOT
BRANCH   1   2
ATOM      2  C   UNL     1       4.958 -36.105  22.538  1.00  0.00     0.000 C 
BRANCH   2   3
ATOM      3  C   UNL     1       5.752 -35.966  23.849  1.00  0.00     0.000 C 
BRANCH   3   4
ATOM      4  C   UNL     1       5.982 -37.317  24.545  1.00  0.00     0.000 C 
BRANCH   4   5
ATOM      5  C   UNL     1       4.724 -38.201  24.556  1.00  0.00     0.006 C 
BRANCH   5   6
ATOM      6  C   UNL     1       5.084 -39.668  24.301  1.00  0.00     0.053 C 
BRANCH   6   7
ATOM      7  C   UNL     1       4.842 -40.028  22.870  1.00  0.00     0.041 C 
ATOM      8  O   UNL     1       3.870 -39.525  22.247  1.00  0.00    -0.550 OA
ATOM      9  O   UNL     1       5.719 -40.878  22.209  1.00  0.00    -0.550 OA
ENDBRANCH   6   7
ENDBRANCH   5   6
ENDBRANCH   4   5
ENDBRANCH   3   4
ENDBRANCH   2   3
ENDBRANCH   1   2
BRANCH   1  10
ATOM     10  C   UNL     1       5.244 -37.301  20.290  1.00  0.00     0.000 C 
BRANCH  10  11
ATOM     11  C   UNL     1       3.928 -36.761  19.704  1.00  0.00    -0.000 C 
BRANCH  11  12
ATOM     12  C   UNL     1       3.052 -37.873  19.100  1.00  0.00    -0.000 C 
BRANCH  12  13
ATOM     13  C   UNL     1       3.097 -37.889  17.563  1.00  0.00    -0.000 C 
BRANCH  13  14
ATOM     14  C   UNL     1       1.738 -37.547  16.927  1.00  0.00    -0.000 C 
BRANCH  14  15
ATOM     15  C   UNL     1       1.882 -36.956  15.516  1.00  0.00    -0.003 C 
ATOM     16  C   UNL     1       3.089 -37.514  14.763  1.00  0.00     0.004 C 
ENDBRANCH  14  15
ENDBRANCH  13  14
ENDBRANCH  12  13
ENDBRANCH  11  12
ENDBRANCH  10  11
ENDBRANCH   1  10
TORSDOF 12
ENDMDL
MODEL 4
REMARK VINA RESULT:    -4.551      3.008      6.467
REMARK INTER + INTRA:          -9.104
REMARK INTER:                  -8.361
REMARK INTRA:                  -0.743
REMARK UNBOUND:                -1.360
REMARK SMILES CCCCCCCCCCCCCC(=O)[O-]
REMARK SMILES IDX 8 1 9 2 10 3 11 4 12 5 13 6 14 7 15 8 16 9 7 10 6 11 5 12
REMARK SMILES IDX 4 13 3 14 2 15 1 16
REMARK H PARENT
REMARK Flexibility Score: inf
ROOT
ATOM      1  C   UNL     1       4.489 -36.294  21.118  1.00  0.00     0.000 C 
ENDROOT
BRANCH   1   2
ATOM      2  C   UNL     1       5.952 -36.187  21.581  1.00  0.00     0.000 C 
BRANCH   2   3
ATOM      3  C   UNL     1       6.085 -35.522  22.962  1.00  0.00     0.000 C 
BRANCH   3   4
ATOM      4  C   UNL     1       5.248 -36.231  24.040  1.00  0.00     0.000 C 
BRANCH   4   5
ATOM      5  C   UNL     1       5.824 -37.600  24.434  1.00  0.00     0.006 C 
BRANCH   5   6
ATOM      6  C   UNL     1       4.705 -38.623  24.651  1.00  0.00     0.053 C 
BRANCH   6   7
ATOM      7  C   UNL     1       4.780 -39.709  23.625  1.00  0.00     0.041 C 
ATOM      8  O   UNL     1       4.299 -39.528  22.476  1.00  0.00    -0.550 OA
ATOM      9  O   UNL     1       5.426 -40.902  23.921  1.00  0.00    -0.550 OA
ENDBRANCH   6   7
ENDBRANCH   5   6
ENDBRANCH   4   5
ENDBRANCH   3   4
ENDBRANCH   2   3
ENDBRANCH   1   2
BRANCH   1  10
ATOM     10  C   UNL     1       4.361 -36.770  19.660  1.00  0.00     0.000 C 
BRANCH  10  11
ATOM     11  C   UNL     1       3.189 -37.745  19.456  1.00  0.00    -0.000 C 
BRANCH  11  12
ATOM     12  C   UNL     1       3.044 -38.194  17.991  1.00  0.00    -0.000 C 
BRANCH  12  13
ATOM     13  C   UNL     1       2.966 -37.007  17.016  1.00  0.00    -0.000 C 
BRANCH  13  14
ATOM     14  C   UNL     1       2.128 -37.321  15.765  1.00  0.00    -0.000 C 
BRANCH  14  15
ATOM     15  C   UNL     1       2.939 -37.193  14.467  1.00  0.00    -0.003 C 
ATOM     16  C   UNL     1       3.782 -38.433  14.173  1.00  0.00     0.004 C 
ENDBRANCH  14  15
ENDBRANCH  13  14
ENDBRANCH  12  13
ENDBRANCH  11  12
ENDBRANCH  10  11
ENDBRANCH   1  10
TORSDOF 12
ENDMDL
MODEL 5
REMARK VINA RESULT:    -4.515      3.396      7.092
REMARK INTER + INTRA:          -9.043
REMARK INTER:                  -8.327
REMARK INTRA:                  -0.716
REMARK UNBOUND:                -1.360
REMARK SMILES CCCCCCCCCCCCCC(=O)[O-]
REMARK SMILES IDX 8 1 9 2 10 3 11 4 12 5 13 6 14 7 15 8 16 9 7 10 6 11 5 12
REMARK SMILES IDX 4 13 3 14 2 15 1 16
REMARK H PARENT
REMARK Flexibility Score: inf
ROOT
ATOM      1  C   UNL     1       3.831 -36.874  19.900  1.00  0.00     0.000 C 
ENDROOT
BRANCH   1   2
ATOM      2  C   UNL     1       4.949 -37.519  20.735  1.00  0.00     0.000 C 
BRANCH   2   3
ATOM      3  C   UNL     1       5.781 -36.480  21.508  1.00  0.00     0.000 C 
BRANCH   3   4
ATOM      4  C   UNL     1       4.958 -35.746  22.580  1.00  0.00     0.000 C 
BRANCH   4   5
ATOM      5  C   UNL     1       5.417 -36.075  24.009  1.00  0.00     0.006 C 
BRANCH   5   6
ATOM      6  C   UNL     1       6.028 -37.477  24.079  1.00  0.00     0.053 C 
BRANCH   6   7
ATOM      7  C   UNL     1       5.040 -38.454  24.635  1.00  0.00     0.041 C 
ATOM      8  O   UNL     1       4.757 -39.500  23.995  1.00  0.00    -0.550 OA
ATOM      9  O   UNL     1       4.470 -38.233  25.882  1.00  0.00    -0.550 OA
ENDBRANCH   6   7
ENDBRANCH   5   6
ENDBRANCH   4   5
ENDBRANCH   3   4
ENDBRANCH   2   3
ENDBRANCH   1   2
BRANCH   1  10
ATOM     10  C   UNL     1       3.643 -37.554  18.532  1.00  0.00     0.000 C 
BRANCH  10  11
ATOM     11  C   UNL     1       2.250 -38.185  18.370  1.00  0.00    -0.000 C 
BRANCH  11  12
ATOM     12  C   UNL     1       1.590 -37.820  17.029  1.00  0.00    -0.000 C 
BRANCH  12  13
ATOM     13  C   UNL     1       2.450 -36.859  16.192  1.00  0.00    -0.000 C 
BRANCH  13  14
ATOM     14  C   UNL     1       2.316 -37.107  14.679  1.00  0.00    -0.000 C 
BRANCH  14  15
ATOM     15  C   UNL     1       3.631 -37.583  14.043  1.00  0.00    -0.003 C 
ATOM     16  C   UNL     1       3.915 -39.060  14.310  1.00  0.00     0.004 C 
ENDBRANCH  14  15
ENDBRANCH  13  14
ENDBRANCH  12  13
ENDBRANCH  11  12
ENDBRANCH  10  11
ENDBRANCH   1  10
TORSDOF 12
ENDMDL
MODEL 6
REMARK VINA RESULT:    -4.164      1.364      1.538
REMARK INTER + INTRA:          -8.444
REMARK INTER:                  -7.109
REMARK INTRA:                  -1.335
REMARK UNBOUND:                -1.360
REMARK SMILES CCCCCCCCCCCCCC(=O)[O-]
REMARK SMILES IDX 8 1 9 2 10 3 11 4 12 5 13 6 14 7 15 8 16 9 7 10 6 11 5 12
REMARK SMILES IDX 4 13 3 14 2 15 1 16
REMARK H PARENT
REMARK Flexibility Score: inf
ROOT
ATOM      1  C   UNL     1       4.779 -35.897  22.177  1.00  0.00     0.000 C 
ENDROOT
BRANCH   1   2
ATOM      2  C   UNL     1       5.742 -36.503  21.143  1.00  0.00     0.000 C 
BRANCH   2   3
ATOM      3  C   UNL     1       5.583 -35.871  19.749  1.00  0.00     0.000 C 
BRANCH   3   4
ATOM      4  C   UNL     1       4.247 -36.241  19.084  1.00  0.00     0.000 C 
BRANCH   4   5
ATOM      5  C   UNL     1       4.080 -37.756  18.889  1.00  0.00     0.006 C 
BRANCH   5   6
ATOM      6  C   UNL     1       2.822 -38.264  19.600  1.00  0.00     0.053 C 
BRANCH   6   7
ATOM      7  C   UNL     1       1.648 -38.240  18.673  1.00  0.00     0.041 C 
ATOM      8  O   UNL     1       0.500 -38.531  19.099  1.00  0.00    -0.550 OA
ATOM      9  O   UNL     1       1.814 -37.847  17.352  1.00  0.00    -0.550 OA
ENDBRANCH   6   7
ENDBRANCH   5   6
ENDBRANCH   4   5
ENDBRANCH   3   4
ENDBRANCH   2   3
ENDBRANCH   1   2
BRANCH   1  10
ATOM     10  C   UNL     1       5.477 -35.551  23.506  1.00  0.00     0.000 C 
BRANCH  10  11
ATOM     11  C   UNL     1       6.086 -36.784  24.193  1.00  0.00    -0.000 C 
BRANCH  11  12
ATOM     12  C   UNL     1       5.061 -37.548  25.050  1.00  0.00    -0.000 C 
BRANCH  12  13
ATOM     13  C   UNL     1       4.978 -39.038  24.681  1.00  0.00    -0.000 C 
BRANCH  13  14
ATOM     14  C   UNL     1       4.604 -39.264  23.205  1.00  0.00    -0.000 C 
BRANCH  14  15
ATOM     15  C   UNL     1       5.224 -40.548  22.632  1.00  0.00    -0.003 C 
ATOM     16  C   UNL     1       5.874 -40.330  21.266  1.00  0.00     0.004 C 
ENDBRANCH  14  15
ENDBRANCH  13  14
ENDBRANCH  12  13
ENDBRANCH  11  12
ENDBRANCH  10  11
ENDBRANCH   1  10
TORSDOF 12
ENDMDL
MODEL 7
REMARK VINA RESULT:    -4.078      1.338      3.066
REMARK INTER + INTRA:          -8.299
REMARK INTER:                  -7.489
REMARK INTRA:                  -0.810
REMARK UNBOUND:                -1.360
REMARK SMILES CCCCCCCCCCCCCC(=O)[O-]
REMARK SMILES IDX 8 1 9 2 10 3 11 4 12 5 13 6 14 7 15 8 16 9 7 10 6 11 5 12
REMARK SMILES IDX 4 13 3 14 2 15 1 16
REMARK H PARENT
REMARK Flexibility Score: inf
ROOT
ATOM      1  C   UNL     1       4.128 -38.652  21.133  1.00  0.00     0.000 C 
ENDROOT
BRANCH   1   2
ATOM      2  C   UNL     1       4.917 -37.949  20.016  1.00  0.00     0.000 C 
BRANCH   2   3
ATOM      3  C   UNL     1       4.003 -37.199  19.031  1.00  0.00     0.000 C 
BRANCH   3   4
ATOM      4  C   UNL     1       2.649 -37.900  18.834  1.00  0.00     0.000 C 
BRANCH   4   5
ATOM      5  C   UNL     1       2.169 -37.867  17.375  1.00  0.00     0.006 C 
BRANCH   5   6
ATOM      6  C   UNL     1       3.224 -37.227  16.466  1.00  0.00     0.053 C 
BRANCH   6   7
ATOM      7  C   UNL     1       2.979 -37.596  15.038  1.00  0.00     0.041 C 
ATOM      8  O   UNL     1       2.000 -37.105  14.416  1.00  0.00    -0.550 OA
ATOM      9  O   UNL     1       3.860 -38.441  14.377  1.00  0.00    -0.550 OA
ENDBRANCH   6   7
ENDBRANCH   5   6
ENDBRANCH   4   5
ENDBRANCH   3   4
ENDBRANCH   2   3
ENDBRANCH   1   2
BRANCH   1  10
ATOM     10  C   UNL     1       5.032 -39.465  22.077  1.00  0.00     0.000 C 
BRANCH  10  11
ATOM     11  C   UNL     1       4.402 -39.674  23.465  1.00  0.00    -0.000 C 
BRANCH  11  12
ATOM     12  C   UNL     1       5.368 -39.324  24.610  1.00  0.00    -0.000 C 
BRANCH  12  13
ATOM     13  C   UNL     1       4.912 -38.092  25.409  1.00  0.00    -0.000 C 
BRANCH  13  14
ATOM     14  C   UNL     1       5.798 -36.860  25.156  1.00  0.00    -0.000 C 
BRANCH  14  15
ATOM     15  C   UNL     1       6.118 -36.661  23.667  1.00  0.00    -0.003 C 
ATOM     16  C   UNL     1       5.529 -35.369  23.103  1.00  0.00     0.004 C 
ENDBRANCH  14  15
ENDBRANCH  13  14
ENDBRANCH  12  13
ENDBRANCH  11  12
ENDBRANCH  10  11
ENDBRANCH   1  10
TORSDOF 12
ENDMDL
MODEL 8
REMARK VINA RESULT:    -3.673      1.789      2.478
REMARK INTER + INTRA:          -7.610
REMARK INTER:                  -6.544
REMARK INTRA:                  -1.066
REMARK UNBOUND:                -1.360
REMARK SMILES CCCCCCCCCCCCCC(=O)[O-]
REMARK SMILES IDX 8 1 9 2 10 3 11 4 12 5 13 6 14 7 15 8 16 9 7 10 6 11 5 12
REMARK SMILES IDX 4 13 3 14 2 15 1 16
REMARK H PARENT
REMARK Flexibility Score: inf
ROOT
ATOM      1  C   UNL     1       5.517 -37.105  20.669  1.00  0.00     0.000 C 
ENDROOT
BRANCH   1   2
ATOM      2  C   UNL     1       4.770 -37.374  19.353  1.00  0.00     0.000 C 
BRANCH   2   3
ATOM      3  C   UNL     1       4.326 -36.078  18.652  1.00  0.00     0.000 C 
BRANCH   3   4
ATOM      4  C   UNL     1       3.616 -36.346  17.314  1.00  0.00     0.000 C 
BRANCH   4   5
ATOM      5  C   UNL     1       3.041 -37.768  17.220  1.00  0.00     0.006 C 
BRANCH   5   6
ATOM      6  C   UNL     1       1.518 -37.754  17.378  1.00  0.00     0.053 C 
BRANCH   6   7
ATOM      7  C   UNL     1       1.123 -38.304  18.711  1.00  0.00     0.041 C 
ATOM      8  O   UNL     1      -0.083 -38.284  19.072  1.00  0.00    -0.550 OA
ATOM      9  O   UNL     1       2.078 -38.887  19.534  1.00  0.00    -0.550 OA
ENDBRANCH   6   7
ENDBRANCH   5   6
ENDBRANCH   4   5
ENDBRANCH   3   4
ENDBRANCH   2   3
ENDBRANCH   1   2
BRANCH   1  10
ATOM     10  C   UNL     1       4.699 -36.249  21.653  1.00  0.00     0.000 C 
BRANCH  10  11
ATOM     11  C   UNL     1       5.518 -35.807  22.877  1.00  0.00    -0.000 C 
BRANCH  11  12
ATOM     12  C   UNL     1       6.060 -36.999  23.685  1.00  0.00    -0.000 C 
BRANCH  12  13
ATOM     13  C   UNL     1       4.991 -37.629  24.592  1.00  0.00    -0.000 C 
BRANCH  13  14
ATOM     14  C   UNL     1       4.900 -39.157  24.429  1.00  0.00    -0.000 C 
BRANCH  14  15
ATOM     15  C   UNL     1       4.321 -39.568  23.067  1.00  0.00    -0.003 C 
ATOM     16  C   UNL     1       5.239 -40.517  22.298  1.00  0.00     0.004 C 
ENDBRANCH  14  15
ENDBRANCH  13  14
ENDBRANCH  12  13
ENDBRANCH  11  12
ENDBRANCH  10  11
ENDBRANCH   1  10
TORSDOF 12
ENDMDL
MODEL 9
REMARK VINA RESULT:    -3.615      3.015      6.044
REMARK INTER + INTRA:          -7.511
REMARK INTER:                  -6.776
REMARK INTRA:                  -0.735
REMARK UNBOUND:                -1.360
REMARK SMILES CCCCCCCCCCCCCC(=O)[O-]
REMARK SMILES IDX 8 1 9 2 10 3 11 4 12 5 13 6 14 7 15 8 16 9 7 10 6 11 5 12
REMARK SMILES IDX 4 13 3 14 2 15 1 16
REMARK H PARENT
REMARK Flexibility Score: inf
ROOT
ATOM      1  C   UNL     1       4.415 -36.134  21.558  1.00  0.00     0.000 C 
ENDROOT
BRANCH   1   2
ATOM      2  C   UNL     1       5.905 -35.992  21.910  1.00  0.00     0.000 C 
BRANCH   2   3
ATOM      3  C   UNL     1       6.125 -35.388  23.308  1.00  0.00     0.000 C 
BRANCH   3   4
ATOM      4  C   UNL     1       5.344 -36.135  24.402  1.00  0.00     0.000 C 
BRANCH   4   5
ATOM      5  C   UNL     1       5.966 -37.496  24.751  1.00  0.00     0.006 C 
BRANCH   5   6
ATOM      6  C   UNL     1       4.881 -38.560  24.945  1.00  0.00     0.053 C 
BRANCH   6   7
ATOM      7  C   UNL     1       4.952 -39.586  23.859  1.00  0.00     0.041 C 
ATOM      8  O   UNL     1       4.690 -39.269  22.669  1.00  0.00    -0.550 OA
ATOM      9  O   UNL     1       5.357 -40.882  24.153  1.00  0.00    -0.550 OA
ENDBRANCH   6   7
ENDBRANCH   5   6
ENDBRANCH   4   5
ENDBRANCH   3   4
ENDBRANCH   2   3
ENDBRANCH   1   2
BRANCH   1  10
ATOM     10  C   UNL     1       4.189 -36.783  20.181  1.00  0.00     0.000 C 
BRANCH  10  11
ATOM     11  C   UNL     1       4.719 -35.918  19.024  1.00  0.00    -0.000 C 
BRANCH  11  12
ATOM     12  C   UNL     1       3.850 -36.030  17.759  1.00  0.00    -0.000 C 
BRANCH  12  13
ATOM     13  C   UNL     1       3.534 -37.488  17.388  1.00  0.00    -0.000 C 
BRANCH  13  14
ATOM     14  C   UNL     1       2.037 -37.821  17.512  1.00  0.00    -0.000 C 
BRANCH  14  15
ATOM     15  C   UNL     1       1.684 -38.443  18.872  1.00  0.00    -0.003 C 
ATOM     16  C   UNL     1       0.210 -38.268  19.236  1.00  0.00     0.004 C 
ENDBRANCH  14  15
ENDBRANCH  13  14
ENDBRANCH  12  13
ENDBRANCH  11  12
ENDBRANCH  10  11
ENDBRANCH   1  10
TORSDOF 12
ENDMDL
