MODEL 1
REMARK VINA RESULT:    -3.949      0.000      0.000
REMARK INTER + INTRA:          -6.800
REMARK INTER:                  -6.026
REMARK INTRA:                  -0.774
REMARK UNBOUND:                -0.774
REMARK SMILES O=C([O-])CCCCCCCCC(=O)[O-]
REMARK SMILES IDX 7 1 6 2 5 3 4 4 2 5 1 6 3 7 8 8 9 9 10 10 11 11 12 12 13 13
REMARK SMILES IDX 14 14
REMARK H PARENT
REMARK Flexibility Score: inf
ROOT
ATOM      1  C   UNL     1      22.024   5.639  15.137  1.00  0.00     0.000 C 
ENDROOT
BRANCH   1   2
ATOM      2  C   UNL     1      21.534   6.759  14.207  1.00  0.00     0.000 C 
BRANCH   2   3
ATOM      3  C   UNL     1      21.197   6.250  12.795  1.00  0.00     0.006 C 
BRANCH   3   4
ATOM      4  C   UNL     1      22.456   5.934  11.977  1.00  0.00     0.053 C 
BRANCH   4   5
ATOM      5  C   UNL     1      22.986   7.150  11.281  1.00  0.00     0.041 C 
ATOM      6  O   UNL     1      24.149   7.147  10.798  1.00  0.00    -0.550 OA
ATOM      7  O   UNL     1      22.209   8.298  11.196  1.00  0.00    -0.550 OA
ENDBRANCH   4   5
ENDBRANCH   3   4
ENDBRANCH   2   3
ENDBRANCH   1   2
BRANCH   1   8
ATOM      8  C   UNL     1      22.705   6.181  16.406  1.00  0.00     0.000 C 
BRANCH   8   9
ATOM      9  C   UNL     1      23.889   7.109  16.092  1.00  0.00     0.000 C 
BRANCH   9  10
ATOM     10  C   UNL     1      25.075   6.361  15.459  1.00  0.00     0.006 C 
BRANCH  10  11
ATOM     11  C   UNL     1      25.443   6.923  14.080  1.00  0.00     0.053 C 
BRANCH  11  12
ATOM     12  C   UNL     1      26.789   6.447  13.626  1.00  0.00     0.041 C 
ATOM     13  O   UNL     1      27.261   5.366  14.067  1.00  0.00    -0.550 OA
ATOM     14  O   UNL     1      27.511   7.182  12.693  1.00  0.00    -0.550 OA
ENDBRANCH  11  12
ENDBRANCH  10  11
ENDBRANCH   9  10
ENDBRANCH   8   9
ENDBRANCH   1   8
TORSDOF 9
ENDMDL
MODEL 2
REMARK VINA RESULT:    -3.853      2.179      5.863
REMARK INTER + INTRA:          -6.654
REMARK INTER:                  -6.134
REMARK INTRA:                  -0.520
REMARK UNBOUND:                -0.774
REMARK SMILES O=C([O-])CCCCCCCCC(=O)[O-]
REMARK SMILES IDX 7 1 6 2 5 3 4 4 2 5 1 6 3 7 8 8 9 9 10 10 11 11 12 12 13 13
REMARK SMILES IDX 14 14
REMARK H PARENT
REMARK Flexibility Score: inf
ROOT
ATOM      1  C   UNL     1      22.452   6.143  13.774  1.00  0.00     0.000 C 
ENDROOT
BRANCH   1   2
ATOM      2  C   UNL     1      22.375   6.540  15.257  1.00  0.00     0.000 C 
BRANCH   2   3
ATOM      3  C   UNL     1      23.700   7.118  15.783  1.00  0.00     0.006 C 
BRANCH   3   4
ATOM      4  C   UNL     1      24.867   6.137  15.615  1.00  0.00     0.053 C 
BRANCH   4   5
ATOM      5  C   UNL     1      25.995   6.742  14.837  1.00  0.00     0.041 C 
ATOM      6  O   UNL     1      27.163   6.739  15.307  1.00  0.00    -0.550 OA
ATOM      7  O   UNL     1      25.750   7.343  13.608  1.00  0.00    -0.550 OA
ENDBRANCH   4   5
ENDBRANCH   3   4
ENDBRANCH   2   3
ENDBRANCH   1   2
BRANCH   1   8
ATOM      8  C   UNL     1      21.621   7.072  12.871  1.00  0.00     0.000 C 
BRANCH   8   9
ATOM      9  C   UNL     1      22.399   7.542  11.631  1.00  0.00     0.000 C 
BRANCH   9  10
ATOM     10  C   UNL     1      21.749   7.081  10.315  1.00  0.00     0.006 C 
BRANCH  10  11
ATOM     11  C   UNL     1      20.345   6.502  10.534  1.00  0.00     0.053 C 
BRANCH  11  12
ATOM     12  C   UNL     1      19.295   7.309   9.834  1.00  0.00     0.041 C 
ATOM     13  O   UNL     1      18.964   8.440  10.278  1.00  0.00    -0.550 OA
ATOM     14  O   UNL     1      18.702   6.825   8.675  1.00  0.00    -0.550 OA
ENDBRANCH  11  12
ENDBRANCH  10  11
ENDBRANCH   9  10
ENDBRANCH   8   9
ENDBRANCH   1   8
TORSDOF 9
ENDMDL
MODEL 3
REMARK VINA RESULT:    -3.845     12.315     13.633
REMARK INTER + INTRA:          -6.641
REMARK INTER:                  -5.935
REMARK INTRA:                  -0.706
REMARK UNBOUND:                -0.774
REMARK SMILES O=C([O-])CCCCCCCCC(=O)[O-]
REMARK SMILES IDX 7 1 6 2 5 3 4 4 2 5 1 6 3 7 8 8 9 9 10 10 11 11 12 12 13 13
REMARK SMILES IDX 14 14
REMARK H PARENT
REMARK Flexibility Score: inf
ROOT
ATOM      1  C   UNL     1      29.438  -1.334   7.504  1.00  0.00     0.000 C 
ENDROOT
BRANCH   1   2
ATOM      2  C   UNL     1      29.008  -0.357   6.398  1.00  0.00     0.000 C 
BRANCH   2   3
ATOM      3  C   UNL     1      28.993  -1.011   5.006  1.00  0.00     0.006 C 
BRANCH   3   4
ATOM      4  C   UNL     1      30.266  -0.700   4.207  1.00  0.00     0.053 C 
BRANCH   4   5
ATOM      5  C   UNL     1      30.947  -1.950   3.740  1.00  0.00     0.041 C 
ATOM      6  O   UNL     1      31.937  -1.881   2.965  1.00  0.00    -0.550 OA
ATOM      7  O   UNL     1      30.467  -3.194   4.133  1.00  0.00    -0.550 OA
ENDBRANCH   4   5
ENDBRANCH   3   4
ENDBRANCH   2   3
ENDBRANCH   1   2
BRANCH   1   8
ATOM      8  C   UNL     1      28.251  -1.818   8.357  1.00  0.00     0.000 C 
BRANCH   8   9
ATOM      9  C   UNL     1      28.072  -3.343   8.310  1.00  0.00     0.000 C 
BRANCH   9  10
ATOM     10  C   UNL     1      28.893  -4.001   7.187  1.00  0.00     0.006 C 
BRANCH  10  11
ATOM     11  C   UNL     1      29.667  -5.230   7.678  1.00  0.00     0.053 C 
BRANCH  11  12
ATOM     12  C   UNL     1      31.123  -4.933   7.869  1.00  0.00     0.041 C 
ATOM     13  O   UNL     1      31.793  -4.420   6.933  1.00  0.00    -0.550 OA
ATOM     14  O   UNL     1      31.734  -5.194   9.089  1.00  0.00    -0.550 OA
ENDBRANCH  11  12
ENDBRANCH  10  11
ENDBRANCH   9  10
ENDBRANCH   8   9
ENDBRANCH   1   8
TORSDOF 9
ENDMDL
MODEL 4
REMARK VINA RESULT:    -3.837      5.173      7.425
REMARK INTER + INTRA:          -6.630
REMARK INTER:                  -6.125
REMARK INTRA:                  -0.505
REMARK UNBOUND:                -0.774
REMARK SMILES O=C([O-])CCCCCCCCC(=O)[O-]
REMARK SMILES IDX 7 1 6 2 5 3 4 4 2 5 1 6 3 7 8 8 9 9 10 10 11 11 12 12 13 13
REMARK SMILES IDX 14 14
REMARK H PARENT
REMARK Flexibility Score: inf
ROOT
ATOM      1  C   UNL     1      24.315   4.040  18.458  1.00  0.00     0.000 C 
ENDROOT
BRANCH   1   2
ATOM      2  C   UNL     1      23.977   3.036  19.571  1.00  0.00     0.000 C 
BRANCH   2   3
ATOM      3  C   UNL     1      22.671   3.386  20.306  1.00  0.00     0.006 C 
BRANCH   3   4
ATOM      4  C   UNL     1      22.746   3.067  21.805  1.00  0.00     0.053 C 
BRANCH   4   5
ATOM      5  C   UNL     1      22.940   1.603  22.052  1.00  0.00     0.041 C 
ATOM      6  O   UNL     1      22.006   0.791  21.819  1.00  0.00    -0.550 OA
ATOM      7  O   UNL     1      24.141   1.137  22.574  1.00  0.00    -0.550 OA
ENDBRANCH   4   5
ENDBRANCH   3   4
ENDBRANCH   2   3
ENDBRANCH   1   2
BRANCH   1   8
ATOM      8  C   UNL     1      23.057   4.649  17.812  1.00  0.00     0.000 C 
BRANCH   8   9
ATOM      9  C   UNL     1      23.063   6.185  17.840  1.00  0.00     0.000 C 
BRANCH   9  10
ATOM     10  C   UNL     1      23.036   6.803  16.431  1.00  0.00     0.006 C 
BRANCH  10  11
ATOM     11  C   UNL     1      24.374   7.455  16.059  1.00  0.00     0.053 C 
BRANCH  11  12
ATOM     12  C   UNL     1      25.075   6.706  14.968  1.00  0.00     0.041 C 
ATOM     13  O   UNL     1      25.033   5.447  14.935  1.00  0.00    -0.550 OA
ATOM     14  O   UNL     1      25.749   7.397  13.969  1.00  0.00    -0.550 OA
ENDBRANCH  11  12
ENDBRANCH  10  11
ENDBRANCH   9  10
ENDBRANCH   8   9
ENDBRANCH   1   8
TORSDOF 9
ENDMDL
MODEL 5
REMARK VINA RESULT:    -3.785      5.408      6.849
REMARK INTER + INTRA:          -6.550
REMARK INTER:                  -6.185
REMARK INTRA:                  -0.365
REMARK UNBOUND:                -0.774
REMARK SMILES O=C([O-])CCCCCCCCC(=O)[O-]
REMARK SMILES IDX 7 1 6 2 5 3 4 4 2 5 1 6 3 7 8 8 9 9 10 10 11 11 12 12 13 13
REMARK SMILES IDX 14 14
REMARK H PARENT
REMARK Flexibility Score: inf
ROOT
ATOM      1  C   UNL     1      23.742   4.691  17.488  1.00  0.00     0.000 C 
ENDROOT
BRANCH   1   2
ATOM      2  C   UNL     1      23.038   6.049  17.631  1.00  0.00     0.000 C 
BRANCH   2   3
ATOM      3  C   UNL     1      23.128   6.899  16.351  1.00  0.00     0.006 C 
BRANCH   3   4
ATOM      4  C   UNL     1      24.578   7.103  15.892  1.00  0.00     0.053 C 
BRANCH   4   5
ATOM      5  C   UNL     1      24.760   6.740  14.450  1.00  0.00     0.041 C 
ATOM      6  O   UNL     1      25.743   7.187  13.803  1.00  0.00    -0.550 OA
ATOM      7  O   UNL     1      23.824   5.935  13.811  1.00  0.00    -0.550 OA
ENDBRANCH   4   5
ENDBRANCH   3   4
ENDBRANCH   2   3
ENDBRANCH   1   2
BRANCH   1   8
ATOM      8  C   UNL     1      23.934   3.981  18.840  1.00  0.00     0.000 C 
BRANCH   8   9
ATOM      9  C   UNL     1      22.650   3.298  19.337  1.00  0.00     0.000 C 
BRANCH   9  10
ATOM     10  C   UNL     1      22.558   3.257  20.872  1.00  0.00     0.006 C 
BRANCH  10  11
ATOM     11  C   UNL     1      23.480   2.192  21.479  1.00  0.00     0.053 C 
BRANCH  11  12
ATOM     12  C   UNL     1      22.713   0.993  21.946  1.00  0.00     0.041 C 
ATOM     13  O   UNL     1      23.141   0.301  22.908  1.00  0.00    -0.550 OA
ATOM     14  O   UNL     1      21.509   0.655  21.340  1.00  0.00    -0.550 OA
ENDBRANCH  11  12
ENDBRANCH  10  11
ENDBRANCH   9  10
ENDBRANCH   8   9
ENDBRANCH   1   8
TORSDOF 9
ENDMDL
MODEL 6
REMARK VINA RESULT:    -3.780      1.181      4.976
REMARK INTER + INTRA:          -6.543
REMARK INTER:                  -5.883
REMARK INTRA:                  -0.660
REMARK UNBOUND:                -0.774
REMARK SMILES O=C([O-])CCCCCCCCC(=O)[O-]
REMARK SMILES IDX 7 1 6 2 5 3 4 4 2 5 1 6 3 7 8 8 9 9 10 10 11 11 12 12 13 13
REMARK SMILES IDX 14 14
REMARK H PARENT
REMARK Flexibility Score: inf
ROOT
ATOM      1  C   UNL     1      22.491   6.261  16.004  1.00  0.00     0.000 C 
ENDROOT
BRANCH   1   2
ATOM      2  C   UNL     1      23.700   7.112  16.423  1.00  0.00     0.000 C 
BRANCH   2   3
ATOM      3  C   UNL     1      24.780   7.181  15.330  1.00  0.00     0.006 C 
BRANCH   3   4
ATOM      4  C   UNL     1      25.675   5.934  15.320  1.00  0.00     0.053 C 
BRANCH   4   5
ATOM      5  C   UNL     1      27.102   6.277  15.020  1.00  0.00     0.041 C 
ATOM      6  O   UNL     1      28.006   6.013  15.856  1.00  0.00    -0.550 OA
ATOM      7  O   UNL     1      27.430   6.920  13.833  1.00  0.00    -0.550 OA
ENDBRANCH   4   5
ENDBRANCH   3   4
ENDBRANCH   2   3
ENDBRANCH   1   2
BRANCH   1   8
ATOM      8  C   UNL     1      21.850   6.752  14.693  1.00  0.00     0.000 C 
BRANCH   8   9
ATOM      9  C   UNL     1      21.627   5.616  13.683  1.00  0.00     0.000 C 
BRANCH   9  10
ATOM     10  C   UNL     1      22.682   5.604  12.563  1.00  0.00     0.006 C 
BRANCH  10  11
ATOM     11  C   UNL     1      22.061   5.829  11.179  1.00  0.00     0.053 C 
BRANCH  11  12
ATOM     12  C   UNL     1      21.570   7.235  11.010  1.00  0.00     0.041 C 
ATOM     13  O   UNL     1      22.290   8.204  11.368  1.00  0.00    -0.550 OA
ATOM     14  O   UNL     1      20.331   7.475  10.431  1.00  0.00    -0.550 OA
ENDBRANCH  11  12
ENDBRANCH  10  11
ENDBRANCH   9  10
ENDBRANCH   8   9
ENDBRANCH   1   8
TORSDOF 9
ENDMDL
MODEL 7
REMARK VINA RESULT:    -3.774     11.010     12.538
REMARK INTER + INTRA:          -6.534
REMARK INTER:                  -5.585
REMARK INTRA:                  -0.948
REMARK UNBOUND:                -0.774
REMARK SMILES O=C([O-])CCCCCCCCC(=O)[O-]
REMARK SMILES IDX 7 1 6 2 5 3 4 4 2 5 1 6 3 7 8 8 9 9 10 10 11 11 12 12 13 13
REMARK SMILES IDX 14 14
REMARK H PARENT
REMARK Flexibility Score: inf
ROOT
ATOM      1  C   UNL     1      29.629  -1.402   7.588  1.00  0.00     0.000 C 
ENDROOT
BRANCH   1   2
ATOM      2  C   UNL     1      29.117  -0.099   8.221  1.00  0.00     0.000 C 
BRANCH   2   3
ATOM      3  C   UNL     1      27.837  -0.308   9.048  1.00  0.00     0.006 C 
BRANCH   3   4
ATOM      4  C   UNL     1      28.037  -1.324  10.180  1.00  0.00     0.053 C 
BRANCH   4   5
ATOM      5  C   UNL     1      26.877  -2.266  10.292  1.00  0.00     0.041 C 
ATOM      6  O   UNL     1      26.163  -2.514   9.286  1.00  0.00    -0.550 OA
ATOM      7  O   UNL     1      26.564  -2.842  11.518  1.00  0.00    -0.550 OA
ENDBRANCH   4   5
ENDBRANCH   3   4
ENDBRANCH   2   3
ENDBRANCH   1   2
BRANCH   1   8
ATOM      8  C   UNL     1      28.711  -1.911   6.462  1.00  0.00     0.000 C 
BRANCH   8   9
ATOM      9  C   UNL     1      28.419  -3.416   6.571  1.00  0.00     0.000 C 
BRANCH   9  10
ATOM     10  C   UNL     1      28.975  -4.033   7.866  1.00  0.00     0.006 C 
BRANCH  10  11
ATOM     11  C   UNL     1      29.839  -5.271   7.593  1.00  0.00     0.053 C 
BRANCH  11  12
ATOM     12  C   UNL     1      31.301  -4.968   7.714  1.00  0.00     0.041 C 
ATOM     13  O   UNL     1      31.874  -4.255   6.848  1.00  0.00    -0.550 OA
ATOM     14  O   UNL     1      32.025  -5.448   8.798  1.00  0.00    -0.550 OA
ENDBRANCH  11  12
ENDBRANCH  10  11
ENDBRANCH   9  10
ENDBRANCH   8   9
ENDBRANCH   1   8
TORSDOF 9
ENDMDL
MODEL 8
REMARK VINA RESULT:    -3.761      2.890      5.078
REMARK INTER + INTRA:          -6.513
REMARK INTER:                  -5.868
REMARK INTRA:                  -0.645
REMARK UNBOUND:                -0.774
REMARK SMILES O=C([O-])CCCCCCCCC(=O)[O-]
REMARK SMILES IDX 7 1 6 2 5 3 4 4 2 5 1 6 3 7 8 8 9 9 10 10 11 11 12 12 13 13
REMARK SMILES IDX 14 14
REMARK H PARENT
REMARK Flexibility Score: inf
ROOT
ATOM      1  C   UNL     1      22.958   5.986  17.059  1.00  0.00     0.000 C 
ENDROOT
BRANCH   1   2
ATOM      2  C   UNL     1      23.016   6.026  18.594  1.00  0.00     0.000 C 
BRANCH   2   3
ATOM      3  C   UNL     1      23.243   4.635  19.212  1.00  0.00     0.006 C 
BRANCH   3   4
ATOM      4  C   UNL     1      23.357   3.538  18.145  1.00  0.00     0.053 C 
BRANCH   4   5
ATOM      5  C   UNL     1      24.767   3.055  17.994  1.00  0.00     0.041 C 
ATOM      6  O   UNL     1      25.055   2.206  17.110  1.00  0.00    -0.550 OA
ATOM      7  O   UNL     1      25.757   3.516  18.854  1.00  0.00    -0.550 OA
ENDBRANCH   4   5
ENDBRANCH   3   4
ENDBRANCH   2   3
ENDBRANCH   1   2
BRANCH   1   8
ATOM      8  C   UNL     1      23.689   7.176  16.411  1.00  0.00     0.000 C 
BRANCH   8   9
ATOM      9  C   UNL     1      24.533   6.762  15.196  1.00  0.00     0.000 C 
BRANCH   9  10
ATOM     10  C   UNL     1      25.638   5.755  15.559  1.00  0.00     0.006 C 
BRANCH  10  11
ATOM     11  C   UNL     1      27.028   6.239  15.126  1.00  0.00     0.053 C 
BRANCH  11  12
ATOM     12  C   UNL     1      27.133   6.373  13.638  1.00  0.00     0.041 C 
ATOM     13  O   UNL     1      27.572   7.437  13.127  1.00  0.00    -0.550 OA
ATOM     14  O   UNL     1      26.774   5.312  12.815  1.00  0.00    -0.550 OA
ENDBRANCH  11  12
ENDBRANCH  10  11
ENDBRANCH   9  10
ENDBRANCH   8   9
ENDBRANCH   1   8
TORSDOF 9
ENDMDL
MODEL 9
REMARK VINA RESULT:    -3.721      4.393      6.678
REMARK INTER + INTRA:          -6.452
REMARK INTER:                  -5.807
REMARK INTRA:                  -0.644
REMARK UNBOUND:                -0.774
REMARK SMILES O=C([O-])CCCCCCCCC(=O)[O-]
REMARK SMILES IDX 7 1 6 2 5 3 4 4 2 5 1 6 3 7 8 8 9 9 10 10 11 11 12 12 13 13
REMARK SMILES IDX 14 14
REMARK H PARENT
REMARK Flexibility Score: inf
ROOT
ATOM      1  C   UNL     1      19.039   4.559   7.852  1.00  0.00     0.000 C 
ENDROOT
BRANCH   1   2
ATOM      2  C   UNL     1      17.972   5.584   8.263  1.00  0.00     0.000 C 
BRANCH   2   3
ATOM      3  C   UNL     1      17.993   6.845   7.381  1.00  0.00     0.006 C 
BRANCH   3   4
ATOM      4  C   UNL     1      17.134   7.975   7.965  1.00  0.00     0.053 C 
BRANCH   4   5
ATOM      5  C   UNL     1      17.469   8.243   9.400  1.00  0.00     0.041 C 
ATOM      6  O   UNL     1      18.599   8.702   9.712  1.00  0.00    -0.550 OA
ATOM      7  O   UNL     1      16.546   7.952  10.397  1.00  0.00    -0.550 OA
ENDBRANCH   4   5
ENDBRANCH   3   4
ENDBRANCH   2   3
ENDBRANCH   1   2
BRANCH   1   8
ATOM      8  C   UNL     1      20.172   4.439   8.887  1.00  0.00     0.000 C 
BRANCH   8   9
ATOM      9  C   UNL     1      19.996   5.404  10.070  1.00  0.00     0.000 C 
BRANCH   9  10
ATOM     10  C   UNL     1      21.226   6.301  10.289  1.00  0.00     0.006 C 
BRANCH  10  11
ATOM     11  C   UNL     1      21.732   6.248  11.736  1.00  0.00     0.053 C 
BRANCH  11  12
ATOM     12  C   UNL     1      21.006   7.219  12.616  1.00  0.00     0.041 C 
ATOM     13  O   UNL     1      20.651   8.340  12.165  1.00  0.00    -0.550 OA
ATOM     14  O   UNL     1      20.695   6.875  13.926  1.00  0.00    -0.550 OA
ENDBRANCH  11  12
ENDBRANCH  10  11
ENDBRANCH   9  10
ENDBRANCH   8   9
ENDBRANCH   1   8
TORSDOF 9
ENDMDL
