MODEL 1
REMARK VINA RESULT:    -3.769      0.000      0.000
REMARK INTER + INTRA:          -4.132
REMARK INTER:                  -4.099
REMARK INTRA:                  -0.032
REMARK UNBOUND:                -0.032
REMARK SMILES COc1ccccc1O
REMARK SMILES IDX 3 1 4 2 5 3 6 4 7 5 8 6 2 7 1 8 9 9
REMARK H PARENT 9 10
REMARK Flexibility Score: inf
ROOT
ATOM      1  C   UNL     1     -10.454  39.542  -4.788  1.00  0.00     0.160 A 
ATOM      2  C   UNL     1      -9.272  39.978  -4.156  1.00  0.00     0.050 A 
ATOM      3  C   UNL     1      -9.047  39.689  -2.807  1.00  0.00     0.004 A 
ATOM      4  C   UNL     1      -9.993  38.966  -2.077  1.00  0.00     0.004 A 
ATOM      5  C   UNL     1     -11.167  38.531  -2.695  1.00  0.00     0.050 A 
ATOM      6  C   UNL     1     -11.401  38.816  -4.048  1.00  0.00     0.157 A 
ENDROOT
BRANCH   1   7
ATOM      7  O   UNL     1     -10.722  39.809  -6.139  1.00  0.00    -0.493 OA
ATOM      8  C   UNL     1      -9.756  39.733  -7.182  1.00  0.00     0.278 C 
ENDBRANCH   1   7
BRANCH   6   9
ATOM      9  O   UNL     1     -12.573  38.382  -4.665  1.00  0.00    -0.504 OA
ATOM     10  H   UNL     1     -12.631  38.263  -5.669  1.00  0.00     0.293 HD
ENDBRANCH   6   9
TORSDOF 2
ENDMDL
MODEL 2
REMARK VINA RESULT:    -3.713      5.662      7.257
REMARK INTER + INTRA:          -4.072
REMARK INTER:                  -4.042
REMARK INTRA:                  -0.030
REMARK UNBOUND:                -0.032
REMARK SMILES COc1ccccc1O
REMARK SMILES IDX 3 1 4 2 5 3 6 4 7 5 8 6 2 7 1 8 9 9
REMARK H PARENT 9 10
REMARK Flexibility Score: inf
ROOT
ATOM      1  C   UNL     1     -12.710  34.369   0.257  1.00  0.00     0.160 A 
ATOM      2  C   UNL     1     -13.554  35.093   1.123  1.00  0.00     0.050 A 
ATOM      3  C   UNL     1     -13.303  36.442   1.388  1.00  0.00     0.004 A 
ATOM      4  C   UNL     1     -12.212  37.081   0.795  1.00  0.00     0.004 A 
ATOM      5  C   UNL     1     -11.370  36.372  -0.065  1.00  0.00     0.050 A 
ATOM      6  C   UNL     1     -11.616  35.018  -0.336  1.00  0.00     0.157 A 
ENDROOT
BRANCH   1   7
ATOM      7  O   UNL     1     -12.925  33.014  -0.037  1.00  0.00    -0.493 OA
ATOM      8  C   UNL     1     -14.207  32.399  -0.107  1.00  0.00     0.278 C 
ENDBRANCH   1   7
BRANCH   6   9
ATOM      9  O   UNL     1     -10.776  34.310  -1.194  1.00  0.00    -0.504 OA
ATOM     10  H   UNL     1     -10.810  33.299  -1.254  1.00  0.00     0.293 HD
ENDBRANCH   6   9
TORSDOF 2
ENDMDL
MODEL 3
REMARK VINA RESULT:    -3.679      5.076      6.616
REMARK INTER + INTRA:          -4.034
REMARK INTER:                  -3.991
REMARK INTRA:                  -0.042
REMARK UNBOUND:                -0.032
REMARK SMILES COc1ccccc1O
REMARK SMILES IDX 3 1 4 2 5 3 6 4 7 5 8 6 2 7 1 8 9 9
REMARK H PARENT 9 10
REMARK Flexibility Score: inf
ROOT
ATOM      1  C   UNL     1     -11.922  35.934   0.308  1.00  0.00     0.160 A 
ATOM      2  C   UNL     1     -12.979  36.217   1.196  1.00  0.00     0.050 A 
ATOM      3  C   UNL     1     -13.957  35.254   1.457  1.00  0.00     0.004 A 
ATOM      4  C   UNL     1     -13.893  34.003   0.838  1.00  0.00     0.004 A 
ATOM      5  C   UNL     1     -12.850  33.714  -0.043  1.00  0.00     0.050 A 
ATOM      6  C   UNL     1     -11.864  34.674  -0.311  1.00  0.00     0.157 A 
ENDROOT
BRANCH   1   7
ATOM      7  O   UNL     1     -10.918  36.870   0.017  1.00  0.00    -0.493 OA
ATOM      8  C   UNL     1     -11.042  37.909  -0.948  1.00  0.00     0.278 C 
ENDBRANCH   1   7
BRANCH   6   9
ATOM      9  O   UNL     1     -10.822  34.386  -1.190  1.00  0.00    -0.504 OA
ATOM     10  H   UNL     1     -10.014  34.992  -1.273  1.00  0.00     0.293 HD
ENDBRANCH   6   9
TORSDOF 2
ENDMDL
MODEL 4
REMARK VINA RESULT:    -3.433      6.547      8.220
REMARK INTER + INTRA:          -3.767
REMARK INTER:                  -3.723
REMARK INTRA:                  -0.044
REMARK UNBOUND:                -0.032
REMARK SMILES COc1ccccc1O
REMARK SMILES IDX 3 1 4 2 5 3 6 4 7 5 8 6 2 7 1 8 9 9
REMARK H PARENT 9 10
REMARK Flexibility Score: inf
ROOT
ATOM      1  C   UNL     1     -13.228  34.685   1.034  1.00  0.00     0.160 A 
ATOM      2  C   UNL     1     -14.435  34.509   1.740  1.00  0.00     0.050 A 
ATOM      3  C   UNL     1     -15.311  33.477   1.392  1.00  0.00     0.004 A 
ATOM      4  C   UNL     1     -14.995  32.614   0.340  1.00  0.00     0.004 A 
ATOM      5  C   UNL     1     -13.802  32.781  -0.366  1.00  0.00     0.050 A 
ATOM      6  C   UNL     1     -12.917  33.813  -0.022  1.00  0.00     0.157 A 
ENDROOT
BRANCH   1   7
ATOM      7  O   UNL     1     -12.319  35.706   1.350  1.00  0.00    -0.493 OA
ATOM      8  C   UNL     1     -12.581  37.096   1.187  1.00  0.00     0.278 C 
ENDBRANCH   1   7
BRANCH   6   9
ATOM      9  O   UNL     1     -11.726  33.980  -0.726  1.00  0.00    -0.504 OA
ATOM     10  H   UNL     1     -11.705  33.994  -1.739  1.00  0.00     0.293 HD
ENDBRANCH   6   9
TORSDOF 2
ENDMDL
MODEL 5
REMARK VINA RESULT:    -3.402     16.151     17.396
REMARK INTER + INTRA:          -3.733
REMARK INTER:                  -3.690
REMARK INTRA:                  -0.043
REMARK UNBOUND:                -0.032
REMARK SMILES COc1ccccc1O
REMARK SMILES IDX 3 1 4 2 5 3 6 4 7 5 8 6 2 7 1 8 9 9
REMARK H PARENT 9 10
REMARK Flexibility Score: inf
ROOT
ATOM      1  C   UNL     1     -23.899  31.127 -12.354  1.00  0.00     0.160 A 
ATOM      2  C   UNL     1     -22.918  30.569 -13.199  1.00  0.00     0.050 A 
ATOM      3  C   UNL     1     -21.820  31.333 -13.604  1.00  0.00     0.004 A 
ATOM      4  C   UNL     1     -21.689  32.656 -13.175  1.00  0.00     0.004 A 
ATOM      5  C   UNL     1     -22.656  33.217 -12.338  1.00  0.00     0.050 A 
ATOM      6  C   UNL     1     -23.761  32.457 -11.926  1.00  0.00     0.157 A 
ENDROOT
BRANCH   1   7
ATOM      7  O   UNL     1     -25.017  30.397 -11.923  1.00  0.00    -0.493 OA
ATOM      8  C   UNL     1     -24.954  29.247 -11.085  1.00  0.00     0.278 C 
ENDBRANCH   1   7
BRANCH   6   9
ATOM      9  O   UNL     1     -24.726  33.016 -11.092  1.00  0.00    -0.504 OA
ATOM     10  H   UNL     1     -24.878  34.018 -11.052  1.00  0.00     0.293 HD
ENDBRANCH   6   9
TORSDOF 2
ENDMDL
MODEL 6
REMARK VINA RESULT:    -3.298      6.832      8.463
REMARK INTER + INTRA:          -3.620
REMARK INTER:                  -3.574
REMARK INTRA:                  -0.046
REMARK UNBOUND:                -0.032
REMARK SMILES COc1ccccc1O
REMARK SMILES IDX 3 1 4 2 5 3 6 4 7 5 8 6 2 7 1 8 9 9
REMARK H PARENT 9 10
REMARK Flexibility Score: inf
ROOT
ATOM      1  C   UNL     1     -12.381  33.571   1.223  1.00  0.00     0.160 A 
ATOM      2  C   UNL     1     -12.848  33.862  -0.075  1.00  0.00     0.050 A 
ATOM      3  C   UNL     1     -12.188  34.806  -0.866  1.00  0.00     0.004 A 
ATOM      4  C   UNL     1     -11.062  35.470  -0.374  1.00  0.00     0.004 A 
ATOM      5  C   UNL     1     -10.593  35.188   0.911  1.00  0.00     0.050 A 
ATOM      6  C   UNL     1     -11.248  34.241   1.711  1.00  0.00     0.157 A 
ENDROOT
BRANCH   1   7
ATOM      7  O   UNL     1     -13.012  32.630   2.051  1.00  0.00    -0.493 OA
ATOM      8  C   UNL     1     -12.931  31.220   1.874  1.00  0.00     0.278 C 
ENDBRANCH   1   7
BRANCH   6   9
ATOM      9  O   UNL     1     -10.780  33.960   2.993  1.00  0.00    -0.504 OA
ATOM     10  H   UNL     1     -10.569  34.698   3.655  1.00  0.00     0.293 HD
ENDBRANCH   6   9
TORSDOF 2
ENDMDL
MODEL 7
REMARK VINA RESULT:    -3.259      8.059      9.622
REMARK INTER + INTRA:          -3.577
REMARK INTER:                  -3.531
REMARK INTRA:                  -0.046
REMARK UNBOUND:                -0.032
REMARK SMILES COc1ccccc1O
REMARK SMILES IDX 3 1 4 2 5 3 6 4 7 5 8 6 2 7 1 8 9 9
REMARK H PARENT 9 10
REMARK Flexibility Score: inf
ROOT
ATOM      1  C   UNL     1     -15.102  32.374   0.868  1.00  0.00     0.160 A 
ATOM      2  C   UNL     1     -15.342  33.493   1.691  1.00  0.00     0.050 A 
ATOM      3  C   UNL     1     -14.498  34.605   1.632  1.00  0.00     0.004 A 
ATOM      4  C   UNL     1     -13.409  34.614   0.757  1.00  0.00     0.004 A 
ATOM      5  C   UNL     1     -13.164  33.510  -0.062  1.00  0.00     0.050 A 
ATOM      6  C   UNL     1     -14.006  32.390  -0.010  1.00  0.00     0.157 A 
ENDROOT
BRANCH   1   7
ATOM      7  O   UNL     1     -15.924  31.236   0.893  1.00  0.00    -0.493 OA
ATOM      8  C   UNL     1     -17.192  31.145   0.254  1.00  0.00     0.278 C 
ENDBRANCH   1   7
BRANCH   6   9
ATOM      9  O   UNL     1     -13.761  31.288  -0.827  1.00  0.00    -0.504 OA
ATOM     10  H   UNL     1     -14.517  30.718  -1.190  1.00  0.00     0.293 HD
ENDBRANCH   6   9
TORSDOF 2
ENDMDL
MODEL 8
REMARK VINA RESULT:    -3.250     15.547     16.623
REMARK INTER + INTRA:          -3.568
REMARK INTER:                  -3.541
REMARK INTRA:                  -0.027
REMARK UNBOUND:                -0.032
REMARK SMILES COc1ccccc1O
REMARK SMILES IDX 3 1 4 2 5 3 6 4 7 5 8 6 2 7 1 8 9 9
REMARK H PARENT 9 10
REMARK Flexibility Score: inf
ROOT
ATOM      1  C   UNL     1     -22.912  33.285 -12.779  1.00  0.00     0.160 A 
ATOM      2  C   UNL     1     -21.964  32.540 -13.509  1.00  0.00     0.050 A 
ATOM      3  C   UNL     1     -22.050  31.146 -13.559  1.00  0.00     0.004 A 
ATOM      4  C   UNL     1     -23.077  30.482 -12.883  1.00  0.00     0.004 A 
ATOM      5  C   UNL     1     -24.020  31.213 -12.157  1.00  0.00     0.050 A 
ATOM      6  C   UNL     1     -23.941  32.612 -12.103  1.00  0.00     0.157 A 
ENDROOT
BRANCH   1   7
ATOM      7  O   UNL     1     -22.864  34.686 -12.703  1.00  0.00    -0.493 OA
ATOM      8  C   UNL     1     -21.801  35.484 -13.213  1.00  0.00     0.278 C 
ENDBRANCH   1   7
BRANCH   6   9
ATOM      9  O   UNL     1     -24.882  33.341 -11.379  1.00  0.00    -0.504 OA
ATOM     10  H   UNL     1     -24.860  34.353 -11.347  1.00  0.00     0.293 HD
ENDBRANCH   6   9
TORSDOF 2
ENDMDL
MODEL 9
REMARK VINA RESULT:    -3.248      6.412      7.876
REMARK INTER + INTRA:          -3.565
REMARK INTER:                  -3.520
REMARK INTRA:                  -0.045
REMARK UNBOUND:                -0.032
REMARK SMILES COc1ccccc1O
REMARK SMILES IDX 3 1 4 2 5 3 6 4 7 5 8 6 2 7 1 8 9 9
REMARK H PARENT 9 10
REMARK Flexibility Score: inf
ROOT
ATOM      1  C   UNL     1     -11.440  34.666   0.695  1.00  0.00     0.160 A 
ATOM      2  C   UNL     1     -12.281  34.542  -0.430  1.00  0.00     0.050 A 
ATOM      3  C   UNL     1     -13.266  33.551  -0.468  1.00  0.00     0.004 A 
ATOM      4  C   UNL     1     -13.422  32.675   0.609  1.00  0.00     0.004 A 
ATOM      5  C   UNL     1     -12.593  32.790   1.727  1.00  0.00     0.050 A 
ATOM      6  C   UNL     1     -11.603  33.782   1.774  1.00  0.00     0.157 A 
ENDROOT
BRANCH   1   7
ATOM      7  O   UNL     1     -10.440  35.646   0.777  1.00  0.00    -0.493 OA
ATOM      8  C   UNL     1      -9.156  35.539   0.170  1.00  0.00     0.278 C 
ENDBRANCH   1   7
BRANCH   6   9
ATOM      9  O   UNL     1     -10.777  33.897   2.890  1.00  0.00    -0.504 OA
ATOM     10  H   UNL     1     -11.151  34.101   3.809  1.00  0.00     0.293 HD
ENDBRANCH   6   9
TORSDOF 2
ENDMDL
