MODEL 1
REMARK VINA RESULT:    -7.422      0.000      0.000
REMARK INTER + INTRA:          -9.258
REMARK INTER:                  -8.941
REMARK INTRA:                  -0.317
REMARK UNBOUND:                -0.317
REMARK SMILES O=c1c(O)c(-c2ccc(O)c(O)c2)oc2cc(O)cc(O)c12
REMARK SMILES IDX 5 1 3 2 2 3 1 4 22 5 20 6 19 7 17 8 16 9 15 10 14 11 6 12
REMARK SMILES IDX 7 13 8 14 9 15 13 16 11 17 10 18 12 20 4 22 21 24 18 26
REMARK H PARENT 10 19 12 21 4 23 21 25 18 27
REMARK Flexibility Score: inf
ROOT
ATOM      1  C   UNL     1      -7.763 -21.259  -7.941  1.00  0.00     0.180 A 
ATOM      2  C   UNL     1      -8.879 -20.939  -8.733  1.00  0.00     0.208 A 
ATOM      3  C   UNL     1     -10.067 -20.533  -8.104  1.00  0.00     0.238 A 
ATOM      4  O   UNL     1     -11.079 -20.301  -8.815  1.00  0.00    -0.285 OA
ATOM      5  C   UNL     1     -10.118 -20.434  -6.692  1.00  0.00     0.111 A 
ATOM      6  C   UNL     1     -11.256 -19.994  -5.951  1.00  0.00     0.134 A 
ATOM      7  C   UNL     1     -11.237 -20.060  -4.553  1.00  0.00     0.093 A 
ATOM      8  C   UNL     1     -10.101 -20.488  -3.867  1.00  0.00     0.123 A 
ATOM      9  C   UNL     1      -8.962 -20.864  -4.581  1.00  0.00     0.094 A 
ATOM     10  C   UNL     1      -8.963 -20.844  -5.977  1.00  0.00     0.146 A 
ATOM     11  O   UNL     1      -7.862 -21.220  -6.618  1.00  0.00    -0.452 OA
ENDROOT
BRANCH   1  12
ATOM     12  C   UNL     1      -6.469 -21.671  -8.533  1.00  0.00     0.025 A 
ATOM     13  C   UNL     1      -6.123 -23.031  -8.557  1.00  0.00     0.016 A 
ATOM     14  C   UNL     1      -4.899 -23.442  -9.091  1.00  0.00     0.051 A 
ATOM     15  C   UNL     1      -3.998 -22.500  -9.595  1.00  0.00     0.157 A 
ATOM     16  C   UNL     1      -5.552 -20.724  -9.021  1.00  0.00     0.062 A 
ATOM     17  C   UNL     1      -4.322 -21.133  -9.557  1.00  0.00     0.158 A 
BRANCH  15  18
ATOM     18  O   UNL     1      -2.784 -22.938 -10.125  1.00  0.00    -0.504 OA
ATOM     19  H   UNL     1      -2.039 -23.298  -9.539  1.00  0.00     0.293 HD
ENDBRANCH  15  18
BRANCH  17  20
ATOM     20  O   UNL     1      -3.421 -20.187 -10.044  1.00  0.00    -0.504 OA
ATOM     21  H   UNL     1      -3.386 -19.945 -11.027  1.00  0.00     0.293 HD
ENDBRANCH  17  20
ENDBRANCH   1  12
BRANCH   2  22
ATOM     22  O   UNL     1      -8.814 -21.065 -10.124  1.00  0.00    -0.502 OA
ATOM     23  H   UNL     1      -8.564 -21.934 -10.581  1.00  0.00     0.293 HD
ENDBRANCH   2  22
BRANCH   6  24
ATOM     24  O   UNL     1     -12.409 -19.461  -6.536  1.00  0.00    -0.507 OA
ATOM     25  H   UNL     1     -12.485 -19.173  -7.500  1.00  0.00     0.293 HD
ENDBRANCH   6  24
BRANCH   8  26
ATOM     26  O   UNL     1     -10.113 -20.527  -2.475  1.00  0.00    -0.508 OA
ATOM     27  H   UNL     1     -10.456 -21.336  -1.970  1.00  0.00     0.293 HD
ENDBRANCH   8  26
TORSDOF 6
ENDMDL
MODEL 2
REMARK VINA RESULT:    -7.302     13.528     16.157
REMARK INTER + INTRA:          -9.113
REMARK INTER:                  -8.912
REMARK INTRA:                  -0.201
REMARK UNBOUND:                -0.317
REMARK SMILES O=c1c(O)c(-c2ccc(O)c(O)c2)oc2cc(O)cc(O)c12
REMARK SMILES IDX 5 1 3 2 2 3 1 4 22 5 20 6 19 7 17 8 16 9 15 10 14 11 6 12
REMARK SMILES IDX 7 13 8 14 9 15 13 16 11 17 10 18 12 20 4 22 21 24 18 26
REMARK H PARENT 10 19 12 21 4 23 21 25 18 27
REMARK Flexibility Score: inf
ROOT
ATOM      1  C   UNL     1      -2.668 -13.982   4.458  1.00  0.00     0.180 A 
ATOM      2  C   UNL     1      -2.874 -12.639   4.818  1.00  0.00     0.208 A 
ATOM      3  C   UNL     1      -2.044 -12.060   5.792  1.00  0.00     0.238 A 
ATOM      4  O   UNL     1      -2.268 -10.875   6.150  1.00  0.00    -0.285 OA
ATOM      5  C   UNL     1      -1.008 -12.826   6.380  1.00  0.00     0.111 A 
ATOM      6  C   UNL     1      -0.082 -12.330   7.346  1.00  0.00     0.134 A 
ATOM      7  C   UNL     1       0.819 -13.212   7.956  1.00  0.00     0.093 A 
ATOM      8  C   UNL     1       0.872 -14.556   7.588  1.00  0.00     0.123 A 
ATOM      9  C   UNL     1       0.011 -15.038   6.601  1.00  0.00     0.094 A 
ATOM     10  C   UNL     1      -0.923 -14.191   6.001  1.00  0.00     0.146 A 
ATOM     11  O   UNL     1      -1.731 -14.693   5.074  1.00  0.00    -0.452 OA
ENDROOT
BRANCH   1  12
ATOM     12  C   UNL     1      -3.486 -14.654   3.422  1.00  0.00     0.025 A 
ATOM     13  C   UNL     1      -2.910 -14.961   2.179  1.00  0.00     0.016 A 
ATOM     14  C   UNL     1      -3.669 -15.576   1.180  1.00  0.00     0.051 A 
ATOM     15  C   UNL     1      -5.015 -15.880   1.401  1.00  0.00     0.157 A 
ATOM     16  C   UNL     1      -4.846 -14.941   3.635  1.00  0.00     0.062 A 
ATOM     17  C   UNL     1      -5.610 -15.558   2.633  1.00  0.00     0.158 A 
BRANCH  15  18
ATOM     18  O   UNL     1      -5.747 -16.496   0.386  1.00  0.00    -0.504 OA
ATOM     19  H   UNL     1      -6.199 -17.393   0.517  1.00  0.00     0.293 HD
ENDBRANCH  15  18
BRANCH  17  20
ATOM     20  O   UNL     1      -6.956 -15.844   2.855  1.00  0.00    -0.504 OA
ATOM     21  H   UNL     1      -7.446 -16.546   2.312  1.00  0.00     0.293 HD
ENDBRANCH  17  20
ENDBRANCH   1  12
BRANCH   2  22
ATOM     22  O   UNL     1      -3.917 -11.908   4.242  1.00  0.00    -0.502 OA
ATOM     23  H   UNL     1      -4.875 -11.984   4.561  1.00  0.00     0.293 HD
ENDBRANCH   2  22
BRANCH   6  24
ATOM     24  O   UNL     1       0.013 -10.986   7.718  1.00  0.00    -0.507 OA
ATOM     25  H   UNL     1      -0.513 -10.234   7.297  1.00  0.00     0.293 HD
ENDBRANCH   6  24
BRANCH   8  26
ATOM     26  O   UNL     1       1.792 -15.402   8.205  1.00  0.00    -0.508 OA
ATOM     27  H   UNL     1       2.708 -15.073   8.485  1.00  0.00     0.293 HD
ENDBRANCH   8  26
TORSDOF 6
ENDMDL
MODEL 3
REMARK VINA RESULT:    -7.163     11.326     14.258
REMARK INTER + INTRA:          -8.947
REMARK INTER:                  -8.672
REMARK INTRA:                  -0.275
REMARK UNBOUND:                -0.317
REMARK SMILES O=c1c(O)c(-c2ccc(O)c(O)c2)oc2cc(O)cc(O)c12
REMARK SMILES IDX 5 1 3 2 2 3 1 4 22 5 20 6 19 7 17 8 16 9 15 10 14 11 6 12
REMARK SMILES IDX 7 13 8 14 9 15 13 16 11 17 10 18 12 20 4 22 21 24 18 26
REMARK H PARENT 10 19 12 21 4 23 21 25 18 27
REMARK Flexibility Score: inf
ROOT
ATOM      1  C   UNL     1      -6.839 -13.149   1.995  1.00  0.00     0.180 A 
ATOM      2  C   UNL     1      -6.342 -14.154   1.148  1.00  0.00     0.208 A 
ATOM      3  C   UNL     1      -5.050 -14.657   1.372  1.00  0.00     0.238 A 
ATOM      4  O   UNL     1      -4.590 -15.518   0.578  1.00  0.00    -0.285 OA
ATOM      5  C   UNL     1      -4.279 -14.161   2.451  1.00  0.00     0.111 A 
ATOM      6  C   UNL     1      -2.975 -14.627   2.797  1.00  0.00     0.134 A 
ATOM      7  C   UNL     1      -2.252 -13.974   3.803  1.00  0.00     0.093 A 
ATOM      8  C   UNL     1      -2.810 -12.916   4.520  1.00  0.00     0.123 A 
ATOM      9  C   UNL     1      -4.108 -12.492   4.231  1.00  0.00     0.094 A 
ATOM     10  C   UNL     1      -4.840 -13.099   3.208  1.00  0.00     0.146 A 
ATOM     11  O   UNL     1      -6.067 -12.658   2.958  1.00  0.00    -0.452 OA
ENDROOT
BRANCH   1  12
ATOM     12  C   UNL     1      -8.200 -12.587   1.836  1.00  0.00     0.025 A 
ATOM     13  C   UNL     1      -8.439 -11.626   0.842  1.00  0.00     0.016 A 
ATOM     14  C   UNL     1      -9.710 -11.067   0.687  1.00  0.00     0.051 A 
ATOM     15  C   UNL     1     -10.756 -11.448   1.532  1.00  0.00     0.157 A 
ATOM     16  C   UNL     1      -9.248 -12.953   2.699  1.00  0.00     0.062 A 
ATOM     17  C   UNL     1     -10.525 -12.392   2.547  1.00  0.00     0.158 A 
BRANCH  15  18
ATOM     18  O   UNL     1     -12.015 -10.875   1.353  1.00  0.00    -0.504 OA
ATOM     19  H   UNL     1     -12.868 -11.354   1.621  1.00  0.00     0.293 HD
ENDBRANCH  15  18
BRANCH  17  20
ATOM     20  O   UNL     1     -11.561 -12.765   3.403  1.00  0.00    -0.504 OA
ATOM     21  H   UNL     1     -11.379 -13.223   4.288  1.00  0.00     0.293 HD
ENDBRANCH  17  20
ENDBRANCH   1  12
BRANCH   2  22
ATOM     22  O   UNL     1      -7.111 -14.614   0.075  1.00  0.00    -0.502 OA
ATOM     23  H   UNL     1      -7.086 -14.177  -0.839  1.00  0.00     0.293 HD
ENDBRANCH   2  22
BRANCH   6  24
ATOM     24  O   UNL     1      -2.360 -15.735   2.207  1.00  0.00    -0.507 OA
ATOM     25  H   UNL     1      -2.793 -16.336   1.522  1.00  0.00     0.293 HD
ENDBRANCH   6  24
BRANCH   8  26
ATOM     26  O   UNL     1      -2.069 -12.300   5.526  1.00  0.00    -0.508 OA
ATOM     27  H   UNL     1      -1.069 -12.443   5.610  1.00  0.00     0.293 HD
ENDBRANCH   8  26
TORSDOF 6
ENDMDL
MODEL 4
REMARK VINA RESULT:    -7.011     11.530     14.357
REMARK INTER + INTRA:          -8.763
REMARK INTER:                  -8.695
REMARK INTRA:                  -0.068
REMARK UNBOUND:                -0.317
REMARK SMILES O=c1c(O)c(-c2ccc(O)c(O)c2)oc2cc(O)cc(O)c12
REMARK SMILES IDX 5 1 3 2 2 3 1 4 22 5 20 6 19 7 17 8 16 9 15 10 14 11 6 12
REMARK SMILES IDX 7 13 8 14 9 15 13 16 11 17 10 18 12 20 4 22 21 24 18 26
REMARK H PARENT 10 19 12 21 4 23 21 25 18 27
REMARK Flexibility Score: inf
ROOT
ATOM      1  C   UNL     1      -6.372 -13.414   2.463  1.00  0.00     0.180 A 
ATOM      2  C   UNL     1      -5.907 -14.292   1.469  1.00  0.00     0.208 A 
ATOM      3  C   UNL     1      -4.583 -14.753   1.533  1.00  0.00     0.238 A 
ATOM      4  O   UNL     1      -4.156 -15.495   0.611  1.00  0.00    -0.285 OA
ATOM      5  C   UNL     1      -3.745 -14.344   2.599  1.00  0.00     0.111 A 
ATOM      6  C   UNL     1      -2.399 -14.781   2.785  1.00  0.00     0.134 A 
ATOM      7  C   UNL     1      -1.622 -14.210   3.801  1.00  0.00     0.093 A 
ATOM      8  C   UNL     1      -2.160 -13.269   4.677  1.00  0.00     0.123 A 
ATOM      9  C   UNL     1      -3.494 -12.879   4.540  1.00  0.00     0.094 A 
ATOM     10  C   UNL     1      -4.283 -13.403   3.515  1.00  0.00     0.146 A 
ATOM     11  O   UNL     1      -5.544 -12.997   3.413  1.00  0.00    -0.452 OA
ENDROOT
BRANCH   1  12
ATOM     12  C   UNL     1      -7.763 -12.906   2.478  1.00  0.00     0.025 A 
ATOM     13  C   UNL     1      -8.584 -13.171   3.585  1.00  0.00     0.016 A 
ATOM     14  C   UNL     1      -9.906 -12.719   3.611  1.00  0.00     0.051 A 
ATOM     15  C   UNL     1     -10.431 -12.009   2.528  1.00  0.00     0.157 A 
ATOM     16  C   UNL     1      -8.300 -12.210   1.380  1.00  0.00     0.062 A 
ATOM     17  C   UNL     1      -9.627 -11.756   1.404  1.00  0.00     0.158 A 
BRANCH  15  18
ATOM     18  O   UNL     1     -11.753 -11.568   2.583  1.00  0.00    -0.504 OA
ATOM     19  H   UNL     1     -12.472 -12.082   3.078  1.00  0.00     0.293 HD
ENDBRANCH  15  18
BRANCH  17  20
ATOM     20  O   UNL     1     -10.149 -11.061   0.313  1.00  0.00    -0.504 OA
ATOM     21  H   UNL     1      -9.664 -11.024  -0.575  1.00  0.00     0.293 HD
ENDBRANCH  17  20
ENDBRANCH   1  12
BRANCH   2  22
ATOM     22  O   UNL     1      -6.745 -14.666   0.414  1.00  0.00    -0.502 OA
ATOM     23  H   UNL     1      -6.388 -14.915  -0.501  1.00  0.00     0.293 HD
ENDBRANCH   2  22
BRANCH   6  24
ATOM     24  O   UNL     1      -1.791 -15.784   2.024  1.00  0.00    -0.507 OA
ATOM     25  H   UNL     1      -0.910 -16.222   2.248  1.00  0.00     0.293 HD
ENDBRANCH   6  24
BRANCH   8  26
ATOM     26  O   UNL     1      -1.363 -12.733   5.686  1.00  0.00    -0.508 OA
ATOM     27  H   UNL     1      -0.876 -13.327   6.347  1.00  0.00     0.293 HD
ENDBRANCH   8  26
TORSDOF 6
ENDMDL
MODEL 5
REMARK VINA RESULT:    -6.944     11.918     13.541
REMARK INTER + INTRA:          -8.683
REMARK INTER:                  -9.233
REMARK INTRA:                   0.551
REMARK UNBOUND:                -0.317
REMARK SMILES O=c1c(O)c(-c2ccc(O)c(O)c2)oc2cc(O)cc(O)c12
REMARK SMILES IDX 5 1 3 2 2 3 1 4 22 5 20 6 19 7 17 8 16 9 15 10 14 11 6 12
REMARK SMILES IDX 7 13 8 14 9 15 13 16 11 17 10 18 12 20 4 22 21 24 18 26
REMARK H PARENT 10 19 12 21 4 23 21 25 18 27
REMARK Flexibility Score: inf
ROOT
ATOM      1  C   UNL     1      -4.738 -13.248   2.405  1.00  0.00     0.180 A 
ATOM      2  C   UNL     1      -5.205 -13.328   1.082  1.00  0.00     0.208 A 
ATOM      3  C   UNL     1      -6.506 -12.889   0.791  1.00  0.00     0.238 A 
ATOM      4  O   UNL     1      -6.939 -13.014  -0.384  1.00  0.00    -0.285 OA
ATOM      5  C   UNL     1      -7.318 -12.359   1.824  1.00  0.00     0.111 A 
ATOM      6  C   UNL     1      -8.637 -11.846   1.636  1.00  0.00     0.134 A 
ATOM      7  C   UNL     1      -9.395 -11.467   2.750  1.00  0.00     0.093 A 
ATOM      8  C   UNL     1      -8.862 -11.520   4.037  1.00  0.00     0.123 A 
ATOM      9  C   UNL     1      -7.552 -11.963   4.226  1.00  0.00     0.094 A 
ATOM     10  C   UNL     1      -6.783 -12.382   3.138  1.00  0.00     0.146 A 
ATOM     11  O   UNL     1      -5.545 -12.807   3.363  1.00  0.00    -0.452 OA
ENDROOT
BRANCH   1  12
ATOM     12  C   UNL     1      -3.369 -13.669   2.784  1.00  0.00     0.025 A 
ATOM     13  C   UNL     1      -2.509 -14.187   1.803  1.00  0.00     0.016 A 
ATOM     14  C   UNL     1      -1.221 -14.609   2.141  1.00  0.00     0.051 A 
ATOM     15  C   UNL     1      -0.778 -14.534   3.465  1.00  0.00     0.157 A 
ATOM     16  C   UNL     1      -2.930 -13.614   4.118  1.00  0.00     0.062 A 
ATOM     17  C   UNL     1      -1.637 -14.038   4.461  1.00  0.00     0.158 A 
BRANCH  15  18
ATOM     18  O   UNL     1       0.513 -14.960   3.773  1.00  0.00    -0.504 OA
ATOM     19  H   UNL     1       1.178 -14.363   4.251  1.00  0.00     0.293 HD
ENDBRANCH  15  18
BRANCH  17  20
ATOM     20  O   UNL     1      -1.207 -13.975   5.786  1.00  0.00    -0.504 OA
ATOM     21  H   UNL     1      -0.251 -13.736   6.023  1.00  0.00     0.293 HD
ENDBRANCH  17  20
ENDBRANCH   1  12
BRANCH   2  22
ATOM     22  O   UNL     1      -4.395 -13.876   0.082  1.00  0.00    -0.502 OA
ATOM     23  H   UNL     1      -3.927 -13.305  -0.611  1.00  0.00     0.293 HD
ENDBRANCH   2  22
BRANCH   6  24
ATOM     24  O   UNL     1      -9.232 -11.664   0.384  1.00  0.00    -0.507 OA
ATOM     25  H   UNL     1      -8.861 -11.079  -0.350  1.00  0.00     0.293 HD
ENDBRANCH   6  24
BRANCH   8  26
ATOM     26  O   UNL     1      -9.641 -11.120   5.121  1.00  0.00    -0.508 OA
ATOM     27  H   UNL     1     -10.177 -11.787   5.662  1.00  0.00     0.293 HD
ENDBRANCH   8  26
TORSDOF 6
ENDMDL
MODEL 6
REMARK VINA RESULT:    -6.882     12.051     14.461
REMARK INTER + INTRA:          -8.608
REMARK INTER:                  -8.599
REMARK INTRA:                  -0.009
REMARK UNBOUND:                -0.317
REMARK SMILES O=c1c(O)c(-c2ccc(O)c(O)c2)oc2cc(O)cc(O)c12
REMARK SMILES IDX 5 1 3 2 2 3 1 4 22 5 20 6 19 7 17 8 16 9 15 10 14 11 6 12
REMARK SMILES IDX 7 13 8 14 9 15 13 16 11 17 10 18 12 20 4 22 21 24 18 26
REMARK H PARENT 10 19 12 21 4 23 21 25 18 27
REMARK Flexibility Score: inf
ROOT
ATOM      1  C   UNL     1      -3.997 -13.194   3.485  1.00  0.00     0.180 A 
ATOM      2  C   UNL     1      -3.775 -13.273   2.100  1.00  0.00     0.208 A 
ATOM      3  C   UNL     1      -4.880 -13.297   1.233  1.00  0.00     0.238 A 
ATOM      4  O   UNL     1      -4.677 -13.423  -0.002  1.00  0.00    -0.285 OA
ATOM      5  C   UNL     1      -6.192 -13.223   1.762  1.00  0.00     0.111 A 
ATOM      6  C   UNL     1      -7.382 -13.198   0.976  1.00  0.00     0.134 A 
ATOM      7  C   UNL     1      -8.630 -13.255   1.609  1.00  0.00     0.093 A 
ATOM      8  C   UNL     1      -8.732 -13.271   2.999  1.00  0.00     0.123 A 
ATOM      9  C   UNL     1      -7.574 -13.235   3.779  1.00  0.00     0.094 A 
ATOM     10  C   UNL     1      -6.315 -13.215   3.176  1.00  0.00     0.146 A 
ATOM     11  O   UNL     1      -5.239 -13.192   3.954  1.00  0.00    -0.452 OA
ENDROOT
BRANCH   1  12
ATOM     12  C   UNL     1      -2.883 -13.140   4.460  1.00  0.00     0.025 A 
ATOM     13  C   UNL     1      -2.824 -12.084   5.382  1.00  0.00     0.016 A 
ATOM     14  C   UNL     1      -1.771 -12.000   6.297  1.00  0.00     0.051 A 
ATOM     15  C   UNL     1      -0.755 -12.961   6.294  1.00  0.00     0.157 A 
ATOM     16  C   UNL     1      -1.850 -14.093   4.444  1.00  0.00     0.062 A 
ATOM     17  C   UNL     1      -0.790 -14.011   5.361  1.00  0.00     0.158 A 
BRANCH  15  18
ATOM     18  O   UNL     1       0.281 -12.854   7.221  1.00  0.00    -0.504 OA
ATOM     19  H   UNL     1       0.108 -12.741   8.213  1.00  0.00     0.293 HD
ENDBRANCH  15  18
BRANCH  17  20
ATOM     20  O   UNL     1       0.227 -14.964   5.343  1.00  0.00    -0.504 OA
ATOM     21  H   UNL     1       1.189 -14.710   5.151  1.00  0.00     0.293 HD
ENDBRANCH  17  20
ENDBRANCH   1  12
BRANCH   2  22
ATOM     22  O   UNL     1      -2.473 -13.368   1.600  1.00  0.00    -0.502 OA
ATOM     23  H   UNL     1      -1.747 -12.704   1.844  1.00  0.00     0.293 HD
ENDBRANCH   2  22
BRANCH   6  24
ATOM     24  O   UNL     1      -7.395 -13.089  -0.419  1.00  0.00    -0.507 OA
ATOM     25  H   UNL     1      -7.831 -12.339  -0.933  1.00  0.00     0.293 HD
ENDBRANCH   6  24
BRANCH   8  26
ATOM     26  O   UNL     1      -9.990 -13.312   3.596  1.00  0.00    -0.508 OA
ATOM     27  H   UNL     1     -10.663 -14.034   3.363  1.00  0.00     0.293 HD
ENDBRANCH   8  26
TORSDOF 6
ENDMDL
MODEL 7
REMARK VINA RESULT:    -6.869      3.844      5.044
REMARK INTER + INTRA:          -8.591
REMARK INTER:                  -8.467
REMARK INTRA:                  -0.124
REMARK UNBOUND:                -0.317
REMARK SMILES O=c1c(O)c(-c2ccc(O)c(O)c2)oc2cc(O)cc(O)c12
REMARK SMILES IDX 5 1 3 2 2 3 1 4 22 5 20 6 19 7 17 8 16 9 15 10 14 11 6 12
REMARK SMILES IDX 7 13 8 14 9 15 13 16 11 17 10 18 12 20 4 22 21 24 18 26
REMARK H PARENT 10 19 12 21 4 23 21 25 18 27
REMARK Flexibility Score: inf
ROOT
ATOM      1  C   UNL     1     -10.635 -20.600  -5.730  1.00  0.00     0.180 A 
ATOM      2  C   UNL     1     -10.593 -20.349  -7.112  1.00  0.00     0.208 A 
ATOM      3  C   UNL     1     -11.657 -19.656  -7.712  1.00  0.00     0.238 A 
ATOM      4  O   UNL     1     -11.640 -19.482  -8.958  1.00  0.00    -0.285 OA
ATOM      5  C   UNL     1     -12.741 -19.207  -6.918  1.00  0.00     0.111 A 
ATOM      6  C   UNL     1     -13.852 -18.460  -7.412  1.00  0.00     0.134 A 
ATOM      7  C   UNL     1     -14.930 -18.182  -6.562  1.00  0.00     0.093 A 
ATOM      8  C   UNL     1     -14.908 -18.565  -5.222  1.00  0.00     0.123 A 
ATOM      9  C   UNL     1     -13.800 -19.244  -4.714  1.00  0.00     0.094 A 
ATOM     10  C   UNL     1     -12.726 -19.568  -5.545  1.00  0.00     0.146 A 
ATOM     11  O   UNL     1     -11.695 -20.224  -5.025  1.00  0.00    -0.452 OA
ENDROOT
BRANCH   1  12
ATOM     12  C   UNL     1      -9.539 -21.303  -5.023  1.00  0.00     0.025 A 
ATOM     13  C   UNL     1      -8.794 -20.618  -4.052  1.00  0.00     0.016 A 
ATOM     14  C   UNL     1      -7.742 -21.254  -3.387  1.00  0.00     0.051 A 
ATOM     15  C   UNL     1      -7.411 -22.577  -3.693  1.00  0.00     0.157 A 
ATOM     16  C   UNL     1      -9.191 -22.626  -5.345  1.00  0.00     0.062 A 
ATOM     17  C   UNL     1      -8.135 -23.267  -4.679  1.00  0.00     0.158 A 
BRANCH  15  18
ATOM     18  O   UNL     1      -6.358 -23.188  -3.011  1.00  0.00    -0.504 OA
ATOM     19  H   UNL     1      -6.407 -24.149  -2.695  1.00  0.00     0.293 HD
ENDBRANCH  15  18
BRANCH  17  20
ATOM     20  O   UNL     1      -7.800 -24.582  -5.000  1.00  0.00    -0.504 OA
ATOM     21  H   UNL     1      -6.897 -24.974  -4.760  1.00  0.00     0.293 HD
ENDBRANCH  17  20
ENDBRANCH   1  12
BRANCH   2  22
ATOM     22  O   UNL     1      -9.524 -20.821  -7.881  1.00  0.00    -0.502 OA
ATOM     23  H   UNL     1      -8.835 -20.202  -8.291  1.00  0.00     0.293 HD
ENDBRANCH   2  22
BRANCH   6  24
ATOM     24  O   UNL     1     -13.933 -17.948  -8.711  1.00  0.00    -0.507 OA
ATOM     25  H   UNL     1     -14.228 -18.474  -9.519  1.00  0.00     0.293 HD
ENDBRANCH   6  24
BRANCH   8  26
ATOM     26  O   UNL     1     -15.991 -18.258  -4.402  1.00  0.00    -0.508 OA
ATOM     27  H   UNL     1     -16.491 -18.977  -3.893  1.00  0.00     0.293 HD
ENDBRANCH   8  26
TORSDOF 6
ENDMDL
MODEL 8
REMARK VINA RESULT:    -6.857     12.530     15.404
REMARK INTER + INTRA:          -8.578
REMARK INTER:                  -8.322
REMARK INTRA:                  -0.256
REMARK UNBOUND:                -0.317
REMARK SMILES O=c1c(O)c(-c2ccc(O)c(O)c2)oc2cc(O)cc(O)c12
REMARK SMILES IDX 5 1 3 2 2 3 1 4 22 5 20 6 19 7 17 8 16 9 15 10 14 11 6 12
REMARK SMILES IDX 7 13 8 14 9 15 13 16 11 17 10 18 12 20 4 22 21 24 18 26
REMARK H PARENT 10 19 12 21 4 23 21 25 18 27
REMARK Flexibility Score: inf
ROOT
ATOM      1  C   UNL     1      -4.729 -13.375   3.291  1.00  0.00     0.180 A 
ATOM      2  C   UNL     1      -3.877 -14.327   2.705  1.00  0.00     0.208 A 
ATOM      3  C   UNL     1      -2.594 -14.515   3.241  1.00  0.00     0.238 A 
ATOM      4  O   UNL     1      -1.817 -15.329   2.679  1.00  0.00    -0.285 OA
ATOM      5  C   UNL     1      -2.184 -13.762   4.368  1.00  0.00     0.111 A 
ATOM      6  C   UNL     1      -0.922 -13.899   5.020  1.00  0.00     0.134 A 
ATOM      7  C   UNL     1      -0.573 -13.011   6.045  1.00  0.00     0.093 A 
ATOM      8  C   UNL     1      -1.465 -12.034   6.486  1.00  0.00     0.123 A 
ATOM      9  C   UNL     1      -2.725 -11.930   5.896  1.00  0.00     0.094 A 
ATOM     10  C   UNL     1      -3.088 -12.777   4.847  1.00  0.00     0.146 A 
ATOM     11  O   UNL     1      -4.293 -12.638   4.306  1.00  0.00    -0.452 OA
ENDROOT
BRANCH   1  12
ATOM     12  C   UNL     1      -6.105 -13.137   2.797  1.00  0.00     0.025 A 
ATOM     13  C   UNL     1      -6.297 -12.401   1.618  1.00  0.00     0.016 A 
ATOM     14  C   UNL     1      -7.587 -12.147   1.143  1.00  0.00     0.051 A 
ATOM     15  C   UNL     1      -8.702 -12.612   1.847  1.00  0.00     0.157 A 
ATOM     16  C   UNL     1      -7.228 -13.586   3.513  1.00  0.00     0.062 A 
ATOM     17  C   UNL     1      -8.524 -13.331   3.040  1.00  0.00     0.158 A 
BRANCH  15  18
ATOM     18  O   UNL     1      -9.977 -12.346   1.348  1.00  0.00    -0.504 OA
ATOM     19  H   UNL     1     -10.468 -11.484   1.557  1.00  0.00     0.293 HD
ENDBRANCH  15  18
BRANCH  17  20
ATOM     20  O   UNL     1      -9.632 -13.785   3.754  1.00  0.00    -0.504 OA
ATOM     21  H   UNL     1      -9.572 -14.581   4.379  1.00  0.00     0.293 HD
ENDBRANCH  17  20
ENDBRANCH   1  12
BRANCH   2  22
ATOM     22  O   UNL     1      -4.294 -15.044   1.579  1.00  0.00    -0.502 OA
ATOM     23  H   UNL     1      -4.602 -16.007   1.631  1.00  0.00     0.293 HD
ENDBRANCH   2  22
BRANCH   6  24
ATOM     24  O   UNL     1       0.006 -14.901   4.720  1.00  0.00    -0.507 OA
ATOM     25  H   UNL     1       0.333 -15.597   5.373  1.00  0.00     0.293 HD
ENDBRANCH   6  24
BRANCH   8  26
ATOM     26  O   UNL     1      -1.090 -11.178   7.519  1.00  0.00    -0.508 OA
ATOM     27  H   UNL     1      -1.029 -10.175   7.380  1.00  0.00     0.293 HD
ENDBRANCH   8  26
TORSDOF 6
ENDMDL
MODEL 9
REMARK VINA RESULT:    -6.724     11.179     14.482
REMARK INTER + INTRA:          -8.417
REMARK INTER:                  -8.094
REMARK INTRA:                  -0.323
REMARK UNBOUND:                -0.317
REMARK SMILES O=c1c(O)c(-c2ccc(O)c(O)c2)oc2cc(O)cc(O)c12
REMARK SMILES IDX 5 1 3 2 2 3 1 4 22 5 20 6 19 7 17 8 16 9 15 10 14 11 6 12
REMARK SMILES IDX 7 13 8 14 9 15 13 16 11 17 10 18 12 20 4 22 21 24 18 26
REMARK H PARENT 10 19 12 21 4 23 21 25 18 27
REMARK Flexibility Score: inf
ROOT
ATOM      1  C   UNL     1      -7.107 -12.714   2.363  1.00  0.00     0.180 A 
ATOM      2  C   UNL     1      -6.260 -12.028   3.250  1.00  0.00     0.208 A 
ATOM      3  C   UNL     1      -4.950 -12.496   3.439  1.00  0.00     0.238 A 
ATOM      4  O   UNL     1      -4.214 -11.910   4.275  1.00  0.00    -0.285 OA
ATOM      5  C   UNL     1      -4.498 -13.633   2.727  1.00  0.00     0.111 A 
ATOM      6  C   UNL     1      -3.178 -14.171   2.810  1.00  0.00     0.134 A 
ATOM      7  C   UNL     1      -2.881 -15.375   2.161  1.00  0.00     0.093 A 
ATOM      8  C   UNL     1      -3.834 -16.027   1.380  1.00  0.00     0.123 A 
ATOM      9  C   UNL     1      -5.110 -15.478   1.243  1.00  0.00     0.094 A 
ATOM     10  C   UNL     1      -5.448 -14.297   1.907  1.00  0.00     0.146 A 
ATOM     11  O   UNL     1      -6.676 -13.815   1.759  1.00  0.00    -0.452 OA
ENDROOT
BRANCH   1  12
ATOM     12  C   UNL     1      -8.493 -12.266   2.092  1.00  0.00     0.025 A 
ATOM     13  C   UNL     1      -8.729 -11.327   1.076  1.00  0.00     0.016 A 
ATOM     14  C   UNL     1     -10.026 -10.875   0.816  1.00  0.00     0.051 A 
ATOM     15  C   UNL     1     -11.102 -11.342   1.577  1.00  0.00     0.157 A 
ATOM     16  C   UNL     1      -9.574 -12.718   2.870  1.00  0.00     0.062 A 
ATOM     17  C   UNL     1     -10.876 -12.265   2.612  1.00  0.00     0.158 A 
BRANCH  15  18
ATOM     18  O   UNL     1     -12.385 -10.875   1.293  1.00  0.00    -0.504 OA
ATOM     19  H   UNL     1     -12.685  -9.940   1.543  1.00  0.00     0.293 HD
ENDBRANCH  15  18
BRANCH  17  20
ATOM     20  O   UNL     1     -11.943 -12.723   3.384  1.00  0.00    -0.504 OA
ATOM     21  H   UNL     1     -12.835 -12.962   2.968  1.00  0.00     0.293 HD
ENDBRANCH  17  20
ENDBRANCH   1  12
BRANCH   2  22
ATOM     22  O   UNL     1      -6.733 -10.920   3.960  1.00  0.00    -0.502 OA
ATOM     23  H   UNL     1      -6.154 -10.113   4.157  1.00  0.00     0.293 HD
ENDBRANCH   2  22
BRANCH   6  24
ATOM     24  O   UNL     1      -2.125 -13.550   3.489  1.00  0.00    -0.507 OA
ATOM     25  H   UNL     1      -1.195 -13.426   3.117  1.00  0.00     0.293 HD
ENDBRANCH   6  24
BRANCH   8  26
ATOM     26  O   UNL     1      -3.498 -17.216   0.735  1.00  0.00    -0.508 OA
ATOM     27  H   UNL     1      -3.576 -17.313  -0.271  1.00  0.00     0.293 HD
ENDBRANCH   8  26
TORSDOF 6
ENDMDL
