MODEL 1
REMARK VINA RESULT:     1.601      0.000      0.000
REMARK INTER + INTRA:           9.932
REMARK INTER:                   3.802
REMARK INTRA:                   6.130
REMARK UNBOUND:                 6.130
REMARK SMILES O=C(OC[C@@H]1O[C@@H](OC(=O)c2cc(O)c(O)c(O)c2)[C@@H](OC(=O)c2cc(O)c(O)c(O)c2)[C@H](OC(=O)c2cc(O)c(O)c(O)c2)[C@@H]1OC(=O)c1cc(O)c(O)c(O)c1)c1cc(O)c(O)c(O)c1
REMARK SMILES IDX 5 1 46 2 33 3 20 4 7 5 6 6 4 7 3 8 2 9 1 10 59 11 60 12
REMARK SMILES IDX 61 13 67 14 63 15 65 16 62 17 64 19 66 21 47 23 48 24 49 25
REMARK SMILES IDX 50 26 58 27 51 28 56 29 52 30 54 31 57 32 53 34 55 36 34 38
REMARK SMILES IDX 35 39 36 40 37 41 45 42 38 43 43 44 39 45 41 46 44 47 40 49
REMARK SMILES IDX 42 51 8 53 9 54 10 55 11 56 19 57 12 58 17 59 13 60 15 61
REMARK SMILES IDX 18 62 14 64 16 66 21 68 22 69 23 70 24 71 32 72 25 73 30 74
REMARK SMILES IDX 26 75 28 76 31 77 27 79 29 81
REMARK H PARENT 62 18 64 20 66 22 57 33 53 35 55 37 44 48 40 50 42 52 18 63
REMARK H PARENT 14 65 16 67 31 78 27 80 29 82
REMARK Flexibility Score: inf
ROOT
ATOM      1  C   UNL     1     -33.769   3.468   5.251  1.00  0.00     0.205 C 
ATOM      2  C   UNL     1     -34.533   4.720   5.734  1.00  0.00     0.254 C 
ATOM      3  C   UNL     1     -33.926   5.201   7.067  1.00  0.00     0.267 C 
ATOM      4  C   UNL     1     -33.871   4.036   8.073  1.00  0.00     0.290 C 
ATOM      5  C   UNL     1     -33.196   2.812   7.430  1.00  0.00     0.357 C 
ATOM      6  O   UNL     1     -33.842   2.437   6.224  1.00  0.00    -0.329 OA
ENDROOT
BRANCH   1   7
ATOM      7  C   UNL     1     -34.340   2.949   3.921  1.00  0.00     0.269 C 
BRANCH   7   8
ATOM      8  O   UNL     1     -35.767   2.969   3.944  1.00  0.00    -0.459 OA
BRANCH   8   9
ATOM      9  C   UNL     1     -36.569   3.106   2.805  1.00  0.00     0.338 C 
ATOM     10  O   UNL     1     -37.125   4.208   2.549  1.00  0.00    -0.246 OA
BRANCH   9  11
ATOM     11  C   UNL     1     -36.732   1.959   1.885  1.00  0.00     0.067 A 
ATOM     12  C   UNL     1     -36.761   0.651   2.386  1.00  0.00     0.066 A 
ATOM     13  C   UNL     1     -36.898  -0.441   1.527  1.00  0.00     0.162 A 
ATOM     14  C   UNL     1     -36.854   2.162   0.502  1.00  0.00     0.066 A 
ATOM     15  C   UNL     1     -37.009  -0.238   0.139  1.00  0.00     0.200 A 
ATOM     16  C   UNL     1     -36.995   1.082  -0.376  1.00  0.00     0.162 A 
BRANCH  13  17
ATOM     17  O   UNL     1     -36.905  -1.728   2.069  1.00  0.00    -0.504 OA
ATOM     18  H   UNL     1     -37.008  -1.897   3.063  1.00  0.00     0.293 HD
ENDBRANCH  13  17
BRANCH  15  19
ATOM     19  O   UNL     1     -37.124  -1.359  -0.689  1.00  0.00    -0.502 OA
ATOM     20  H   UNL     1     -37.430  -1.323  -1.649  1.00  0.00     0.293 HD
ENDBRANCH  15  19
BRANCH  16  21
ATOM     21  O   UNL     1     -37.125   1.364  -1.738  1.00  0.00    -0.504 OA
ATOM     22  H   UNL     1     -37.930   1.126  -2.294  1.00  0.00     0.293 HD
ENDBRANCH  16  21
ENDBRANCH   9  11
ENDBRANCH   8   9
ENDBRANCH   7   8
ENDBRANCH   1   7
BRANCH   2  23
ATOM     23  O   UNL     1     -35.911   4.395   5.918  1.00  0.00    -0.452 OA
BRANCH  23  24
ATOM     24  C   UNL     1     -36.449   3.920   7.123  1.00  0.00     0.338 C 
ATOM     25  O   UNL     1     -36.781   4.727   8.034  1.00  0.00    -0.246 OA
BRANCH  24  26
ATOM     26  C   UNL     1     -36.629   2.467   7.318  1.00  0.00     0.067 A 
ATOM     27  C   UNL     1     -36.789   1.610   6.215  1.00  0.00     0.066 A 
ATOM     28  C   UNL     1     -36.631   1.925   8.611  1.00  0.00     0.066 A 
ATOM     29  C   UNL     1     -36.950   0.234   6.400  1.00  0.00     0.162 A 
ATOM     30  C   UNL     1     -36.798   0.552   8.807  1.00  0.00     0.162 A 
ATOM     31  C   UNL     1     -36.960  -0.300   7.700  1.00  0.00     0.200 A 
BRANCH  29  32
ATOM     32  O   UNL     1     -37.078  -0.589   5.280  1.00  0.00    -0.504 OA
ATOM     33  H   UNL     1     -37.934  -1.092   5.081  1.00  0.00     0.293 HD
ENDBRANCH  29  32
BRANCH  30  34
ATOM     34  O   UNL     1     -36.811   0.025  10.100  1.00  0.00    -0.504 OA
ATOM     35  H   UNL     1     -36.645  -0.962  10.267  1.00  0.00     0.293 HD
ENDBRANCH  30  34
BRANCH  31  36
ATOM     36  O   UNL     1     -37.122  -1.675   7.877  1.00  0.00    -0.502 OA
ATOM     37  H   UNL     1     -36.353  -2.280   8.153  1.00  0.00     0.293 HD
ENDBRANCH  31  36
ENDBRANCH  24  26
ENDBRANCH  23  24
ENDBRANCH   2  23
BRANCH   3  38
ATOM     38  O   UNL     1     -34.703   6.261   7.625  1.00  0.00    -0.450 OA
BRANCH  38  39
ATOM     39  C   UNL     1     -35.118   7.395   6.920  1.00  0.00     0.338 C 
ATOM     40  O   UNL     1     -35.475   8.432   7.543  1.00  0.00    -0.246 OA
BRANCH  39  41
ATOM     41  C   UNL     1     -35.144   7.366   5.439  1.00  0.00     0.067 A 
ATOM     42  C   UNL     1     -34.196   6.629   4.708  1.00  0.00     0.066 A 
ATOM     43  C   UNL     1     -36.123   8.091   4.742  1.00  0.00     0.066 A 
ATOM     44  C   UNL     1     -34.204   6.641   3.306  1.00  0.00     0.162 A 
ATOM     45  C   UNL     1     -36.139   8.111   3.345  1.00  0.00     0.162 A 
ATOM     46  C   UNL     1     -35.175   7.391   2.621  1.00  0.00     0.200 A 
BRANCH  44  47
ATOM     47  O   UNL     1     -33.250   5.913   2.589  1.00  0.00    -0.504 OA
ATOM     48  H   UNL     1     -33.463   5.488   1.693  1.00  0.00     0.293 HD
ENDBRANCH  44  47
BRANCH  45  49
ATOM     49  O   UNL     1     -37.124   8.851   2.689  1.00  0.00    -0.504 OA
ATOM     50  H   UNL     1     -37.295   8.754   1.697  1.00  0.00     0.293 HD
ENDBRANCH  45  49
BRANCH  46  51
ATOM     51  O   UNL     1     -35.198   7.425   1.227  1.00  0.00    -0.502 OA
ATOM     52  H   UNL     1     -35.097   6.591   0.659  1.00  0.00     0.293 HD
ENDBRANCH  46  51
ENDBRANCH  39  41
ENDBRANCH  38  39
ENDBRANCH   3  38
BRANCH   5  53
ATOM     53  O   UNL     1     -31.806   3.059   7.202  1.00  0.00    -0.428 OA
BRANCH  53  54
ATOM     54  C   UNL     1     -30.923   2.092   6.705  1.00  0.00     0.340 C 
ATOM     55  O   UNL     1     -31.169   1.508   5.615  1.00  0.00    -0.246 OA
BRANCH  54  56
ATOM     56  C   UNL     1     -29.715   1.740   7.486  1.00  0.00     0.067 A 
ATOM     57  C   UNL     1     -29.197   2.645   8.427  1.00  0.00     0.066 A 
ATOM     58  C   UNL     1     -29.083   0.499   7.304  1.00  0.00     0.066 A 
ATOM     59  C   UNL     1     -28.054   2.319   9.173  1.00  0.00     0.162 A 
ATOM     60  C   UNL     1     -27.946   0.165   8.052  1.00  0.00     0.162 A 
ATOM     61  C   UNL     1     -27.424   1.077   8.983  1.00  0.00     0.200 A 
BRANCH  59  62
ATOM     62  O   UNL     1     -27.543   3.222  10.101  1.00  0.00    -0.504 OA
ATOM     63  H   UNL     1     -26.725   3.005  10.659  1.00  0.00     0.293 HD
ENDBRANCH  59  62
BRANCH  60  64
ATOM     64  O   UNL     1     -27.334  -1.072   7.851  1.00  0.00    -0.504 OA
ATOM     65  H   UNL     1     -27.871  -1.926   7.751  1.00  0.00     0.293 HD
ENDBRANCH  60  64
BRANCH  61  66
ATOM     66  O   UNL     1     -26.282   0.734   9.712  1.00  0.00    -0.502 OA
ATOM     67  H   UNL     1     -25.697  -0.060   9.453  1.00  0.00     0.293 HD
ENDBRANCH  61  66
ENDBRANCH  54  56
ENDBRANCH  53  54
ENDBRANCH   5  53
BRANCH   4  68
ATOM     68  O   UNL     1     -33.139   4.424   9.240  1.00  0.00    -0.448 OA
BRANCH  68  69
ATOM     69  C   UNL     1     -33.020   5.752   9.675  1.00  0.00     0.339 C 
ATOM     70  O   UNL     1     -34.027   6.362  10.125  1.00  0.00    -0.246 OA
BRANCH  69  71
ATOM     71  C   UNL     1     -31.705   6.427   9.643  1.00  0.00     0.067 A 
ATOM     72  C   UNL     1     -30.518   5.676   9.569  1.00  0.00     0.066 A 
ATOM     73  C   UNL     1     -31.624   7.828   9.683  1.00  0.00     0.066 A 
ATOM     74  C   UNL     1     -29.273   6.317   9.501  1.00  0.00     0.162 A 
ATOM     75  C   UNL     1     -30.386   8.481   9.632  1.00  0.00     0.162 A 
ATOM     76  C   UNL     1     -29.197   7.717   9.520  1.00  0.00     0.200 A 
BRANCH  74  77
ATOM     77  O   UNL     1     -28.100   5.569   9.401  1.00  0.00    -0.504 OA
ATOM     78  H   UNL     1     -28.031   4.641   9.791  1.00  0.00     0.293 HD
ENDBRANCH  74  77
BRANCH  75  79
ATOM     79  O   UNL     1     -30.387   9.877   9.706  1.00  0.00    -0.504 OA
ATOM     80  H   UNL     1     -30.066  10.483   8.968  1.00  0.00     0.293 HD
ENDBRANCH  75  79
BRANCH  76  81
ATOM     81  O   UNL     1     -27.937   8.311   9.416  1.00  0.00    -0.502 OA
ATOM     82  H   UNL     1     -27.646   9.096   9.971  1.00  0.00     0.293 HD
ENDBRANCH  76  81
ENDBRANCH  69  71
ENDBRANCH  68  69
ENDBRANCH   4  68
TORSDOF 31
ENDMDL
MODEL 2
REMARK VINA RESULT:     2.156      2.842      9.288
REMARK INTER + INTRA:          11.249
REMARK INTER:                   6.440
REMARK INTRA:                   4.809
REMARK UNBOUND:                 6.130
REMARK SMILES O=C(OC[C@@H]1O[C@@H](OC(=O)c2cc(O)c(O)c(O)c2)[C@@H](OC(=O)c2cc(O)c(O)c(O)c2)[C@H](OC(=O)c2cc(O)c(O)c(O)c2)[C@@H]1OC(=O)c1cc(O)c(O)c(O)c1)c1cc(O)c(O)c(O)c1
REMARK SMILES IDX 5 1 46 2 33 3 20 4 7 5 6 6 4 7 3 8 2 9 1 10 59 11 60 12
REMARK SMILES IDX 61 13 67 14 63 15 65 16 62 17 64 19 66 21 47 23 48 24 49 25
REMARK SMILES IDX 50 26 58 27 51 28 56 29 52 30 54 31 57 32 53 34 55 36 34 38
REMARK SMILES IDX 35 39 36 40 37 41 45 42 38 43 43 44 39 45 41 46 44 47 40 49
REMARK SMILES IDX 42 51 8 53 9 54 10 55 11 56 19 57 12 58 17 59 13 60 15 61
REMARK SMILES IDX 18 62 14 64 16 66 21 68 22 69 23 70 24 71 32 72 25 73 30 74
REMARK SMILES IDX 26 75 28 76 31 77 27 79 29 81
REMARK H PARENT 62 18 64 20 66 22 57 33 53 35 55 37 44 48 40 50 42 52 18 63
REMARK H PARENT 14 65 16 67 31 78 27 80 29 82
REMARK Flexibility Score: inf
ROOT
ATOM      1  C   UNL     1     -28.061   1.478   8.876  1.00  0.00     0.205 C 
ATOM      2  C   UNL     1     -29.033   1.152   7.721  1.00  0.00     0.254 C 
ATOM      3  C   UNL     1     -30.130   2.234   7.662  1.00  0.00     0.267 C 
ATOM      4  C   UNL     1     -30.785   2.398   9.046  1.00  0.00     0.290 C 
ATOM      5  C   UNL     1     -29.705   2.594  10.124  1.00  0.00     0.357 C 
ATOM      6  O   UNL     1     -28.760   1.536  10.111  1.00  0.00    -0.329 OA
ENDROOT
BRANCH   1   7
ATOM      7  C   UNL     1     -26.946   0.423   8.976  1.00  0.00     0.269 C 
BRANCH   7   8
ATOM      8  O   UNL     1     -26.388   0.158   7.691  1.00  0.00    -0.459 OA
BRANCH   8   9
ATOM      9  C   UNL     1     -25.020   0.214   7.402  1.00  0.00     0.338 C 
ATOM     10  O   UNL     1     -24.483   1.309   7.082  1.00  0.00    -0.246 OA
BRANCH   9  11
ATOM     11  C   UNL     1     -24.200  -1.013   7.507  1.00  0.00     0.067 A 
ATOM     12  C   UNL     1     -23.712  -1.430   8.753  1.00  0.00     0.066 A 
ATOM     13  C   UNL     1     -22.923  -2.576   8.865  1.00  0.00     0.162 A 
ATOM     14  C   UNL     1     -23.893  -1.770   6.367  1.00  0.00     0.066 A 
ATOM     15  C   UNL     1     -22.606  -3.329   7.720  1.00  0.00     0.200 A 
ATOM     16  C   UNL     1     -23.106  -2.923   6.458  1.00  0.00     0.162 A 
BRANCH  13  17
ATOM     17  O   UNL     1     -22.445  -2.945  10.124  1.00  0.00    -0.504 OA
ATOM     18  H   UNL     1     -21.521  -2.687  10.451  1.00  0.00     0.293 HD
ENDBRANCH  13  17
BRANCH  15  19
ATOM     19  O   UNL     1     -21.796  -4.459   7.871  1.00  0.00    -0.502 OA
ATOM     20  H   UNL     1     -21.818  -5.257   7.255  1.00  0.00     0.293 HD
ENDBRANCH  15  19
BRANCH  16  21
ATOM     21  O   UNL     1     -22.854  -3.633   5.280  1.00  0.00    -0.504 OA
ATOM     22  H   UNL     1     -22.008  -4.147   5.097  1.00  0.00     0.293 HD
ENDBRANCH  16  21
ENDBRANCH   9  11
ENDBRANCH   8   9
ENDBRANCH   7   8
ENDBRANCH   1   7
BRANCH   2  23
ATOM     23  O   UNL     1     -29.626  -0.127   7.945  1.00  0.00    -0.452 OA
BRANCH  23  24
ATOM     24  C   UNL     1     -29.230  -1.007   8.962  1.00  0.00     0.338 C 
ATOM     25  O   UNL     1     -29.708  -0.894  10.124  1.00  0.00    -0.246 OA
BRANCH  24  26
ATOM     26  C   UNL     1     -28.250  -2.071   8.664  1.00  0.00     0.067 A 
ATOM     27  C   UNL     1     -27.154  -2.296   9.515  1.00  0.00     0.066 A 
ATOM     28  C   UNL     1     -28.410  -2.877   7.527  1.00  0.00     0.066 A 
ATOM     29  C   UNL     1     -26.233  -3.310   9.237  1.00  0.00     0.162 A 
ATOM     30  C   UNL     1     -27.490  -3.888   7.237  1.00  0.00     0.162 A 
ATOM     31  C   UNL     1     -26.395  -4.108   8.091  1.00  0.00     0.200 A 
BRANCH  29  32
ATOM     32  O   UNL     1     -25.173  -3.524  10.120  1.00  0.00    -0.504 OA
ATOM     33  H   UNL     1     -24.317  -3.978   9.827  1.00  0.00     0.293 HD
ENDBRANCH  29  32
BRANCH  30  34
ATOM     34  O   UNL     1     -27.654  -4.676   6.096  1.00  0.00    -0.504 OA
ATOM     35  H   UNL     1     -27.428  -5.666   6.104  1.00  0.00     0.293 HD
ENDBRANCH  30  34
BRANCH  31  36
ATOM     36  O   UNL     1     -25.471  -5.117   7.818  1.00  0.00    -0.502 OA
ATOM     37  H   UNL     1     -24.552  -4.920   7.432  1.00  0.00     0.293 HD
ENDBRANCH  31  36
ENDBRANCH  24  26
ENDBRANCH  23  24
ENDBRANCH   2  23
BRANCH   3  38
ATOM     38  O   UNL     1     -31.135   1.886   6.710  1.00  0.00    -0.450 OA
BRANCH  38  39
ATOM     39  C   UNL     1     -31.955   2.807   6.051  1.00  0.00     0.338 C 
ATOM     40  O   UNL     1     -31.548   3.983   5.845  1.00  0.00    -0.246 OA
BRANCH  39  41
ATOM     41  C   UNL     1     -33.307   2.395   5.605  1.00  0.00     0.067 A 
ATOM     42  C   UNL     1     -33.939   1.263   6.148  1.00  0.00     0.066 A 
ATOM     43  C   UNL     1     -33.973   3.136   4.617  1.00  0.00     0.066 A 
ATOM     44  C   UNL     1     -35.201   0.857   5.690  1.00  0.00     0.162 A 
ATOM     45  C   UNL     1     -35.230   2.739   4.152  1.00  0.00     0.162 A 
ATOM     46  C   UNL     1     -35.847   1.595   4.683  1.00  0.00     0.200 A 
BRANCH  44  47
ATOM     47  O   UNL     1     -35.816  -0.276   6.230  1.00  0.00    -0.504 OA
ATOM     48  H   UNL     1     -35.787  -0.479   7.223  1.00  0.00     0.293 HD
ENDBRANCH  44  47
BRANCH  45  49
ATOM     49  O   UNL     1     -35.857   3.497   3.163  1.00  0.00    -0.504 OA
ATOM     50  H   UNL     1     -36.656   4.085   3.363  1.00  0.00     0.293 HD
ENDBRANCH  45  49
BRANCH  46  51
ATOM     51  O   UNL     1     -37.098   1.205   4.205  1.00  0.00    -0.502 OA
ATOM     52  H   UNL     1     -37.590   0.393   4.563  1.00  0.00     0.293 HD
ENDBRANCH  46  51
ENDBRANCH  39  41
ENDBRANCH  38  39
ENDBRANCH   3  38
BRANCH   5  53
ATOM     53  O   UNL     1     -29.052   3.856   9.966  1.00  0.00    -0.428 OA
BRANCH  53  54
ATOM     54  C   UNL     1     -29.334   4.745   8.922  1.00  0.00     0.340 C 
ATOM     55  O   UNL     1     -29.171   4.387   7.723  1.00  0.00    -0.246 OA
BRANCH  54  56
ATOM     56  C   UNL     1     -29.796   6.115   9.237  1.00  0.00     0.067 A 
ATOM     57  C   UNL     1     -28.862   7.129   9.506  1.00  0.00     0.066 A 
ATOM     58  C   UNL     1     -31.167   6.420   9.258  1.00  0.00     0.066 A 
ATOM     59  C   UNL     1     -29.291   8.431   9.803  1.00  0.00     0.162 A 
ATOM     60  C   UNL     1     -31.602   7.721   9.546  1.00  0.00     0.162 A 
ATOM     61  C   UNL     1     -30.665   8.728   9.827  1.00  0.00     0.200 A 
BRANCH  59  62
ATOM     62  O   UNL     1     -28.360   9.430  10.073  1.00  0.00    -0.504 OA
ATOM     63  H   UNL     1     -27.496   9.234  10.565  1.00  0.00     0.293 HD
ENDBRANCH  59  62
BRANCH  60  64
ATOM     64  O   UNL     1     -32.968   7.998   9.565  1.00  0.00    -0.504 OA
ATOM     65  H   UNL     1     -33.323   8.934   9.730  1.00  0.00     0.293 HD
ENDBRANCH  60  64
BRANCH  61  66
ATOM     66  O   UNL     1     -31.114  10.017  10.125  1.00  0.00    -0.502 OA
ATOM     67  H   UNL     1     -31.045  10.408  11.064  1.00  0.00     0.293 HD
ENDBRANCH  61  66
ENDBRANCH  54  56
ENDBRANCH  53  54
ENDBRANCH   5  53
BRANCH   4  68
ATOM     68  O   UNL     1     -31.667   3.525   9.046  1.00  0.00    -0.448 OA
BRANCH  68  69
ATOM     69  C   UNL     1     -33.061   3.418   9.170  1.00  0.00     0.339 C 
ATOM     70  O   UNL     1     -33.570   2.410   9.731  1.00  0.00    -0.246 OA
BRANCH  69  71
ATOM     71  C   UNL     1     -33.933   4.505   8.678  1.00  0.00     0.067 A 
ATOM     72  C   UNL     1     -35.041   4.930   9.433  1.00  0.00     0.066 A 
ATOM     73  C   UNL     1     -33.663   5.132   7.451  1.00  0.00     0.066 A 
ATOM     74  C   UNL     1     -35.846   5.987   8.984  1.00  0.00     0.162 A 
ATOM     75  C   UNL     1     -34.468   6.179   6.982  1.00  0.00     0.162 A 
ATOM     76  C   UNL     1     -35.561   6.624   7.768  1.00  0.00     0.200 A 
BRANCH  74  77
ATOM     77  O   UNL     1     -36.928   6.423   9.749  1.00  0.00    -0.504 OA
ATOM     78  H   UNL     1     -37.533   7.165   9.432  1.00  0.00     0.293 HD
ENDBRANCH  74  77
BRANCH  75  79
ATOM     79  O   UNL     1     -34.152   6.731   5.738  1.00  0.00    -0.504 OA
ATOM     80  H   UNL     1     -33.323   7.274   5.555  1.00  0.00     0.293 HD
ENDBRANCH  75  79
BRANCH  76  81
ATOM     81  O   UNL     1     -36.370   7.694   7.379  1.00  0.00    -0.502 OA
ATOM     82  H   UNL     1     -37.334   7.788   7.650  1.00  0.00     0.293 HD
ENDBRANCH  76  81
ENDBRANCH  69  71
ENDBRANCH  68  69
ENDBRANCH   4  68
TORSDOF 31
ENDMDL
MODEL 3
REMARK VINA RESULT:     2.259      8.205     15.567
REMARK INTER + INTRA:          11.493
REMARK INTER:                  -0.571
REMARK INTRA:                  12.064
REMARK UNBOUND:                 6.130
REMARK SMILES O=C(OC[C@@H]1O[C@@H](OC(=O)c2cc(O)c(O)c(O)c2)[C@@H](OC(=O)c2cc(O)c(O)c(O)c2)[C@H](OC(=O)c2cc(O)c(O)c(O)c2)[C@@H]1OC(=O)c1cc(O)c(O)c(O)c1)c1cc(O)c(O)c(O)c1
REMARK SMILES IDX 5 1 46 2 33 3 20 4 7 5 6 6 4 7 3 8 2 9 1 10 59 11 60 12
REMARK SMILES IDX 61 13 67 14 63 15 65 16 62 17 64 19 66 21 47 23 48 24 49 25
REMARK SMILES IDX 50 26 58 27 51 28 56 29 52 30 54 31 57 32 53 34 55 36 34 38
REMARK SMILES IDX 35 39 36 40 37 41 45 42 38 43 43 44 39 45 41 46 44 47 40 49
REMARK SMILES IDX 42 51 8 53 9 54 10 55 11 56 19 57 12 58 17 59 13 60 15 61
REMARK SMILES IDX 18 62 14 64 16 66 21 68 22 69 23 70 24 71 32 72 25 73 30 74
REMARK SMILES IDX 26 75 28 76 31 77 27 79 29 81
REMARK H PARENT 62 18 64 20 66 22 57 33 53 35 55 37 44 48 40 50 42 52 18 63
REMARK H PARENT 14 65 16 67 31 78 27 80 29 82
REMARK Flexibility Score: inf
ROOT
ATOM      1  C   UNL     1     -24.555  -2.353   7.998  1.00  0.00     0.205 C 
ATOM      2  C   UNL     1     -23.610  -2.419   9.217  1.00  0.00     0.254 C 
ATOM      3  C   UNL     1     -22.155  -2.546   8.723  1.00  0.00     0.267 C 
ATOM      4  C   UNL     1     -22.033  -3.718   7.732  1.00  0.00     0.290 C 
ATOM      5  C   UNL     1     -23.107  -3.599   6.636  1.00  0.00     0.357 C 
ATOM      6  O   UNL     1     -24.409  -3.513   7.193  1.00  0.00    -0.329 OA
ENDROOT
BRANCH   1   7
ATOM      7  C   UNL     1     -26.023  -2.227   8.441  1.00  0.00     0.269 C 
BRANCH   7   8
ATOM      8  O   UNL     1     -26.385  -0.856   8.599  1.00  0.00    -0.459 OA
BRANCH   8   9
ATOM      9  C   UNL     1     -27.475  -0.254   7.959  1.00  0.00     0.338 C 
ATOM     10  O   UNL     1     -28.079  -0.856   7.031  1.00  0.00    -0.246 OA
BRANCH   9  11
ATOM     11  C   UNL     1     -27.937   1.080   8.403  1.00  0.00     0.067 A 
ATOM     12  C   UNL     1     -29.293   1.301   8.678  1.00  0.00     0.066 A 
ATOM     13  C   UNL     1     -29.744   2.560   9.082  1.00  0.00     0.162 A 
ATOM     14  C   UNL     1     -27.030   2.140   8.548  1.00  0.00     0.066 A 
ATOM     15  C   UNL     1     -28.836   3.626   9.216  1.00  0.00     0.200 A 
ATOM     16  C   UNL     1     -27.461   3.408   8.953  1.00  0.00     0.162 A 
BRANCH  13  17
ATOM     17  O   UNL     1     -31.107   2.739   9.328  1.00  0.00    -0.504 OA
ATOM     18  H   UNL     1     -31.529   3.657   9.402  1.00  0.00     0.293 HD
ENDBRANCH  13  17
BRANCH  15  19
ATOM     19  O   UNL     1     -29.331   4.875   9.602  1.00  0.00    -0.502 OA
ATOM     20  H   UNL     1     -29.632   5.588   8.955  1.00  0.00     0.293 HD
ENDBRANCH  15  19
BRANCH  16  21
ATOM     21  O   UNL     1     -26.497   4.410   9.089  1.00  0.00    -0.504 OA
ATOM     22  H   UNL     1     -26.170   4.769   9.971  1.00  0.00     0.293 HD
ENDBRANCH  16  21
ENDBRANCH   9  11
ENDBRANCH   8   9
ENDBRANCH   7   8
ENDBRANCH   1   7
BRANCH   2  23
ATOM     23  O   UNL     1     -23.949  -3.550  10.020  1.00  0.00    -0.452 OA
BRANCH  23  24
ATOM     24  C   UNL     1     -23.277  -4.780   9.965  1.00  0.00     0.338 C 
ATOM     25  O   UNL     1     -22.016  -4.816   9.948  1.00  0.00    -0.246 OA
BRANCH  24  26
ATOM     26  C   UNL     1     -24.056  -6.034   9.930  1.00  0.00     0.067 A 
ATOM     27  C   UNL     1     -23.411  -7.275   9.788  1.00  0.00     0.066 A 
ATOM     28  C   UNL     1     -25.453  -5.998  10.047  1.00  0.00     0.066 A 
ATOM     29  C   UNL     1     -24.149  -8.462   9.765  1.00  0.00     0.162 A 
ATOM     30  C   UNL     1     -26.200  -7.179  10.018  1.00  0.00     0.162 A 
ATOM     31  C   UNL     1     -25.550  -8.418   9.875  1.00  0.00     0.200 A 
BRANCH  29  32
ATOM     32  O   UNL     1     -23.473  -9.678   9.653  1.00  0.00    -0.504 OA
ATOM     33  H   UNL     1     -23.228 -10.231  10.465  1.00  0.00     0.293 HD
ENDBRANCH  29  32
BRANCH  30  34
ATOM     34  O   UNL     1     -27.591  -7.130  10.124  1.00  0.00    -0.504 OA
ATOM     35  H   UNL     1     -28.043  -6.623  10.879  1.00  0.00     0.293 HD
ENDBRANCH  30  34
BRANCH  31  36
ATOM     36  O   UNL     1     -26.280  -9.607   9.850  1.00  0.00    -0.502 OA
ATOM     37  H   UNL     1     -26.205 -10.304  10.585  1.00  0.00     0.293 HD
ENDBRANCH  31  36
ENDBRANCH  24  26
ENDBRANCH  23  24
ENDBRANCH   2  23
BRANCH   3  38
ATOM     38  O   UNL     1     -21.265  -2.768   9.817  1.00  0.00    -0.450 OA
BRANCH  38  39
ATOM     39  C   UNL     1     -19.874  -2.642   9.745  1.00  0.00     0.338 C 
ATOM     40  O   UNL     1     -19.315  -1.576  10.120  1.00  0.00    -0.246 OA
BRANCH  39  41
ATOM     41  C   UNL     1     -19.065  -3.766   9.218  1.00  0.00     0.067 A 
ATOM     42  C   UNL     1     -18.328  -3.638   8.029  1.00  0.00     0.066 A 
ATOM     43  C   UNL     1     -19.035  -4.989   9.907  1.00  0.00     0.066 A 
ATOM     44  C   UNL     1     -17.599  -4.721   7.516  1.00  0.00     0.162 A 
ATOM     45  C   UNL     1     -18.313  -6.075   9.404  1.00  0.00     0.162 A 
ATOM     46  C   UNL     1     -17.596  -5.947   8.203  1.00  0.00     0.200 A 
BRANCH  44  47
ATOM     47  O   UNL     1     -16.877  -4.585   6.327  1.00  0.00    -0.504 OA
ATOM     48  H   UNL     1     -16.380  -3.731   6.096  1.00  0.00     0.293 HD
ENDBRANCH  44  47
BRANCH  45  49
ATOM     49  O   UNL     1     -18.314  -7.276  10.113  1.00  0.00    -0.504 OA
ATOM     50  H   UNL     1     -19.152  -7.831  10.228  1.00  0.00     0.293 HD
ENDBRANCH  45  49
BRANCH  46  51
ATOM     51  O   UNL     1     -16.885  -7.040   7.708  1.00  0.00    -0.502 OA
ATOM     52  H   UNL     1     -15.889  -7.004   7.523  1.00  0.00     0.293 HD
ENDBRANCH  46  51
ENDBRANCH  39  41
ENDBRANCH  38  39
ENDBRANCH   3  38
BRANCH   5  53
ATOM     53  O   UNL     1     -22.846  -2.479   5.787  1.00  0.00    -0.428 OA
BRANCH  53  54
ATOM     54  C   UNL     1     -21.907  -2.501   4.748  1.00  0.00     0.340 C 
ATOM     55  O   UNL     1     -22.089  -3.244   3.745  1.00  0.00    -0.246 OA
BRANCH  54  56
ATOM     56  C   UNL     1     -20.688  -1.669   4.851  1.00  0.00     0.067 A 
ATOM     57  C   UNL     1     -20.120  -1.404   6.109  1.00  0.00     0.066 A 
ATOM     58  C   UNL     1     -20.079  -1.147   3.698  1.00  0.00     0.066 A 
ATOM     59  C   UNL     1     -18.963  -0.619   6.216  1.00  0.00     0.162 A 
ATOM     60  C   UNL     1     -18.918  -0.369   3.798  1.00  0.00     0.162 A 
ATOM     61  C   UNL     1     -18.361  -0.096   5.058  1.00  0.00     0.200 A 
BRANCH  59  62
ATOM     62  O   UNL     1     -18.408  -0.356   7.465  1.00  0.00    -0.504 OA
ATOM     63  H   UNL     1     -17.585   0.225   7.570  1.00  0.00     0.293 HD
ENDBRANCH  59  62
BRANCH  60  64
ATOM     64  O   UNL     1     -18.334   0.142   2.639  1.00  0.00    -0.504 OA
ATOM     65  H   UNL     1     -17.796   1.001   2.645  1.00  0.00     0.293 HD
ENDBRANCH  60  64
BRANCH  61  66
ATOM     66  O   UNL     1     -17.211   0.692   5.142  1.00  0.00    -0.502 OA
ATOM     67  H   UNL     1     -16.406   0.537   4.535  1.00  0.00     0.293 HD
ENDBRANCH  61  66
ENDBRANCH  54  56
ENDBRANCH  53  54
ENDBRANCH   5  53
BRANCH   4  68
ATOM     68  O   UNL     1     -20.736  -3.723   7.128  1.00  0.00    -0.448 OA
BRANCH  68  69
ATOM     69  C   UNL     1     -20.382  -4.563   6.062  1.00  0.00     0.339 C 
ATOM     70  O   UNL     1     -20.265  -4.092   4.898  1.00  0.00    -0.246 OA
BRANCH  69  71
ATOM     71  C   UNL     1     -20.105  -5.995   6.307  1.00  0.00     0.067 A 
ATOM     72  C   UNL     1     -20.781  -6.690   7.326  1.00  0.00     0.066 A 
ATOM     73  C   UNL     1     -19.164  -6.680   5.522  1.00  0.00     0.066 A 
ATOM     74  C   UNL     1     -20.546  -8.056   7.534  1.00  0.00     0.162 A 
ATOM     75  C   UNL     1     -18.907  -8.042   5.729  1.00  0.00     0.162 A 
ATOM     76  C   UNL     1     -19.620  -8.743   6.734  1.00  0.00     0.200 A 
BRANCH  74  77
ATOM     77  O   UNL     1     -21.239  -8.747   8.527  1.00  0.00    -0.504 OA
ATOM     78  H   UNL     1     -21.266  -8.415   9.479  1.00  0.00     0.293 HD
ENDBRANCH  74  77
BRANCH  75  79
ATOM     79  O   UNL     1     -17.935  -8.647   4.926  1.00  0.00    -0.504 OA
ATOM     80  H   UNL     1     -17.271  -9.327   5.259  1.00  0.00     0.293 HD
ENDBRANCH  75  79
BRANCH  76  81
ATOM     81  O   UNL     1     -19.445 -10.110   6.956  1.00  0.00    -0.502 OA
ATOM     82  H   UNL     1     -19.318 -10.780   6.217  1.00  0.00     0.293 HD
ENDBRANCH  76  81
ENDBRANCH  69  71
ENDBRANCH  68  69
ENDBRANCH   4  68
TORSDOF 31
ENDMDL
MODEL 4
REMARK VINA RESULT:     2.289      3.115      9.520
REMARK INTER + INTRA:          11.564
REMARK INTER:                   4.360
REMARK INTRA:                   7.204
REMARK UNBOUND:                 6.130
REMARK SMILES O=C(OC[C@@H]1O[C@@H](OC(=O)c2cc(O)c(O)c(O)c2)[C@@H](OC(=O)c2cc(O)c(O)c(O)c2)[C@H](OC(=O)c2cc(O)c(O)c(O)c2)[C@@H]1OC(=O)c1cc(O)c(O)c(O)c1)c1cc(O)c(O)c(O)c1
REMARK SMILES IDX 5 1 46 2 33 3 20 4 7 5 6 6 4 7 3 8 2 9 1 10 59 11 60 12
REMARK SMILES IDX 61 13 67 14 63 15 65 16 62 17 64 19 66 21 47 23 48 24 49 25
REMARK SMILES IDX 50 26 58 27 51 28 56 29 52 30 54 31 57 32 53 34 55 36 34 38
REMARK SMILES IDX 35 39 36 40 37 41 45 42 38 43 43 44 39 45 41 46 44 47 40 49
REMARK SMILES IDX 42 51 8 53 9 54 10 55 11 56 19 57 12 58 17 59 13 60 15 61
REMARK SMILES IDX 18 62 14 64 16 66 21 68 22 69 23 70 24 71 32 72 25 73 30 74
REMARK SMILES IDX 26 75 28 76 31 77 27 79 29 81
REMARK H PARENT 62 18 64 20 66 22 57 33 53 35 55 37 44 48 40 50 42 52 18 63
REMARK H PARENT 14 65 16 67 31 78 27 80 29 82
REMARK Flexibility Score: inf
ROOT
ATOM      1  C   UNL     1     -27.187   1.705   8.308  1.00  0.00     0.205 C 
ATOM      2  C   UNL     1     -28.327   1.093   7.465  1.00  0.00     0.254 C 
ATOM      3  C   UNL     1     -29.616   1.908   7.690  1.00  0.00     0.267 C 
ATOM      4  C   UNL     1     -29.907   2.033   9.196  1.00  0.00     0.290 C 
ATOM      5  C   UNL     1     -28.656   2.536   9.938  1.00  0.00     0.357 C 
ATOM      6  O   UNL     1     -27.534   1.705   9.685  1.00  0.00    -0.329 OA
ENDROOT
BRANCH   1   7
ATOM      7  C   UNL     1     -25.877   0.922   8.118  1.00  0.00     0.269 C 
BRANCH   7   8
ATOM      8  O   UNL     1     -26.121  -0.315   7.451  1.00  0.00    -0.459 OA
BRANCH   8   9
ATOM      9  C   UNL     1     -25.569  -0.662   6.212  1.00  0.00     0.338 C 
ATOM     10  O   UNL     1     -26.174  -0.373   5.144  1.00  0.00    -0.246 OA
BRANCH   9  11
ATOM     11  C   UNL     1     -24.255  -1.339   6.162  1.00  0.00     0.067 A 
ATOM     12  C   UNL     1     -23.249  -0.864   5.310  1.00  0.00     0.066 A 
ATOM     13  C   UNL     1     -22.010  -1.504   5.241  1.00  0.00     0.162 A 
ATOM     14  C   UNL     1     -23.999  -2.466   6.958  1.00  0.00     0.066 A 
ATOM     15  C   UNL     1     -21.757  -2.641   6.030  1.00  0.00     0.200 A 
ATOM     16  C   UNL     1     -22.763  -3.120   6.905  1.00  0.00     0.162 A 
BRANCH  13  17
ATOM     17  O   UNL     1     -21.043  -1.006   4.365  1.00  0.00    -0.504 OA
ATOM     18  H   UNL     1     -20.689  -0.059   4.430  1.00  0.00     0.293 HD
ENDBRANCH  13  17
BRANCH  15  19
ATOM     19  O   UNL     1     -20.511  -3.265   5.916  1.00  0.00    -0.502 OA
ATOM     20  H   UNL     1     -20.174  -3.705   5.074  1.00  0.00     0.293 HD
ENDBRANCH  15  19
BRANCH  16  21
ATOM     21  O   UNL     1     -22.578  -4.228   7.736  1.00  0.00    -0.504 OA
ATOM     22  H   UNL     1     -22.806  -5.175   7.481  1.00  0.00     0.293 HD
ENDBRANCH  16  21
ENDBRANCH   9  11
ENDBRANCH   8   9
ENDBRANCH   7   8
ENDBRANCH   1   7
BRANCH   2  23
ATOM     23  O   UNL     1     -28.537  -0.263   7.861  1.00  0.00    -0.452 OA
BRANCH  23  24
ATOM     24  C   UNL     1     -28.344  -0.736   9.166  1.00  0.00     0.338 C 
ATOM     25  O   UNL     1     -29.033  -0.278  10.119  1.00  0.00    -0.246 OA
BRANCH  24  26
ATOM     26  C   UNL     1     -27.329  -1.779   9.420  1.00  0.00     0.067 A 
ATOM     27  C   UNL     1     -27.685  -3.140   9.427  1.00  0.00     0.066 A 
ATOM     28  C   UNL     1     -25.993  -1.420   9.649  1.00  0.00     0.066 A 
ATOM     29  C   UNL     1     -26.722  -4.126   9.657  1.00  0.00     0.162 A 
ATOM     30  C   UNL     1     -25.024  -2.399   9.887  1.00  0.00     0.162 A 
ATOM     31  C   UNL     1     -25.386  -3.758   9.894  1.00  0.00     0.200 A 
BRANCH  29  32
ATOM     32  O   UNL     1     -27.106  -5.467   9.628  1.00  0.00    -0.504 OA
ATOM     33  H   UNL     1     -26.895  -6.101  10.390  1.00  0.00     0.293 HD
ENDBRANCH  29  32
BRANCH  30  34
ATOM     34  O   UNL     1     -23.699  -2.029  10.125  1.00  0.00    -0.504 OA
ATOM     35  H   UNL     1     -23.204  -1.411   9.490  1.00  0.00     0.293 HD
ENDBRANCH  30  34
BRANCH  31  36
ATOM     36  O   UNL     1     -24.430  -4.749  10.125  1.00  0.00    -0.502 OA
ATOM     37  H   UNL     1     -24.603  -5.534  10.745  1.00  0.00     0.293 HD
ENDBRANCH  31  36
ENDBRANCH  24  26
ENDBRANCH  23  24
ENDBRANCH   2  23
BRANCH   3  38
ATOM     38  O   UNL     1     -30.730   1.283   7.051  1.00  0.00    -0.450 OA
BRANCH  38  39
ATOM     39  C   UNL     1     -31.101   1.495   5.720  1.00  0.00     0.338 C 
ATOM     40  O   UNL     1     -30.263   1.321   4.793  1.00  0.00    -0.246 OA
BRANCH  39  41
ATOM     41  C   UNL     1     -32.482   1.934   5.407  1.00  0.00     0.067 A 
ATOM     42  C   UNL     1     -32.811   3.297   5.324  1.00  0.00     0.066 A 
ATOM     43  C   UNL     1     -33.488   0.978   5.196  1.00  0.00     0.066 A 
ATOM     44  C   UNL     1     -34.129   3.702   5.068  1.00  0.00     0.162 A 
ATOM     45  C   UNL     1     -34.805   1.371   4.943  1.00  0.00     0.162 A 
ATOM     46  C   UNL     1     -35.132   2.735   4.883  1.00  0.00     0.200 A 
BRANCH  44  47
ATOM     47  O   UNL     1     -34.448   5.061   4.999  1.00  0.00    -0.504 OA
ATOM     48  H   UNL     1     -33.838   5.775   5.383  1.00  0.00     0.293 HD
ENDBRANCH  44  47
BRANCH  45  49
ATOM     49  O   UNL     1     -35.779   0.391   4.747  1.00  0.00    -0.504 OA
ATOM     50  H   UNL     1     -36.742   0.625   4.544  1.00  0.00     0.293 HD
ENDBRANCH  45  49
BRANCH  46  51
ATOM     51  O   UNL     1     -36.452   3.114   4.636  1.00  0.00    -0.502 OA
ATOM     52  H   UNL     1     -37.031   3.561   5.338  1.00  0.00     0.293 HD
ENDBRANCH  46  51
ENDBRANCH  39  41
ENDBRANCH  38  39
ENDBRANCH   3  38
BRANCH   5  53
ATOM     53  O   UNL     1     -28.369   3.892   9.589  1.00  0.00    -0.428 OA
BRANCH  53  54
ATOM     54  C   UNL     1     -29.150   4.642   8.702  1.00  0.00     0.340 C 
ATOM     55  O   UNL     1     -29.543   4.133   7.617  1.00  0.00    -0.246 OA
BRANCH  54  56
ATOM     56  C   UNL     1     -29.486   6.045   9.034  1.00  0.00     0.067 A 
ATOM     57  C   UNL     1     -30.792   6.384   9.424  1.00  0.00     0.066 A 
ATOM     58  C   UNL     1     -28.504   7.048   8.975  1.00  0.00     0.066 A 
ATOM     59  C   UNL     1     -31.118   7.710   9.743  1.00  0.00     0.162 A 
ATOM     60  C   UNL     1     -28.822   8.373   9.300  1.00  0.00     0.162 A 
ATOM     61  C   UNL     1     -30.132   8.709   9.677  1.00  0.00     0.200 A 
BRANCH  59  62
ATOM     62  O   UNL     1     -32.416   8.039  10.124  1.00  0.00    -0.504 OA
ATOM     63  H   UNL     1     -33.187   8.010   9.468  1.00  0.00     0.293 HD
ENDBRANCH  59  62
BRANCH  60  64
ATOM     64  O   UNL     1     -27.831   9.352   9.231  1.00  0.00    -0.504 OA
ATOM     65  H   UNL     1     -27.847  10.081   8.527  1.00  0.00     0.293 HD
ENDBRANCH  60  64
BRANCH  61  66
ATOM     66  O   UNL     1     -30.436  10.037   9.987  1.00  0.00    -0.502 OA
ATOM     67  H   UNL     1     -30.465  10.763   9.272  1.00  0.00     0.293 HD
ENDBRANCH  61  66
ENDBRANCH  54  56
ENDBRANCH  53  54
ENDBRANCH   5  53
BRANCH   4  68
ATOM     68  O   UNL     1     -30.989   2.943   9.419  1.00  0.00    -0.448 OA
BRANCH  68  69
ATOM     69  C   UNL     1     -32.311   2.533   9.648  1.00  0.00     0.339 C 
ATOM     70  O   UNL     1     -32.544   1.390  10.125  1.00  0.00    -0.246 OA
BRANCH  69  71
ATOM     71  C   UNL     1     -33.431   3.457   9.368  1.00  0.00     0.067 A 
ATOM     72  C   UNL     1     -33.184   4.762   8.906  1.00  0.00     0.066 A 
ATOM     73  C   UNL     1     -34.759   3.040   9.556  1.00  0.00     0.066 A 
ATOM     74  C   UNL     1     -34.247   5.624   8.605  1.00  0.00     0.162 A 
ATOM     75  C   UNL     1     -35.831   3.897   9.275  1.00  0.00     0.162 A 
ATOM     76  C   UNL     1     -35.573   5.198   8.775  1.00  0.00     0.200 A 
BRANCH  74  77
ATOM     77  O   UNL     1     -33.998   6.908   8.121  1.00  0.00    -0.504 OA
ATOM     78  H   UNL     1     -33.185   7.111   7.558  1.00  0.00     0.293 HD
ENDBRANCH  74  77
BRANCH  75  79
ATOM     79  O   UNL     1     -37.122   3.418   9.517  1.00  0.00    -0.504 OA
ATOM     80  H   UNL     1     -37.931   3.675   8.973  1.00  0.00     0.293 HD
ENDBRANCH  75  79
BRANCH  76  81
ATOM     81  O   UNL     1     -36.598   6.080   8.429  1.00  0.00    -0.502 OA
ATOM     82  H   UNL     1     -36.652   6.546   7.540  1.00  0.00     0.293 HD
ENDBRANCH  76  81
ENDBRANCH  69  71
ENDBRANCH  68  69
ENDBRANCH   4  68
TORSDOF 31
ENDMDL
MODEL 5
REMARK VINA RESULT:     3.006      7.633     14.967
REMARK INTER + INTRA:          13.267
REMARK INTER:                  17.142
REMARK INTRA:                  -3.875
REMARK UNBOUND:                 6.130
REMARK SMILES O=C(OC[C@@H]1O[C@@H](OC(=O)c2cc(O)c(O)c(O)c2)[C@@H](OC(=O)c2cc(O)c(O)c(O)c2)[C@H](OC(=O)c2cc(O)c(O)c(O)c2)[C@@H]1OC(=O)c1cc(O)c(O)c(O)c1)c1cc(O)c(O)c(O)c1
REMARK SMILES IDX 5 1 46 2 33 3 20 4 7 5 6 6 4 7 3 8 2 9 1 10 59 11 60 12
REMARK SMILES IDX 61 13 67 14 63 15 65 16 62 17 64 19 66 21 47 23 48 24 49 25
REMARK SMILES IDX 50 26 58 27 51 28 56 29 52 30 54 31 57 32 53 34 55 36 34 38
REMARK SMILES IDX 35 39 36 40 37 41 45 42 38 43 43 44 39 45 41 46 44 47 40 49
REMARK SMILES IDX 42 51 8 53 9 54 10 55 11 56 19 57 12 58 17 59 13 60 15 61
REMARK SMILES IDX 18 62 14 64 16 66 21 68 22 69 23 70 24 71 32 72 25 73 30 74
REMARK SMILES IDX 26 75 28 76 31 77 27 79 29 81
REMARK H PARENT 62 18 64 20 66 22 57 33 53 35 55 37 44 48 40 50 42 52 18 63
REMARK H PARENT 14 65 16 67 31 78 27 80 29 82
REMARK Flexibility Score: inf
ROOT
ATOM      1  C   UNL     1     -22.783  -2.186   5.855  1.00  0.00     0.205 C 
ATOM      2  C   UNL     1     -23.044  -3.066   7.097  1.00  0.00     0.254 C 
ATOM      3  C   UNL     1     -24.521  -2.924   7.516  1.00  0.00     0.267 C 
ATOM      4  C   UNL     1     -24.884  -1.436   7.677  1.00  0.00     0.290 C 
ATOM      5  C   UNL     1     -24.463  -0.649   6.423  1.00  0.00     0.357 C 
ATOM      6  O   UNL     1     -23.085  -0.828   6.137  1.00  0.00    -0.329 OA
ENDROOT
BRANCH   1   7
ATOM      7  C   UNL     1     -21.318  -2.294   5.398  1.00  0.00     0.269 C 
BRANCH   7   8
ATOM      8  O   UNL     1     -20.706  -1.006   5.364  1.00  0.00    -0.459 OA
BRANCH   8   9
ATOM      9  C   UNL     1     -19.325  -0.795   5.274  1.00  0.00     0.338 C 
ATOM     10  O   UNL     1     -18.639  -0.628   6.319  1.00  0.00    -0.246 OA
BRANCH   9  11
ATOM     11  C   UNL     1     -18.669  -0.804   3.949  1.00  0.00     0.067 A 
ATOM     12  C   UNL     1     -18.641   0.359   3.168  1.00  0.00     0.066 A 
ATOM     13  C   UNL     1     -18.040   0.359   1.907  1.00  0.00     0.162 A 
ATOM     14  C   UNL     1     -18.073  -1.973   3.452  1.00  0.00     0.066 A 
ATOM     15  C   UNL     1     -17.452  -0.816   1.404  1.00  0.00     0.200 A 
ATOM     16  C   UNL     1     -17.464  -1.993   2.193  1.00  0.00     0.162 A 
BRANCH  13  17
ATOM     17  O   UNL     1     -18.051   1.537   1.157  1.00  0.00    -0.504 OA
ATOM     18  H   UNL     1     -17.954   2.452   1.581  1.00  0.00     0.293 HD
ENDBRANCH  13  17
BRANCH  15  19
ATOM     19  O   UNL     1     -16.879  -0.779   0.130  1.00  0.00    -0.502 OA
ATOM     20  H   UNL     1     -16.452  -1.574  -0.321  1.00  0.00     0.293 HD
ENDBRANCH  15  19
BRANCH  16  21
ATOM     21  O   UNL     1     -16.880  -3.191   1.772  1.00  0.00    -0.504 OA
ATOM     22  H   UNL     1     -16.068  -3.608   2.197  1.00  0.00     0.293 HD
ENDBRANCH  16  21
ENDBRANCH   9  11
ENDBRANCH   8   9
ENDBRANCH   7   8
ENDBRANCH   1   7
BRANCH   2  23
ATOM     23  O   UNL     1     -22.195  -2.645   8.165  1.00  0.00    -0.452 OA
BRANCH  23  24
ATOM     24  C   UNL     1     -21.208  -3.453   8.746  1.00  0.00     0.338 C 
ATOM     25  O   UNL     1     -21.136  -3.568  10.001  1.00  0.00    -0.246 OA
BRANCH  24  26
ATOM     26  C   UNL     1     -20.253  -4.173   7.880  1.00  0.00     0.067 A 
ATOM     27  C   UNL     1     -19.050  -3.566   7.477  1.00  0.00     0.066 A 
ATOM     28  C   UNL     1     -20.535  -5.480   7.456  1.00  0.00     0.066 A 
ATOM     29  C   UNL     1     -18.143  -4.252   6.666  1.00  0.00     0.162 A 
ATOM     30  C   UNL     1     -19.637  -6.171   6.638  1.00  0.00     0.162 A 
ATOM     31  C   UNL     1     -18.436  -5.558   6.237  1.00  0.00     0.200 A 
BRANCH  29  32
ATOM     32  O   UNL     1     -16.947  -3.628   6.309  1.00  0.00    -0.504 OA
ATOM     33  H   UNL     1     -16.783  -3.280   5.372  1.00  0.00     0.293 HD
ENDBRANCH  29  32
BRANCH  30  34
ATOM     34  O   UNL     1     -19.934  -7.468   6.213  1.00  0.00    -0.504 OA
ATOM     35  H   UNL     1     -20.601  -7.636   5.467  1.00  0.00     0.293 HD
ENDBRANCH  30  34
BRANCH  31  36
ATOM     36  O   UNL     1     -17.526  -6.237   5.425  1.00  0.00    -0.502 OA
ATOM     37  H   UNL     1     -16.918  -6.966   5.786  1.00  0.00     0.293 HD
ENDBRANCH  31  36
ENDBRANCH  24  26
ENDBRANCH  23  24
ENDBRANCH   2  23
BRANCH   3  38
ATOM     38  O   UNL     1     -24.765  -3.597   8.751  1.00  0.00    -0.450 OA
BRANCH  38  39
ATOM     39  C   UNL     1     -25.568  -4.734   8.889  1.00  0.00     0.338 C 
ATOM     40  O   UNL     1     -26.818  -4.648   8.741  1.00  0.00    -0.246 OA
BRANCH  39  41
ATOM     41  C   UNL     1     -24.941  -6.036   9.218  1.00  0.00     0.067 A 
ATOM     42  C   UNL     1     -23.576  -6.127   9.539  1.00  0.00     0.066 A 
ATOM     43  C   UNL     1     -25.715  -7.207   9.204  1.00  0.00     0.066 A 
ATOM     44  C   UNL     1     -22.984  -7.369   9.808  1.00  0.00     0.162 A 
ATOM     45  C   UNL     1     -25.134  -8.450   9.469  1.00  0.00     0.162 A 
ATOM     46  C   UNL     1     -23.764  -8.537   9.767  1.00  0.00     0.200 A 
BRANCH  44  47
ATOM     47  O   UNL     1     -21.623  -7.449  10.116  1.00  0.00    -0.504 OA
ATOM     48  H   UNL     1     -21.292  -7.877  10.974  1.00  0.00     0.293 HD
ENDBRANCH  44  47
BRANCH  45  49
ATOM     49  O   UNL     1     -25.934  -9.593   9.437  1.00  0.00    -0.504 OA
ATOM     50  H   UNL     1     -26.903  -9.577   9.725  1.00  0.00     0.293 HD
ENDBRANCH  45  49
BRANCH  46  51
ATOM     51  O   UNL     1     -23.195  -9.785  10.023  1.00  0.00    -0.502 OA
ATOM     52  H   UNL     1     -22.984 -10.449   9.287  1.00  0.00     0.293 HD
ENDBRANCH  46  51
ENDBRANCH  39  41
ENDBRANCH  38  39
ENDBRANCH   3  38
BRANCH   5  53
ATOM     53  O   UNL     1     -25.263  -1.020   5.297  1.00  0.00    -0.428 OA
BRANCH  53  54
ATOM     54  C   UNL     1     -26.327  -0.244   4.819  1.00  0.00     0.340 C 
ATOM     55  O   UNL     1     -27.068   0.381   5.626  1.00  0.00    -0.246 OA
BRANCH  54  56
ATOM     56  C   UNL     1     -26.592  -0.190   3.364  1.00  0.00     0.067 A 
ATOM     57  C   UNL     1     -27.762   0.421   2.883  1.00  0.00     0.066 A 
ATOM     58  C   UNL     1     -25.675  -0.734   2.450  1.00  0.00     0.066 A 
ATOM     59  C   UNL     1     -28.020   0.480   1.506  1.00  0.00     0.162 A 
ATOM     60  C   UNL     1     -25.923  -0.671   1.072  1.00  0.00     0.162 A 
ATOM     61  C   UNL     1     -27.100  -0.071   0.597  1.00  0.00     0.200 A 
BRANCH  59  62
ATOM     62  O   UNL     1     -29.184   1.082   1.036  1.00  0.00    -0.504 OA
ATOM     63  H   UNL     1     -29.752   1.676   1.629  1.00  0.00     0.293 HD
ENDBRANCH  59  62
BRANCH  60  64
ATOM     64  O   UNL     1     -25.000  -1.222   0.184  1.00  0.00    -0.504 OA
ATOM     65  H   UNL     1     -24.014  -0.988   0.223  1.00  0.00     0.293 HD
ENDBRANCH  60  64
BRANCH  61  66
ATOM     66  O   UNL     1     -27.339  -0.027  -0.779  1.00  0.00    -0.502 OA
ATOM     67  H   UNL     1     -28.126   0.488  -1.172  1.00  0.00     0.293 HD
ENDBRANCH  61  66
ENDBRANCH  54  56
ENDBRANCH  53  54
ENDBRANCH   5  53
BRANCH   4  68
ATOM     68  O   UNL     1     -26.293  -1.289   7.879  1.00  0.00    -0.448 OA
BRANCH  68  69
ATOM     69  C   UNL     1     -26.862  -0.853   9.085  1.00  0.00     0.339 C 
ATOM     70  O   UNL     1     -26.793  -1.578  10.114  1.00  0.00    -0.246 OA
BRANCH  69  71
ATOM     71  C   UNL     1     -27.507   0.475   9.162  1.00  0.00     0.067 A 
ATOM     72  C   UNL     1     -26.775   1.644   8.887  1.00  0.00     0.066 A 
ATOM     73  C   UNL     1     -28.864   0.586   9.507  1.00  0.00     0.066 A 
ATOM     74  C   UNL     1     -27.397   2.900   8.923  1.00  0.00     0.162 A 
ATOM     75  C   UNL     1     -29.494   1.836   9.564  1.00  0.00     0.162 A 
ATOM     76  C   UNL     1     -28.757   3.005   9.249  1.00  0.00     0.200 A 
BRANCH  74  77
ATOM     77  O   UNL     1     -26.673   4.053   8.623  1.00  0.00    -0.504 OA
ATOM     78  H   UNL     1     -25.790   4.253   9.070  1.00  0.00     0.293 HD
ENDBRANCH  74  77
BRANCH  75  79
ATOM     79  O   UNL     1     -30.839   1.866   9.944  1.00  0.00    -0.504 OA
ATOM     80  H   UNL     1     -31.412   1.045  10.058  1.00  0.00     0.293 HD
ENDBRANCH  75  79
BRANCH  76  81
ATOM     81  O   UNL     1     -29.340   4.273   9.238  1.00  0.00    -0.502 OA
ATOM     82  H   UNL     1     -29.457   4.823   8.405  1.00  0.00     0.293 HD
ENDBRANCH  76  81
ENDBRANCH  69  71
ENDBRANCH  68  69
ENDBRANCH   4  68
TORSDOF 31
ENDMDL
MODEL 6
REMARK VINA RESULT:     3.121      7.494     14.322
REMARK INTER + INTRA:          13.540
REMARK INTER:                  16.695
REMARK INTRA:                  -3.155
REMARK UNBOUND:                 6.130
REMARK SMILES O=C(OC[C@@H]1O[C@@H](OC(=O)c2cc(O)c(O)c(O)c2)[C@@H](OC(=O)c2cc(O)c(O)c(O)c2)[C@H](OC(=O)c2cc(O)c(O)c(O)c2)[C@@H]1OC(=O)c1cc(O)c(O)c(O)c1)c1cc(O)c(O)c(O)c1
REMARK SMILES IDX 5 1 46 2 33 3 20 4 7 5 6 6 4 7 3 8 2 9 1 10 59 11 60 12
REMARK SMILES IDX 61 13 67 14 63 15 65 16 62 17 64 19 66 21 47 23 48 24 49 25
REMARK SMILES IDX 50 26 58 27 51 28 56 29 52 30 54 31 57 32 53 34 55 36 34 38
REMARK SMILES IDX 35 39 36 40 37 41 45 42 38 43 43 44 39 45 41 46 44 47 40 49
REMARK SMILES IDX 42 51 8 53 9 54 10 55 11 56 19 57 12 58 17 59 13 60 15 61
REMARK SMILES IDX 18 62 14 64 16 66 21 68 22 69 23 70 24 71 32 72 25 73 30 74
REMARK SMILES IDX 26 75 28 76 31 77 27 79 29 81
REMARK H PARENT 62 18 64 20 66 22 57 33 53 35 55 37 44 48 40 50 42 52 18 63
REMARK H PARENT 14 65 16 67 31 78 27 80 29 82
REMARK Flexibility Score: inf
ROOT
ATOM      1  C   UNL     1     -22.255  -1.364   5.742  1.00  0.00     0.205 C 
ATOM      2  C   UNL     1     -23.639  -0.817   6.155  1.00  0.00     0.254 C 
ATOM      3  C   UNL     1     -24.056  -1.455   7.496  1.00  0.00     0.267 C 
ATOM      4  C   UNL     1     -23.956  -2.988   7.406  1.00  0.00     0.290 C 
ATOM      5  C   UNL     1     -22.573  -3.399   6.868  1.00  0.00     0.357 C 
ATOM      6  O   UNL     1     -22.296  -2.779   5.622  1.00  0.00    -0.329 OA
ENDROOT
BRANCH   1   7
ATOM      7  C   UNL     1     -21.796  -0.757   4.406  1.00  0.00     0.269 C 
BRANCH   7   8
ATOM      8  O   UNL     1     -20.601   0.002   4.582  1.00  0.00    -0.459 OA
BRANCH   8   9
ATOM      9  C   UNL     1     -19.310  -0.528   4.469  1.00  0.00     0.338 C 
ATOM     10  O   UNL     1     -18.640  -0.346   3.416  1.00  0.00    -0.246 OA
BRANCH   9  11
ATOM     11  C   UNL     1     -18.723  -1.272   5.604  1.00  0.00     0.067 A 
ATOM     12  C   UNL     1     -18.776  -0.740   6.899  1.00  0.00     0.066 A 
ATOM     13  C   UNL     1     -18.211  -1.424   7.977  1.00  0.00     0.162 A 
ATOM     14  C   UNL     1     -18.102  -2.514   5.403  1.00  0.00     0.066 A 
ATOM     15  C   UNL     1     -17.578  -2.664   7.774  1.00  0.00     0.200 A 
ATOM     16  C   UNL     1     -17.532  -3.216   6.469  1.00  0.00     0.162 A 
BRANCH  13  17
ATOM     17  O   UNL     1     -18.272  -0.848   9.248  1.00  0.00    -0.504 OA
ATOM     18  H   UNL     1     -18.924  -1.164   9.956  1.00  0.00     0.293 HD
ENDBRANCH  13  17
BRANCH  15  19
ATOM     19  O   UNL     1     -17.007  -3.307   8.875  1.00  0.00    -0.502 OA
ATOM     20  H   UNL     1     -17.209  -4.258   9.142  1.00  0.00     0.293 HD
ENDBRANCH  15  19
BRANCH  16  21
ATOM     21  O   UNL     1     -16.942  -4.453   6.193  1.00  0.00    -0.504 OA
ATOM     22  H   UNL     1     -16.739  -5.153   6.887  1.00  0.00     0.293 HD
ENDBRANCH  16  21
ENDBRANCH   9  11
ENDBRANCH   8   9
ENDBRANCH   7   8
ENDBRANCH   1   7
BRANCH   2  23
ATOM     23  O   UNL     1     -24.598  -1.140   5.147  1.00  0.00    -0.452 OA
BRANCH  23  24
ATOM     24  C   UNL     1     -25.782  -0.421   4.934  1.00  0.00     0.338 C 
ATOM     25  O   UNL     1     -26.398   0.096   5.906  1.00  0.00    -0.246 OA
BRANCH  24  26
ATOM     26  C   UNL     1     -26.304  -0.269   3.561  1.00  0.00     0.067 A 
ATOM     27  C   UNL     1     -27.514   0.406   3.324  1.00  0.00     0.066 A 
ATOM     28  C   UNL     1     -25.589  -0.793   2.474  1.00  0.00     0.066 A 
ATOM     29  C   UNL     1     -28.003   0.558   2.023  1.00  0.00     0.162 A 
ATOM     30  C   UNL     1     -26.073  -0.652   1.170  1.00  0.00     0.162 A 
ATOM     31  C   UNL     1     -27.285   0.023   0.940  1.00  0.00     0.200 A 
BRANCH  29  32
ATOM     32  O   UNL     1     -29.192   1.259   1.824  1.00  0.00    -0.504 OA
ATOM     33  H   UNL     1     -29.776   1.103   1.010  1.00  0.00     0.293 HD
ENDBRANCH  29  32
BRANCH  30  34
ATOM     34  O   UNL     1     -25.358  -1.188   0.097  1.00  0.00    -0.504 OA
ATOM     35  H   UNL     1     -24.382  -1.449   0.194  1.00  0.00     0.293 HD
ENDBRANCH  30  34
BRANCH  31  36
ATOM     36  O   UNL     1     -27.779   0.177  -0.357  1.00  0.00    -0.502 OA
ATOM     37  H   UNL     1     -27.822  -0.596  -1.015  1.00  0.00     0.293 HD
ENDBRANCH  31  36
ENDBRANCH  24  26
ENDBRANCH  23  24
ENDBRANCH   2  23
BRANCH   3  38
ATOM     38  O   UNL     1     -25.396  -1.095   7.833  1.00  0.00    -0.450 OA
BRANCH  38  39
ATOM     39  C   UNL     1     -25.773  -0.481   9.032  1.00  0.00     0.338 C 
ATOM     40  O   UNL     1     -25.275  -0.866  10.125  1.00  0.00    -0.246 OA
BRANCH  39  41
ATOM     41  C   UNL     1     -26.768   0.617   9.009  1.00  0.00     0.067 A 
ATOM     42  C   UNL     1     -28.045   0.454   9.573  1.00  0.00     0.066 A 
ATOM     43  C   UNL     1     -26.442   1.843   8.408  1.00  0.00     0.066 A 
ATOM     44  C   UNL     1     -28.993   1.486   9.509  1.00  0.00     0.162 A 
ATOM     45  C   UNL     1     -27.380   2.876   8.338  1.00  0.00     0.162 A 
ATOM     46  C   UNL     1     -28.663   2.700   8.883  1.00  0.00     0.200 A 
BRANCH  44  47
ATOM     47  O   UNL     1     -30.265   1.309  10.064  1.00  0.00    -0.504 OA
ATOM     48  H   UNL     1     -30.407   0.784  10.920  1.00  0.00     0.293 HD
ENDBRANCH  44  47
BRANCH  45  49
ATOM     49  O   UNL     1     -27.022   4.077   7.725  1.00  0.00    -0.504 OA
ATOM     50  H   UNL     1     -27.712   4.745   7.408  1.00  0.00     0.293 HD
ENDBRANCH  45  49
BRANCH  46  51
ATOM     51  O   UNL     1     -29.592   3.736   8.800  1.00  0.00    -0.502 OA
ATOM     52  H   UNL     1     -29.360   4.696   9.030  1.00  0.00     0.293 HD
ENDBRANCH  46  51
ENDBRANCH  39  41
ENDBRANCH  38  39
ENDBRANCH   3  38
BRANCH   5  53
ATOM     53  O   UNL     1     -21.548  -3.100   7.819  1.00  0.00    -0.428 OA
BRANCH  53  54
ATOM     54  C   UNL     1     -20.824  -4.083   8.506  1.00  0.00     0.340 C 
ATOM     55  O   UNL     1     -20.691  -4.012   9.758  1.00  0.00    -0.246 OA
BRANCH  54  56
ATOM     56  C   UNL     1     -20.192  -5.186   7.747  1.00  0.00     0.067 A 
ATOM     57  C   UNL     1     -20.342  -5.257   6.353  1.00  0.00     0.066 A 
ATOM     58  C   UNL     1     -19.429  -6.162   8.408  1.00  0.00     0.066 A 
ATOM     59  C   UNL     1     -19.745  -6.298   5.626  1.00  0.00     0.162 A 
ATOM     60  C   UNL     1     -18.824  -7.199   7.686  1.00  0.00     0.162 A 
ATOM     61  C   UNL     1     -18.987  -7.274   6.294  1.00  0.00     0.200 A 
BRANCH  59  62
ATOM     62  O   UNL     1     -19.902  -6.366   4.244  1.00  0.00    -0.504 OA
ATOM     63  H   UNL     1     -20.539  -5.752   3.749  1.00  0.00     0.293 HD
ENDBRANCH  59  62
BRANCH  60  64
ATOM     64  O   UNL     1     -18.074  -8.159   8.365  1.00  0.00    -0.504 OA
ATOM     65  H   UNL     1     -18.395  -9.115   8.468  1.00  0.00     0.293 HD
ENDBRANCH  60  64
BRANCH  61  66
ATOM     66  O   UNL     1     -18.387  -8.321   5.589  1.00  0.00    -0.502 OA
ATOM     67  H   UNL     1     -18.307  -8.309   4.573  1.00  0.00     0.293 HD
ENDBRANCH  61  66
ENDBRANCH  54  56
ENDBRANCH  53  54
ENDBRANCH   5  53
BRANCH   4  68
ATOM     68  O   UNL     1     -24.156  -3.574   8.696  1.00  0.00    -0.448 OA
BRANCH  68  69
ATOM     69  C   UNL     1     -25.091  -4.590   8.949  1.00  0.00     0.339 C 
ATOM     70  O   UNL     1     -26.325  -4.335   8.914  1.00  0.00    -0.246 OA
BRANCH  69  71
ATOM     71  C   UNL     1     -24.632  -5.969   9.216  1.00  0.00     0.067 A 
ATOM     72  C   UNL     1     -23.282  -6.229   9.513  1.00  0.00     0.066 A 
ATOM     73  C   UNL     1     -25.541  -7.039   9.183  1.00  0.00     0.066 A 
ATOM     74  C   UNL     1     -22.854  -7.532   9.804  1.00  0.00     0.162 A 
ATOM     75  C   UNL     1     -25.124  -8.349   9.456  1.00  0.00     0.162 A 
ATOM     76  C   UNL     1     -23.768  -8.595   9.789  1.00  0.00     0.200 A 
BRANCH  74  77
ATOM     77  O   UNL     1     -21.519  -7.780  10.123  1.00  0.00    -0.504 OA
ATOM     78  H   UNL     1     -21.118  -7.464  10.992  1.00  0.00     0.293 HD
ENDBRANCH  74  77
BRANCH  75  79
ATOM     79  O   UNL     1     -26.082  -9.363   9.373  1.00  0.00    -0.504 OA
ATOM     80  H   UNL     1     -26.434  -9.874  10.167  1.00  0.00     0.293 HD
ENDBRANCH  75  79
BRANCH  76  81
ATOM     81  O   UNL     1     -23.302  -9.869  10.119  1.00  0.00    -0.502 OA
ATOM     82  H   UNL     1     -23.855 -10.704  10.025  1.00  0.00     0.293 HD
ENDBRANCH  76  81
ENDBRANCH  69  71
ENDBRANCH  68  69
ENDBRANCH   4  68
TORSDOF 31
ENDMDL
MODEL 7
REMARK VINA RESULT:     3.431      7.298     14.034
REMARK INTER + INTRA:          14.275
REMARK INTER:                  17.253
REMARK INTRA:                  -2.978
REMARK UNBOUND:                 6.130
REMARK SMILES O=C(OC[C@@H]1O[C@@H](OC(=O)c2cc(O)c(O)c(O)c2)[C@@H](OC(=O)c2cc(O)c(O)c(O)c2)[C@H](OC(=O)c2cc(O)c(O)c(O)c2)[C@@H]1OC(=O)c1cc(O)c(O)c(O)c1)c1cc(O)c(O)c(O)c1
REMARK SMILES IDX 5 1 46 2 33 3 20 4 7 5 6 6 4 7 3 8 2 9 1 10 59 11 60 12
REMARK SMILES IDX 61 13 67 14 63 15 65 16 62 17 64 19 66 21 47 23 48 24 49 25
REMARK SMILES IDX 50 26 58 27 51 28 56 29 52 30 54 31 57 32 53 34 55 36 34 38
REMARK SMILES IDX 35 39 36 40 37 41 45 42 38 43 43 44 39 45 41 46 44 47 40 49
REMARK SMILES IDX 42 51 8 53 9 54 10 55 11 56 19 57 12 58 17 59 13 60 15 61
REMARK SMILES IDX 18 62 14 64 16 66 21 68 22 69 23 70 24 71 32 72 25 73 30 74
REMARK SMILES IDX 26 75 28 76 31 77 27 79 29 81
REMARK H PARENT 62 18 64 20 66 22 57 33 53 35 55 37 44 48 40 50 42 52 18 63
REMARK H PARENT 14 65 16 67 31 78 27 80 29 82
REMARK Flexibility Score: inf
ROOT
ATOM      1  C   UNL     1     -22.565  -1.335   5.790  1.00  0.00     0.205 C 
ATOM      2  C   UNL     1     -23.952  -0.742   6.120  1.00  0.00     0.254 C 
ATOM      3  C   UNL     1     -24.393  -1.233   7.514  1.00  0.00     0.267 C 
ATOM      4  C   UNL     1     -24.300  -2.768   7.587  1.00  0.00     0.290 C 
ATOM      5  C   UNL     1     -22.912  -3.239   7.118  1.00  0.00     0.357 C 
ATOM      6  O   UNL     1     -22.613  -2.754   5.818  1.00  0.00    -0.329 OA
ENDROOT
BRANCH   1   7
ATOM      7  C   UNL     1     -22.081  -0.874   4.405  1.00  0.00     0.269 C 
BRANCH   7   8
ATOM      8  O   UNL     1     -20.941  -0.025   4.527  1.00  0.00    -0.459 OA
BRANCH   8   9
ATOM      9  C   UNL     1     -19.625  -0.438   4.289  1.00  0.00     0.338 C 
ATOM     10  O   UNL     1     -19.050  -0.134   3.209  1.00  0.00    -0.246 OA
BRANCH   9  11
ATOM     11  C   UNL     1     -18.901  -1.203   5.327  1.00  0.00     0.067 A 
ATOM     12  C   UNL     1     -18.211  -2.374   4.987  1.00  0.00     0.066 A 
ATOM     13  C   UNL     1     -17.537  -3.115   5.959  1.00  0.00     0.162 A 
ATOM     14  C   UNL     1     -18.898  -0.774   6.663  1.00  0.00     0.066 A 
ATOM     15  C   UNL     1     -17.544  -2.692   7.301  1.00  0.00     0.200 A 
ATOM     16  C   UNL     1     -18.228  -1.501   7.652  1.00  0.00     0.162 A 
BRANCH  13  17
ATOM     17  O   UNL     1     -16.878  -4.285   5.578  1.00  0.00    -0.504 OA
ATOM     18  H   UNL     1     -16.065  -4.636   6.072  1.00  0.00     0.293 HD
ENDBRANCH  13  17
BRANCH  15  19
ATOM     19  O   UNL     1     -16.875  -3.473   8.248  1.00  0.00    -0.502 OA
ATOM     20  H   UNL     1     -16.826  -4.479   8.217  1.00  0.00     0.293 HD
ENDBRANCH  15  19
BRANCH  16  21
ATOM     21  O   UNL     1     -18.259  -1.004   8.958  1.00  0.00    -0.504 OA
ATOM     22  H   UNL     1     -18.217  -0.026   9.195  1.00  0.00     0.293 HD
ENDBRANCH  16  21
ENDBRANCH   9  11
ENDBRANCH   8   9
ENDBRANCH   7   8
ENDBRANCH   1   7
BRANCH   2  23
ATOM     23  O   UNL     1     -24.896  -1.165   5.137  1.00  0.00    -0.452 OA
BRANCH  23  24
ATOM     24  C   UNL     1     -26.058  -0.452   4.809  1.00  0.00     0.338 C 
ATOM     25  O   UNL     1     -26.772   0.055   5.717  1.00  0.00    -0.246 OA
BRANCH  24  26
ATOM     26  C   UNL     1     -26.440  -0.294   3.391  1.00  0.00     0.067 A 
ATOM     27  C   UNL     1     -25.642  -0.837   2.369  1.00  0.00     0.066 A 
ATOM     28  C   UNL     1     -27.613   0.394   3.050  1.00  0.00     0.066 A 
ATOM     29  C   UNL     1     -26.009  -0.696   1.028  1.00  0.00     0.162 A 
ATOM     30  C   UNL     1     -27.985   0.547   1.712  1.00  0.00     0.162 A 
ATOM     31  C   UNL     1     -27.182   0.003   0.694  1.00  0.00     0.200 A 
BRANCH  29  32
ATOM     32  O   UNL     1     -25.208  -1.273   0.041  1.00  0.00    -0.504 OA
ATOM     33  H   UNL     1     -25.497  -1.307  -0.929  1.00  0.00     0.293 HD
ENDBRANCH  29  32
BRANCH  30  34
ATOM     34  O   UNL     1     -29.150   1.245   1.385  1.00  0.00    -0.504 OA
ATOM     35  H   UNL     1     -29.555   1.183   0.456  1.00  0.00     0.293 HD
ENDBRANCH  30  34
BRANCH  31  36
ATOM     36  O   UNL     1     -27.543   0.142  -0.648  1.00  0.00    -0.502 OA
ATOM     37  H   UNL     1     -27.049   0.765  -1.279  1.00  0.00     0.293 HD
ENDBRANCH  31  36
ENDBRANCH  24  26
ENDBRANCH  23  24
ENDBRANCH   2  23
BRANCH   3  38
ATOM     38  O   UNL     1     -25.736  -0.835   7.790  1.00  0.00    -0.450 OA
BRANCH  38  39
ATOM     39  C   UNL     1     -26.146  -0.193   8.963  1.00  0.00     0.338 C 
ATOM     40  O   UNL     1     -25.739  -0.603  10.085  1.00  0.00    -0.246 OA
BRANCH  39  41
ATOM     41  C   UNL     1     -27.069   0.963   8.879  1.00  0.00     0.067 A 
ATOM     42  C   UNL     1     -26.586   2.283   8.907  1.00  0.00     0.066 A 
ATOM     43  C   UNL     1     -28.452   0.748   8.778  1.00  0.00     0.066 A 
ATOM     44  C   UNL     1     -27.471   3.371   8.868  1.00  0.00     0.162 A 
ATOM     45  C   UNL     1     -29.342   1.825   8.741  1.00  0.00     0.162 A 
ATOM     46  C   UNL     1     -28.855   3.142   8.792  1.00  0.00     0.200 A 
BRANCH  44  47
ATOM     47  O   UNL     1     -26.981   4.679   8.908  1.00  0.00    -0.504 OA
ATOM     48  H   UNL     1     -25.986   4.878   8.951  1.00  0.00     0.293 HD
ENDBRANCH  44  47
BRANCH  45  49
ATOM     49  O   UNL     1     -30.711   1.571   8.648  1.00  0.00    -0.504 OA
ATOM     50  H   UNL     1     -31.305   2.062   7.994  1.00  0.00     0.293 HD
ENDBRANCH  45  49
BRANCH  46  51
ATOM     51  O   UNL     1     -29.754   4.207   8.761  1.00  0.00    -0.502 OA
ATOM     52  H   UNL     1     -30.305   4.479   9.567  1.00  0.00     0.293 HD
ENDBRANCH  46  51
ENDBRANCH  39  41
ENDBRANCH  38  39
ENDBRANCH   3  38
BRANCH   5  53
ATOM     53  O   UNL     1     -21.900  -2.846   8.048  1.00  0.00    -0.428 OA
BRANCH  53  54
ATOM     54  C   UNL     1     -20.913  -3.717   8.526  1.00  0.00     0.340 C 
ATOM     55  O   UNL     1     -20.451  -3.573   9.691  1.00  0.00    -0.246 OA
BRANCH  54  56
ATOM     56  C   UNL     1     -20.396  -4.786   7.643  1.00  0.00     0.067 A 
ATOM     57  C   UNL     1     -20.439  -4.630   6.248  1.00  0.00     0.066 A 
ATOM     58  C   UNL     1     -19.848  -5.959   8.187  1.00  0.00     0.066 A 
ATOM     59  C   UNL     1     -19.949  -5.638   5.404  1.00  0.00     0.162 A 
ATOM     60  C   UNL     1     -19.349  -6.966   7.350  1.00  0.00     0.162 A 
ATOM     61  C   UNL     1     -19.405  -6.811   5.955  1.00  0.00     0.200 A 
BRANCH  59  62
ATOM     62  O   UNL     1     -19.999  -5.479   4.022  1.00  0.00    -0.504 OA
ATOM     63  H   UNL     1     -19.217  -5.732   3.428  1.00  0.00     0.293 HD
ENDBRANCH  59  62
BRANCH  60  64
ATOM     64  O   UNL     1     -18.813  -8.123   7.913  1.00  0.00    -0.504 OA
ATOM     65  H   UNL     1     -18.390  -8.849   7.346  1.00  0.00     0.293 HD
ENDBRANCH  60  64
BRANCH  61  66
ATOM     66  O   UNL     1     -18.916  -7.829   5.133  1.00  0.00    -0.502 OA
ATOM     67  H   UNL     1     -19.421  -8.705   5.002  1.00  0.00     0.293 HD
ENDBRANCH  61  66
ENDBRANCH  54  56
ENDBRANCH  53  54
ENDBRANCH   5  53
BRANCH   4  68
ATOM     68  O   UNL     1     -24.524  -3.215   8.928  1.00  0.00    -0.448 OA
BRANCH  68  69
ATOM     69  C   UNL     1     -25.397  -4.262   9.261  1.00  0.00     0.339 C 
ATOM     70  O   UNL     1     -26.627  -4.034   9.412  1.00  0.00    -0.246 OA
BRANCH  69  71
ATOM     71  C   UNL     1     -24.881  -5.641   9.395  1.00  0.00     0.067 A 
ATOM     72  C   UNL     1     -25.738  -6.744   9.232  1.00  0.00     0.066 A 
ATOM     73  C   UNL     1     -23.526  -5.867   9.682  1.00  0.00     0.066 A 
ATOM     74  C   UNL     1     -25.241  -8.052   9.322  1.00  0.00     0.162 A 
ATOM     75  C   UNL     1     -23.018  -7.169   9.791  1.00  0.00     0.162 A 
ATOM     76  C   UNL     1     -23.882  -8.274   9.589  1.00  0.00     0.200 A 
BRANCH  74  77
ATOM     77  O   UNL     1     -26.090  -9.143   9.133  1.00  0.00    -0.504 OA
ATOM     78  H   UNL     1     -26.602  -9.551   9.900  1.00  0.00     0.293 HD
ENDBRANCH  74  77
BRANCH  75  79
ATOM     79  O   UNL     1     -21.664  -7.311  10.109  1.00  0.00    -0.504 OA
ATOM     80  H   UNL     1     -20.919  -6.827   9.635  1.00  0.00     0.293 HD
ENDBRANCH  75  79
BRANCH  76  81
ATOM     81  O   UNL     1     -23.427  -9.594   9.635  1.00  0.00    -0.502 OA
ATOM     82  H   UNL     1     -24.035 -10.392   9.578  1.00  0.00     0.293 HD
ENDBRANCH  76  81
ENDBRANCH  69  71
ENDBRANCH  68  69
ENDBRANCH   4  68
TORSDOF 31
ENDMDL
MODEL 8
REMARK VINA RESULT:     4.117      2.183      8.071
REMARK INTER + INTRA:          15.902
REMARK INTER:                   5.448
REMARK INTRA:                  10.454
REMARK UNBOUND:                 6.130
REMARK SMILES O=C(OC[C@@H]1O[C@@H](OC(=O)c2cc(O)c(O)c(O)c2)[C@@H](OC(=O)c2cc(O)c(O)c(O)c2)[C@H](OC(=O)c2cc(O)c(O)c(O)c2)[C@@H]1OC(=O)c1cc(O)c(O)c(O)c1)c1cc(O)c(O)c(O)c1
REMARK SMILES IDX 5 1 46 2 33 3 20 4 7 5 6 6 4 7 3 8 2 9 1 10 59 11 60 12
REMARK SMILES IDX 61 13 67 14 63 15 65 16 62 17 64 19 66 21 47 23 48 24 49 25
REMARK SMILES IDX 50 26 58 27 51 28 56 29 52 30 54 31 57 32 53 34 55 36 34 38
REMARK SMILES IDX 35 39 36 40 37 41 45 42 38 43 43 44 39 45 41 46 44 47 40 49
REMARK SMILES IDX 42 51 8 53 9 54 10 55 11 56 19 57 12 58 17 59 13 60 15 61
REMARK SMILES IDX 18 62 14 64 16 66 21 68 22 69 23 70 24 71 32 72 25 73 30 74
REMARK SMILES IDX 26 75 28 76 31 77 27 79 29 81
REMARK H PARENT 62 18 64 20 66 22 57 33 53 35 55 37 44 48 40 50 42 52 18 63
REMARK H PARENT 14 65 16 67 31 78 27 80 29 82
REMARK Flexibility Score: inf
ROOT
ATOM      1  C   UNL     1     -30.828   3.756   8.163  1.00  0.00     0.205 C 
ATOM      2  C   UNL     1     -31.999   4.669   8.588  1.00  0.00     0.254 C 
ATOM      3  C   UNL     1     -33.015   3.843   9.402  1.00  0.00     0.267 C 
ATOM      4  C   UNL     1     -33.417   2.579   8.620  1.00  0.00     0.290 C 
ATOM      5  C   UNL     1     -32.160   1.824   8.150  1.00  0.00     0.357 C 
ATOM      6  O   UNL     1     -31.305   2.664   7.391  1.00  0.00    -0.329 OA
ENDROOT
BRANCH   1   7
ATOM      7  C   UNL     1     -29.787   4.537   7.344  1.00  0.00     0.269 C 
BRANCH   7   8
ATOM      8  O   UNL     1     -28.518   4.522   7.997  1.00  0.00    -0.459 OA
BRANCH   8   9
ATOM      9  C   UNL     1     -28.214   5.272   9.139  1.00  0.00     0.338 C 
ATOM     10  O   UNL     1     -27.292   4.900   9.915  1.00  0.00    -0.246 OA
BRANCH   9  11
ATOM     11  C   UNL     1     -28.957   6.521   9.412  1.00  0.00     0.067 A 
ATOM     12  C   UNL     1     -30.345   6.490   9.598  1.00  0.00     0.066 A 
ATOM     13  C   UNL     1     -31.061   7.664   9.840  1.00  0.00     0.162 A 
ATOM     14  C   UNL     1     -28.287   7.752   9.483  1.00  0.00     0.066 A 
ATOM     15  C   UNL     1     -30.391   8.900   9.899  1.00  0.00     0.200 A 
ATOM     16  C   UNL     1     -28.985   8.940   9.726  1.00  0.00     0.162 A 
BRANCH  13  17
ATOM     17  O   UNL     1     -32.446   7.588  10.001  1.00  0.00    -0.504 OA
ATOM     18  H   UNL     1     -32.875   7.309  10.875  1.00  0.00     0.293 HD
ENDBRANCH  13  17
BRANCH  15  19
ATOM     19  O   UNL     1     -31.147  10.055  10.122  1.00  0.00    -0.502 OA
ATOM     20  H   UNL     1     -31.559  10.298  11.010  1.00  0.00     0.293 HD
ENDBRANCH  15  19
BRANCH  16  21
ATOM     21  O   UNL     1     -28.248  10.125   9.796  1.00  0.00    -0.504 OA
ATOM     22  H   UNL     1     -27.632  10.454   9.071  1.00  0.00     0.293 HD
ENDBRANCH  16  21
ENDBRANCH   9  11
ENDBRANCH   8   9
ENDBRANCH   7   8
ENDBRANCH   1   7
BRANCH   2  23
ATOM     23  O   UNL     1     -32.632   5.203   7.424  1.00  0.00    -0.452 OA
BRANCH  23  24
ATOM     24  C   UNL     1     -33.060   4.426   6.339  1.00  0.00     0.338 C 
ATOM     25  O   UNL     1     -32.848   3.182   6.323  1.00  0.00    -0.246 OA
BRANCH  24  26
ATOM     26  C   UNL     1     -33.766   5.072   5.214  1.00  0.00     0.067 A 
ATOM     27  C   UNL     1     -35.027   4.609   4.797  1.00  0.00     0.066 A 
ATOM     28  C   UNL     1     -33.187   6.166   4.555  1.00  0.00     0.066 A 
ATOM     29  C   UNL     1     -35.698   5.227   3.739  1.00  0.00     0.162 A 
ATOM     30  C   UNL     1     -33.848   6.787   3.491  1.00  0.00     0.162 A 
ATOM     31  C   UNL     1     -35.107   6.318   3.077  1.00  0.00     0.200 A 
BRANCH  29  32
ATOM     32  O   UNL     1     -36.960   4.759   3.371  1.00  0.00    -0.504 OA
ATOM     33  H   UNL     1     -37.621   4.409   4.054  1.00  0.00     0.293 HD
ENDBRANCH  29  32
BRANCH  30  34
ATOM     34  O   UNL     1     -33.256   7.868   2.835  1.00  0.00    -0.504 OA
ATOM     35  H   UNL     1     -33.322   7.972   1.828  1.00  0.00     0.293 HD
ENDBRANCH  30  34
BRANCH  31  36
ATOM     36  O   UNL     1     -35.783   6.930   2.021  1.00  0.00    -0.502 OA
ATOM     37  H   UNL     1     -35.533   7.855   1.682  1.00  0.00     0.293 HD
ENDBRANCH  31  36
ENDBRANCH  24  26
ENDBRANCH  23  24
ENDBRANCH   2  23
BRANCH   3  38
ATOM     38  O   UNL     1     -34.187   4.610   9.680  1.00  0.00    -0.450 OA
BRANCH  38  39
ATOM     39  C   UNL     1     -35.221   4.834   8.765  1.00  0.00     0.338 C 
ATOM     40  O   UNL     1     -35.808   3.859   8.222  1.00  0.00    -0.246 OA
BRANCH  39  41
ATOM     41  C   UNL     1     -35.615   6.224   8.435  1.00  0.00     0.067 A 
ATOM     42  C   UNL     1     -35.954   7.144   9.441  1.00  0.00     0.066 A 
ATOM     43  C   UNL     1     -35.661   6.637   7.094  1.00  0.00     0.066 A 
ATOM     44  C   UNL     1     -36.365   8.445   9.115  1.00  0.00     0.162 A 
ATOM     45  C   UNL     1     -36.071   7.930   6.758  1.00  0.00     0.162 A 
ATOM     46  C   UNL     1     -36.431   8.838   7.767  1.00  0.00     0.200 A 
BRANCH  44  47
ATOM     47  O   UNL     1     -36.711   9.348  10.124  1.00  0.00    -0.504 OA
ATOM     48  H   UNL     1     -36.509  10.340  10.047  1.00  0.00     0.293 HD
ENDBRANCH  44  47
BRANCH  45  49
ATOM     49  O   UNL     1     -36.112   8.301   5.413  1.00  0.00    -0.504 OA
ATOM     50  H   UNL     1     -36.823   8.921   5.049  1.00  0.00     0.293 HD
ENDBRANCH  45  49
BRANCH  46  51
ATOM     51  O   UNL     1     -36.845  10.123   7.419  1.00  0.00    -0.502 OA
ATOM     52  H   UNL     1     -36.700  10.511   6.493  1.00  0.00     0.293 HD
ENDBRANCH  46  51
ENDBRANCH  39  41
ENDBRANCH  38  39
ENDBRANCH   3  38
BRANCH   5  53
ATOM     53  O   UNL     1     -31.459   1.262   9.261  1.00  0.00    -0.428 OA
BRANCH  53  54
ATOM     54  C   UNL     1     -30.120   1.552   9.555  1.00  0.00     0.340 C 
ATOM     55  O   UNL     1     -29.817   2.636  10.125  1.00  0.00    -0.246 OA
BRANCH  54  56
ATOM     56  C   UNL     1     -29.064   0.591   9.164  1.00  0.00     0.067 A 
ATOM     57  C   UNL     1     -29.162  -0.757   9.547  1.00  0.00     0.066 A 
ATOM     58  C   UNL     1     -27.964   1.011   8.399  1.00  0.00     0.066 A 
ATOM     59  C   UNL     1     -28.168  -1.675   9.179  1.00  0.00     0.162 A 
ATOM     60  C   UNL     1     -26.971   0.097   8.022  1.00  0.00     0.162 A 
ATOM     61  C   UNL     1     -27.066  -1.247   8.417  1.00  0.00     0.200 A 
BRANCH  59  62
ATOM     62  O   UNL     1     -28.268  -3.008   9.565  1.00  0.00    -0.504 OA
ATOM     63  H   UNL     1     -27.611  -3.708   9.239  1.00  0.00     0.293 HD
ENDBRANCH  59  62
BRANCH  60  64
ATOM     64  O   UNL     1     -25.885   0.538   7.266  1.00  0.00    -0.504 OA
ATOM     65  H   UNL     1     -25.601   1.511   7.254  1.00  0.00     0.293 HD
ENDBRANCH  60  64
BRANCH  61  66
ATOM     66  O   UNL     1     -26.062  -2.144   8.043  1.00  0.00    -0.502 OA
ATOM     67  H   UNL     1     -26.149  -3.147   8.207  1.00  0.00     0.293 HD
ENDBRANCH  61  66
ENDBRANCH  54  56
ENDBRANCH  53  54
ENDBRANCH   5  53
BRANCH   4  68
ATOM     68  O   UNL     1     -34.208   1.716   9.444  1.00  0.00    -0.448 OA
BRANCH  68  69
ATOM     69  C   UNL     1     -35.562   1.442   9.203  1.00  0.00     0.339 C 
ATOM     70  O   UNL     1     -36.411   1.599  10.121  1.00  0.00    -0.246 OA
BRANCH  69  71
ATOM     71  C   UNL     1     -36.002   1.008   7.860  1.00  0.00     0.067 A 
ATOM     72  C   UNL     1     -36.116   1.936   6.810  1.00  0.00     0.066 A 
ATOM     73  C   UNL     1     -36.308  -0.340   7.615  1.00  0.00     0.066 A 
ATOM     74  C   UNL     1     -36.497   1.517   5.527  1.00  0.00     0.162 A 
ATOM     75  C   UNL     1     -36.706  -0.771   6.343  1.00  0.00     0.162 A 
ATOM     76  C   UNL     1     -36.783   0.166   5.281  1.00  0.00     0.200 A 
BRANCH  74  77
ATOM     77  O   UNL     1     -36.583   2.437   4.482  1.00  0.00    -0.504 OA
ATOM     78  H   UNL     1     -37.076   2.220   3.629  1.00  0.00     0.293 HD
ENDBRANCH  74  77
BRANCH  75  79
ATOM     79  O   UNL     1     -37.022  -2.123   6.186  1.00  0.00    -0.504 OA
ATOM     80  H   UNL     1     -36.338  -2.853   6.067  1.00  0.00     0.293 HD
ENDBRANCH  75  79
BRANCH  76  81
ATOM     81  O   UNL     1     -37.124  -0.209   3.980  1.00  0.00    -0.502 OA
ATOM     82  H   UNL     1     -37.825   0.260   3.434  1.00  0.00     0.293 HD
ENDBRANCH  76  81
ENDBRANCH  69  71
ENDBRANCH  68  69
ENDBRANCH   4  68
TORSDOF 31
ENDMDL
