MODEL 1
REMARK VINA RESULT:    -4.731      0.000      0.000
REMARK INTER + INTRA:          -5.374
REMARK INTER:                  -5.284
REMARK INTRA:                  -0.090
REMARK UNBOUND:                -0.090
REMARK SMILES O=C([O-])C=Cc1ccccc1
REMARK SMILES IDX 4 1 5 2 2 3 1 4 3 5 6 6 7 7 11 8 8 9 10 10 9 11
REMARK H PARENT
REMARK Flexibility Score: inf
ROOT
ATOM      1  C   UNL     1      21.385  10.084  28.015  1.00  0.00     0.025 C 
ATOM      2  C   UNL     1      20.814  10.125  29.229  1.00  0.00     0.010 C 
ENDROOT
BRANCH   1   3
ATOM      3  C   UNL     1      21.487   8.894  27.150  1.00  0.00     0.064 C 
ATOM      4  O   UNL     1      22.443   8.082  27.256  1.00  0.00    -0.545 OA
ATOM      5  O   UNL     1      20.469   8.626  26.245  1.00  0.00    -0.545 OA
ENDBRANCH   1   3
BRANCH   2   6
ATOM      6  C   UNL     1      20.345   8.952  29.995  1.00  0.00    -0.026 A 
ATOM      7  C   UNL     1      19.232   8.230  29.534  1.00  0.00     0.008 A 
ATOM      8  C   UNL     1      20.926   8.606  31.228  1.00  0.00     0.008 A 
ATOM      9  C   UNL     1      18.741   7.147  30.269  1.00  0.00     0.001 A 
ATOM     10  C   UNL     1      20.433   7.522  31.960  1.00  0.00     0.001 A 
ATOM     11  C   UNL     1      19.344   6.790  31.479  1.00  0.00     0.000 A 
ENDBRANCH   2   6
TORSDOF 2
ENDMDL
MODEL 2
REMARK VINA RESULT:    -4.692      2.416      4.096
REMARK INTER + INTRA:          -5.330
REMARK INTER:                  -5.054
REMARK INTRA:                  -0.276
REMARK UNBOUND:                -0.090
REMARK SMILES O=C([O-])C=Cc1ccccc1
REMARK SMILES IDX 4 1 5 2 2 3 1 4 3 5 6 6 7 7 11 8 8 9 10 10 9 11
REMARK H PARENT
REMARK Flexibility Score: inf
ROOT
ATOM      1  C   UNL     1      21.075   8.971  31.535  1.00  0.00     0.025 C 
ATOM      2  C   UNL     1      21.374   9.751  30.483  1.00  0.00     0.010 C 
ENDROOT
BRANCH   1   3
ATOM      3  C   UNL     1      20.376   7.674  31.475  1.00  0.00     0.064 C 
ATOM      4  O   UNL     1      19.123   7.596  31.572  1.00  0.00    -0.545 OA
ATOM      5  O   UNL     1      21.110   6.520  31.235  1.00  0.00    -0.545 OA
ENDBRANCH   1   3
BRANCH   2   6
ATOM      6  C   UNL     1      20.900   9.541  29.100  1.00  0.00    -0.026 A 
ATOM      7  C   UNL     1      19.614   9.976  28.741  1.00  0.00     0.008 A 
ATOM      8  C   UNL     1      21.669   8.825  28.166  1.00  0.00     0.008 A 
ATOM      9  C   UNL     1      19.127   9.744  27.451  1.00  0.00     0.001 A 
ATOM     10  C   UNL     1      21.179   8.595  26.877  1.00  0.00     0.001 A 
ATOM     11  C   UNL     1      19.910   9.058  26.518  1.00  0.00     0.000 A 
ENDBRANCH   2   6
TORSDOF 2
ENDMDL
MODEL 3
REMARK VINA RESULT:    -4.592      0.193      1.472
REMARK INTER + INTRA:          -5.218
REMARK INTER:                  -5.148
REMARK INTRA:                  -0.070
REMARK UNBOUND:                -0.090
REMARK SMILES O=C([O-])C=Cc1ccccc1
REMARK SMILES IDX 4 1 5 2 2 3 1 4 3 5 6 6 7 7 11 8 8 9 10 10 9 11
REMARK H PARENT
REMARK Flexibility Score: inf
ROOT
ATOM      1  C   UNL     1      21.599  10.034  28.214  1.00  0.00     0.025 C 
ATOM      2  C   UNL     1      20.948  10.125  29.385  1.00  0.00     0.010 C 
ENDROOT
BRANCH   1   3
ATOM      3  C   UNL     1      21.649   8.842  27.347  1.00  0.00     0.064 C 
ATOM      4  O   UNL     1      22.528   7.954  27.497  1.00  0.00    -0.545 OA
ATOM      5  O   UNL     1      20.662   8.662  26.386  1.00  0.00    -0.545 OA
ENDBRANCH   1   3
BRANCH   2   6
ATOM      6  C   UNL     1      20.317   8.999  30.104  1.00  0.00    -0.026 A 
ATOM      7  C   UNL     1      20.875   8.557  31.314  1.00  0.00     0.008 A 
ATOM      8  C   UNL     1      19.233   8.295  29.549  1.00  0.00     0.008 A 
ATOM      9  C   UNL     1      20.323   7.461  31.986  1.00  0.00     0.001 A 
ATOM     10  C   UNL     1      18.683   7.201  30.224  1.00  0.00     0.001 A 
ATOM     11  C   UNL     1      19.226   6.787  31.443  1.00  0.00     0.000 A 
ENDBRANCH   2   6
TORSDOF 2
ENDMDL
MODEL 4
REMARK VINA RESULT:    -4.520     17.956     19.149
REMARK INTER + INTRA:          -5.138
REMARK INTER:                  -4.912
REMARK INTRA:                  -0.226
REMARK UNBOUND:                -0.090
REMARK SMILES O=C([O-])C=Cc1ccccc1
REMARK SMILES IDX 4 1 5 2 2 3 1 4 3 5 6 6 7 7 11 8 8 9 10 10 9 11
REMARK H PARENT
REMARK Flexibility Score: inf
ROOT
ATOM      1  C   UNL     1      20.854  -7.913  16.006  1.00  0.00     0.025 C 
ATOM      2  C   UNL     1      21.874  -7.147  16.426  1.00  0.00     0.010 C 
ENDROOT
BRANCH   1   3
ATOM      3  C   UNL     1      19.436  -7.730  16.364  1.00  0.00     0.064 C 
ATOM      4  O   UNL     1      18.758  -6.774  15.907  1.00  0.00    -0.545 OA
ATOM      5  O   UNL     1      18.814  -8.676  17.170  1.00  0.00    -0.545 OA
ENDBRANCH   1   3
BRANCH   2   6
ATOM      6  C   UNL     1      21.787  -6.097  17.462  1.00  0.00    -0.026 A 
ATOM      7  C   UNL     1      21.473  -4.782  17.083  1.00  0.00     0.008 A 
ATOM      8  C   UNL     1      22.113  -6.367  18.803  1.00  0.00     0.008 A 
ATOM      9  C   UNL     1      21.434  -3.763  18.040  1.00  0.00     0.001 A 
ATOM     10  C   UNL     1      22.072  -5.346  19.757  1.00  0.00     0.001 A 
ATOM     11  C   UNL     1      21.729  -4.046  19.377  1.00  0.00     0.000 A 
ENDBRANCH   2   6
TORSDOF 2
ENDMDL
MODEL 5
REMARK VINA RESULT:    -4.513      1.097      1.753
REMARK INTER + INTRA:          -5.131
REMARK INTER:                  -5.169
REMARK INTRA:                   0.039
REMARK UNBOUND:                -0.090
REMARK SMILES O=C([O-])C=Cc1ccccc1
REMARK SMILES IDX 4 1 5 2 2 3 1 4 3 5 6 6 7 7 11 8 8 9 10 10 9 11
REMARK H PARENT
REMARK Flexibility Score: inf
ROOT
ATOM      1  C   UNL     1      20.346   9.062  27.046  1.00  0.00     0.025 C 
ATOM      2  C   UNL     1      19.574   8.793  28.111  1.00  0.00     0.010 C 
ENDROOT
BRANCH   1   3
ATOM      3  C   UNL     1      21.820   9.032  27.020  1.00  0.00     0.064 C 
ATOM      4  O   UNL     1      22.498  10.082  26.867  1.00  0.00    -0.545 OA
ATOM      5  O   UNL     1      22.477   7.828  27.240  1.00  0.00    -0.545 OA
ENDBRANCH   1   3
BRANCH   2   6
ATOM      6  C   UNL     1      20.059   8.594  29.492  1.00  0.00    -0.026 A 
ATOM      7  C   UNL     1      19.559   7.523  30.249  1.00  0.00     0.008 A 
ATOM      8  C   UNL     1      20.933   9.515  30.098  1.00  0.00     0.008 A 
ATOM      9  C   UNL     1      19.967   7.345  31.575  1.00  0.00     0.001 A 
ATOM     10  C   UNL     1      21.340   9.333  31.423  1.00  0.00     0.001 A 
ATOM     11  C   UNL     1      20.860   8.247  32.160  1.00  0.00     0.000 A 
ENDBRANCH   2   6
TORSDOF 2
ENDMDL
MODEL 6
REMARK VINA RESULT:    -4.452      8.864     10.456
REMARK INTER + INTRA:          -5.062
REMARK INTER:                  -4.803
REMARK INTRA:                  -0.259
REMARK UNBOUND:                -0.090
REMARK SMILES O=C([O-])C=Cc1ccccc1
REMARK SMILES IDX 4 1 5 2 2 3 1 4 3 5 6 6 7 7 11 8 8 9 10 10 9 11
REMARK H PARENT
REMARK Flexibility Score: inf
ROOT
ATOM      1  C   UNL     1      26.994   0.707  22.599  1.00  0.00     0.025 C 
ATOM      2  C   UNL     1      27.109   1.146  23.862  1.00  0.00     0.010 C 
ENDROOT
BRANCH   1   3
ATOM      3  C   UNL     1      26.545   1.510  21.446  1.00  0.00     0.064 C 
ATOM      4  O   UNL     1      27.319   2.311  20.859  1.00  0.00    -0.545 OA
ATOM      5  O   UNL     1      25.260   1.326  20.951  1.00  0.00    -0.545 OA
ENDBRANCH   1   3
BRANCH   2   6
ATOM      6  C   UNL     1      26.638   2.455  24.361  1.00  0.00    -0.026 A 
ATOM      7  C   UNL     1      27.520   3.548  24.361  1.00  0.00     0.008 A 
ATOM      8  C   UNL     1      25.361   2.602  24.930  1.00  0.00     0.008 A 
ATOM      9  C   UNL     1      27.111   4.783  24.874  1.00  0.00     0.001 A 
ATOM     10  C   UNL     1      24.955   3.839  25.441  1.00  0.00     0.001 A 
ATOM     11  C   UNL     1      25.828   4.929  25.410  1.00  0.00     0.000 A 
ENDBRANCH   2   6
TORSDOF 2
ENDMDL
MODEL 7
REMARK VINA RESULT:    -4.416      2.839      3.857
REMARK INTER + INTRA:          -5.023
REMARK INTER:                  -4.801
REMARK INTRA:                  -0.221
REMARK UNBOUND:                -0.090
REMARK SMILES O=C([O-])C=Cc1ccccc1
REMARK SMILES IDX 4 1 5 2 2 3 1 4 3 5 6 6 7 7 11 8 8 9 10 10 9 11
REMARK H PARENT
REMARK Flexibility Score: inf
ROOT
ATOM      1  C   UNL     1      23.365   7.638  29.942  1.00  0.00     0.025 C 
ATOM      2  C   UNL     1      23.090   8.722  29.199  1.00  0.00     0.010 C 
ENDROOT
BRANCH   1   3
ATOM      3  C   UNL     1      22.519   6.437  30.060  1.00  0.00     0.064 C 
ATOM      4  O   UNL     1      22.814   5.362  29.474  1.00  0.00    -0.545 OA
ATOM      5  O   UNL     1      21.408   6.470  30.893  1.00  0.00    -0.545 OA
ENDBRANCH   1   3
BRANCH   2   6
ATOM      6  C   UNL     1      21.811   8.985  28.510  1.00  0.00    -0.026 A 
ATOM      7  C   UNL     1      21.594   8.442  27.233  1.00  0.00     0.008 A 
ATOM      8  C   UNL     1      20.849   9.851  29.061  1.00  0.00     0.008 A 
ATOM      9  C   UNL     1      20.411   8.719  26.541  1.00  0.00     0.001 A 
ATOM     10  C   UNL     1      19.667  10.124  28.366  1.00  0.00     0.001 A 
ATOM     11  C   UNL     1      19.446   9.556  27.109  1.00  0.00     0.000 A 
ENDBRANCH   2   6
TORSDOF 2
ENDMDL
MODEL 8
REMARK VINA RESULT:    -4.400     17.378     18.576
REMARK INTER + INTRA:          -5.004
REMARK INTER:                  -5.099
REMARK INTRA:                   0.094
REMARK UNBOUND:                -0.090
REMARK SMILES O=C([O-])C=Cc1ccccc1
REMARK SMILES IDX 4 1 5 2 2 3 1 4 3 5 6 6 7 7 11 8 8 9 10 10 9 11
REMARK H PARENT
REMARK Flexibility Score: inf
ROOT
ATOM      1  C   UNL     1      21.754  -3.954  19.120  1.00  0.00     0.025 C 
ATOM      2  C   UNL     1      21.377  -4.289  17.875  1.00  0.00     0.010 C 
ENDROOT
BRANCH   1   3
ATOM      3  C   UNL     1      22.114  -4.898  20.194  1.00  0.00     0.064 C 
ATOM      4  O   UNL     1      22.726  -5.970  19.952  1.00  0.00    -0.545 OA
ATOM      5  O   UNL     1      21.832  -4.562  21.512  1.00  0.00    -0.545 OA
ENDBRANCH   1   3
BRANCH   2   6
ATOM      6  C   UNL     1      21.080  -5.659  17.410  1.00  0.00    -0.026 A 
ATOM      7  C   UNL     1      22.077  -6.390  16.744  1.00  0.00     0.008 A 
ATOM      8  C   UNL     1      19.790  -6.206  17.529  1.00  0.00     0.008 A 
ATOM      9  C   UNL     1      21.803  -7.670  16.252  1.00  0.00     0.001 A 
ATOM     10  C   UNL     1      19.520  -7.486  17.036  1.00  0.00     0.001 A 
ATOM     11  C   UNL     1      20.526  -8.219  16.401  1.00  0.00     0.000 A 
ENDBRANCH   2   6
TORSDOF 2
ENDMDL
MODEL 9
REMARK VINA RESULT:    -4.282      2.137      3.694
REMARK INTER + INTRA:          -4.872
REMARK INTER:                  -4.671
REMARK INTRA:                  -0.201
REMARK UNBOUND:                -0.090
REMARK SMILES O=C([O-])C=Cc1ccccc1
REMARK SMILES IDX 4 1 5 2 2 3 1 4 3 5 6 6 7 7 11 8 8 9 10 10 9 11
REMARK H PARENT
REMARK Flexibility Score: inf
ROOT
ATOM      1  C   UNL     1      21.621   6.003  31.391  1.00  0.00     0.025 C 
ATOM      2  C   UNL     1      20.661   6.936  31.489  1.00  0.00     0.010 C 
ENDROOT
BRANCH   1   3
ATOM      3  C   UNL     1      22.704   5.983  30.389  1.00  0.00     0.064 C 
ATOM      4  O   UNL     1      22.595   5.340  29.313  1.00  0.00    -0.545 OA
ATOM      5  O   UNL     1      23.842   6.749  30.607  1.00  0.00    -0.545 OA
ENDBRANCH   1   3
BRANCH   2   6
ATOM      6  C   UNL     1      20.406   8.009  30.507  1.00  0.00    -0.026 A 
ATOM      7  C   UNL     1      19.383   7.845  29.559  1.00  0.00     0.008 A 
ATOM      8  C   UNL     1      21.232   9.145  30.436  1.00  0.00     0.008 A 
ATOM      9  C   UNL     1      19.156   8.826  28.589  1.00  0.00     0.001 A 
ATOM     10  C   UNL     1      21.002  10.124  29.465  1.00  0.00     0.001 A 
ATOM     11  C   UNL     1      19.962   9.967  28.544  1.00  0.00     0.000 A 
ENDBRANCH   2   6
TORSDOF 2
ENDMDL
