MODEL 1
REMARK VINA RESULT:    -1.488      0.000      0.000
REMARK INTER + INTRA:          -3.181
REMARK INTER:                  -2.271
REMARK INTRA:                  -0.910
REMARK UNBOUND:                -0.910
REMARK SMILES OC[C@H]1O[C@H](O[C@]2(CO)O[C@H](CO)[C@@H](O)[C@H]2O)[C@H](O)[C@@H](O)[C@H]1O
REMARK SMILES IDX 6 1 5 2 3 3 22 4 4 5 20 6 18 7 2 8 1 9 23 11 21 13 19 15
REMARK SMILES IDX 7 17 16 18 10 19 14 20 11 21 8 22 9 23 17 25 15 27 12 29
REMARK SMILES IDX 13 30
REMARK H PARENT 1 10 23 12 21 14 19 16 9 24 17 26 15 28 13 31
REMARK Flexibility Score: inf
ROOT
ATOM      1  O   UNL     1      10.582   3.653 -11.277  1.00  0.00    -0.313 OA
ENDROOT
BRANCH   1   2
ATOM      2  C   UNL     1       9.379   3.562 -10.523  1.00  0.00     0.285 C 
ATOM      3  C   UNL     1      10.538   3.101  -8.529  1.00  0.00     0.178 C 
ATOM      4  C   UNL     1      10.153   4.452  -7.887  1.00  0.00     0.177 C 
ATOM      5  O   UNL     1       9.529   2.666  -9.429  1.00  0.00    -0.341 OA
ATOM      6  C   UNL     1       9.948   5.497  -8.996  1.00  0.00     0.179 C 
ATOM      7  C   UNL     1       8.951   4.962 -10.042  1.00  0.00     0.202 C 
BRANCH   3   8
ATOM      8  C   UNL     1      10.743   2.026  -7.451  1.00  0.00     0.191 C 
BRANCH   8   9
ATOM      9  O   UNL     1      11.201   2.610  -6.262  1.00  0.00    -0.394 OA
ATOM     10  H   UNL     1      11.946   3.216  -6.511  1.00  0.00     0.210 HD
ENDBRANCH   8   9
ENDBRANCH   3   8
BRANCH   4  11
ATOM     11  O   UNL     1       8.974   4.303  -7.134  1.00  0.00    -0.387 OA
ATOM     12  H   UNL     1       9.223   3.835  -6.294  1.00  0.00     0.211 HD
ENDBRANCH   4  11
BRANCH   6  13
ATOM     13  O   UNL     1       9.470   6.693  -8.433  1.00  0.00    -0.387 OA
ATOM     14  H   UNL     1       8.494   6.578  -8.293  1.00  0.00     0.211 HD
ENDBRANCH   6  13
BRANCH   7  15
ATOM     15  O   UNL     1       8.887   5.831 -11.144  1.00  0.00    -0.385 OA
ATOM     16  H   UNL     1       9.379   6.655 -10.892  1.00  0.00     0.211 HD
ENDBRANCH   7  15
ENDBRANCH   1   2
BRANCH   1  17
ATOM     17  C   UNL     1      10.446   3.214 -12.625  1.00  0.00     0.224 C 
ATOM     18  C   UNL     1      10.962   4.337 -13.533  1.00  0.00     0.208 C 
ATOM     19  O   UNL     1      11.259   2.084 -12.889  1.00  0.00    -0.337 OA
ATOM     20  C   UNL     1      11.493   3.607 -14.744  1.00  0.00     0.180 C 
ATOM     21  C   UNL     1      11.769   2.197 -14.203  1.00  0.00     0.179 C 
BRANCH  17  22
ATOM     22  C   UNL     1       8.963   2.853 -12.915  1.00  0.00     0.225 C 
BRANCH  22  23
ATOM     23  O   UNL     1       8.883   1.885 -13.927  1.00  0.00    -0.391 OA
ATOM     24  H   UNL     1       8.118   1.299 -13.687  1.00  0.00     0.210 HD
ENDBRANCH  22  23
ENDBRANCH  17  22
BRANCH  18  25
ATOM     25  O   UNL     1       9.970   5.278 -13.859  1.00  0.00    -0.385 OA
ATOM     26  H   UNL     1       9.431   5.415 -13.037  1.00  0.00     0.211 HD
ENDBRANCH  18  25
BRANCH  20  27
ATOM     27  O   UNL     1      10.528   3.562 -15.764  1.00  0.00    -0.387 OA
ATOM     28  H   UNL     1       9.681   3.894 -15.365  1.00  0.00     0.211 HD
ENDBRANCH  20  27
BRANCH  21  29
ATOM     29  C   UNL     1      13.269   1.888 -14.189  1.00  0.00     0.191 C 
BRANCH  29  30
ATOM     30  O   UNL     1      13.931   2.706 -15.113  1.00  0.00    -0.394 OA
ATOM     31  H   UNL     1      13.640   3.634 -14.917  1.00  0.00     0.210 HD
ENDBRANCH  29  30
ENDBRANCH  21  29
ENDBRANCH   1  17
TORSDOF 13
ENDMDL
MODEL 2
REMARK VINA RESULT:    -0.895      1.441      6.450
REMARK INTER + INTRA:          -2.276
REMARK INTER:                  -1.698
REMARK INTRA:                  -0.578
REMARK UNBOUND:                -0.910
REMARK SMILES OC[C@H]1O[C@H](O[C@]2(CO)O[C@H](CO)[C@@H](O)[C@H]2O)[C@H](O)[C@@H](O)[C@H]1O
REMARK SMILES IDX 6 1 5 2 3 3 22 4 4 5 20 6 18 7 2 8 1 9 23 11 21 13 19 15
REMARK SMILES IDX 7 17 16 18 10 19 14 20 11 21 8 22 9 23 17 25 15 27 12 29
REMARK SMILES IDX 13 30
REMARK H PARENT 1 10 23 12 21 14 19 16 9 24 17 26 15 28 13 31
REMARK Flexibility Score: inf
ROOT
ATOM      1  O   UNL     1      10.508   4.053 -11.451  1.00  0.00    -0.313 OA
ENDROOT
BRANCH   1   2
ATOM      2  C   UNL     1      10.161   2.919 -12.238  1.00  0.00     0.285 C 
ATOM      3  C   UNL     1      10.094   4.184 -14.219  1.00  0.00     0.178 C 
ATOM      4  C   UNL     1      11.338   3.487 -14.813  1.00  0.00     0.177 C 
ATOM      5  O   UNL     1       9.382   3.301 -13.365  1.00  0.00    -0.341 OA
ATOM      6  C   UNL     1      12.247   3.016 -13.666  1.00  0.00     0.179 C 
ATOM      7  C   UNL     1      11.434   2.167 -12.670  1.00  0.00     0.202 C 
BRANCH   3   8
ATOM      8  C   UNL     1       9.155   4.663 -15.337  1.00  0.00     0.191 C 
BRANCH   8   9
ATOM      9  O   UNL     1       9.889   4.981 -16.488  1.00  0.00    -0.394 OA
ATOM     10  H   UNL     1      10.801   4.614 -16.354  1.00  0.00     0.210 HD
ENDBRANCH   8   9
ENDBRANCH   3   8
BRANCH   4  11
ATOM     11  O   UNL     1      10.941   2.392 -15.601  1.00  0.00    -0.387 OA
ATOM     12  H   UNL     1      10.072   2.073 -15.240  1.00  0.00     0.211 HD
ENDBRANCH   4  11
BRANCH   6  13
ATOM     13  O   UNL     1      13.314   2.266 -14.189  1.00  0.00    -0.387 OA
ATOM     14  H   UNL     1      14.147   2.766 -13.984  1.00  0.00     0.211 HD
ENDBRANCH   6  13
BRANCH   7  15
ATOM     15  O   UNL     1      12.207   1.875 -11.533  1.00  0.00    -0.385 OA
ATOM     16  H   UNL     1      11.928   2.507 -10.822  1.00  0.00     0.211 HD
ENDBRANCH   7  15
ENDBRANCH   1   2
BRANCH   1  17
ATOM     17  C   UNL     1       9.804   4.127 -10.214  1.00  0.00     0.224 C 
ATOM     18  C   UNL     1      10.830   4.422  -9.113  1.00  0.00     0.208 C 
ATOM     19  O   UNL     1       8.886   5.206 -10.202  1.00  0.00    -0.337 OA
ATOM     20  C   UNL     1      10.043   5.202  -8.086  1.00  0.00     0.180 C 
ATOM     21  C   UNL     1       8.875   5.770  -8.906  1.00  0.00     0.179 C 
BRANCH  17  22
ATOM     22  C   UNL     1       9.034   2.801  -9.966  1.00  0.00     0.225 C 
BRANCH  22  23
ATOM     23  O   UNL     1       9.461   2.202  -8.772  1.00  0.00    -0.391 OA
ATOM     24  H   UNL     1      10.338   1.783  -8.971  1.00  0.00     0.210 HD
ENDBRANCH  22  23
ENDBRANCH  17  22
BRANCH  18  25
ATOM     25  O   UNL     1      11.413   3.259  -8.581  1.00  0.00    -0.385 OA
ATOM     26  H   UNL     1      10.981   3.105  -7.701  1.00  0.00     0.211 HD
ENDBRANCH  18  25
BRANCH  20  27
ATOM     27  O   UNL     1       9.566   4.354  -7.072  1.00  0.00    -0.387 OA
ATOM     28  H   UNL     1      10.000   4.651  -6.230  1.00  0.00     0.211 HD
ENDBRANCH  20  27
BRANCH  21  29
ATOM     29  C   UNL     1       8.961   7.295  -9.019  1.00  0.00     0.191 C 
BRANCH  29  30
ATOM     30  O   UNL     1       8.876   7.676 -10.364  1.00  0.00    -0.394 OA
ATOM     31  H   UNL     1       8.824   6.834 -10.886  1.00  0.00     0.210 HD
ENDBRANCH  29  30
ENDBRANCH  21  29
ENDBRANCH   1  17
TORSDOF 13
ENDMDL
MODEL 3
REMARK VINA RESULT:     0.479      1.973      3.466
REMARK INTER + INTRA:          -0.179
REMARK INTER:                  -0.435
REMARK INTRA:                   0.256
REMARK UNBOUND:                -0.910
REMARK SMILES OC[C@H]1O[C@H](O[C@]2(CO)O[C@H](CO)[C@@H](O)[C@H]2O)[C@H](O)[C@@H](O)[C@H]1O
REMARK SMILES IDX 6 1 5 2 3 3 22 4 4 5 20 6 18 7 2 8 1 9 23 11 21 13 19 15
REMARK SMILES IDX 7 17 16 18 10 19 14 20 11 21 8 22 9 23 17 25 15 27 12 29
REMARK SMILES IDX 13 30
REMARK H PARENT 1 10 23 12 21 14 19 16 9 24 17 26 15 28 13 31
REMARK Flexibility Score: inf
ROOT
ATOM      1  O   UNL     1      10.533   4.033 -10.448  1.00  0.00    -0.313 OA
ENDROOT
BRANCH   1   2
ATOM      2  C   UNL     1      11.090   2.809  -9.983  1.00  0.00     0.285 C 
ATOM      3  C   UNL     1      11.968   3.820  -8.050  1.00  0.00     0.178 C 
ATOM      4  C   UNL     1      11.004   3.065  -7.108  1.00  0.00     0.177 C 
ATOM      5  O   UNL     1      12.256   3.044  -9.203  1.00  0.00    -0.341 OA
ATOM      6  C   UNL     1       9.706   2.745  -7.866  1.00  0.00     0.179 C 
ATOM      7  C   UNL     1      10.036   2.019  -9.185  1.00  0.00     0.202 C 
BRANCH   3   8
ATOM      8  C   UNL     1      13.284   4.151  -7.329  1.00  0.00     0.191 C 
BRANCH   8   9
ATOM      9  O   UNL     1      13.743   3.035  -6.616  1.00  0.00    -0.394 OA
ATOM     10  H   UNL     1      14.723   3.152  -6.507  1.00  0.00     0.210 HD
ENDBRANCH   8   9
ENDBRANCH   3   8
BRANCH   4  11
ATOM     11  O   UNL     1      11.611   1.878  -6.657  1.00  0.00    -0.387 OA
ATOM     12  H   UNL     1      11.753   1.304  -7.454  1.00  0.00     0.211 HD
ENDBRANCH   4  11
BRANCH   6  13
ATOM     13  O   UNL     1       8.876   1.946  -7.062  1.00  0.00    -0.387 OA
ATOM     14  H   UNL     1       8.499   1.239  -7.648  1.00  0.00     0.211 HD
ENDBRANCH   6  13
BRANCH   7  15
ATOM     15  O   UNL     1       8.876   1.875  -9.965  1.00  0.00    -0.385 OA
ATOM     16  H   UNL     1       8.105   2.094  -9.381  1.00  0.00     0.211 HD
ENDBRANCH   7  15
ENDBRANCH   1   2
BRANCH   1  17
ATOM     17  C   UNL     1      10.506   4.146 -11.868  1.00  0.00     0.224 C 
ATOM     18  C   UNL     1       9.082   3.816 -12.332  1.00  0.00     0.208 C 
ATOM     19  O   UNL     1      10.764   5.473 -12.289  1.00  0.00    -0.337 OA
ATOM     20  C   UNL     1       8.913   4.636 -13.589  1.00  0.00     0.180 C 
ATOM     21  C   UNL     1       9.955   5.750 -13.416  1.00  0.00     0.179 C 
BRANCH  17  22
ATOM     22  C   UNL     1      11.566   3.198 -12.492  1.00  0.00     0.225 C 
BRANCH  22  23
ATOM     23  O   UNL     1      11.434   3.165 -13.888  1.00  0.00    -0.391 OA
ATOM     24  H   UNL     1      12.016   3.889 -14.238  1.00  0.00     0.210 HD
ENDBRANCH  22  23
ENDBRANCH  17  22
BRANCH  18  25
ATOM     25  O   UNL     1       8.881   2.442 -12.551  1.00  0.00    -0.385 OA
ATOM     26  H   UNL     1       8.538   2.068 -11.698  1.00  0.00     0.211 HD
ENDBRANCH  18  25
BRANCH  20  27
ATOM     27  O   UNL     1       9.198   3.869 -14.730  1.00  0.00    -0.387 OA
ATOM     28  H   UNL     1      10.185   3.872 -14.832  1.00  0.00     0.211 HD
ENDBRANCH  20  27
BRANCH  21  29
ATOM     29  C   UNL     1       9.288   7.117 -13.233  1.00  0.00     0.191 C 
BRANCH  29  30
ATOM     30  O   UNL     1       9.232   7.785 -14.462  1.00  0.00    -0.394 OA
ATOM     31  H   UNL     1       8.290   7.719 -14.768  1.00  0.00     0.210 HD
ENDBRANCH  29  30
ENDBRANCH  21  29
ENDBRANCH   1  17
TORSDOF 13
ENDMDL
MODEL 4
REMARK VINA RESULT:     0.505      2.473      4.435
REMARK INTER + INTRA:          -0.139
REMARK INTER:                   0.273
REMARK INTRA:                  -0.412
REMARK UNBOUND:                -0.910
REMARK SMILES OC[C@H]1O[C@H](O[C@]2(CO)O[C@H](CO)[C@@H](O)[C@H]2O)[C@H](O)[C@@H](O)[C@H]1O
REMARK SMILES IDX 6 1 5 2 3 3 22 4 4 5 20 6 18 7 2 8 1 9 23 11 21 13 19 15
REMARK SMILES IDX 7 17 16 18 10 19 14 20 11 21 8 22 9 23 17 25 15 27 12 29
REMARK SMILES IDX 13 30
REMARK H PARENT 1 10 23 12 21 14 19 16 9 24 17 26 15 28 13 31
REMARK Flexibility Score: inf
ROOT
ATOM      1  O   UNL     1       9.982   5.933 -13.079  1.00  0.00    -0.313 OA
ENDROOT
BRANCH   1   2
ATOM      2  C   UNL     1       9.017   4.994 -12.618  1.00  0.00     0.285 C 
ATOM      3  C   UNL     1      10.519   3.195 -12.819  1.00  0.00     0.178 C 
ATOM      4  C   UNL     1      10.605   2.979 -11.293  1.00  0.00     0.177 C 
ATOM      5  O   UNL     1       9.247   3.709 -13.184  1.00  0.00    -0.341 OA
ATOM      6  C   UNL     1      10.352   4.316 -10.579  1.00  0.00     0.179 C 
ATOM      7  C   UNL     1       9.033   4.935 -11.079  1.00  0.00     0.202 C 
BRANCH   3   8
ATOM      8  C   UNL     1      10.759   1.876 -13.569  1.00  0.00     0.191 C 
BRANCH   8   9
ATOM      9  O   UNL     1      11.192   2.130 -14.878  1.00  0.00    -0.394 OA
ATOM     10  H   UNL     1      12.158   1.908 -14.905  1.00  0.00     0.210 HD
ENDBRANCH   8   9
ENDBRANCH   3   8
BRANCH   4  11
ATOM     11  O   UNL     1       9.652   2.024 -10.892  1.00  0.00    -0.387 OA
ATOM     12  H   UNL     1       8.785   2.500 -10.802  1.00  0.00     0.211 HD
ENDBRANCH   4  11
BRANCH   6  13
ATOM     13  O   UNL     1      10.298   4.106  -9.190  1.00  0.00    -0.387 OA
ATOM     14  H   UNL     1      11.218   3.875  -8.896  1.00  0.00     0.211 HD
ENDBRANCH   6  13
BRANCH   7  15
ATOM     15  O   UNL     1       8.877   6.233 -10.564  1.00  0.00    -0.385 OA
ATOM     16  H   UNL     1       9.027   6.176  -9.585  1.00  0.00     0.211 HD
ENDBRANCH   7  15
ENDBRANCH   1   2
BRANCH   1  17
ATOM     17  C   UNL     1       9.657   6.512 -14.341  1.00  0.00     0.224 C 
ATOM     18  C   UNL     1      10.970   6.724 -15.105  1.00  0.00     0.208 C 
ATOM     19  O   UNL     1       8.875   5.633 -15.130  1.00  0.00    -0.337 OA
ATOM     20  C   UNL     1      10.569   6.591 -16.555  1.00  0.00     0.180 C 
ATOM     21  C   UNL     1       9.273   5.770 -16.480  1.00  0.00     0.179 C 
BRANCH  17  22
ATOM     22  C   UNL     1       8.875   7.836 -14.128  1.00  0.00     0.225 C 
BRANCH  22  23
ATOM     23  O   UNL     1       8.950   8.640 -15.275  1.00  0.00    -0.391 OA
ATOM     24  H   UNL     1       9.912   8.692 -15.513  1.00  0.00     0.210 HD
ENDBRANCH  22  23
ENDBRANCH  17  22
BRANCH  18  25
ATOM     25  O   UNL     1      11.575   7.961 -14.821  1.00  0.00    -0.385 OA
ATOM     26  H   UNL     1      12.073   8.225 -15.637  1.00  0.00     0.211 HD
ENDBRANCH  18  25
BRANCH  20  27
ATOM     27  O   UNL     1      10.321   7.851 -17.124  1.00  0.00    -0.387 OA
ATOM     28  H   UNL     1      11.196   8.319 -17.162  1.00  0.00     0.211 HD
ENDBRANCH  20  27
BRANCH  21  29
ATOM     29  C   UNL     1       9.456   4.379 -17.095  1.00  0.00     0.191 C 
BRANCH  29  30
ATOM     30  O   UNL     1       8.902   3.410 -16.249  1.00  0.00    -0.394 OA
ATOM     31  H   UNL     1       9.013   3.755 -15.326  1.00  0.00     0.210 HD
ENDBRANCH  29  30
ENDBRANCH  21  29
ENDBRANCH   1  17
TORSDOF 13
ENDMDL
MODEL 5
REMARK VINA RESULT:     0.702      6.953     10.451
REMARK INTER + INTRA:           0.161
REMARK INTER:                   0.718
REMARK INTRA:                  -0.557
REMARK UNBOUND:                -0.910
REMARK SMILES OC[C@H]1O[C@H](O[C@]2(CO)O[C@H](CO)[C@@H](O)[C@H]2O)[C@H](O)[C@@H](O)[C@H]1O
REMARK SMILES IDX 6 1 5 2 3 3 22 4 4 5 20 6 18 7 2 8 1 9 23 11 21 13 19 15
REMARK SMILES IDX 7 17 16 18 10 19 14 20 11 21 8 22 9 23 17 25 15 27 12 29
REMARK SMILES IDX 13 30
REMARK H PARENT 1 10 23 12 21 14 19 16 9 24 17 26 15 28 13 31
REMARK Flexibility Score: inf
ROOT
ATOM      1  O   UNL     1      12.260   3.208  -1.278  1.00  0.00    -0.313 OA
ENDROOT
BRANCH   1   2
ATOM      2  C   UNL     1      11.829   2.593  -0.070  1.00  0.00     0.285 C 
ATOM      3  C   UNL     1      13.973   2.730   0.888  1.00  0.00     0.178 C 
ATOM      4  C   UNL     1      13.534   3.770   1.943  1.00  0.00     0.177 C 
ATOM      5  O   UNL     1      12.893   1.875   0.544  1.00  0.00    -0.341 OA
ATOM      6  C   UNL     1      12.366   4.596   1.381  1.00  0.00     0.179 C 
ATOM      7  C   UNL     1      11.250   3.655   0.885  1.00  0.00     0.202 C 
BRANCH   3   8
ATOM      8  C   UNL     1      15.136   1.877   1.417  1.00  0.00     0.191 C 
BRANCH   8   9
ATOM      9  O   UNL     1      15.805   2.551   2.448  1.00  0.00    -0.394 OA
ATOM     10  H   UNL     1      15.120   3.081   2.933  1.00  0.00     0.210 HD
ENDBRANCH   8   9
ENDBRANCH   3   8
BRANCH   4  11
ATOM     11  O   UNL     1      13.143   3.114   3.124  1.00  0.00    -0.387 OA
ATOM     12  H   UNL     1      12.215   3.405   3.325  1.00  0.00     0.211 HD
ENDBRANCH   4  11
BRANCH   6  13
ATOM     13  O   UNL     1      11.873   5.454   2.378  1.00  0.00    -0.387 OA
ATOM     14  H   UNL     1      11.207   4.937   2.902  1.00  0.00     0.211 HD
ENDBRANCH   6  13
BRANCH   7  15
ATOM     15  O   UNL     1      10.256   4.388   0.215  1.00  0.00    -0.385 OA
ATOM     16  H   UNL     1       9.699   4.823   0.910  1.00  0.00     0.211 HD
ENDBRANCH   7  15
ENDBRANCH   1   2
BRANCH   1  17
ATOM     17  C   UNL     1      11.609   2.701  -2.440  1.00  0.00     0.224 C 
ATOM     18  C   UNL     1      11.251   3.898  -3.330  1.00  0.00     0.208 C 
ATOM     19  O   UNL     1      12.476   1.882  -3.206  1.00  0.00    -0.337 OA
ATOM     20  C   UNL     1      11.299   3.334  -4.730  1.00  0.00     0.180 C 
ATOM     21  C   UNL     1      12.209   2.106  -4.576  1.00  0.00     0.179 C 
BRANCH  17  22
ATOM     22  C   UNL     1      10.361   1.875  -2.028  1.00  0.00     0.225 C 
BRANCH  22  23
ATOM     23  O   UNL     1       9.262   2.720  -1.816  1.00  0.00    -0.391 OA
ATOM     24  H   UNL     1       8.938   2.526  -0.898  1.00  0.00     0.210 HD
ENDBRANCH  22  23
ENDBRANCH  17  22
BRANCH  18  25
ATOM     25  O   UNL     1      10.002   4.460  -3.015  1.00  0.00    -0.385 OA
ATOM     26  H   UNL     1      10.185   5.255  -2.450  1.00  0.00     0.211 HD
ENDBRANCH  18  25
BRANCH  20  27
ATOM     27  O   UNL     1      10.019   2.947  -5.159  1.00  0.00    -0.387 OA
ATOM     28  H   UNL     1      10.121   2.056  -5.583  1.00  0.00     0.211 HD
ENDBRANCH  20  27
BRANCH  21  29
ATOM     29  C   UNL     1      13.532   2.294  -5.323  1.00  0.00     0.191 C 
BRANCH  29  30
ATOM     30  O   UNL     1      13.380   3.265  -6.321  1.00  0.00    -0.394 OA
ATOM     31  H   UNL     1      13.107   2.777  -7.140  1.00  0.00     0.210 HD
ENDBRANCH  29  30
ENDBRANCH  21  29
ENDBRANCH   1  17
TORSDOF 13
ENDMDL
MODEL 6
REMARK VINA RESULT:     0.718      1.762      6.363
REMARK INTER + INTRA:           0.186
REMARK INTER:                  -1.379
REMARK INTRA:                   1.565
REMARK UNBOUND:                -0.910
REMARK SMILES OC[C@H]1O[C@H](O[C@]2(CO)O[C@H](CO)[C@@H](O)[C@H]2O)[C@H](O)[C@@H](O)[C@H]1O
REMARK SMILES IDX 6 1 5 2 3 3 22 4 4 5 20 6 18 7 2 8 1 9 23 11 21 13 19 15
REMARK SMILES IDX 7 17 16 18 10 19 14 20 11 21 8 22 9 23 17 25 15 27 12 29
REMARK SMILES IDX 13 30
REMARK H PARENT 1 10 23 12 21 14 19 16 9 24 17 26 15 28 13 31
REMARK Flexibility Score: inf
ROOT
ATOM      1  O   UNL     1      10.384   3.938 -12.387  1.00  0.00    -0.313 OA
ENDROOT
BRANCH   1   2
ATOM      2  C   UNL     1       9.617   3.630 -13.545  1.00  0.00     0.285 C 
ATOM      3  C   UNL     1       9.734   5.840 -14.340  1.00  0.00     0.178 C 
ATOM      4  C   UNL     1      10.626   5.457 -15.540  1.00  0.00     0.177 C 
ATOM      5  O   UNL     1       8.879   4.763 -13.984  1.00  0.00    -0.341 OA
ATOM      6  C   UNL     1      11.461   4.220 -15.174  1.00  0.00     0.179 C 
ATOM      7  C   UNL     1      10.538   3.099 -14.660  1.00  0.00     0.202 C 
BRANCH   3   8
ATOM      8  C   UNL     1       8.875   7.070 -14.672  1.00  0.00     0.191 C 
BRANCH   8   9
ATOM      9  O   UNL     1       9.577   7.942 -15.515  1.00  0.00    -0.394 OA
ATOM     10  H   UNL     1      10.462   8.095 -15.092  1.00  0.00     0.210 HD
ENDBRANCH   8   9
ENDBRANCH   3   8
BRANCH   4  11
ATOM     11  O   UNL     1       9.824   5.188 -16.664  1.00  0.00    -0.387 OA
ATOM     12  H   UNL     1       9.109   5.877 -16.683  1.00  0.00     0.211 HD
ENDBRANCH   4  11
BRANCH   6  13
ATOM     13  O   UNL     1      12.179   3.785 -16.301  1.00  0.00    -0.387 OA
ATOM     14  H   UNL     1      12.024   2.808 -16.384  1.00  0.00     0.211 HD
ENDBRANCH   6  13
BRANCH   7  15
ATOM     15  O   UNL     1      11.300   2.029 -14.162  1.00  0.00    -0.385 OA
ATOM     16  H   UNL     1      10.743   1.213 -14.244  1.00  0.00     0.211 HD
ENDBRANCH   7  15
ENDBRANCH   1   2
BRANCH   1  17
ATOM     17  C   UNL     1       9.929   3.279 -11.208  1.00  0.00     0.224 C 
ATOM     18  C   UNL     1      11.112   3.196 -10.237  1.00  0.00     0.208 C 
ATOM     19  O   UNL     1       8.925   4.030 -10.548  1.00  0.00    -0.337 OA
ATOM     20  C   UNL     1      10.463   3.227  -8.873  1.00  0.00     0.180 C 
ATOM     21  C   UNL     1       9.107   3.891  -9.153  1.00  0.00     0.179 C 
BRANCH  17  22
ATOM     22  C   UNL     1       9.362   1.880 -11.572  1.00  0.00     0.225 C 
BRANCH  22  23
ATOM     23  O   UNL     1       8.875   1.875 -12.888  1.00  0.00    -0.391 OA
ATOM     24  H   UNL     1       9.572   2.315 -13.441  1.00  0.00     0.210 HD
ENDBRANCH  22  23
ENDBRANCH  17  22
BRANCH  18  25
ATOM     25  O   UNL     1      11.904   2.051 -10.434  1.00  0.00    -0.385 OA
ATOM     26  H   UNL     1      12.517   2.259 -11.186  1.00  0.00     0.211 HD
ENDBRANCH  18  25
BRANCH  20  27
ATOM     27  O   UNL     1      10.281   1.927  -8.375  1.00  0.00    -0.387 OA
ATOM     28  H   UNL     1       9.302   1.796  -8.280  1.00  0.00     0.211 HD
ENDBRANCH  20  27
BRANCH  21  29
ATOM     29  C   UNL     1       9.013   5.270  -8.493  1.00  0.00     0.191 C 
BRANCH  29  30
ATOM     30  O   UNL     1      10.137   5.488  -7.687  1.00  0.00    -0.394 OA
ATOM     31  H   UNL     1      10.469   6.394  -7.917  1.00  0.00     0.210 HD
ENDBRANCH  29  30
ENDBRANCH  21  29
ENDBRANCH   1  17
TORSDOF 13
ENDMDL
