MODEL 1
REMARK VINA RESULT:    -4.439      0.000      0.000
REMARK INTER + INTRA:          -7.130
REMARK INTER:                  -6.775
REMARK INTRA:                  -0.355
REMARK UNBOUND:                -0.355
REMARK SMILES CC1=CCC[C@H](C)C(=O)C[C@H](C(C)C)C(=O)C1
REMARK SMILES IDX 8 1 9 2 6 3 7 4 5 5 4 6 3 7 2 8 1 9 10 11 11 12 15 13 16 14
REMARK SMILES IDX 17 15 12 17 13 18 14 19
REMARK H PARENT
REMARK Flexibility Score: 70.00
ROOT
ATOM      1  C   UNL     1     124.946 177.222 123.451  1.00  0.00     0.136 C 
ATOM      2  O   UNL     1     124.724 177.358 124.646  1.00  0.00    -0.299 OA
ENDROOT
BRANCH   1   3
ATOM      3  C   UNL     1     123.795 177.009 122.490  1.00  0.00     0.053 C 
ATOM      4  C   UNL     1     122.476 177.002 123.269  1.00  0.00     0.016 C 
BRANCH   3   5
ATOM      5  C   UNL     1     123.750 178.084 121.378  1.00  0.00     0.015 C 
BRANCH   5   6
ATOM      6  C   UNL     1     124.174 177.566 119.996  1.00  0.00     0.028 C 
BRANCH   6   7
ATOM      7  C   UNL     1     125.407 178.278 119.495  1.00  0.00    -0.028 C 
ATOM      8  C   UNL     1     126.632 177.718 119.375  1.00  0.00    -0.070 CG0
ATOM      9  C   UNL     1     127.759 178.577 118.860  1.00  0.00     0.039 C 
ATOM     10  G   UNL     1     126.917 176.275 119.748  1.00  0.00     0.000 G0
ENDBRANCH   6   7
ENDBRANCH   5   6
ENDBRANCH   3   5
ENDBRANCH   1   3
BRANCH   1  11
ATOM     11  C   UNL     1     126.374 177.209 122.963  1.00  0.00     0.087 C 
BRANCH  11  12
ATOM     12  C   UNL     1     126.826 175.847 122.372  1.00  0.00     0.066 C 
BRANCH  12  13
ATOM     13  C   UNL     1     127.599 176.063 121.074  1.00  0.00     0.140 C 
ATOM     14  O   UNL     1     128.820 175.992 121.097  1.00  0.00    -0.299 OA
BRANCH  13  15
ATOM     15  C   UNL     1     126.925 176.267 119.731  1.00  0.00     0.106 CG0
ATOM     16  G   UNL     1     126.613 177.715 119.400  1.00  0.00     0.000 G0
ENDBRANCH  13  15
ENDBRANCH  12  13
BRANCH  12  17
ATOM     17  C   UNL     1     127.693 175.041 123.391  1.00  0.00    -0.006 C 
ATOM     18  C   UNL     1     126.943 173.804 123.917  1.00  0.00     0.008 C 
ATOM     19  C   UNL     1     128.131 175.901 124.591  1.00  0.00     0.008 C 
ENDBRANCH  12  17
ENDBRANCH  11  12
ENDBRANCH   1  11
TORSDOF 1
ENDMDL
MODEL 2
REMARK VINA RESULT:    -4.270      2.021      3.853
REMARK INTER + INTRA:          -6.872
REMARK INTER:                  -6.857
REMARK INTRA:                  -0.015
REMARK UNBOUND:                -0.355
REMARK SMILES CC1=CCC[C@H](C)C(=O)C[C@H](C(C)C)C(=O)C1
REMARK SMILES IDX 8 1 9 2 6 3 7 4 5 5 4 6 3 7 2 8 1 9 10 11 11 12 15 13 16 14
REMARK SMILES IDX 17 15 12 17 13 18 14 19
REMARK H PARENT
REMARK Flexibility Score: 70.00
ROOT
ATOM      1  C   UNL     1     125.712 178.108 119.968  1.00  0.00     0.136 C 
ATOM      2  O   UNL     1     124.830 178.937 119.803  1.00  0.00    -0.299 OA
ENDROOT
BRANCH   1   3
ATOM      3  C   UNL     1     126.284 177.367 118.778  1.00  0.00     0.053 C 
ATOM      4  C   UNL     1     125.278 177.407 117.623  1.00  0.00     0.016 C 
BRANCH   3   5
ATOM      5  C   UNL     1     127.644 177.947 118.320  1.00  0.00     0.015 C 
BRANCH   5   6
ATOM      6  C   UNL     1     128.797 177.668 119.295  1.00  0.00     0.028 C 
BRANCH   6   7
ATOM      7  C   UNL     1     129.120 176.195 119.361  1.00  0.00    -0.028 C 
ATOM      8  C   UNL     1     128.919 175.404 120.439  1.00  0.00    -0.070 CG0
ATOM      9  C   UNL     1     129.302 173.950 120.335  1.00  0.00     0.039 C 
ATOM     10  G   UNL     1     128.340 175.922 121.743  1.00  0.00     0.000 G0
ENDBRANCH   6   7
ENDBRANCH   5   6
ENDBRANCH   3   5
ENDBRANCH   1   3
BRANCH   1  11
ATOM     11  C   UNL     1     126.176 177.795 121.371  1.00  0.00     0.087 C 
BRANCH  11  12
ATOM     12  C   UNL     1     125.728 176.401 121.886  1.00  0.00     0.066 C 
BRANCH  12  13
ATOM     13  C   UNL     1     126.936 175.485 122.058  1.00  0.00     0.140 C 
ATOM     14  O   UNL     1     126.751 174.319 122.376  1.00  0.00    -0.299 OA
BRANCH  13  15
ATOM     15  C   UNL     1     128.357 175.922 121.758  1.00  0.00     0.106 CG0
ATOM     16  G   UNL     1     128.901 175.421 120.433  1.00  0.00     0.000 G0
ENDBRANCH  13  15
ENDBRANCH  12  13
BRANCH  12  17
ATOM     17  C   UNL     1     124.940 176.515 123.230  1.00  0.00    -0.006 C 
ATOM     18  C   UNL     1     123.562 177.170 123.024  1.00  0.00     0.008 C 
ATOM     19  C   UNL     1     125.713 177.318 124.293  1.00  0.00     0.008 C 
ENDBRANCH  12  17
ENDBRANCH  11  12
ENDBRANCH   1  11
TORSDOF 1
ENDMDL
MODEL 3
REMARK VINA RESULT:    -4.222      2.050      3.228
REMARK INTER + INTRA:          -6.799
REMARK INTER:                  -6.459
REMARK INTRA:                  -0.340
REMARK UNBOUND:                -0.355
REMARK SMILES CC1=CCC[C@H](C)C(=O)C[C@H](C(C)C)C(=O)C1
REMARK SMILES IDX 8 1 9 2 6 3 7 4 5 5 4 6 3 7 2 8 1 9 10 11 11 12 15 13 16 14
REMARK SMILES IDX 17 15 12 17 13 18 14 19
REMARK H PARENT
REMARK Flexibility Score: 70.00
ROOT
ATOM      1  C   UNL     1     127.291 175.149 123.876  1.00  0.00     0.136 C 
ATOM      2  O   UNL     1     126.275 174.468 123.888  1.00  0.00    -0.299 OA
ENDROOT
BRANCH   1   3
ATOM      3  C   UNL     1     127.314 176.482 124.593  1.00  0.00     0.053 C 
ATOM      4  C   UNL     1     128.753 177.005 124.647  1.00  0.00     0.016 C 
BRANCH   3   5
ATOM      5  C   UNL     1     126.392 177.528 123.923  1.00  0.00     0.015 C 
BRANCH   5   6
ATOM      6  C   UNL     1     127.108 178.424 122.902  1.00  0.00     0.028 C 
BRANCH   6   7
ATOM      7  C   UNL     1     126.670 178.111 121.492  1.00  0.00    -0.028 C 
ATOM      8  C   UNL     1     127.418 177.459 120.573  1.00  0.00    -0.070 CG0
ATOM      9  C   UNL     1     126.826 177.232 119.205  1.00  0.00     0.039 C 
ATOM     10  G   UNL     1     128.823 176.962 120.859  1.00  0.00     0.000 G0
ENDBRANCH   6   7
ENDBRANCH   5   6
ENDBRANCH   3   5
ENDBRANCH   1   3
BRANCH   1  11
ATOM     11  C   UNL     1     128.489 174.671 123.091  1.00  0.00     0.087 C 
BRANCH  11  12
ATOM     12  C   UNL     1     128.207 174.458 121.579  1.00  0.00     0.066 C 
BRANCH  12  13
ATOM     13  C   UNL     1     128.998 175.463 120.747  1.00  0.00     0.140 C 
ATOM     14  O   UNL     1     129.761 175.044 119.887  1.00  0.00    -0.299 OA
BRANCH  13  15
ATOM     15  C   UNL     1     128.816 176.964 120.864  1.00  0.00     0.106 CG0
ATOM     16  G   UNL     1     127.411 177.450 120.561  1.00  0.00     0.000 G0
ENDBRANCH  13  15
ENDBRANCH  12  13
BRANCH  12  17
ATOM     17  C   UNL     1     128.547 173.000 121.134  1.00  0.00    -0.006 C 
ATOM     18  C   UNL     1     127.276 172.146 120.976  1.00  0.00     0.008 C 
ATOM     19  C   UNL     1     129.495 172.295 122.123  1.00  0.00     0.008 C 
ENDBRANCH  12  17
ENDBRANCH  11  12
ENDBRANCH   1  11
TORSDOF 1
ENDMDL
MODEL 4
REMARK VINA RESULT:    -4.212      1.960      4.401
REMARK INTER + INTRA:          -6.783
REMARK INTER:                  -6.931
REMARK INTRA:                   0.148
REMARK UNBOUND:                -0.355
REMARK SMILES CC1=CCC[C@H](C)C(=O)C[C@H](C(C)C)C(=O)C1
REMARK SMILES IDX 8 1 9 2 6 3 7 4 5 5 4 6 3 7 2 8 1 9 10 11 11 12 15 13 16 14
REMARK SMILES IDX 17 15 12 17 13 18 14 19
REMARK H PARENT
REMARK Flexibility Score: 70.00
ROOT
ATOM      1  C   UNL     1     126.594 177.890 122.700  1.00  0.00     0.136 C 
ATOM      2  O   UNL     1     127.378 178.727 122.278  1.00  0.00    -0.299 OA
ENDROOT
BRANCH   1   3
ATOM      3  C   UNL     1     126.603 177.519 124.168  1.00  0.00     0.053 C 
ATOM      4  C   UNL     1     125.205 177.051 124.584  1.00  0.00     0.016 C 
BRANCH   3   5
ATOM      5  C   UNL     1     127.649 176.426 124.493  1.00  0.00     0.015 C 
BRANCH   5   6
ATOM      6  C   UNL     1     127.152 174.995 124.238  1.00  0.00     0.028 C 
BRANCH   6   7
ATOM      7  C   UNL     1     128.127 174.217 123.388  1.00  0.00    -0.028 C 
ATOM      8  C   UNL     1     127.990 173.989 122.062  1.00  0.00    -0.070 CG0
ATOM      9  C   UNL     1     129.060 173.186 121.365  1.00  0.00     0.039 C 
ATOM     10  G   UNL     1     126.807 174.495 121.257  1.00  0.00     0.000 G0
ENDBRANCH   6   7
ENDBRANCH   5   6
ENDBRANCH   3   5
ENDBRANCH   1   3
BRANCH   1  11
ATOM     11  C   UNL     1     125.666 177.195 121.732  1.00  0.00     0.087 C 
BRANCH  11  12
ATOM     12  C   UNL     1     126.284 176.955 120.328  1.00  0.00     0.066 C 
BRANCH  12  13
ATOM     13  C   UNL     1     127.095 175.662 120.320  1.00  0.00     0.140 C 
ATOM     14  O   UNL     1     128.082 175.592 119.602  1.00  0.00    -0.299 OA
BRANCH  13  15
ATOM     15  C   UNL     1     126.794 174.489 121.232  1.00  0.00     0.106 CG0
ATOM     16  G   UNL     1     127.983 174.003 122.040  1.00  0.00     0.000 G0
ENDBRANCH  13  15
ENDBRANCH  12  13
BRANCH  12  17
ATOM     17  C   UNL     1     125.184 176.913 119.220  1.00  0.00    -0.006 C 
ATOM     18  C   UNL     1     125.594 177.736 117.985  1.00  0.00     0.008 C 
ATOM     19  C   UNL     1     123.825 177.428 119.728  1.00  0.00     0.008 C 
ENDBRANCH  12  17
ENDBRANCH  11  12
ENDBRANCH   1  11
TORSDOF 1
ENDMDL
MODEL 5
REMARK VINA RESULT:    -4.187     10.746     12.221
REMARK INTER + INTRA:          -6.745
REMARK INTER:                  -6.549
REMARK INTRA:                  -0.196
REMARK UNBOUND:                -0.355
REMARK SMILES CC1=CCC[C@H](C)C(=O)C[C@H](C(C)C)C(=O)C1
REMARK SMILES IDX 8 1 9 2 6 3 7 4 5 5 4 6 3 7 2 8 1 9 10 11 11 12 15 13 16 14
REMARK SMILES IDX 17 15 12 17 13 18 14 19
REMARK H PARENT
REMARK Flexibility Score: 70.00
ROOT
ATOM      1  C   UNL     1     119.613 169.134 123.882  1.00  0.00     0.136 C 
ATOM      2  O   UNL     1     119.946 170.209 124.359  1.00  0.00    -0.299 OA
ENDROOT
BRANCH   1   3
ATOM      3  C   UNL     1     118.486 168.344 124.515  1.00  0.00     0.053 C 
ATOM      4  C   UNL     1     117.924 169.125 125.707  1.00  0.00     0.016 C 
BRANCH   3   5
ATOM      5  C   UNL     1     117.355 168.022 123.509  1.00  0.00     0.015 C 
BRANCH   5   6
ATOM      6  C   UNL     1     116.961 166.538 123.471  1.00  0.00     0.028 C 
BRANCH   6   7
ATOM      7  C   UNL     1     116.922 166.015 122.056  1.00  0.00    -0.028 C 
ATOM      8  C   UNL     1     117.948 165.397 121.427  1.00  0.00    -0.070 CG0
ATOM      9  C   UNL     1     117.738 164.939 120.006  1.00  0.00     0.039 C 
ATOM     10  G   UNL     1     119.294 165.160 122.087  1.00  0.00     0.000 G0
ENDBRANCH   6   7
ENDBRANCH   5   6
ENDBRANCH   3   5
ENDBRANCH   1   3
BRANCH   1  11
ATOM     11  C   UNL     1     120.375 168.584 122.701  1.00  0.00     0.087 C 
BRANCH  11  12
ATOM     12  C   UNL     1     120.898 167.137 122.906  1.00  0.00     0.066 C 
BRANCH  12  13
ATOM     13  C   UNL     1     120.352 166.217 121.818  1.00  0.00     0.140 C 
ATOM     14  O   UNL     1     120.833 166.283 120.696  1.00  0.00    -0.299 OA
BRANCH  13  15
ATOM     15  C   UNL     1     119.306 165.152 122.080  1.00  0.00     0.106 CG0
ATOM     16  G   UNL     1     117.962 165.420 121.427  1.00  0.00     0.000 G0
ENDBRANCH  13  15
ENDBRANCH  12  13
BRANCH  12  17
ATOM     17  C   UNL     1     122.460 167.091 122.922  1.00  0.00    -0.006 C 
ATOM     18  C   UNL     1     122.980 165.702 123.334  1.00  0.00     0.008 C 
ATOM     19  C   UNL     1     123.064 168.145 123.868  1.00  0.00     0.008 C 
ENDBRANCH  12  17
ENDBRANCH  11  12
ENDBRANCH   1  11
TORSDOF 1
ENDMDL
MODEL 6
REMARK VINA RESULT:    -4.182      5.431      8.959
REMARK INTER + INTRA:          -6.738
REMARK INTER:                  -6.488
REMARK INTRA:                  -0.250
REMARK UNBOUND:                -0.355
REMARK SMILES CC1=CCC[C@H](C)C(=O)C[C@H](C(C)C)C(=O)C1
REMARK SMILES IDX 8 1 9 2 6 3 7 4 5 5 4 6 3 7 2 8 1 9 10 11 11 12 15 13 16 14
REMARK SMILES IDX 17 15 12 17 13 18 14 19
REMARK H PARENT
REMARK Flexibility Score: 70.00
ROOT
ATOM      1  C   UNL     1     121.222 177.927 124.217  1.00  0.00     0.136 C 
ATOM      2  O   UNL     1     121.125 178.871 123.446  1.00  0.00    -0.299 OA
ENDROOT
BRANCH   1   3
ATOM      3  C   UNL     1     122.066 176.728 123.839  1.00  0.00     0.053 C 
ATOM      4  C   UNL     1     123.213 177.180 122.930  1.00  0.00     0.016 C 
BRANCH   3   5
ATOM      5  C   UNL     1     122.627 175.989 125.078  1.00  0.00     0.015 C 
BRANCH   5   6
ATOM      6  C   UNL     1     121.848 174.719 125.449  1.00  0.00     0.028 C 
BRANCH   6   7
ATOM      7  C   UNL     1     121.579 174.652 126.933  1.00  0.00    -0.028 C 
ATOM      8  C   UNL     1     120.364 174.795 127.508  1.00  0.00    -0.070 CG0
ATOM      9  C   UNL     1     120.274 174.703 129.010  1.00  0.00     0.039 C 
ATOM     10  G   UNL     1     119.100 175.053 126.709  1.00  0.00     0.000 G0
ENDBRANCH   6   7
ENDBRANCH   5   6
ENDBRANCH   3   5
ENDBRANCH   1   3
BRANCH   1  11
ATOM     11  C   UNL     1     120.446 177.951 125.512  1.00  0.00     0.087 C 
BRANCH  11  12
ATOM     12  C   UNL     1     119.007 177.379 125.395  1.00  0.00     0.066 C 
BRANCH  12  13
ATOM     13  C   UNL     1     118.684 176.508 126.605  1.00  0.00     0.140 C 
ATOM     14  O   UNL     1     117.999 176.978 127.503  1.00  0.00    -0.299 OA
BRANCH  13  15
ATOM     15  C   UNL     1     119.087 175.050 126.710  1.00  0.00     0.106 CG0
ATOM     16  G   UNL     1     120.358 174.808 127.503  1.00  0.00     0.000 G0
ENDBRANCH  13  15
ENDBRANCH  12  13
BRANCH  12  17
ATOM     17  C   UNL     1     117.950 178.520 125.250  1.00  0.00    -0.006 C 
ATOM     18  C   UNL     1     117.371 178.577 123.825  1.00  0.00     0.008 C 
ATOM     19  C   UNL     1     118.531 179.902 125.603  1.00  0.00     0.008 C 
ENDBRANCH  12  17
ENDBRANCH  11  12
ENDBRANCH   1  11
TORSDOF 1
ENDMDL
MODEL 7
REMARK VINA RESULT:    -4.105      5.266      8.034
REMARK INTER + INTRA:          -6.620
REMARK INTER:                  -6.748
REMARK INTRA:                   0.127
REMARK UNBOUND:                -0.355
REMARK SMILES CC1=CCC[C@H](C)C(=O)C[C@H](C(C)C)C(=O)C1
REMARK SMILES IDX 8 1 9 2 6 3 7 4 5 5 4 6 3 7 2 8 1 9 10 11 11 12 15 13 16 14
REMARK SMILES IDX 17 15 12 17 13 18 14 19
REMARK H PARENT
REMARK Flexibility Score: 70.00
ROOT
ATOM      1  C   UNL     1     120.627 175.017 125.744  1.00  0.00     0.136 C 
ATOM      2  O   UNL     1     121.242 174.109 125.205  1.00  0.00    -0.299 OA
ENDROOT
BRANCH   1   3
ATOM      3  C   UNL     1     119.180 174.818 126.142  1.00  0.00     0.053 C 
ATOM      4  C   UNL     1     118.810 173.339 125.993  1.00  0.00     0.016 C 
BRANCH   3   5
ATOM      5  C   UNL     1     118.894 175.295 127.586  1.00  0.00     0.015 C 
BRANCH   5   6
ATOM      6  C   UNL     1     118.433 176.757 127.677  1.00  0.00     0.028 C 
BRANCH   6   7
ATOM      7  C   UNL     1     117.729 177.192 126.415  1.00  0.00    -0.028 C 
ATOM      8  C   UNL     1     118.240 178.041 125.495  1.00  0.00    -0.070 CG0
ATOM      9  C   UNL     1     117.397 178.373 124.289  1.00  0.00     0.039 C 
ATOM     10  G   UNL     1     119.612 178.674 125.632  1.00  0.00     0.000 G0
ENDBRANCH   6   7
ENDBRANCH   5   6
ENDBRANCH   3   5
ENDBRANCH   1   3
BRANCH   1  11
ATOM     11  C   UNL     1     121.310 176.348 125.951  1.00  0.00     0.087 C 
BRANCH  11  12
ATOM     12  C   UNL     1     121.565 177.136 124.638  1.00  0.00     0.066 C 
BRANCH  12  13
ATOM     13  C   UNL     1     120.609 178.321 124.537  1.00  0.00     0.140 C 
ATOM     14  O   UNL     1     120.573 178.961 123.495  1.00  0.00    -0.299 OA
BRANCH  13  15
ATOM     15  C   UNL     1     119.627 178.690 125.631  1.00  0.00     0.106 CG0
ATOM     16  G   UNL     1     118.262 178.042 125.492  1.00  0.00     0.000 G0
ENDBRANCH  13  15
ENDBRANCH  12  13
BRANCH  12  17
ATOM     17  C   UNL     1     123.046 177.625 124.543  1.00  0.00    -0.006 C 
ATOM     18  C   UNL     1     123.950 176.567 123.884  1.00  0.00     0.008 C 
ATOM     19  C   UNL     1     123.631 177.983 125.923  1.00  0.00     0.008 C 
ENDBRANCH  12  17
ENDBRANCH  11  12
ENDBRANCH   1  11
TORSDOF 1
ENDMDL
MODEL 8
REMARK VINA RESULT:    -3.996     12.513     14.082
REMARK INTER + INTRA:          -6.454
REMARK INTER:                  -6.459
REMARK INTRA:                   0.005
REMARK UNBOUND:                -0.355
REMARK SMILES CC1=CCC[C@H](C)C(=O)C[C@H](C(C)C)C(=O)C1
REMARK SMILES IDX 8 1 9 2 6 3 7 4 5 5 4 6 3 7 2 8 1 9 10 11 11 12 15 13 16 14
REMARK SMILES IDX 17 15 12 17 13 18 14 19
REMARK H PARENT
REMARK Flexibility Score: 70.00
ROOT
ATOM      1  C   UNL     1     115.286 166.332 121.715  1.00  0.00     0.136 C 
ATOM      2  O   UNL     1     114.698 166.830 120.766  1.00  0.00    -0.299 OA
ENDROOT
BRANCH   1   3
ATOM      3  C   UNL     1     115.028 166.845 123.116  1.00  0.00     0.053 C 
ATOM      4  C   UNL     1     115.207 165.701 124.118  1.00  0.00     0.016 C 
BRANCH   3   5
ATOM      5  C   UNL     1     115.952 168.029 123.489  1.00  0.00     0.015 C 
BRANCH   5   6
ATOM      6  C   UNL     1     116.966 167.701 124.595  1.00  0.00     0.028 C 
BRANCH   6   7
ATOM      7  C   UNL     1     118.371 168.066 124.181  1.00  0.00    -0.028 C 
ATOM      8  C   UNL     1     119.190 167.284 123.442  1.00  0.00    -0.070 CG0
ATOM      9  C   UNL     1     120.569 167.803 123.120  1.00  0.00     0.039 C 
ATOM     10  G   UNL     1     118.784 165.912 122.937  1.00  0.00     0.000 G0
ENDBRANCH   6   7
ENDBRANCH   5   6
ENDBRANCH   3   5
ENDBRANCH   1   3
BRANCH   1  11
ATOM     11  C   UNL     1     116.308 165.249 121.463  1.00  0.00     0.087 C 
BRANCH  11  12
ATOM     12  C   UNL     1     117.510 165.707 120.594  1.00  0.00     0.066 C 
BRANCH  12  13
ATOM     13  C   UNL     1     118.784 165.749 121.432  1.00  0.00     0.140 C 
ATOM     14  O   UNL     1     119.865 165.738 120.861  1.00  0.00    -0.299 OA
BRANCH  13  15
ATOM     15  C   UNL     1     118.780 165.903 122.941  1.00  0.00     0.106 CG0
ATOM     16  G   UNL     1     119.189 167.280 123.431  1.00  0.00     0.000 G0
ENDBRANCH  13  15
ENDBRANCH  12  13
BRANCH  12  17
ATOM     17  C   UNL     1     117.707 164.774 119.356  1.00  0.00    -0.006 C 
ATOM     18  C   UNL     1     116.589 164.972 118.316  1.00  0.00     0.008 C 
ATOM     19  C   UNL     1     117.758 163.286 119.749  1.00  0.00     0.008 C 
ENDBRANCH  12  17
ENDBRANCH  11  12
ENDBRANCH   1  11
TORSDOF 1
ENDMDL
MODEL 9
REMARK VINA RESULT:    -3.975      2.476      4.558
REMARK INTER + INTRA:          -6.422
REMARK INTER:                  -6.240
REMARK INTRA:                  -0.182
REMARK UNBOUND:                -0.355
REMARK SMILES CC1=CCC[C@H](C)C(=O)C[C@H](C(C)C)C(=O)C1
REMARK SMILES IDX 8 1 9 2 6 3 7 4 5 5 4 6 3 7 2 8 1 9 10 11 11 12 15 13 16 14
REMARK SMILES IDX 17 15 12 17 13 18 14 19
REMARK H PARENT
REMARK Flexibility Score: 70.00
ROOT
ATOM      1  C   UNL     1     127.727 172.933 121.183  1.00  0.00     0.136 C 
ATOM      2  O   UNL     1     127.528 171.754 120.930  1.00  0.00    -0.299 OA
ENDROOT
BRANCH   1   3
ATOM      3  C   UNL     1     129.143 173.434 121.379  1.00  0.00     0.053 C 
ATOM      4  C   UNL     1     129.853 172.561 122.418  1.00  0.00     0.016 C 
BRANCH   3   5
ATOM      5  C   UNL     1     129.949 173.451 120.058  1.00  0.00     0.015 C 
BRANCH   5   6
ATOM      6  C   UNL     1     129.622 174.642 119.145  1.00  0.00     0.028 C 
BRANCH   6   7
ATOM      7  C   UNL     1     129.860 175.956 119.848  1.00  0.00    -0.028 C 
ATOM      8  C   UNL     1     128.927 176.918 120.033  1.00  0.00    -0.070 CG0
ATOM      9  C   UNL     1     129.337 178.176 120.755  1.00  0.00     0.039 C 
ATOM     10  G   UNL     1     127.499 176.785 119.537  1.00  0.00     0.000 G0
ENDBRANCH   6   7
ENDBRANCH   5   6
ENDBRANCH   3   5
ENDBRANCH   1   3
BRANCH   1  11
ATOM     11  C   UNL     1     126.548 173.860 121.356  1.00  0.00     0.087 C 
BRANCH  11  12
ATOM     12  C   UNL     1     126.940 175.322 121.699  1.00  0.00     0.066 C 
BRANCH  12  13
ATOM     13  C   UNL     1     126.522 176.262 120.572  1.00  0.00     0.140 C 
ATOM     14  O   UNL     1     125.366 176.659 120.535  1.00  0.00    -0.299 OA
BRANCH  13  15
ATOM     15  C   UNL     1     127.494 176.809 119.545  1.00  0.00     0.106 CG0
ATOM     16  G   UNL     1     128.926 176.917 120.033  1.00  0.00     0.000 G0
ENDBRANCH  13  15
ENDBRANCH  12  13
BRANCH  12  17
ATOM     17  C   UNL     1     126.305 175.781 123.051  1.00  0.00    -0.006 C 
ATOM     18  C   UNL     1     126.968 177.066 123.580  1.00  0.00     0.008 C 
ATOM     19  C   UNL     1     126.398 174.694 124.138  1.00  0.00     0.008 C 
ENDBRANCH  12  17
ENDBRANCH  11  12
ENDBRANCH   1  11
TORSDOF 1
ENDMDL
