MODEL 1
REMARK VINA RESULT:    -3.631      0.000      0.000
REMARK INTER + INTRA:          -6.591
REMARK INTER:                  -5.541
REMARK INTRA:                  -1.051
REMARK UNBOUND:                -1.051
REMARK SMILES CCCCCCCCCCC(=O)[O-]
REMARK SMILES IDX 7 1 8 2 9 3 10 4 11 5 12 6 13 7 6 8 5 9 4 10 3 11 2 12 1 13
REMARK H PARENT
REMARK Flexibility Score: inf
ROOT
ATOM      1  C   UNL     1      27.583   0.232   5.920  1.00  0.00     0.000 C 
ENDROOT
BRANCH   1   2
ATOM      2  C   UNL     1      27.960   1.644   6.384  1.00  0.00     0.000 C 
BRANCH   2   3
ATOM      3  C   UNL     1      26.715   2.524   6.537  1.00  0.00     0.006 C 
BRANCH   3   4
ATOM      4  C   UNL     1      26.398   2.776   8.015  1.00  0.00     0.053 C 
BRANCH   4   5
ATOM      5  C   UNL     1      25.086   2.161   8.383  1.00  0.00     0.041 C 
ATOM      6  O   UNL     1      24.346   2.712   9.239  1.00  0.00    -0.550 OA
ATOM      7  O   UNL     1      24.656   1.005   7.744  1.00  0.00    -0.550 OA
ENDBRANCH   4   5
ENDBRANCH   3   4
ENDBRANCH   2   3
ENDBRANCH   1   2
BRANCH   1   8
ATOM      8  C   UNL     1      27.771  -0.789   7.049  1.00  0.00     0.000 C 
BRANCH   8   9
ATOM      9  C   UNL     1      28.652  -0.214   8.168  1.00  0.00    -0.000 C 
BRANCH   9  10
ATOM     10  C   UNL     1      28.803  -1.177   9.355  1.00  0.00    -0.000 C 
BRANCH  10  11
ATOM     11  C   UNL     1      28.352  -0.550  10.687  1.00  0.00    -0.000 C 
BRANCH  11  12
ATOM     12  C   UNL     1      26.872  -0.137  10.672  1.00  0.00    -0.003 C 
ATOM     13  C   UNL     1      25.928  -1.330  10.525  1.00  0.00     0.004 C 
ENDBRANCH  11  12
ENDBRANCH  10  11
ENDBRANCH   9  10
ENDBRANCH   8   9
ENDBRANCH   1   8
TORSDOF 9
ENDMDL
MODEL 2
REMARK VINA RESULT:    -3.628     10.672     12.148
REMARK INTER + INTRA:          -6.587
REMARK INTER:                  -5.460
REMARK INTRA:                  -1.127
REMARK UNBOUND:                -1.051
REMARK SMILES CCCCCCCCCCC(=O)[O-]
REMARK SMILES IDX 7 1 8 2 9 3 10 4 11 5 12 6 13 7 6 8 5 9 4 10 3 11 2 12 1 13
REMARK H PARENT
REMARK Flexibility Score: inf
ROOT
ATOM      1  C   UNL     1      25.093  -3.881  17.324  1.00  0.00     0.000 C 
ENDROOT
BRANCH   1   2
ATOM      2  C   UNL     1      25.849  -4.842  18.248  1.00  0.00     0.000 C 
BRANCH   2   3
ATOM      3  C   UNL     1      25.525  -6.302  17.909  1.00  0.00     0.006 C 
BRANCH   3   4
ATOM      4  C   UNL     1      25.024  -6.432  16.467  1.00  0.00     0.053 C 
BRANCH   4   5
ATOM      5  C   UNL     1      24.249  -7.700  16.294  1.00  0.00     0.041 C 
ATOM      6  O   UNL     1      24.636  -8.759  16.854  1.00  0.00    -0.550 OA
ATOM      7  O   UNL     1      23.074  -7.701  15.555  1.00  0.00    -0.550 OA
ENDBRANCH   4   5
ENDBRANCH   3   4
ENDBRANCH   2   3
ENDBRANCH   1   2
BRANCH   1   8
ATOM      8  C   UNL     1      25.205  -2.435  17.822  1.00  0.00     0.000 C 
BRANCH   8   9
ATOM      9  C   UNL     1      23.919  -2.000  18.541  1.00  0.00    -0.000 C 
BRANCH   9  10
ATOM     10  C   UNL     1      22.683  -2.776  18.061  1.00  0.00    -0.000 C 
BRANCH  10  11
ATOM     11  C   UNL     1      21.771  -3.211  19.222  1.00  0.00    -0.000 C 
BRANCH  11  12
ATOM     12  C   UNL     1      22.068  -4.642  19.700  1.00  0.00    -0.003 C 
ATOM     13  C   UNL     1      21.977  -5.671  18.574  1.00  0.00     0.004 C 
ENDBRANCH  11  12
ENDBRANCH  10  11
ENDBRANCH   9  10
ENDBRANCH   8   9
ENDBRANCH   1   8
TORSDOF 9
ENDMDL
MODEL 3
REMARK VINA RESULT:    -3.624      9.607     11.091
REMARK INTER + INTRA:          -6.581
REMARK INTER:                  -5.343
REMARK INTRA:                  -1.238
REMARK UNBOUND:                -1.051
REMARK SMILES CCCCCCCCCCC(=O)[O-]
REMARK SMILES IDX 7 1 8 2 9 3 10 4 11 5 12 6 13 7 6 8 5 9 4 10 3 11 2 12 1 13
REMARK H PARENT
REMARK Flexibility Score: inf
ROOT
ATOM      1  C   UNL     1      25.043  -3.372  17.156  1.00  0.00     0.000 C 
ENDROOT
BRANCH   1   2
ATOM      2  C   UNL     1      25.191  -2.229  18.167  1.00  0.00     0.000 C 
BRANCH   2   3
ATOM      3  C   UNL     1      23.830  -1.603  18.494  1.00  0.00     0.006 C 
BRANCH   3   4
ATOM      4  C   UNL     1      22.907  -1.627  17.271  1.00  0.00     0.053 C 
BRANCH   4   5
ATOM      5  C   UNL     1      22.646  -0.237  16.785  1.00  0.00     0.041 C 
ATOM      6  O   UNL     1      21.473   0.127  16.508  1.00  0.00    -0.550 OA
ATOM      7  O   UNL     1      23.690   0.672  16.684  1.00  0.00    -0.550 OA
ENDBRANCH   4   5
ENDBRANCH   3   4
ENDBRANCH   2   3
ENDBRANCH   1   2
BRANCH   1   8
ATOM      8  C   UNL     1      25.608  -4.682  17.718  1.00  0.00     0.000 C 
BRANCH   8   9
ATOM      9  C   UNL     1      24.595  -5.363  18.650  1.00  0.00    -0.000 C 
BRANCH   9  10
ATOM     10  C   UNL     1      23.419  -5.992  17.887  1.00  0.00    -0.000 C 
BRANCH  10  11
ATOM     11  C   UNL     1      22.053  -5.494  18.391  1.00  0.00    -0.000 C 
BRANCH  11  12
ATOM     12  C   UNL     1      22.170  -4.642  19.665  1.00  0.00    -0.003 C 
ATOM     13  C   UNL     1      20.985  -3.695  19.852  1.00  0.00     0.004 C 
ENDBRANCH  11  12
ENDBRANCH  10  11
ENDBRANCH   9  10
ENDBRANCH   8   9
ENDBRANCH   1   8
TORSDOF 9
ENDMDL
MODEL 4
REMARK VINA RESULT:    -3.585      1.524      3.682
REMARK INTER + INTRA:          -6.522
REMARK INTER:                  -5.248
REMARK INTRA:                  -1.275
REMARK UNBOUND:                -1.051
REMARK SMILES CCCCCCCCCCC(=O)[O-]
REMARK SMILES IDX 7 1 8 2 9 3 10 4 11 5 12 6 13 7 6 8 5 9 4 10 3 11 2 12 1 13
REMARK H PARENT
REMARK Flexibility Score: inf
ROOT
ATOM      1  C   UNL     1      27.734  -0.921   6.650  1.00  0.00     0.000 C 
ENDROOT
BRANCH   1   2
ATOM      2  C   UNL     1      28.384  -0.331   7.907  1.00  0.00     0.000 C 
BRANCH   2   3
ATOM      3  C   UNL     1      28.005  -1.139   9.154  1.00  0.00     0.006 C 
BRANCH   3   4
ATOM      4  C   UNL     1      27.534  -0.218  10.284  1.00  0.00     0.053 C 
BRANCH   4   5
ATOM      5  C   UNL     1      26.120  -0.530  10.660  1.00  0.00     0.041 C 
ATOM      6  O   UNL     1      25.516   0.186  11.501  1.00  0.00    -0.550 OA
ATOM      7  O   UNL     1      25.453  -1.581  10.044  1.00  0.00    -0.550 OA
ENDBRANCH   4   5
ENDBRANCH   3   4
ENDBRANCH   2   3
ENDBRANCH   1   2
BRANCH   1   8
ATOM      8  C   UNL     1      27.627   0.131   5.539  1.00  0.00     0.000 C 
BRANCH   8   9
ATOM      9  C   UNL     1      27.956   1.532   6.076  1.00  0.00    -0.000 C 
BRANCH   9  10
ATOM     10  C   UNL     1      26.704   2.404   6.258  1.00  0.00    -0.000 C 
BRANCH  10  11
ATOM     11  C   UNL     1      26.531   2.898   7.706  1.00  0.00    -0.000 C 
BRANCH  11  12
ATOM     12  C   UNL     1      25.313   2.269   8.401  1.00  0.00    -0.003 C 
ATOM     13  C   UNL     1      24.683   1.142   7.583  1.00  0.00     0.004 C 
ENDBRANCH  11  12
ENDBRANCH  10  11
ENDBRANCH   9  10
ENDBRANCH   8   9
ENDBRANCH   1   8
TORSDOF 9
ENDMDL
MODEL 5
REMARK VINA RESULT:    -3.540     10.596     12.217
REMARK INTER + INTRA:          -6.452
REMARK INTER:                  -5.495
REMARK INTRA:                  -0.957
REMARK UNBOUND:                -1.051
REMARK SMILES CCCCCCCCCCC(=O)[O-]
REMARK SMILES IDX 7 1 8 2 9 3 10 4 11 5 12 6 13 7 6 8 5 9 4 10 3 11 2 12 1 13
REMARK H PARENT
REMARK Flexibility Score: inf
ROOT
ATOM      1  C   UNL     1      23.915  -1.768  17.662  1.00  0.00     0.000 C 
ENDROOT
BRANCH   1   2
ATOM      2  C   UNL     1      25.270  -2.443  17.898  1.00  0.00     0.000 C 
BRANCH   2   3
ATOM      3  C   UNL     1      25.096  -3.934  18.209  1.00  0.00     0.006 C 
BRANCH   3   4
ATOM      4  C   UNL     1      25.713  -4.802  17.107  1.00  0.00     0.053 C 
BRANCH   4   5
ATOM      5  C   UNL     1      25.352  -6.239  17.307  1.00  0.00     0.041 C 
ATOM      6  O   UNL     1      25.957  -6.929  18.168  1.00  0.00    -0.550 OA
ATOM      7  O   UNL     1      24.314  -6.804  16.578  1.00  0.00    -0.550 OA
ENDBRANCH   4   5
ENDBRANCH   3   4
ENDBRANCH   2   3
ENDBRANCH   1   2
BRANCH   1   8
ATOM      8  C   UNL     1      23.395  -1.109  18.946  1.00  0.00     0.000 C 
BRANCH   8   9
ATOM      9  C   UNL     1      21.860  -1.093  18.973  1.00  0.00    -0.000 C 
BRANCH   9  10
ATOM     10  C   UNL     1      21.247  -2.435  18.543  1.00  0.00    -0.000 C 
BRANCH  10  11
ATOM     11  C   UNL     1      20.889  -3.333  19.741  1.00  0.00    -0.000 C 
BRANCH  11  12
ATOM     12  C   UNL     1      21.846  -4.527  19.888  1.00  0.00    -0.003 C 
ATOM     13  C   UNL     1      21.824  -5.454  18.673  1.00  0.00     0.004 C 
ENDBRANCH  11  12
ENDBRANCH  10  11
ENDBRANCH   9  10
ENDBRANCH   8   9
ENDBRANCH   1   8
TORSDOF 9
ENDMDL
MODEL 6
REMARK VINA RESULT:    -3.535      2.351      4.029
REMARK INTER + INTRA:          -6.445
REMARK INTER:                  -5.071
REMARK INTRA:                  -1.374
REMARK UNBOUND:                -1.051
REMARK SMILES CCCCCCCCCCC(=O)[O-]
REMARK SMILES IDX 7 1 8 2 9 3 10 4 11 5 12 6 13 7 6 8 5 9 4 10 3 11 2 12 1 13
REMARK H PARENT
REMARK Flexibility Score: inf
ROOT
ATOM      1  C   UNL     1      27.960   1.730   6.307  1.00  0.00     0.000 C 
ENDROOT
BRANCH   1   2
ATOM      2  C   UNL     1      27.675   0.422   5.561  1.00  0.00     0.000 C 
BRANCH   2   3
ATOM      3  C   UNL     1      27.646  -0.768   6.527  1.00  0.00     0.006 C 
BRANCH   3   4
ATOM      4  C   UNL     1      28.339  -0.420   7.849  1.00  0.00     0.053 C 
BRANCH   4   5
ATOM      5  C   UNL     1      28.355  -1.605   8.761  1.00  0.00     0.041 C 
ATOM      6  O   UNL     1      27.989  -1.486   9.959  1.00  0.00    -0.550 OA
ATOM      7  O   UNL     1      28.725  -2.851   8.274  1.00  0.00    -0.550 OA
ENDBRANCH   4   5
ENDBRANCH   3   4
ENDBRANCH   2   3
ENDBRANCH   1   2
BRANCH   1   8
ATOM      8  C   UNL     1      26.682   2.565   6.463  1.00  0.00     0.000 C 
BRANCH   8   9
ATOM      9  C   UNL     1      26.430   2.912   7.938  1.00  0.00    -0.000 C 
BRANCH   9  10
ATOM     10  C   UNL     1      25.115   2.320   8.468  1.00  0.00    -0.000 C 
BRANCH  10  11
ATOM     11  C   UNL     1      25.333   1.049   9.307  1.00  0.00    -0.000 C 
BRANCH  11  12
ATOM     12  C   UNL     1      24.699  -0.196   8.666  1.00  0.00    -0.003 C 
ATOM     13  C   UNL     1      24.038   0.105   7.321  1.00  0.00     0.004 C 
ENDBRANCH  11  12
ENDBRANCH  10  11
ENDBRANCH   9  10
ENDBRANCH   8   9
ENDBRANCH   1   8
TORSDOF 9
ENDMDL
MODEL 7
REMARK VINA RESULT:    -3.530      1.737      2.496
REMARK INTER + INTRA:          -6.437
REMARK INTER:                  -5.233
REMARK INTRA:                  -1.204
REMARK UNBOUND:                -1.051
REMARK SMILES CCCCCCCCCCC(=O)[O-]
REMARK SMILES IDX 7 1 8 2 9 3 10 4 11 5 12 6 13 7 6 8 5 9 4 10 3 11 2 12 1 13
REMARK H PARENT
REMARK Flexibility Score: inf
ROOT
ATOM      1  C   UNL     1      26.529  -2.105   6.899  1.00  0.00     0.000 C 
ENDROOT
BRANCH   1   2
ATOM      2  C   UNL     1      26.278  -0.722   6.286  1.00  0.00     0.000 C 
BRANCH   2   3
ATOM      3  C   UNL     1      27.587  -0.092   5.796  1.00  0.00     0.006 C 
BRANCH   3   4
ATOM      4  C   UNL     1      27.936   1.156   6.613  1.00  0.00     0.053 C 
BRANCH   4   5
ATOM      5  C   UNL     1      26.955   2.251   6.342  1.00  0.00     0.041 C 
ATOM      6  O   UNL     1      26.413   2.867   7.297  1.00  0.00    -0.550 OA
ATOM      7  O   UNL     1      26.676   2.627   5.034  1.00  0.00    -0.550 OA
ENDBRANCH   4   5
ENDBRANCH   3   4
ENDBRANCH   2   3
ENDBRANCH   1   2
BRANCH   1   8
ATOM      8  C   UNL     1      27.882  -2.671   6.448  1.00  0.00     0.000 C 
BRANCH   8   9
ATOM      9  C   UNL     1      28.843  -2.807   7.637  1.00  0.00    -0.000 C 
BRANCH   9  10
ATOM     10  C   UNL     1      28.247  -2.264   8.945  1.00  0.00    -0.000 C 
BRANCH  10  11
ATOM     11  C   UNL     1      29.125  -1.176   9.590  1.00  0.00    -0.000 C 
BRANCH  11  12
ATOM     12  C   UNL     1      28.336  -0.278  10.555  1.00  0.00    -0.003 C 
ATOM     13  C   UNL     1      26.930   0.041  10.048  1.00  0.00     0.004 C 
ENDBRANCH  11  12
ENDBRANCH  10  11
ENDBRANCH   9  10
ENDBRANCH   8   9
ENDBRANCH   1   8
TORSDOF 9
ENDMDL
MODEL 8
REMARK VINA RESULT:    -3.516     10.313     12.253
REMARK INTER + INTRA:          -6.417
REMARK INTER:                  -5.287
REMARK INTRA:                  -1.130
REMARK UNBOUND:                -1.051
REMARK SMILES CCCCCCCCCCC(=O)[O-]
REMARK SMILES IDX 7 1 8 2 9 3 10 4 11 5 12 6 13 7 6 8 5 9 4 10 3 11 2 12 1 13
REMARK H PARENT
REMARK Flexibility Score: inf
ROOT
ATOM      1  C   UNL     1      21.470  -2.414  18.461  1.00  0.00     0.000 C 
ENDROOT
BRANCH   1   2
ATOM      2  C   UNL     1      21.280  -3.431  19.592  1.00  0.00     0.000 C 
BRANCH   2   3
ATOM      3  C   UNL     1      22.216  -4.632  19.415  1.00  0.00     0.006 C 
BRANCH   3   4
ATOM      4  C   UNL     1      21.498  -5.790  18.713  1.00  0.00     0.053 C 
BRANCH   4   5
ATOM      5  C   UNL     1      22.218  -6.169  17.458  1.00  0.00     0.041 C 
ATOM      6  O   UNL     1      22.905  -7.223  17.416  1.00  0.00    -0.550 OA
ATOM      7  O   UNL     1      22.092  -5.385  16.320  1.00  0.00    -0.550 OA
ENDBRANCH   4   5
ENDBRANCH   3   4
ENDBRANCH   2   3
ENDBRANCH   1   2
BRANCH   1   8
ATOM      8  C   UNL     1      21.862  -1.039  19.016  1.00  0.00     0.000 C 
BRANCH   8   9
ATOM      9  C   UNL     1      23.382  -0.833  18.950  1.00  0.00    -0.000 C 
BRANCH   9  10
ATOM     10  C   UNL     1      24.009  -1.458  17.694  1.00  0.00    -0.000 C 
BRANCH  10  11
ATOM     11  C   UNL     1      25.164  -2.421  18.026  1.00  0.00    -0.000 C 
BRANCH  11  12
ATOM     12  C   UNL     1      25.134  -3.694  17.165  1.00  0.00    -0.003 C 
ATOM     13  C   UNL     1      25.737  -4.903  17.880  1.00  0.00     0.004 C 
ENDBRANCH  11  12
ENDBRANCH  10  11
ENDBRANCH   9  10
ENDBRANCH   8   9
ENDBRANCH   1   8
TORSDOF 9
ENDMDL
MODEL 9
REMARK VINA RESULT:    -3.478      2.267      3.231
REMARK INTER + INTRA:          -6.359
REMARK INTER:                  -5.107
REMARK INTRA:                  -1.251
REMARK UNBOUND:                -1.051
REMARK SMILES CCCCCCCCCCC(=O)[O-]
REMARK SMILES IDX 7 1 8 2 9 3 10 4 11 5 12 6 13 7 6 8 5 9 4 10 3 11 2 12 1 13
REMARK H PARENT
REMARK Flexibility Score: inf
ROOT
ATOM      1  C   UNL     1      28.583  -2.460   8.314  1.00  0.00     0.000 C 
ENDROOT
BRANCH   1   2
ATOM      2  C   UNL     1      27.923  -1.964   7.022  1.00  0.00     0.000 C 
BRANCH   2   3
ATOM      3  C   UNL     1      27.979  -0.435   6.927  1.00  0.00     0.006 C 
BRANCH   3   4
ATOM      4  C   UNL     1      26.717   0.121   6.260  1.00  0.00     0.053 C 
BRANCH   4   5
ATOM      5  C   UNL     1      27.050   1.307   5.413  1.00  0.00     0.041 C 
ATOM      6  O   UNL     1      28.193   1.830   5.478  1.00  0.00    -0.550 OA
ATOM      7  O   UNL     1      26.116   1.804   4.514  1.00  0.00    -0.550 OA
ENDBRANCH   4   5
ENDBRANCH   3   4
ENDBRANCH   2   3
ENDBRANCH   1   2
BRANCH   1   8
ATOM      8  C   UNL     1      29.113  -1.286   9.148  1.00  0.00     0.000 C 
BRANCH   8   9
ATOM      9  C   UNL     1      28.392  -1.204  10.501  1.00  0.00    -0.000 C 
BRANCH   9  10
ATOM     10  C   UNL     1      27.429  -0.009  10.586  1.00  0.00    -0.000 C 
BRANCH  10  11
ATOM     11  C   UNL     1      25.979  -0.436  10.877  1.00  0.00    -0.000 C 
BRANCH  11  12
ATOM     12  C   UNL     1      25.100  -0.431   9.617  1.00  0.00    -0.003 C 
ATOM     13  C   UNL     1      24.886  -1.831   9.041  1.00  0.00     0.004 C 
ENDBRANCH  11  12
ENDBRANCH  10  11
ENDBRANCH   9  10
ENDBRANCH   8   9
ENDBRANCH   1   8
TORSDOF 9
ENDMDL
