MODEL 1
REMARK VINA RESULT:    -4.863      0.000      0.000
REMARK INTER + INTRA:          -5.242
REMARK INTER:                  -5.147
REMARK INTRA:                  -0.094
REMARK UNBOUND:                -0.094
REMARK SMILES C=C(C)[C@H]1CC=C(C)C(=O)C1
REMARK SMILES IDX 8 1 7 2 6 3 5 4 4 5 11 6 9 7 10 8 2 9 1 10 3 11
REMARK H PARENT
REMARK Flexibility Score: inf
ROOT
ATOM      1  C   UNL     1     135.731 181.408 187.659  1.00  0.00     0.048 C 
ATOM      2  C   UNL     1     136.146 182.537 188.562  1.00  0.00    -0.012 C 
ATOM      3  C   UNL     1     135.288 183.534 188.835  1.00  0.00    -0.019 C 
ATOM      4  C   UNL     1     135.683 184.724 189.669  1.00  0.00     0.036 C 
ATOM      5  C   UNL     1     136.752 184.343 190.712  1.00  0.00     0.025 C 
ATOM      6  C   UNL     1     137.962 183.684 190.022  1.00  0.00     0.089 C 
ATOM      7  C   UNL     1     137.516 182.556 189.133  1.00  0.00     0.158 C 
ATOM      8  O   UNL     1     138.337 181.646 188.838  1.00  0.00    -0.295 OA
ENDROOT
BRANCH   5   9
ATOM      9  C   UNL     1     137.169 185.541 191.554  1.00  0.00    -0.077 C 
ATOM     10  C   UNL     1     137.906 185.390 192.668  1.00  0.00     0.008 C 
ATOM     11  C   UNL     1     136.761 186.932 191.144  1.00  0.00     0.039 C 
ENDBRANCH   5   9
TORSDOF 1
ENDMDL
MODEL 2
REMARK VINA RESULT:    -4.821      1.066      1.100
REMARK INTER + INTRA:          -5.197
REMARK INTER:                  -5.108
REMARK INTRA:                  -0.089
REMARK UNBOUND:                -0.094
REMARK SMILES C=C(C)[C@H]1CC=C(C)C(=O)C1
REMARK SMILES IDX 8 1 7 2 6 3 5 4 4 5 11 6 9 7 10 8 2 9 1 10 3 11
REMARK H PARENT
REMARK Flexibility Score: inf
ROOT
ATOM      1  C   UNL     1     134.606 181.840 187.218  1.00  0.00     0.048 C 
ATOM      2  C   UNL     1     135.443 182.621 188.194  1.00  0.00    -0.012 C 
ATOM      3  C   UNL     1     135.001 183.797 188.671  1.00  0.00    -0.019 C 
ATOM      4  C   UNL     1     135.836 184.652 189.588  1.00  0.00     0.036 C 
ATOM      5  C   UNL     1     136.772 183.790 190.457  1.00  0.00     0.025 C 
ATOM      6  C   UNL     1     137.632 182.872 189.567  1.00  0.00     0.089 C 
ATOM      7  C   UNL     1     136.768 182.099 188.609  1.00  0.00     0.158 C 
ATOM      8  O   UNL     1     137.203 181.019 188.124  1.00  0.00    -0.295 OA
ENDROOT
BRANCH   5   9
ATOM      9  C   UNL     1     137.631 184.644 191.379  1.00  0.00    -0.077 C 
ATOM     10  C   UNL     1     137.707 184.390 192.697  1.00  0.00     0.008 C 
ATOM     11  C   UNL     1     138.420 185.800 190.821  1.00  0.00     0.039 C 
ENDBRANCH   5   9
TORSDOF 1
ENDMDL
MODEL 3
REMARK VINA RESULT:    -4.776      2.229      4.869
REMARK INTER + INTRA:          -5.149
REMARK INTER:                  -5.052
REMARK INTRA:                  -0.097
REMARK UNBOUND:                -0.094
REMARK SMILES C=C(C)[C@H]1CC=C(C)C(=O)C1
REMARK SMILES IDX 8 1 7 2 6 3 5 4 4 5 11 6 9 7 10 8 2 9 1 10 3 11
REMARK H PARENT
REMARK Flexibility Score: inf
ROOT
ATOM      1  C   UNL     1     137.122 186.625 193.277  1.00  0.00     0.048 C 
ATOM      2  C   UNL     1     136.950 185.713 192.094  1.00  0.00    -0.012 C 
ATOM      3  C   UNL     1     138.001 185.031 191.609  1.00  0.00    -0.019 C 
ATOM      4  C   UNL     1     137.896 184.168 190.379  1.00  0.00     0.036 C 
ATOM      5  C   UNL     1     136.481 183.575 190.234  1.00  0.00     0.025 C 
ATOM      6  C   UNL     1     135.426 184.698 190.252  1.00  0.00     0.089 C 
ATOM      7  C   UNL     1     135.619 185.587 191.449  1.00  0.00     0.158 C 
ATOM      8  O   UNL     1     134.644 186.264 191.875  1.00  0.00    -0.295 OA
ENDROOT
BRANCH   5   9
ATOM      9  C   UNL     1     136.358 182.709 188.987  1.00  0.00    -0.077 C 
ATOM     10  C   UNL     1     135.338 182.865 188.126  1.00  0.00     0.008 C 
ATOM     11  C   UNL     1     137.392 181.653 188.695  1.00  0.00     0.039 C 
ENDBRANCH   5   9
TORSDOF 1
ENDMDL
MODEL 4
REMARK VINA RESULT:    -4.712      1.677      2.229
REMARK INTER + INTRA:          -5.082
REMARK INTER:                  -4.986
REMARK INTRA:                  -0.096
REMARK UNBOUND:                -0.094
REMARK SMILES C=C(C)[C@H]1CC=C(C)C(=O)C1
REMARK SMILES IDX 8 1 7 2 6 3 5 4 4 5 11 6 9 7 10 8 2 9 1 10 3 11
REMARK H PARENT
REMARK Flexibility Score: inf
ROOT
ATOM      1  C   UNL     1     135.331 181.635 186.973  1.00  0.00     0.048 C 
ATOM      2  C   UNL     1     135.789 182.472 188.135  1.00  0.00    -0.012 C 
ATOM      3  C   UNL     1     136.871 182.109 188.845  1.00  0.00    -0.019 C 
ATOM      4  C   UNL     1     137.322 182.870 190.063  1.00  0.00     0.036 C 
ATOM      5  C   UNL     1     136.962 184.364 189.951  1.00  0.00     0.025 C 
ATOM      6  C   UNL     1     135.454 184.532 189.680  1.00  0.00     0.089 C 
ATOM      7  C   UNL     1     135.028 183.690 188.510  1.00  0.00     0.158 C 
ATOM      8  O   UNL     1     133.986 184.005 187.874  1.00  0.00    -0.295 OA
ENDROOT
BRANCH   5   9
ATOM      9  C   UNL     1     137.402 185.144 191.183  1.00  0.00    -0.077 C 
ATOM     10  C   UNL     1     137.750 184.517 192.320  1.00  0.00     0.008 C 
ATOM     11  C   UNL     1     137.455 186.649 191.145  1.00  0.00     0.039 C 
ENDBRANCH   5   9
TORSDOF 1
ENDMDL
MODEL 5
REMARK VINA RESULT:    -4.555      1.872      4.406
REMARK INTER + INTRA:          -4.916
REMARK INTER:                  -4.820
REMARK INTRA:                  -0.096
REMARK UNBOUND:                -0.094
REMARK SMILES C=C(C)[C@H]1CC=C(C)C(=O)C1
REMARK SMILES IDX 8 1 7 2 6 3 5 4 4 5 11 6 9 7 10 8 2 9 1 10 3 11
REMARK H PARENT
REMARK Flexibility Score: inf
ROOT
ATOM      1  C   UNL     1     136.459 186.596 193.080  1.00  0.00     0.048 C 
ATOM      2  C   UNL     1     136.112 185.667 191.949  1.00  0.00    -0.012 C 
ATOM      3  C   UNL     1     134.829 185.356 191.701  1.00  0.00    -0.019 C 
ATOM      4  C   UNL     1     134.437 184.370 190.631  1.00  0.00     0.036 C 
ATOM      5  C   UNL     1     135.449 184.378 189.469  1.00  0.00     0.025 C 
ATOM      6  C   UNL     1     136.874 184.131 189.999  1.00  0.00     0.089 C 
ATOM      7  C   UNL     1     137.194 185.078 191.122  1.00  0.00     0.158 C 
ATOM      8  O   UNL     1     138.401 185.333 191.385  1.00  0.00    -0.295 OA
ENDROOT
BRANCH   5   9
ATOM      9  C   UNL     1     135.071 183.376 188.386  1.00  0.00    -0.077 C 
ATOM     10  C   UNL     1     135.793 182.261 188.183  1.00  0.00     0.008 C 
ATOM     11  C   UNL     1     133.865 183.622 187.516  1.00  0.00     0.039 C 
ENDBRANCH   5   9
TORSDOF 1
ENDMDL
MODEL 6
REMARK VINA RESULT:    -4.473      1.779      4.449
REMARK INTER + INTRA:          -4.829
REMARK INTER:                  -4.736
REMARK INTRA:                  -0.093
REMARK UNBOUND:                -0.094
REMARK SMILES C=C(C)[C@H]1CC=C(C)C(=O)C1
REMARK SMILES IDX 8 1 7 2 6 3 5 4 4 5 11 6 9 7 10 8 2 9 1 10 3 11
REMARK H PARENT
REMARK Flexibility Score: inf
ROOT
ATOM      1  C   UNL     1     138.004 184.121 190.549  1.00  0.00     0.048 C 
ATOM      2  C   UNL     1     136.820 183.687 189.730  1.00  0.00    -0.012 C 
ATOM      3  C   UNL     1     135.682 184.400 189.757  1.00  0.00    -0.019 C 
ATOM      4  C   UNL     1     134.446 183.961 189.017  1.00  0.00     0.036 C 
ATOM      5  C   UNL     1     134.809 183.170 187.745  1.00  0.00     0.025 C 
ATOM      6  C   UNL     1     135.731 181.987 188.097  1.00  0.00     0.089 C 
ATOM      7  C   UNL     1     136.907 182.454 188.909  1.00  0.00     0.158 C 
ATOM      8  O   UNL     1     137.959 181.759 188.921  1.00  0.00    -0.295 OA
ENDROOT
BRANCH   5   9
ATOM      9  C   UNL     1     133.567 182.710 186.994  1.00  0.00    -0.077 C 
ATOM     10  C   UNL     1     132.872 181.629 187.386  1.00  0.00     0.008 C 
ATOM     11  C   UNL     1     133.090 183.472 185.784  1.00  0.00     0.039 C 
ENDBRANCH   5   9
TORSDOF 1
ENDMDL
MODEL 7
REMARK VINA RESULT:    -4.395      2.063      4.828
REMARK INTER + INTRA:          -4.746
REMARK INTER:                  -4.648
REMARK INTRA:                  -0.098
REMARK UNBOUND:                -0.094
REMARK SMILES C=C(C)[C@H]1CC=C(C)C(=O)C1
REMARK SMILES IDX 8 1 7 2 6 3 5 4 4 5 11 6 9 7 10 8 2 9 1 10 3 11
REMARK H PARENT
REMARK Flexibility Score: inf
ROOT
ATOM      1  C   UNL     1     137.624 184.070 191.849  1.00  0.00     0.048 C 
ATOM      2  C   UNL     1     136.887 183.754 190.577  1.00  0.00    -0.012 C 
ATOM      3  C   UNL     1     137.241 182.689 189.838  1.00  0.00    -0.019 C 
ATOM      4  C   UNL     1     136.585 182.378 188.518  1.00  0.00     0.036 C 
ATOM      5  C   UNL     1     135.121 182.856 188.497  1.00  0.00     0.025 C 
ATOM      6  C   UNL     1     135.043 184.354 188.850  1.00  0.00     0.089 C 
ATOM      7  C   UNL     1     135.781 184.637 190.129  1.00  0.00     0.158 C 
ATOM      8  O   UNL     1     135.481 185.663 190.798  1.00  0.00    -0.295 OA
ENDROOT
BRANCH   5   9
ATOM      9  C   UNL     1     134.450 182.559 187.163  1.00  0.00    -0.077 C 
ATOM     10  C   UNL     1     133.362 183.237 186.761  1.00  0.00     0.008 C 
ATOM     11  C   UNL     1     135.004 181.486 186.261  1.00  0.00     0.039 C 
ENDBRANCH   5   9
TORSDOF 1
ENDMDL
MODEL 8
REMARK VINA RESULT:    -4.280      2.614      5.056
REMARK INTER + INTRA:          -4.624
REMARK INTER:                  -4.530
REMARK INTRA:                  -0.094
REMARK UNBOUND:                -0.094
REMARK SMILES C=C(C)[C@H]1CC=C(C)C(=O)C1
REMARK SMILES IDX 8 1 7 2 6 3 5 4 4 5 11 6 9 7 10 8 2 9 1 10 3 11
REMARK H PARENT
REMARK Flexibility Score: inf
ROOT
ATOM      1  C   UNL     1     137.471 182.497 189.245  1.00  0.00     0.048 C 
ATOM      2  C   UNL     1     136.150 182.669 188.547  1.00  0.00    -0.012 C 
ATOM      3  C   UNL     1     135.371 183.726 188.829  1.00  0.00    -0.019 C 
ATOM      4  C   UNL     1     134.006 183.900 188.215  1.00  0.00     0.036 C 
ATOM      5  C   UNL     1     133.942 183.270 186.811  1.00  0.00     0.025 C 
ATOM      6  C   UNL     1     134.375 181.792 186.867  1.00  0.00     0.089 C 
ATOM      7  C   UNL     1     135.701 181.654 187.563  1.00  0.00     0.158 C 
ATOM      8  O   UNL     1     136.410 180.637 187.334  1.00  0.00    -0.295 OA
ENDROOT
BRANCH   5   9
ATOM      9  C   UNL     1     132.564 183.428 186.184  1.00  0.00    -0.077 C 
ATOM     10  C   UNL     1     131.450 183.440 186.937  1.00  0.00     0.008 C 
ATOM     11  C   UNL     1     132.425 183.578 184.691  1.00  0.00     0.039 C 
ENDBRANCH   5   9
TORSDOF 1
ENDMDL
MODEL 9
REMARK VINA RESULT:    -4.253      2.296      4.885
REMARK INTER + INTRA:          -4.596
REMARK INTER:                  -4.501
REMARK INTRA:                  -0.095
REMARK UNBOUND:                -0.094
REMARK SMILES C=C(C)[C@H]1CC=C(C)C(=O)C1
REMARK SMILES IDX 8 1 7 2 6 3 5 4 4 5 11 6 9 7 10 8 2 9 1 10 3 11
REMARK H PARENT
REMARK Flexibility Score: inf
ROOT
ATOM      1  C   UNL     1     137.832 186.659 194.995  1.00  0.00     0.048 C 
ATOM      2  C   UNL     1     137.416 185.933 193.746  1.00  0.00    -0.012 C 
ATOM      3  C   UNL     1     136.893 186.613 192.712  1.00  0.00    -0.019 C 
ATOM      4  C   UNL     1     136.389 185.922 191.472  1.00  0.00     0.036 C 
ATOM      5  C   UNL     1     137.174 184.624 191.200  1.00  0.00     0.025 C 
ATOM      6  C   UNL     1     137.136 183.707 192.438  1.00  0.00     0.089 C 
ATOM      7  C   UNL     1     137.564 184.458 193.668  1.00  0.00     0.158 C 
ATOM      8  O   UNL     1     138.010 183.815 194.657  1.00  0.00    -0.295 OA
ENDROOT
BRANCH   5   9
ATOM      9  C   UNL     1     136.665 183.908 189.956  1.00  0.00    -0.077 C 
ATOM     10  C   UNL     1     137.323 182.857 189.437  1.00  0.00     0.008 C 
ATOM     11  C   UNL     1     135.401 184.372 189.281  1.00  0.00     0.039 C 
ENDBRANCH   5   9
TORSDOF 1
ENDMDL
