MODEL 1
REMARK VINA RESULT:     8.747      0.000      0.000
REMARK INTER + INTRA:          12.811
REMARK INTER:                  13.350
REMARK INTRA:                  -0.539
REMARK UNBOUND:                -0.539
REMARK SMILES CCCCCCCCCCC(=O)[O-]
REMARK SMILES IDX 7 1 8 2 9 3 10 4 11 5 12 6 13 7 6 8 5 9 4 10 3 11 2 12 1 13
REMARK H PARENT
REMARK Flexibility Score: inf
ROOT
ATOM      1  C   UNL     1      13.828   6.182   8.158  1.00  0.00     0.000 C 
ENDROOT
BRANCH   1   2
ATOM      2  C   UNL     1      15.184   5.923   7.475  1.00  0.00     0.000 C 
BRANCH   2   3
ATOM      3  C   UNL     1      16.418   6.289   8.321  1.00  0.00     0.006 C 
BRANCH   3   4
ATOM      4  C   UNL     1      16.059   7.045   9.606  1.00  0.00     0.053 C 
BRANCH   4   5
ATOM      5  C   UNL     1      17.136   8.024   9.953  1.00  0.00     0.041 C 
ATOM      6  O   UNL     1      18.125   7.660  10.644  1.00  0.00    -0.550 OA
ATOM      7  O   UNL     1      17.073   9.326   9.474  1.00  0.00    -0.550 OA
ENDBRANCH   4   5
ENDBRANCH   3   4
ENDBRANCH   2   3
ENDBRANCH   1   2
BRANCH   1   8
ATOM      8  C   UNL     1      13.055   7.351   7.530  1.00  0.00     0.000 C 
BRANCH   8   9
ATOM      9  C   UNL     1      11.574   6.998   7.353  1.00  0.00    -0.000 C 
BRANCH   9  10
ATOM     10  C   UNL     1      10.998   6.380   8.633  1.00  0.00    -0.000 C 
BRANCH  10  11
ATOM     11  C   UNL     1       9.965   5.296   8.305  1.00  0.00    -0.000 C 
BRANCH  11  12
ATOM     12  C   UNL     1      10.651   3.969   7.961  1.00  0.00    -0.003 C 
ATOM     13  C   UNL     1      10.754   3.067   9.187  1.00  0.00     0.004 C 
ENDBRANCH  11  12
ENDBRANCH  10  11
ENDBRANCH   9  10
ENDBRANCH   8   9
ENDBRANCH   1   8
TORSDOF 9
ENDMDL
MODEL 2
REMARK VINA RESULT:     9.519      1.147      1.896
REMARK INTER + INTRA:          13.989
REMARK INTER:                  14.603
REMARK INTRA:                  -0.614
REMARK UNBOUND:                -0.539
REMARK SMILES CCCCCCCCCCC(=O)[O-]
REMARK SMILES IDX 7 1 8 2 9 3 10 4 11 5 12 6 13 7 6 8 5 9 4 10 3 11 2 12 1 13
REMARK H PARENT
REMARK Flexibility Score: inf
ROOT
ATOM      1  C   UNL     1      15.686   5.560   7.073  1.00  0.00     0.000 C 
ENDROOT
BRANCH   1   2
ATOM      2  C   UNL     1      17.106   5.866   7.583  1.00  0.00     0.000 C 
BRANCH   2   3
ATOM      3  C   UNL     1      17.243   5.953   9.115  1.00  0.00     0.006 C 
BRANCH   3   4
ATOM      4  C   UNL     1      18.125   7.121   9.571  1.00  0.00     0.053 C 
BRANCH   4   5
ATOM      5  C   UNL     1      17.301   8.357   9.753  1.00  0.00     0.041 C 
ATOM      6  O   UNL     1      16.073   8.266  10.022  1.00  0.00    -0.550 OA
ATOM      7  O   UNL     1      17.898   9.609   9.676  1.00  0.00    -0.550 OA
ENDBRANCH   4   5
ENDBRANCH   3   4
ENDBRANCH   2   3
ENDBRANCH   1   2
BRANCH   1   8
ATOM      8  C   UNL     1      14.590   5.991   8.059  1.00  0.00     0.000 C 
BRANCH   8   9
ATOM      9  C   UNL     1      13.953   7.317   7.626  1.00  0.00    -0.000 C 
BRANCH   9  10
ATOM     10  C   UNL     1      12.447   7.155   7.394  1.00  0.00    -0.000 C 
BRANCH  10  11
ATOM     11  C   UNL     1      11.750   6.614   8.648  1.00  0.00    -0.000 C 
BRANCH  11  12
ATOM     12  C   UNL     1      10.543   5.745   8.276  1.00  0.00    -0.003 C 
ATOM     13  C   UNL     1      10.980   4.349   7.843  1.00  0.00     0.004 C 
ENDBRANCH  11  12
ENDBRANCH  10  11
ENDBRANCH   9  10
ENDBRANCH   8   9
ENDBRANCH   1   8
TORSDOF 9
ENDMDL
MODEL 3
REMARK VINA RESULT:     9.850      3.512      6.631
REMARK INTER + INTRA:          14.493
REMARK INTER:                  14.837
REMARK INTRA:                  -0.344
REMARK UNBOUND:                -0.539
REMARK SMILES CCCCCCCCCCC(=O)[O-]
REMARK SMILES IDX 7 1 8 2 9 3 10 4 11 5 12 6 13 7 6 8 5 9 4 10 3 11 2 12 1 13
REMARK H PARENT
REMARK Flexibility Score: inf
ROOT
ATOM      1  C   UNL     1      13.661   6.429   8.141  1.00  0.00     0.000 C 
ENDROOT
BRANCH   1   2
ATOM      2  C   UNL     1      12.539   7.401   7.735  1.00  0.00     0.000 C 
BRANCH   2   3
ATOM      3  C   UNL     1      11.184   6.738   7.424  1.00  0.00     0.006 C 
BRANCH   3   4
ATOM      4  C   UNL     1      10.657   5.884   8.583  1.00  0.00     0.053 C 
BRANCH   4   5
ATOM      5  C   UNL     1      10.563   4.447   8.174  1.00  0.00     0.041 C 
ATOM      6  O   UNL     1      10.475   4.141   6.955  1.00  0.00    -0.550 OA
ATOM      7  O   UNL     1      10.622   3.446   9.133  1.00  0.00    -0.550 OA
ENDBRANCH   4   5
ENDBRANCH   3   4
ENDBRANCH   2   3
ENDBRANCH   1   2
BRANCH   1   8
ATOM      8  C   UNL     1      14.997   6.733   7.446  1.00  0.00     0.000 C 
BRANCH   8   9
ATOM      9  C   UNL     1      16.048   5.671   7.788  1.00  0.00    -0.000 C 
BRANCH   9  10
ATOM     10  C   UNL     1      17.198   6.275   8.602  1.00  0.00    -0.000 C 
BRANCH  10  11
ATOM     11  C   UNL     1      16.673   7.263   9.650  1.00  0.00    -0.000 C 
BRANCH  11  12
ATOM     12  C   UNL     1      17.827   7.972  10.366  1.00  0.00    -0.003 C 
ATOM     13  C   UNL     1      18.125   9.326   9.727  1.00  0.00     0.004 C 
ENDBRANCH  11  12
ENDBRANCH  10  11
ENDBRANCH   9  10
ENDBRANCH   8   9
ENDBRANCH   1   8
TORSDOF 9
ENDMDL
MODEL 4
REMARK VINA RESULT:     9.978      2.358      2.856
REMARK INTER + INTRA:          14.689
REMARK INTER:                  15.322
REMARK INTRA:                  -0.634
REMARK UNBOUND:                -0.539
REMARK SMILES CCCCCCCCCCC(=O)[O-]
REMARK SMILES IDX 7 1 8 2 9 3 10 4 11 5 12 6 13 7 6 8 5 9 4 10 3 11 2 12 1 13
REMARK H PARENT
REMARK Flexibility Score: inf
ROOT
ATOM      1  C   UNL     1      13.275   7.162   7.843  1.00  0.00     0.000 C 
ENDROOT
BRANCH   1   2
ATOM      2  C   UNL     1      13.969   5.813   8.104  1.00  0.00     0.000 C 
BRANCH   2   3
ATOM      3  C   UNL     1      15.479   5.904   8.395  1.00  0.00     0.006 C 
BRANCH   3   4
ATOM      4  C   UNL     1      16.308   6.235   7.148  1.00  0.00     0.053 C 
BRANCH   4   5
ATOM      5  C   UNL     1      16.906   4.990   6.573  1.00  0.00     0.041 C 
ATOM      6  O   UNL     1      18.125   4.729   6.756  1.00  0.00    -0.550 OA
ATOM      7  O   UNL     1      16.108   4.093   5.875  1.00  0.00    -0.550 OA
ENDBRANCH   4   5
ENDBRANCH   3   4
ENDBRANCH   2   3
ENDBRANCH   1   2
BRANCH   1   8
ATOM      8  C   UNL     1      11.778   7.016   7.534  1.00  0.00     0.000 C 
BRANCH   8   9
ATOM      9  C   UNL     1      11.006   6.542   8.770  1.00  0.00    -0.000 C 
BRANCH   9  10
ATOM     10  C   UNL     1      10.033   5.412   8.412  1.00  0.00    -0.000 C 
BRANCH  10  11
ATOM     11  C   UNL     1      10.677   4.418   7.439  1.00  0.00    -0.000 C 
BRANCH  11  12
ATOM     12  C   UNL     1      10.710   3.006   8.035  1.00  0.00    -0.003 C 
ATOM     13  C   UNL     1      10.658   3.050   9.560  1.00  0.00     0.004 C 
ENDBRANCH  11  12
ENDBRANCH  10  11
ENDBRANCH   9  10
ENDBRANCH   8   9
ENDBRANCH   1   8
TORSDOF 9
ENDMDL
