MODEL 1
REMARK VINA RESULT:    -4.334      0.000      0.000
REMARK INTER + INTRA:          -5.783
REMARK INTER:                  -6.107
REMARK INTRA:                   0.324
REMARK UNBOUND:                 0.324
REMARK SMILES CC1=CCC(=C(C)C)C(=O)CC(C)=CCC1
REMARK SMILES IDX 12 1 14 2 13 3 15 4 16 5 2 6 1 7 3 8 11 10 9 11 10 12 5 13
REMARK SMILES IDX 6 14 7 15 8 16 4 17
REMARK H PARENT
REMARK Flexibility Score: 60.00
ROOT
ATOM      1  C   UNL     1     -15.992 -21.610  22.327  1.00  0.00    -0.070 C 
ATOM      2  C   UNL     1     -15.567 -21.370  21.064  1.00  0.00    -0.027 C 
ATOM      3  C   UNL     1     -17.353 -21.099  22.728  1.00  0.00     0.039 C 
ENDROOT
BRANCH   2   4
ATOM      4  C   UNL     1     -14.263 -21.857  20.476  1.00  0.00     0.032 C 
BRANCH   4   5
ATOM      5  C   UNL     1     -13.068 -21.049  21.003  1.00  0.00     0.034 C 
BRANCH   5   6
ATOM      6  C   UNL     1     -11.913 -21.915  21.486  1.00  0.00    -0.077 C 
ATOM      7  C   UNL     1     -11.279 -22.885  20.522  1.00  0.00     0.039 C 
ATOM      8  C   UNL     1     -11.406 -21.849  22.738  1.00  0.00    -0.023 CG0
ATOM      9  G   UNL     1     -11.950 -20.994  23.860  1.00  0.00     0.000 G0
ENDBRANCH   5   6
ENDBRANCH   4   5
ENDBRANCH   2   4
BRANCH   1  10
ATOM     10  C   UNL     1     -15.159 -22.361  23.348  1.00  0.00     0.111 C 
BRANCH  10  11
ATOM     11  C   UNL     1     -14.465 -21.412  24.285  1.00  0.00     0.163 C 
ATOM     12  O   UNL     1     -15.101 -20.431  24.754  1.00  0.00    -0.294 OA
BRANCH  11  13
ATOM     13  C   UNL     1     -13.051 -21.622  24.687  1.00  0.00    -0.002 C 
ATOM     14  C   UNL     1     -12.753 -22.380  25.777  1.00  0.00    -0.069 C 
ATOM     15  C   UNL     1     -11.323 -22.561  26.234  1.00  0.00     0.039 C 
ATOM     16  C   UNL     1     -13.836 -23.102  26.548  1.00  0.00     0.039 C 
BRANCH  13  17
ATOM     17  C   UNL     1     -11.941 -20.978  23.863  1.00  0.00     0.066 CG0
ATOM     18  G   UNL     1     -11.417 -21.859  22.753  1.00  0.00     0.000 G0
ENDBRANCH  13  17
ENDBRANCH  11  13
ENDBRANCH  10  11
ENDBRANCH   1  10
TORSDOF 0
ENDMDL
MODEL 2
REMARK VINA RESULT:    -4.097      1.891      3.849
REMARK INTER + INTRA:          -5.449
REMARK INTER:                  -6.020
REMARK INTRA:                   0.571
REMARK UNBOUND:                 0.324
REMARK SMILES CC1=CCC(=C(C)C)C(=O)CC(C)=CCC1
REMARK SMILES IDX 12 1 14 2 13 3 15 4 16 5 2 6 1 7 3 8 11 10 9 11 10 12 5 13
REMARK SMILES IDX 6 14 7 15 8 16 4 17
REMARK H PARENT
REMARK Flexibility Score: 60.00
ROOT
ATOM      1  C   UNL     1     -13.219 -21.999  20.382  1.00  0.00    -0.070 C 
ATOM      2  C   UNL     1     -14.565 -22.108  20.488  1.00  0.00    -0.027 C 
ATOM      3  C   UNL     1     -12.484 -23.047  19.585  1.00  0.00     0.039 C 
ENDROOT
BRANCH   2   4
ATOM      4  C   UNL     1     -15.466 -21.121  21.195  1.00  0.00     0.032 C 
BRANCH   4   5
ATOM      5  C   UNL     1     -16.123 -21.743  22.435  1.00  0.00     0.034 C 
BRANCH   5   6
ATOM      6  C   UNL     1     -15.445 -21.358  23.742  1.00  0.00    -0.077 C 
ATOM      7  C   UNL     1     -16.042 -20.249  24.572  1.00  0.00     0.039 C 
ATOM      8  C   UNL     1     -14.337 -21.972  24.216  1.00  0.00    -0.023 CG0
ATOM      9  G   UNL     1     -13.559 -23.051  23.498  1.00  0.00     0.000 G0
ENDBRANCH   5   6
ENDBRANCH   4   5
ENDBRANCH   2   4
BRANCH   1  10
ATOM     10  C   UNL     1     -12.429 -20.881  21.032  1.00  0.00     0.111 C 
BRANCH  10  11
ATOM     11  C   UNL     1     -12.047 -21.235  22.442  1.00  0.00     0.163 C 
ATOM     12  O   UNL     1     -11.614 -20.335  23.210  1.00  0.00    -0.294 OA
BRANCH  11  13
ATOM     13  C   UNL     1     -12.194 -22.621  22.955  1.00  0.00    -0.002 C 
ATOM     14  C   UNL     1     -11.138 -23.478  22.931  1.00  0.00    -0.069 C 
ATOM     15  C   UNL     1     -11.282 -24.909  23.400  1.00  0.00     0.039 C 
ATOM     16  C   UNL     1      -9.770 -23.021  22.474  1.00  0.00     0.039 C 
BRANCH  13  17
ATOM     17  C   UNL     1     -13.543 -23.069  23.508  1.00  0.00     0.066 CG0
ATOM     18  G   UNL     1     -14.308 -21.971  24.210  1.00  0.00     0.000 G0
ENDBRANCH  13  17
ENDBRANCH  11  13
ENDBRANCH  10  11
ENDBRANCH   1  10
TORSDOF 0
ENDMDL
MODEL 3
REMARK VINA RESULT:    -3.988      2.236      4.545
REMARK INTER + INTRA:          -5.297
REMARK INTER:                  -5.876
REMARK INTRA:                   0.580
REMARK UNBOUND:                 0.324
REMARK SMILES CC1=CCC(=C(C)C)C(=O)CC(C)=CCC1
REMARK SMILES IDX 12 1 14 2 13 3 15 4 16 5 2 6 1 7 3 8 11 10 9 11 10 12 5 13
REMARK SMILES IDX 6 14 7 15 8 16 4 17
REMARK H PARENT
REMARK Flexibility Score: 60.00
ROOT
ATOM      1  C   UNL     1     -14.132 -21.376  21.703  1.00  0.00    -0.070 C 
ATOM      2  C   UNL     1     -14.020 -21.455  23.050  1.00  0.00    -0.027 C 
ATOM      3  C   UNL     1     -15.466 -21.700  21.081  1.00  0.00     0.039 C 
ENDROOT
BRANCH   2   4
ATOM      4  C   UNL     1     -12.781 -21.110  23.844  1.00  0.00     0.032 C 
BRANCH   4   5
ATOM      5  C   UNL     1     -12.254 -22.322  24.626  1.00  0.00     0.034 C 
BRANCH   5   6
ATOM      6  C   UNL     1     -12.313 -23.625  23.842  1.00  0.00    -0.077 C 
ATOM      7  C   UNL     1     -13.217 -24.728  24.332  1.00  0.00     0.039 C 
ATOM      8  C   UNL     1     -11.609 -23.845  22.708  1.00  0.00    -0.023 CG0
ATOM      9  G   UNL     1     -10.603 -22.893  22.104  1.00  0.00     0.000 G0
ENDBRANCH   5   6
ENDBRANCH   4   5
ENDBRANCH   2   4
BRANCH   1  10
ATOM     10  C   UNL     1     -12.978 -20.982  20.802  1.00  0.00     0.111 C 
BRANCH  10  11
ATOM     11  C   UNL     1     -12.281 -22.196  20.254  1.00  0.00     0.163 C 
ATOM     12  O   UNL     1     -12.884 -22.937  19.432  1.00  0.00    -0.294 OA
BRANCH  11  13
ATOM     13  C   UNL     1     -10.885 -22.525  20.642  1.00  0.00    -0.002 C 
ATOM     14  C   UNL     1      -9.887 -22.483  19.718  1.00  0.00    -0.069 C 
ATOM     15  C   UNL     1      -8.471 -22.866  20.081  1.00  0.00     0.039 C 
ATOM     16  C   UNL     1     -10.150 -22.011  18.305  1.00  0.00     0.039 C 
BRANCH  13  17
ATOM     17  C   UNL     1     -10.588 -22.911  22.087  1.00  0.00     0.066 CG0
ATOM     18  G   UNL     1     -11.619 -23.832  22.696  1.00  0.00     0.000 G0
ENDBRANCH  13  17
ENDBRANCH  11  13
ENDBRANCH  10  11
ENDBRANCH   1  10
TORSDOF 0
ENDMDL
MODEL 4
REMARK VINA RESULT:    -3.969      2.917      5.055
REMARK INTER + INTRA:          -5.270
REMARK INTER:                  -5.610
REMARK INTRA:                   0.340
REMARK UNBOUND:                 0.324
REMARK SMILES CC1=CCC(=C(C)C)C(=O)CC(C)=CCC1
REMARK SMILES IDX 12 1 14 2 13 3 15 4 16 5 2 6 1 7 3 8 11 10 9 11 10 12 5 13
REMARK SMILES IDX 6 14 7 15 8 16 4 17
REMARK H PARENT
REMARK Flexibility Score: 60.00
ROOT
ATOM      1  C   UNL     1     -10.379 -21.511  19.235  1.00  0.00    -0.070 C 
ATOM      2  C   UNL     1     -11.351 -22.446  19.353  1.00  0.00    -0.027 C 
ATOM      3  C   UNL     1      -9.311 -21.724  18.193  1.00  0.00     0.039 C 
ENDROOT
BRANCH   2   4
ATOM      4  C   UNL     1     -12.527 -22.367  20.299  1.00  0.00     0.032 C 
BRANCH   4   5
ATOM      5  C   UNL     1     -12.120 -22.714  21.738  1.00  0.00     0.034 C 
BRANCH   5   6
ATOM      6  C   UNL     1     -12.694 -21.764  22.779  1.00  0.00    -0.077 C 
ATOM      7  C   UNL     1     -14.192 -21.618  22.884  1.00  0.00     0.039 C 
ATOM      8  C   UNL     1     -11.931 -21.049  23.638  1.00  0.00    -0.023 CG0
ATOM      9  G   UNL     1     -10.420 -21.009  23.640  1.00  0.00     0.000 G0
ENDBRANCH   5   6
ENDBRANCH   4   5
ENDBRANCH   2   4
BRANCH   1  10
ATOM     10  C   UNL     1     -10.318 -20.272  20.107  1.00  0.00     0.111 C 
BRANCH  10  11
ATOM     11  C   UNL     1      -9.428 -20.491  21.299  1.00  0.00     0.163 C 
ATOM     12  O   UNL     1      -8.324 -21.078  21.146  1.00  0.00    -0.294 OA
BRANCH  11  13
ATOM     13  C   UNL     1      -9.814 -20.006  22.649  1.00  0.00    -0.002 C 
ATOM     14  C   UNL     1      -9.631 -18.701  22.988  1.00  0.00    -0.069 C 
ATOM     15  C   UNL     1      -9.968 -18.201  24.374  1.00  0.00     0.039 C 
ATOM     16  C   UNL     1      -9.124 -17.695  21.979  1.00  0.00     0.039 C 
BRANCH  13  17
ATOM     17  C   UNL     1     -10.416 -20.989  23.647  1.00  0.00     0.066 CG0
ATOM     18  G   UNL     1     -11.926 -21.031  23.625  1.00  0.00     0.000 G0
ENDBRANCH  13  17
ENDBRANCH  11  13
ENDBRANCH  10  11
ENDBRANCH   1  10
TORSDOF 0
ENDMDL
MODEL 5
REMARK VINA RESULT:    -3.916      2.249      4.490
REMARK INTER + INTRA:          -5.194
REMARK INTER:                  -5.577
REMARK INTRA:                   0.383
REMARK UNBOUND:                 0.324
REMARK SMILES CC1=CCC(=C(C)C)C(=O)CC(C)=CCC1
REMARK SMILES IDX 12 1 14 2 13 3 15 4 16 5 2 6 1 7 3 8 11 10 9 11 10 12 5 13
REMARK SMILES IDX 6 14 7 15 8 16 4 17
REMARK H PARENT
REMARK Flexibility Score: 60.00
ROOT
ATOM      1  C   UNL     1     -10.688 -20.650  20.216  1.00  0.00    -0.070 C 
ATOM      2  C   UNL     1      -9.776 -19.847  20.812  1.00  0.00    -0.027 C 
ATOM      3  C   UNL     1     -10.247 -21.462  19.025  1.00  0.00     0.039 C 
ENDROOT
BRANCH   2   4
ATOM      4  C   UNL     1     -10.025 -19.012  22.047  1.00  0.00     0.032 C 
BRANCH   4   5
ATOM      5  C   UNL     1      -9.680 -19.782  23.331  1.00  0.00     0.034 C 
BRANCH   5   6
ATOM      6  C   UNL     1     -10.737 -19.656  24.418  1.00  0.00    -0.077 C 
ATOM      7  C   UNL     1     -10.761 -18.411  25.269  1.00  0.00     0.039 C 
ATOM      8  C   UNL     1     -11.678 -20.599  24.655  1.00  0.00    -0.023 CG0
ATOM      9  G   UNL     1     -11.772 -21.937  23.959  1.00  0.00     0.000 G0
ENDBRANCH   5   6
ENDBRANCH   4   5
ENDBRANCH   2   4
BRANCH   1  10
ATOM     10  C   UNL     1     -12.124 -20.760  20.690  1.00  0.00     0.111 C 
BRANCH  10  11
ATOM     11  C   UNL     1     -12.348 -22.040  21.446  1.00  0.00     0.163 C 
ATOM     12  O   UNL     1     -12.127 -23.142  20.876  1.00  0.00    -0.294 OA
BRANCH  11  13
ATOM     13  C   UNL     1     -12.801 -22.030  22.861  1.00  0.00    -0.002 C 
ATOM     14  C   UNL     1     -14.127 -22.090  23.158  1.00  0.00    -0.069 C 
ATOM     15  C   UNL     1     -14.610 -22.028  24.589  1.00  0.00     0.039 C 
ATOM     16  C   UNL     1     -15.165 -22.262  22.071  1.00  0.00     0.039 C 
BRANCH  13  17
ATOM     17  C   UNL     1     -11.760 -21.953  23.973  1.00  0.00     0.066 CG0
ATOM     18  G   UNL     1     -11.689 -20.602  24.647  1.00  0.00     0.000 G0
ENDBRANCH  13  17
ENDBRANCH  11  13
ENDBRANCH  10  11
ENDBRANCH   1  10
TORSDOF 0
ENDMDL
MODEL 6
REMARK VINA RESULT:    -3.897      2.378      4.585
REMARK INTER + INTRA:          -5.168
REMARK INTER:                  -5.643
REMARK INTRA:                   0.475
REMARK UNBOUND:                 0.324
REMARK SMILES CC1=CCC(=C(C)C)C(=O)CC(C)=CCC1
REMARK SMILES IDX 12 1 14 2 13 3 15 4 16 5 2 6 1 7 3 8 11 10 9 11 10 12 5 13
REMARK SMILES IDX 6 14 7 15 8 16 4 17
REMARK H PARENT
REMARK Flexibility Score: 60.00
ROOT
ATOM      1  C   UNL     1      -9.351 -21.380  22.780  1.00  0.00    -0.070 C 
ATOM      2  C   UNL     1      -9.092 -20.686  21.646  1.00  0.00    -0.027 C 
ATOM      3  C   UNL     1      -8.221 -22.149  23.415  1.00  0.00     0.039 C 
ENDROOT
BRANCH   2   4
ATOM      4  C   UNL     1     -10.086 -19.816  20.911  1.00  0.00     0.032 C 
BRANCH   4   5
ATOM      5  C   UNL     1     -10.317 -20.310  19.475  1.00  0.00     0.034 C 
BRANCH   5   6
ATOM      6  C   UNL     1     -10.476 -21.819  19.369  1.00  0.00    -0.077 C 
ATOM      7  C   UNL     1      -9.420 -22.612  18.640  1.00  0.00     0.039 C 
ATOM      8  C   UNL     1     -11.510 -22.500  19.914  1.00  0.00    -0.023 CG0
ATOM      9  G   UNL     1     -12.694 -21.878  20.618  1.00  0.00     0.000 G0
ENDBRANCH   5   6
ENDBRANCH   4   5
ENDBRANCH   2   4
BRANCH   1  10
ATOM     10  C   UNL     1     -10.722 -21.419  23.427  1.00  0.00     0.111 C 
BRANCH  10  11
ATOM     11  C   UNL     1     -11.560 -22.527  22.853  1.00  0.00     0.163 C 
ATOM     12  O   UNL     1     -11.215 -23.724  23.041  1.00  0.00    -0.294 OA
BRANCH  11  13
ATOM     13  C   UNL     1     -12.802 -22.238  22.090  1.00  0.00    -0.002 C 
ATOM     14  C   UNL     1     -14.012 -22.276  22.709  1.00  0.00    -0.069 C 
ATOM     15  C   UNL     1     -15.291 -22.037  21.938  1.00  0.00     0.039 C 
ATOM     16  C   UNL     1     -14.122 -22.516  24.199  1.00  0.00     0.039 C 
BRANCH  13  17
ATOM     17  C   UNL     1     -12.700 -21.900  20.607  1.00  0.00     0.066 CG0
ATOM     18  G   UNL     1     -11.500 -22.514  19.923  1.00  0.00     0.000 G0
ENDBRANCH  13  17
ENDBRANCH  11  13
ENDBRANCH  10  11
ENDBRANCH   1  10
TORSDOF 0
ENDMDL
MODEL 7
REMARK VINA RESULT:    -3.851      2.214      4.022
REMARK INTER + INTRA:          -5.103
REMARK INTER:                  -5.567
REMARK INTRA:                   0.464
REMARK UNBOUND:                 0.324
REMARK SMILES CC1=CCC(=C(C)C)C(=O)CC(C)=CCC1
REMARK SMILES IDX 12 1 14 2 13 3 15 4 16 5 2 6 1 7 3 8 11 10 9 11 10 12 5 13
REMARK SMILES IDX 6 14 7 15 8 16 4 17
REMARK H PARENT
REMARK Flexibility Score: 60.00
ROOT
ATOM      1  C   UNL     1     -12.533 -21.838  20.460  1.00  0.00    -0.070 C 
ATOM      2  C   UNL     1     -13.749 -22.156  20.965  1.00  0.00    -0.027 C 
ATOM      3  C   UNL     1     -11.891 -22.804  19.497  1.00  0.00     0.039 C 
ENDROOT
BRANCH   2   4
ATOM      4  C   UNL     1     -14.563 -21.282  21.892  1.00  0.00     0.032 C 
BRANCH   4   5
ATOM      5  C   UNL     1     -14.874 -21.997  23.215  1.00  0.00     0.034 C 
BRANCH   5   6
ATOM      6  C   UNL     1     -13.663 -22.674  23.841  1.00  0.00    -0.077 C 
ATOM      7  C   UNL     1     -13.680 -24.171  24.025  1.00  0.00     0.039 C 
ATOM      8  C   UNL     1     -12.553 -22.005  24.228  1.00  0.00    -0.023 CG0
ATOM      9  G   UNL     1     -12.377 -20.504  24.189  1.00  0.00     0.000 G0
ENDBRANCH   5   6
ENDBRANCH   4   5
ENDBRANCH   2   4
BRANCH   1  10
ATOM     10  C   UNL     1     -11.797 -20.564  20.824  1.00  0.00     0.111 C 
BRANCH  10  11
ATOM     11  C   UNL     1     -10.936 -20.765  22.040  1.00  0.00     0.163 C 
ATOM     12  O   UNL     1      -9.952 -21.550  21.978  1.00  0.00    -0.294 OA
BRANCH  11  13
ATOM     13  C   UNL     1     -11.208 -20.038  23.306  1.00  0.00    -0.002 C 
ATOM     14  C   UNL     1     -10.434 -18.980  23.670  1.00  0.00    -0.069 C 
ATOM     15  C   UNL     1     -10.662 -18.261  24.981  1.00  0.00     0.039 C 
ATOM     16  C   UNL     1      -9.344 -18.459  22.760  1.00  0.00     0.039 C 
BRANCH  13  17
ATOM     17  C   UNL     1     -12.365 -20.492  24.190  1.00  0.00     0.066 CG0
ATOM     18  G   UNL     1     -12.551 -21.992  24.226  1.00  0.00     0.000 G0
ENDBRANCH  13  17
ENDBRANCH  11  13
ENDBRANCH  10  11
ENDBRANCH   1  10
TORSDOF 0
ENDMDL
MODEL 8
REMARK VINA RESULT:    -3.794      1.974      4.263
REMARK INTER + INTRA:          -5.022
REMARK INTER:                  -5.748
REMARK INTRA:                   0.726
REMARK UNBOUND:                 0.324
REMARK SMILES CC1=CCC(=C(C)C)C(=O)CC(C)=CCC1
REMARK SMILES IDX 12 1 14 2 13 3 15 4 16 5 2 6 1 7 3 8 11 10 9 11 10 12 5 13
REMARK SMILES IDX 6 14 7 15 8 16 4 17
REMARK H PARENT
REMARK Flexibility Score: 60.00
ROOT
ATOM      1  C   UNL     1     -11.466 -21.911  20.646  1.00  0.00    -0.070 C 
ATOM      2  C   UNL     1     -10.538 -22.181  21.595  1.00  0.00    -0.027 C 
ATOM      3  C   UNL     1     -11.373 -22.647  19.334  1.00  0.00     0.039 C 
ENDROOT
BRANCH   2   4
ATOM      4  C   UNL     1     -10.512 -21.585  22.984  1.00  0.00     0.032 C 
BRANCH   4   5
ATOM      5  C   UNL     1     -10.689 -22.661  24.065  1.00  0.00     0.034 C 
BRANCH   5   6
ATOM      6  C   UNL     1     -11.803 -23.652  23.760  1.00  0.00    -0.077 C 
ATOM      7  C   UNL     1     -11.452 -25.107  23.574  1.00  0.00     0.039 C 
ATOM      8  C   UNL     1     -13.107 -23.302  23.665  1.00  0.00    -0.023 CG0
ATOM      9  G   UNL     1     -13.643 -21.892  23.751  1.00  0.00     0.000 G0
ENDBRANCH   5   6
ENDBRANCH   4   5
ENDBRANCH   2   4
BRANCH   1  10
ATOM     10  C   UNL     1     -12.581 -20.904  20.848  1.00  0.00     0.111 C 
BRANCH  10  11
ATOM     11  C   UNL     1     -13.875 -21.590  21.185  1.00  0.00     0.163 C 
ATOM     12  O   UNL     1     -14.448 -22.293  20.311  1.00  0.00    -0.294 OA
BRANCH  11  13
ATOM     13  C   UNL     1     -14.479 -21.475  22.537  1.00  0.00    -0.002 C 
ATOM     14  C   UNL     1     -15.747 -21.004  22.685  1.00  0.00    -0.069 C 
ATOM     15  C   UNL     1     -16.359 -20.829  24.057  1.00  0.00     0.039 C 
ATOM     16  C   UNL     1     -16.605 -20.676  21.483  1.00  0.00     0.039 C 
BRANCH  13  17
ATOM     17  C   UNL     1     -13.660 -21.891  23.754  1.00  0.00     0.066 CG0
ATOM     18  G   UNL     1     -13.115 -23.298  23.669  1.00  0.00     0.000 G0
ENDBRANCH  13  17
ENDBRANCH  11  13
ENDBRANCH  10  11
ENDBRANCH   1  10
TORSDOF 0
ENDMDL
MODEL 9
REMARK VINA RESULT:    -3.703      1.880      3.432
REMARK INTER + INTRA:          -4.894
REMARK INTER:                  -5.356
REMARK INTRA:                   0.462
REMARK UNBOUND:                 0.324
REMARK SMILES CC1=CCC(=C(C)C)C(=O)CC(C)=CCC1
REMARK SMILES IDX 12 1 14 2 13 3 15 4 16 5 2 6 1 7 3 8 11 10 9 11 10 12 5 13
REMARK SMILES IDX 6 14 7 15 8 16 4 17
REMARK H PARENT
REMARK Flexibility Score: 60.00
ROOT
ATOM      1  C   UNL     1     -13.763 -22.820  24.456  1.00  0.00    -0.070 C 
ATOM      2  C   UNL     1     -14.828 -22.463  23.699  1.00  0.00    -0.027 C 
ATOM      3  C   UNL     1     -13.912 -22.777  25.955  1.00  0.00     0.039 C 
ENDROOT
BRANCH   2   4
ATOM      4  C   UNL     1     -14.876 -22.502  22.189  1.00  0.00     0.032 C 
BRANCH   4   5
ATOM      5  C   UNL     1     -13.996 -21.409  21.566  1.00  0.00     0.034 C 
BRANCH   5   6
ATOM      6  C   UNL     1     -13.107 -21.913  20.438  1.00  0.00    -0.077 C 
ATOM      7  C   UNL     1     -13.738 -22.672  19.298  1.00  0.00     0.039 C 
ATOM      8  C   UNL     1     -11.772 -21.699  20.389  1.00  0.00    -0.023 CG0
ATOM      9  G   UNL     1     -10.953 -21.024  21.465  1.00  0.00     0.000 G0
ENDBRANCH   5   6
ENDBRANCH   4   5
ENDBRANCH   2   4
BRANCH   1  10
ATOM     10  C   UNL     1     -12.437 -23.251  23.860  1.00  0.00     0.111 C 
BRANCH  10  11
ATOM     11  C   UNL     1     -11.479 -22.095  23.777  1.00  0.00     0.163 C 
ATOM     12  O   UNL     1     -11.445 -21.252  24.712  1.00  0.00    -0.294 OA
BRANCH  11  13
ATOM     13  C   UNL     1     -10.554 -21.942  22.624  1.00  0.00    -0.002 C 
ATOM     14  C   UNL     1      -9.371 -22.612  22.600  1.00  0.00    -0.069 C 
ATOM     15  C   UNL     1      -8.392 -22.428  21.462  1.00  0.00     0.039 C 
ATOM     16  C   UNL     1      -9.007 -23.597  23.690  1.00  0.00     0.039 C 
BRANCH  13  17
ATOM     17  C   UNL     1     -10.950 -21.026  21.471  1.00  0.00     0.066 CG0
ATOM     18  G   UNL     1     -11.773 -21.710  20.404  1.00  0.00     0.000 G0
ENDBRANCH  13  17
ENDBRANCH  11  13
ENDBRANCH  10  11
ENDBRANCH   1  10
TORSDOF 0
ENDMDL
