MODEL 1
REMARK VINA RESULT:    -1.917      0.000      0.000
REMARK INTER + INTRA:          -1.917
REMARK INTER:                  -1.917
REMARK INTRA:                   0.000
REMARK UNBOUND:                 0.000
REMARK SMILES CC(=O)[O-]
REMARK SMILES IDX 1 1 2 2 3 3 4 4
REMARK H PARENT
REMARK Flexibility Score: inf
ROOT
ATOM      1  C   UNL     1      -1.326  27.207  90.280  1.00  0.00     0.063 C 
ATOM      2  C   UNL     1      -2.023  27.793  91.460  1.00  0.00     0.038 C 
ATOM      3  O   UNL     1      -2.494  27.041  92.353  1.00  0.00    -0.550 OA
ATOM      4  O   UNL     1      -2.109  29.171  91.605  1.00  0.00    -0.550 OA
ENDROOT
TORSDOF 0
ENDMDL
MODEL 2
REMARK VINA RESULT:    -1.812     16.052     16.471
REMARK INTER + INTRA:          -1.812
REMARK INTER:                  -1.812
REMARK INTRA:                   0.000
REMARK UNBOUND:                 0.000
REMARK SMILES CC(=O)[O-]
REMARK SMILES IDX 1 1 2 2 3 3 4 4
REMARK H PARENT
REMARK Flexibility Score: inf
ROOT
ATOM      1  C   UNL     1      -6.184  28.663 108.040  1.00  0.00     0.063 C 
ATOM      2  C   UNL     1      -7.027  29.102 106.892  1.00  0.00     0.038 C 
ATOM      3  O   UNL     1      -6.687  30.100 106.204  1.00  0.00    -0.550 OA
ATOM      4  O   UNL     1      -8.160  28.379 106.543  1.00  0.00    -0.550 OA
ENDROOT
TORSDOF 0
ENDMDL
MODEL 3
REMARK VINA RESULT:    -1.789     15.993     16.307
REMARK INTER + INTRA:          -1.789
REMARK INTER:                  -1.789
REMARK INTRA:                   0.000
REMARK UNBOUND:                 0.000
REMARK SMILES CC(=O)[O-]
REMARK SMILES IDX 1 1 2 2 3 3 4 4
REMARK H PARENT
REMARK Flexibility Score: inf
ROOT
ATOM      1  C   UNL     1      -6.139  28.643 108.123  1.00  0.00     0.063 C 
ATOM      2  C   UNL     1      -5.528  29.566 107.124  1.00  0.00     0.038 C 
ATOM      3  O   UNL     1      -4.277  29.614 106.990  1.00  0.00    -0.550 OA
ATOM      4  O   UNL     1      -6.339  30.337 106.301  1.00  0.00    -0.550 OA
ENDROOT
TORSDOF 0
ENDMDL
MODEL 4
REMARK VINA RESULT:    -1.774     21.448     21.926
REMARK INTER + INTRA:          -1.774
REMARK INTER:                  -1.774
REMARK INTRA:                   0.000
REMARK UNBOUND:                 0.000
REMARK SMILES CC(=O)[O-]
REMARK SMILES IDX 1 1 2 2 3 3 4 4
REMARK H PARENT
REMARK Flexibility Score: inf
ROOT
ATOM      1  C   UNL     1     -21.090  40.523  92.866  1.00  0.00     0.063 C 
ATOM      2  C   UNL     1     -19.613  40.553  93.063  1.00  0.00     0.038 C 
ATOM      3  O   UNL     1     -18.882  39.701  92.493  1.00  0.00    -0.550 OA
ATOM      4  O   UNL     1     -19.033  41.553  93.832  1.00  0.00    -0.550 OA
ENDROOT
TORSDOF 0
ENDMDL
MODEL 5
REMARK VINA RESULT:    -1.765     16.062     16.507
REMARK INTER + INTRA:          -1.765
REMARK INTER:                  -1.765
REMARK INTRA:                   0.000
REMARK UNBOUND:                 0.000
REMARK SMILES CC(=O)[O-]
REMARK SMILES IDX 1 1 2 2 3 3 4 4
REMARK H PARENT
REMARK Flexibility Score: inf
ROOT
ATOM      1  C   UNL     1      -4.659  29.867 107.104  1.00  0.00     0.063 C 
ATOM      2  C   UNL     1      -5.977  29.217 107.355  1.00  0.00     0.038 C 
ATOM      3  O   UNL     1      -6.130  28.461 108.351  1.00  0.00    -0.550 OA
ATOM      4  O   UNL     1      -7.056  29.486 106.523  1.00  0.00    -0.550 OA
ENDROOT
TORSDOF 0
ENDMDL
MODEL 6
REMARK VINA RESULT:    -1.678     21.599     22.092
REMARK INTER + INTRA:          -1.678
REMARK INTER:                  -1.678
REMARK INTRA:                   0.000
REMARK UNBOUND:                 0.000
REMARK SMILES CC(=O)[O-]
REMARK SMILES IDX 1 1 2 2 3 3 4 4
REMARK H PARENT
REMARK Flexibility Score: inf
ROOT
ATOM      1  C   UNL     1     -19.102  41.218  94.042  1.00  0.00     0.063 C 
ATOM      2  C   UNL     1     -19.901  40.533  92.987  1.00  0.00     0.038 C 
ATOM      3  O   UNL     1     -21.123  40.800  92.846  1.00  0.00    -0.550 OA
ATOM      4  O   UNL     1     -19.288  39.637  92.120  1.00  0.00    -0.550 OA
ENDROOT
TORSDOF 0
ENDMDL
MODEL 7
REMARK VINA RESULT:    -1.672     18.013     18.548
REMARK INTER + INTRA:          -1.672
REMARK INTER:                  -1.672
REMARK INTRA:                   0.000
REMARK UNBOUND:                 0.000
REMARK SMILES CC(=O)[O-]
REMARK SMILES IDX 1 1 2 2 3 3 4 4
REMARK H PARENT
REMARK Flexibility Score: inf
ROOT
ATOM      1  C   UNL     1      -0.876  46.457  94.379  1.00  0.00     0.063 C 
ATOM      2  C   UNL     1      -1.671  45.839  95.478  1.00  0.00     0.038 C 
ATOM      3  O   UNL     1      -2.350  44.801  95.261  1.00  0.00    -0.550 OA
ATOM      4  O   UNL     1      -1.623  46.375  96.758  1.00  0.00    -0.550 OA
ENDROOT
TORSDOF 0
ENDMDL
MODEL 8
REMARK VINA RESULT:    -1.620     20.182     20.699
REMARK INTER + INTRA:          -1.620
REMARK INTER:                  -1.620
REMARK INTRA:                   0.000
REMARK UNBOUND:                 0.000
REMARK SMILES CC(=O)[O-]
REMARK SMILES IDX 1 1 2 2 3 3 4 4
REMARK H PARENT
REMARK Flexibility Score: inf
ROOT
ATOM      1  C   UNL     1     -16.989  41.168  95.478  1.00  0.00     0.063 C 
ATOM      2  C   UNL     1     -17.659  40.893  94.175  1.00  0.00     0.038 C 
ATOM      3  O   UNL     1     -17.318  39.895  93.487  1.00  0.00    -0.550 OA
ATOM      4  O   UNL     1     -18.699  41.705  93.742  1.00  0.00    -0.550 OA
ENDROOT
TORSDOF 0
ENDMDL
MODEL 9
REMARK VINA RESULT:    -1.573     13.264     13.801
REMARK INTER + INTRA:          -1.573
REMARK INTER:                  -1.573
REMARK INTRA:                   0.000
REMARK UNBOUND:                 0.000
REMARK SMILES CC(=O)[O-]
REMARK SMILES IDX 1 1 2 2 3 3 4 4
REMARK H PARENT
REMARK Flexibility Score: inf
ROOT
ATOM      1  C   UNL     1      -2.393  39.801  97.863  1.00  0.00     0.063 C 
ATOM      2  C   UNL     1      -2.042  40.452  96.569  1.00  0.00     0.038 C 
ATOM      3  O   UNL     1      -2.377  41.645  96.350  1.00  0.00    -0.550 OA
ATOM      4  O   UNL     1      -1.296  39.762  95.623  1.00  0.00    -0.550 OA
ENDROOT
TORSDOF 0
ENDMDL
