MODEL 1
REMARK VINA RESULT:    -4.921      0.000      0.000
REMARK INTER + INTRA:          -5.606
REMARK INTER:                  -5.353
REMARK INTRA:                  -0.253
REMARK UNBOUND:                -0.253
REMARK SMILES O=C([O-])c1ccccc1O
REMARK SMILES IDX 4 1 9 2 5 3 8 4 6 5 7 6 2 7 1 8 3 9 10 10
REMARK H PARENT 10 11
REMARK Flexibility Score: inf
ROOT
ATOM      1  C   UNL     1       1.223  11.850  -6.856  1.00  0.00     0.039 A 
ATOM      2  C   UNL     1       2.590  11.483  -6.955  1.00  0.00     0.124 A 
ATOM      3  C   UNL     1       0.288  11.223  -7.700  1.00  0.00     0.014 A 
ATOM      4  C   UNL     1       2.989  10.555  -7.925  1.00  0.00     0.047 A 
ATOM      5  C   UNL     1       0.700  10.282  -8.646  1.00  0.00     0.001 A 
ATOM      6  C   UNL     1       2.050   9.957  -8.766  1.00  0.00     0.004 A 
ENDROOT
BRANCH   1   7
ATOM      7  C   UNL     1       0.748  12.899  -5.927  1.00  0.00     0.075 C 
ATOM      8  O   UNL     1      -0.026  13.803  -6.337  1.00  0.00    -0.545 OA
ATOM      9  O   UNL     1       1.197  12.941  -4.612  1.00  0.00    -0.545 OA
ENDBRANCH   1   7
BRANCH   2  10
ATOM     10  O   UNL     1       3.568  11.985  -6.093  1.00  0.00    -0.507 OA
ATOM     11  H   UNL     1       4.178  12.754  -6.333  1.00  0.00     0.293 HD
ENDBRANCH   2  10
TORSDOF 2
ENDMDL
MODEL 2
REMARK VINA RESULT:    -4.890      1.841      3.443
REMARK INTER + INTRA:          -5.572
REMARK INTER:                  -5.320
REMARK INTRA:                  -0.252
REMARK UNBOUND:                -0.253
REMARK SMILES O=C([O-])c1ccccc1O
REMARK SMILES IDX 4 1 9 2 5 3 8 4 6 5 7 6 2 7 1 8 3 9 10 10
REMARK H PARENT 10 11
REMARK Flexibility Score: inf
ROOT
ATOM      1  C   UNL     1       1.453  11.674  -7.532  1.00  0.00     0.039 A 
ATOM      2  C   UNL     1       2.142  12.201  -6.409  1.00  0.00     0.124 A 
ATOM      3  C   UNL     1       0.172  12.170  -7.838  1.00  0.00     0.014 A 
ATOM      4  C   UNL     1       1.516  13.154  -5.597  1.00  0.00     0.047 A 
ATOM      5  C   UNL     1      -0.429  13.137  -7.030  1.00  0.00     0.001 A 
ATOM      6  C   UNL     1       0.237  13.621  -5.905  1.00  0.00     0.004 A 
ENDROOT
BRANCH   1   7
ATOM      7  C   UNL     1       2.013  10.592  -8.371  1.00  0.00     0.075 C 
ATOM      8  O   UNL     1       1.278   9.643  -8.751  1.00  0.00    -0.545 OA
ATOM      9  O   UNL     1       3.364  10.570  -8.696  1.00  0.00    -0.545 OA
ENDBRANCH   1   7
BRANCH   2  10
ATOM     10  O   UNL     1       3.452  11.835  -6.091  1.00  0.00    -0.507 OA
ATOM     11  H   UNL     1       4.147  12.490  -5.758  1.00  0.00     0.293 HD
ENDBRANCH   2  10
TORSDOF 2
ENDMDL
MODEL 3
REMARK VINA RESULT:    -4.846      4.526      6.075
REMARK INTER + INTRA:          -5.524
REMARK INTER:                  -5.276
REMARK INTRA:                  -0.248
REMARK UNBOUND:                -0.253
REMARK SMILES O=C([O-])c1ccccc1O
REMARK SMILES IDX 4 1 9 2 5 3 8 4 6 5 7 6 2 7 1 8 3 9 10 10
REMARK H PARENT 10 11
REMARK Flexibility Score: inf
ROOT
ATOM      1  C   UNL     1      -2.890  11.751  -9.457  1.00  0.00     0.039 A 
ATOM      2  C   UNL     1      -3.984  12.495  -8.945  1.00  0.00     0.124 A 
ATOM      3  C   UNL     1      -3.116  10.846 -10.511  1.00  0.00     0.014 A 
ATOM      4  C   UNL     1      -5.270  12.273  -9.452  1.00  0.00     0.047 A 
ATOM      5  C   UNL     1      -4.402  10.652 -11.020  1.00  0.00     0.001 A 
ATOM      6  C   UNL     1      -5.479  11.357 -10.484  1.00  0.00     0.004 A 
ENDROOT
BRANCH   1   7
ATOM      7  C   UNL     1      -1.525  11.861  -8.898  1.00  0.00     0.075 C 
ATOM      8  O   UNL     1      -0.804  10.834  -8.784  1.00  0.00    -0.545 OA
ATOM      9  O   UNL     1      -1.042  13.077  -8.430  1.00  0.00    -0.545 OA
ENDBRANCH   1   7
BRANCH   2  10
ATOM     10  O   UNL     1      -3.832  13.482  -7.969  1.00  0.00    -0.507 OA
ATOM     11  H   UNL     1      -2.934  13.857  -7.693  1.00  0.00     0.293 HD
ENDBRANCH   2  10
TORSDOF 2
ENDMDL
MODEL 4
REMARK VINA RESULT:    -4.631     13.750     14.831
REMARK INTER + INTRA:          -5.290
REMARK INTER:                  -5.051
REMARK INTRA:                  -0.239
REMARK UNBOUND:                -0.253
REMARK SMILES O=C([O-])c1ccccc1O
REMARK SMILES IDX 4 1 9 2 5 3 8 4 6 5 7 6 2 7 1 8 3 9 10 10
REMARK H PARENT 10 11
REMARK Flexibility Score: inf
ROOT
ATOM      1  C   UNL     1       7.106  12.512 -20.522  1.00  0.00     0.039 A 
ATOM      2  C   UNL     1       8.251  11.829 -20.038  1.00  0.00     0.124 A 
ATOM      3  C   UNL     1       6.647  12.235 -21.823  1.00  0.00     0.014 A 
ATOM      4  C   UNL     1       8.936  10.943 -20.880  1.00  0.00     0.047 A 
ATOM      5  C   UNL     1       7.330  11.332 -22.642  1.00  0.00     0.001 A 
ATOM      6  C   UNL     1       8.478  10.696 -22.175  1.00  0.00     0.004 A 
ENDROOT
BRANCH   1   7
ATOM      7  C   UNL     1       6.397  13.536 -19.724  1.00  0.00     0.075 C 
ATOM      8  O   UNL     1       6.309  13.413 -18.474  1.00  0.00    -0.545 OA
ATOM      9  O   UNL     1       5.764  14.608 -20.342  1.00  0.00    -0.545 OA
ENDBRANCH   1   7
BRANCH   2  10
ATOM     10  O   UNL     1       8.715  11.972 -18.729  1.00  0.00    -0.507 OA
ATOM     11  H   UNL     1       8.293  11.508 -17.936  1.00  0.00     0.293 HD
ENDBRANCH   2  10
TORSDOF 2
ENDMDL
MODEL 5
REMARK VINA RESULT:    -4.601      1.956      3.018
REMARK INTER + INTRA:          -5.258
REMARK INTER:                  -5.009
REMARK INTRA:                  -0.249
REMARK UNBOUND:                -0.253
REMARK SMILES O=C([O-])c1ccccc1O
REMARK SMILES IDX 4 1 9 2 5 3 8 4 6 5 7 6 2 7 1 8 3 9 10 10
REMARK H PARENT 10 11
REMARK Flexibility Score: inf
ROOT
ATOM      1  C   UNL     1       0.285  11.158  -8.164  1.00  0.00     0.039 A 
ATOM      2  C   UNL     1       0.873  12.039  -7.220  1.00  0.00     0.124 A 
ATOM      3  C   UNL     1       1.061  10.107  -8.688  1.00  0.00     0.014 A 
ATOM      4  C   UNL     1       2.221  11.886  -6.875  1.00  0.00     0.047 A 
ATOM      5  C   UNL     1       2.399   9.955  -8.316  1.00  0.00     0.001 A 
ATOM      6  C   UNL     1       2.981  10.849  -7.420  1.00  0.00     0.004 A 
ENDROOT
BRANCH   1   7
ATOM      7  C   UNL     1      -1.102  11.325  -8.650  1.00  0.00     0.075 C 
ATOM      8  O   UNL     1      -1.573  12.479  -8.830  1.00  0.00    -0.545 OA
ATOM      9  O   UNL     1      -1.924  10.223  -8.852  1.00  0.00    -0.545 OA
ENDBRANCH   1   7
BRANCH   2  10
ATOM     10  O   UNL     1       0.148  13.047  -6.580  1.00  0.00    -0.507 OA
ATOM     11  H   UNL     1      -0.050  13.044  -5.588  1.00  0.00     0.293 HD
ENDBRANCH   2  10
TORSDOF 2
ENDMDL
MODEL 6
REMARK VINA RESULT:    -4.564     14.157     15.499
REMARK INTER + INTRA:          -5.218
REMARK INTER:                  -5.002
REMARK INTRA:                  -0.216
REMARK UNBOUND:                -0.253
REMARK SMILES O=C([O-])c1ccccc1O
REMARK SMILES IDX 4 1 9 2 5 3 8 4 6 5 7 6 2 7 1 8 3 9 10 10
REMARK H PARENT 10 11
REMARK Flexibility Score: inf
ROOT
ATOM      1  C   UNL     1      -0.506   5.108 -20.134  1.00  0.00     0.039 A 
ATOM      2  C   UNL     1      -1.111   4.467 -21.246  1.00  0.00     0.124 A 
ATOM      3  C   UNL     1      -1.300   5.921 -19.303  1.00  0.00     0.014 A 
ATOM      4  C   UNL     1      -2.461   4.703 -21.531  1.00  0.00     0.047 A 
ATOM      5  C   UNL     1      -2.651   6.128 -19.589  1.00  0.00     0.001 A 
ATOM      6  C   UNL     1      -3.228   5.528 -20.708  1.00  0.00     0.004 A 
ENDROOT
BRANCH   1   7
ATOM      7  C   UNL     1       0.937   4.986 -19.836  1.00  0.00     0.075 C 
ATOM      8  O   UNL     1       1.410   5.490 -18.783  1.00  0.00    -0.545 OA
ATOM      9  O   UNL     1       1.802   4.376 -20.737  1.00  0.00    -0.545 OA
ENDBRANCH   1   7
BRANCH   2  10
ATOM     10  O   UNL     1      -0.421   3.569 -22.063  1.00  0.00    -0.507 OA
ATOM     11  H   UNL     1      -0.736   2.625 -22.242  1.00  0.00     0.293 HD
ENDBRANCH   2  10
TORSDOF 2
ENDMDL
MODEL 7
REMARK VINA RESULT:    -4.541     14.359     15.625
REMARK INTER + INTRA:          -5.192
REMARK INTER:                  -4.958
REMARK INTRA:                  -0.234
REMARK UNBOUND:                -0.253
REMARK SMILES O=C([O-])c1ccccc1O
REMARK SMILES IDX 4 1 9 2 5 3 8 4 6 5 7 6 2 7 1 8 3 9 10 10
REMARK H PARENT 10 11
REMARK Flexibility Score: inf
ROOT
ATOM      1  C   UNL     1       9.037  11.970 -20.546  1.00  0.00     0.039 A 
ATOM      2  C   UNL     1       7.701  12.321 -20.222  1.00  0.00     0.124 A 
ATOM      3  C   UNL     1       9.331  11.554 -21.858  1.00  0.00     0.014 A 
ATOM      4  C   UNL     1       6.696  12.189 -21.188  1.00  0.00     0.047 A 
ATOM      5  C   UNL     1       8.321  11.449 -22.816  1.00  0.00     0.001 A 
ATOM      6  C   UNL     1       7.003  11.755 -22.479  1.00  0.00     0.004 A 
ENDROOT
BRANCH   1   7
ATOM      7  C   UNL     1      10.127  11.986 -19.546  1.00  0.00     0.075 C 
ATOM      8  O   UNL     1       9.999  11.358 -18.463  1.00  0.00    -0.545 OA
ATOM      9  O   UNL     1      11.273  12.744 -19.755  1.00  0.00    -0.545 OA
ENDBRANCH   1   7
BRANCH   2  10
ATOM     10  O   UNL     1       7.340  12.835 -18.974  1.00  0.00    -0.507 OA
ATOM     11  H   UNL     1       7.010  13.781 -18.837  1.00  0.00     0.293 HD
ENDBRANCH   2  10
TORSDOF 2
ENDMDL
MODEL 8
REMARK VINA RESULT:    -4.498      1.546      2.622
REMARK INTER + INTRA:          -5.146
REMARK INTER:                  -4.893
REMARK INTRA:                  -0.253
REMARK UNBOUND:                -0.253
REMARK SMILES O=C([O-])c1ccccc1O
REMARK SMILES IDX 4 1 9 2 5 3 8 4 6 5 7 6 2 7 1 8 3 9 10 10
REMARK H PARENT 10 11
REMARK Flexibility Score: inf
ROOT
ATOM      1  C   UNL     1       0.746  11.922  -7.251  1.00  0.00     0.039 A 
ATOM      2  C   UNL     1       0.327  10.982  -8.228  1.00  0.00     0.124 A 
ATOM      3  C   UNL     1       2.092  11.923  -6.842  1.00  0.00     0.014 A 
ATOM      4  C   UNL     1       1.239  10.039  -8.718  1.00  0.00     0.047 A 
ATOM      5  C   UNL     1       2.994  10.989  -7.357  1.00  0.00     0.001 A 
ATOM      6  C   UNL     1       2.566  10.042  -8.285  1.00  0.00     0.004 A 
ENDROOT
BRANCH   1   7
ATOM      7  C   UNL     1      -0.188  12.877  -6.617  1.00  0.00     0.075 C 
ATOM      8  O   UNL     1      -0.208  13.003  -5.364  1.00  0.00    -0.545 OA
ATOM      9  O   UNL     1      -1.099  13.597  -7.381  1.00  0.00    -0.545 OA
ENDBRANCH   1   7
BRANCH   2  10
ATOM     10  O   UNL     1      -0.964  10.975  -8.760  1.00  0.00    -0.507 OA
ATOM     11  H   UNL     1      -1.549  11.799  -8.811  1.00  0.00     0.293 HD
ENDBRANCH   2  10
TORSDOF 2
ENDMDL
MODEL 9
REMARK VINA RESULT:    -4.474     14.148     15.495
REMARK INTER + INTRA:          -5.119
REMARK INTER:                  -4.930
REMARK INTRA:                  -0.189
REMARK UNBOUND:                -0.253
REMARK SMILES O=C([O-])c1ccccc1O
REMARK SMILES IDX 4 1 9 2 5 3 8 4 6 5 7 6 2 7 1 8 3 9 10 10
REMARK H PARENT 10 11
REMARK Flexibility Score: inf
ROOT
ATOM      1  C   UNL     1      -1.263   5.439 -20.534  1.00  0.00     0.039 A 
ATOM      2  C   UNL     1      -2.484   5.908 -19.984  1.00  0.00     0.124 A 
ATOM      3  C   UNL     1      -1.193   5.187 -21.917  1.00  0.00     0.014 A 
ATOM      4  C   UNL     1      -3.605   6.053 -20.809  1.00  0.00     0.047 A 
ATOM      5  C   UNL     1      -2.315   5.358 -22.730  1.00  0.00     0.001 A 
ATOM      6  C   UNL     1      -3.523   5.779 -22.175  1.00  0.00     0.004 A 
ENDROOT
BRANCH   1   7
ATOM      7  C   UNL     1      -0.071   5.165 -19.703  1.00  0.00     0.075 C 
ATOM      8  O   UNL     1      -0.020   5.580 -18.515  1.00  0.00    -0.545 OA
ATOM      9  O   UNL     1       1.033   4.508 -20.234  1.00  0.00    -0.545 OA
ENDBRANCH   1   7
BRANCH   2  10
ATOM     10  O   UNL     1      -2.612   6.273 -18.642  1.00  0.00    -0.507 OA
ATOM     11  H   UNL     1      -2.300   7.163 -18.275  1.00  0.00     0.293 HD
ENDBRANCH   2  10
TORSDOF 2
ENDMDL
