MODEL 1
REMARK VINA RESULT:    -3.876      0.000      0.000
REMARK INTER + INTRA:          -6.453
REMARK INTER:                  -5.915
REMARK INTRA:                  -0.538
REMARK UNBOUND:                -0.538
REMARK SMILES O=C([O-])CCCCCCCCC(=O)[O-]
REMARK SMILES IDX 7 1 6 2 5 3 4 4 2 5 1 6 3 7 8 8 9 9 10 10 11 11 12 12 13 13
REMARK SMILES IDX 14 14
REMARK H PARENT
REMARK Flexibility Score: inf
ROOT
ATOM      1  C   UNL     1     176.622 160.062 179.056  1.00  0.00     0.000 C 
ENDROOT
BRANCH   1   2
ATOM      2  C   UNL     1     175.791 160.689 180.187  1.00  0.00     0.000 C 
BRANCH   2   3
ATOM      3  C   UNL     1     176.649 161.499 181.171  1.00  0.00     0.006 C 
BRANCH   3   4
ATOM      4  C   UNL     1     178.015 160.852 181.436  1.00  0.00     0.053 C 
BRANCH   4   5
ATOM      5  C   UNL     1     178.454 161.119 182.841  1.00  0.00     0.041 C 
ATOM      6  O   UNL     1     177.613 161.458 183.715  1.00  0.00    -0.550 OA
ATOM      7  O   UNL     1     179.785 160.946 183.198  1.00  0.00    -0.550 OA
ENDBRANCH   4   5
ENDBRANCH   3   4
ENDBRANCH   2   3
ENDBRANCH   1   2
BRANCH   1   8
ATOM      8  C   UNL     1     175.921 160.234 177.702  1.00  0.00     0.000 C 
BRANCH   8   9
ATOM      9  C   UNL     1     175.877 161.710 177.287  1.00  0.00     0.000 C 
BRANCH   9  10
ATOM     10  C   UNL     1     177.265 162.203 176.862  1.00  0.00     0.006 C 
BRANCH  10  11
ATOM     11  C   UNL     1     177.908 161.239 175.860  1.00  0.00     0.053 C 
BRANCH  11  12
ATOM     12  C   UNL     1     179.333 161.617 175.611  1.00  0.00     0.041 C 
ATOM     13  O   UNL     1     180.124 160.794 175.079  1.00  0.00    -0.550 OA
ATOM     14  O   UNL     1     179.802 162.862 176.011  1.00  0.00    -0.550 OA
ENDBRANCH  11  12
ENDBRANCH  10  11
ENDBRANCH   9  10
ENDBRANCH   8   9
ENDBRANCH   1   8
TORSDOF 9
ENDMDL
MODEL 2
REMARK VINA RESULT:    -3.740     14.927     17.511
REMARK INTER + INTRA:          -6.246
REMARK INTER:                  -5.469
REMARK INTRA:                  -0.777
REMARK UNBOUND:                -0.538
REMARK SMILES O=C([O-])CCCCCCCCC(=O)[O-]
REMARK SMILES IDX 7 1 6 2 5 3 4 4 2 5 1 6 3 7 8 8 9 9 10 10 11 11 12 12 13 13
REMARK SMILES IDX 14 14
REMARK H PARENT
REMARK Flexibility Score: inf
ROOT
ATOM      1  C   UNL     1     161.420 162.757 188.611  1.00  0.00     0.000 C 
ENDROOT
BRANCH   1   2
ATOM      2  C   UNL     1     160.404 161.709 188.132  1.00  0.00     0.000 C 
BRANCH   2   3
ATOM      3  C   UNL     1     159.890 161.988 186.712  1.00  0.00     0.006 C 
BRANCH   3   4
ATOM      4  C   UNL     1     160.265 160.879 185.719  1.00  0.00     0.053 C 
BRANCH   4   5
ATOM      5  C   UNL     1     161.592 161.170 185.091  1.00  0.00     0.041 C 
ATOM      6  O   UNL     1     162.309 160.229 184.660  1.00  0.00    -0.550 OA
ATOM      7  O   UNL     1     162.015 162.483 184.937  1.00  0.00    -0.550 OA
ENDBRANCH   4   5
ENDBRANCH   3   4
ENDBRANCH   2   3
ENDBRANCH   1   2
BRANCH   1   8
ATOM      8  C   UNL     1     162.856 162.245 188.444  1.00  0.00     0.000 C 
BRANCH   8   9
ATOM      9  C   UNL     1     162.904 160.713 188.498  1.00  0.00     0.000 C 
BRANCH   9  10
ATOM     10  C   UNL     1     164.343 160.212 188.672  1.00  0.00     0.006 C 
BRANCH  10  11
ATOM     11  C   UNL     1     165.328 161.383 188.729  1.00  0.00     0.053 C 
BRANCH  11  12
ATOM     12  C   UNL     1     166.596 161.037 188.013  1.00  0.00     0.041 C 
ATOM     13  O   UNL     1     167.652 161.681 188.245  1.00  0.00    -0.550 OA
ATOM     14  O   UNL     1     166.599 160.033 187.052  1.00  0.00    -0.550 OA
ENDBRANCH  11  12
ENDBRANCH  10  11
ENDBRANCH   9  10
ENDBRANCH   8   9
ENDBRANCH   1   8
TORSDOF 9
ENDMDL
MODEL 3
REMARK VINA RESULT:    -3.655     16.421     18.293
REMARK INTER + INTRA:          -6.117
REMARK INTER:                  -5.123
REMARK INTRA:                  -0.994
REMARK UNBOUND:                -0.538
REMARK SMILES O=C([O-])CCCCCCCCC(=O)[O-]
REMARK SMILES IDX 7 1 6 2 5 3 4 4 2 5 1 6 3 7 8 8 9 9 10 10 11 11 12 12 13 13
REMARK SMILES IDX 14 14
REMARK H PARENT
REMARK Flexibility Score: inf
ROOT
ATOM      1  C   UNL     1     161.123 164.479 187.259  1.00  0.00     0.000 C 
ENDROOT
BRANCH   1   2
ATOM      2  C   UNL     1     159.876 163.926 186.553  1.00  0.00     0.000 C 
BRANCH   2   3
ATOM      3  C   UNL     1     160.116 163.643 185.062  1.00  0.00     0.006 C 
BRANCH   3   4
ATOM      4  C   UNL     1     160.202 162.143 184.752  1.00  0.00     0.053 C 
BRANCH   4   5
ATOM      5  C   UNL     1     161.624 161.681 184.799  1.00  0.00     0.041 C 
ATOM      6  O   UNL     1     162.565 162.518 184.754  1.00  0.00    -0.550 OA
ATOM      7  O   UNL     1     161.912 160.330 184.942  1.00  0.00    -0.550 OA
ENDBRANCH   4   5
ENDBRANCH   3   4
ENDBRANCH   2   3
ENDBRANCH   1   2
BRANCH   1   8
ATOM      8  C   UNL     1     161.409 163.707 188.554  1.00  0.00     0.000 C 
BRANCH   8   9
ATOM      9  C   UNL     1     160.815 162.294 188.494  1.00  0.00     0.000 C 
BRANCH   9  10
ATOM     10  C   UNL     1     161.921 161.234 188.441  1.00  0.00     0.006 C 
BRANCH  10  11
ATOM     11  C   UNL     1     163.302 161.886 188.325  1.00  0.00     0.053 C 
BRANCH  11  12
ATOM     12  C   UNL     1     164.357 160.846 188.117  1.00  0.00     0.041 C 
ATOM     13  O   UNL     1     164.180 159.923 187.279  1.00  0.00    -0.550 OA
ATOM     14  O   UNL     1     165.515 160.867 188.884  1.00  0.00    -0.550 OA
ENDBRANCH  11  12
ENDBRANCH  10  11
ENDBRANCH   9  10
ENDBRANCH   8   9
ENDBRANCH   1   8
TORSDOF 9
ENDMDL
MODEL 4
REMARK VINA RESULT:    -3.650     10.609     13.410
REMARK INTER + INTRA:          -6.109
REMARK INTER:                  -5.672
REMARK INTRA:                  -0.436
REMARK UNBOUND:                -0.538
REMARK SMILES O=C([O-])CCCCCCCCC(=O)[O-]
REMARK SMILES IDX 7 1 6 2 5 3 4 4 2 5 1 6 3 7 8 8 9 9 10 10 11 11 12 12 13 13
REMARK SMILES IDX 14 14
REMARK H PARENT
REMARK Flexibility Score: inf
ROOT
ATOM      1  C   UNL     1     178.859 169.239 187.790  1.00  0.00     0.000 C 
ENDROOT
BRANCH   1   2
ATOM      2  C   UNL     1     180.112 168.417 188.129  1.00  0.00     0.000 C 
BRANCH   2   3
ATOM      3  C   UNL     1     180.125 167.045 187.437  1.00  0.00     0.006 C 
BRANCH   3   4
ATOM      4  C   UNL     1     178.791 166.716 186.753  1.00  0.00     0.053 C 
BRANCH   4   5
ATOM      5  C   UNL     1     178.245 165.423 187.271  1.00  0.00     0.041 C 
ATOM      6  O   UNL     1     178.034 165.271 188.503  1.00  0.00    -0.550 OA
ATOM      7  O   UNL     1     177.925 164.400 186.387  1.00  0.00    -0.550 OA
ENDBRANCH   4   5
ENDBRANCH   3   4
ENDBRANCH   2   3
ENDBRANCH   1   2
BRANCH   1   8
ATOM      8  C   UNL     1     178.790 170.511 188.644  1.00  0.00     0.000 C 
BRANCH   8   9
ATOM      9  C   UNL     1     180.060 171.356 188.478  1.00  0.00     0.000 C 
BRANCH   9  10
ATOM     10  C   UNL     1     179.730 172.853 188.481  1.00  0.00     0.006 C 
BRANCH  10  11
ATOM     11  C   UNL     1     178.276 173.096 188.063  1.00  0.00     0.053 C 
BRANCH  11  12
ATOM     12  C   UNL     1     178.107 174.488 187.541  1.00  0.00     0.041 C 
ATOM     13  O   UNL     1     177.142 175.197 187.928  1.00  0.00    -0.550 OA
ATOM     14  O   UNL     1     178.989 174.985 186.589  1.00  0.00    -0.550 OA
ENDBRANCH  11  12
ENDBRANCH  10  11
ENDBRANCH   9  10
ENDBRANCH   8   9
ENDBRANCH   1   8
TORSDOF 9
ENDMDL
MODEL 5
REMARK VINA RESULT:    -3.641      1.677      2.267
REMARK INTER + INTRA:          -6.096
REMARK INTER:                  -5.743
REMARK INTRA:                  -0.352
REMARK UNBOUND:                -0.538
REMARK SMILES O=C([O-])CCCCCCCCC(=O)[O-]
REMARK SMILES IDX 7 1 6 2 5 3 4 4 2 5 1 6 3 7 8 8 9 9 10 10 11 11 12 12 13 13
REMARK SMILES IDX 14 14
REMARK H PARENT
REMARK Flexibility Score: inf
ROOT
ATOM      1  C   UNL     1     176.923 160.945 180.440  1.00  0.00     0.000 C 
ENDROOT
BRANCH   1   2
ATOM      2  C   UNL     1     177.965 160.766 181.555  1.00  0.00     0.000 C 
BRANCH   2   3
ATOM      3  C   UNL     1     177.493 161.335 182.902  1.00  0.00     0.006 C 
BRANCH   3   4
ATOM      4  C   UNL     1     175.975 161.557 182.951  1.00  0.00     0.053 C 
BRANCH   4   5
ATOM      5  C   UNL     1     175.331 160.550 183.852  1.00  0.00     0.041 C 
ATOM      6  O   UNL     1     174.113 160.262 183.713  1.00  0.00    -0.550 OA
ATOM      7  O   UNL     1     176.087 159.893 184.813  1.00  0.00    -0.550 OA
ENDBRANCH   4   5
ENDBRANCH   3   4
ENDBRANCH   2   3
ENDBRANCH   1   2
BRANCH   1   8
ATOM      8  C   UNL     1     177.413 160.323 179.127  1.00  0.00     0.000 C 
BRANCH   8   9
ATOM      9  C   UNL     1     177.198 161.282 177.949  1.00  0.00     0.000 C 
BRANCH   9  10
ATOM     10  C   UNL     1     177.341 160.550 176.610  1.00  0.00     0.006 C 
BRANCH  10  11
ATOM     11  C   UNL     1     177.842 161.498 175.516  1.00  0.00     0.053 C 
BRANCH  11  12
ATOM     12  C   UNL     1     179.322 161.691 175.629  1.00  0.00     0.041 C 
ATOM     13  O   UNL     1     180.108 160.751 175.342  1.00  0.00    -0.550 OA
ATOM     14  O   UNL     1     179.831 162.895 176.100  1.00  0.00    -0.550 OA
ENDBRANCH  11  12
ENDBRANCH  10  11
ENDBRANCH   9  10
ENDBRANCH   8   9
ENDBRANCH   1   8
TORSDOF 9
ENDMDL
MODEL 6
REMARK VINA RESULT:    -3.638     15.591     16.619
REMARK INTER + INTRA:          -6.091
REMARK INTER:                  -5.518
REMARK INTRA:                  -0.573
REMARK UNBOUND:                -0.538
REMARK SMILES O=C([O-])CCCCCCCCC(=O)[O-]
REMARK SMILES IDX 7 1 6 2 5 3 4 4 2 5 1 6 3 7 8 8 9 9 10 10 11 11 12 12 13 13
REMARK SMILES IDX 14 14
REMARK H PARENT
REMARK Flexibility Score: inf
ROOT
ATOM      1  C   UNL     1     163.806 160.601 188.058  1.00  0.00     0.000 C 
ENDROOT
BRANCH   1   2
ATOM      2  C   UNL     1     164.740 160.191 189.207  1.00  0.00     0.000 C 
BRANCH   2   3
ATOM      3  C   UNL     1     166.145 160.798 189.073  1.00  0.00     0.006 C 
BRANCH   3   4
ATOM      4  C   UNL     1     166.586 161.551 190.337  1.00  0.00     0.053 C 
BRANCH   4   5
ATOM      5  C   UNL     1     166.566 163.028 190.096  1.00  0.00     0.041 C 
ATOM      6  O   UNL     1     165.481 163.665 190.154  1.00  0.00    -0.550 OA
ATOM      7  O   UNL     1     167.752 163.709 189.857  1.00  0.00    -0.550 OA
ENDBRANCH   4   5
ENDBRANCH   3   4
ENDBRANCH   2   3
ENDBRANCH   1   2
BRANCH   1   8
ATOM      8  C   UNL     1     162.860 161.727 188.496  1.00  0.00     0.000 C 
BRANCH   8   9
ATOM      9  C   UNL     1     161.429 161.463 188.012  1.00  0.00     0.000 C 
BRANCH   9  10
ATOM     10  C   UNL     1     161.196 162.074 186.625  1.00  0.00     0.006 C 
BRANCH  10  11
ATOM     11  C   UNL     1     161.158 160.989 185.545  1.00  0.00     0.053 C 
BRANCH  11  12
ATOM     12  C   UNL     1     162.399 161.037 184.712  1.00  0.00     0.041 C 
ATOM     13  O   UNL     1     162.815 159.999 184.132  1.00  0.00    -0.550 OA
ATOM     14  O   UNL     1     163.126 162.217 184.614  1.00  0.00    -0.550 OA
ENDBRANCH  11  12
ENDBRANCH  10  11
ENDBRANCH   9  10
ENDBRANCH   8   9
ENDBRANCH   1   8
TORSDOF 9
ENDMDL
MODEL 7
REMARK VINA RESULT:    -3.603      6.883     10.766
REMARK INTER + INTRA:          -6.037
REMARK INTER:                  -5.160
REMARK INTRA:                  -0.876
REMARK UNBOUND:                -0.538
REMARK SMILES O=C([O-])CCCCCCCCC(=O)[O-]
REMARK SMILES IDX 7 1 6 2 5 3 4 4 2 5 1 6 3 7 8 8 9 9 10 10 11 11 12 12 13 13
REMARK SMILES IDX 14 14
REMARK H PARENT
REMARK Flexibility Score: inf
ROOT
ATOM      1  C   UNL     1     175.733 160.632 188.541  1.00  0.00     0.000 C 
ENDROOT
BRANCH   1   2
ATOM      2  C   UNL     1     174.523 161.349 187.922  1.00  0.00     0.000 C 
BRANCH   2   3
ATOM      3  C   UNL     1     173.976 160.623 186.683  1.00  0.00     0.006 C 
BRANCH   3   4
ATOM      4  C   UNL     1     175.078 159.934 185.867  1.00  0.00     0.053 C 
BRANCH   4   5
ATOM      5  C   UNL     1     175.611 160.864 184.822  1.00  0.00     0.041 C 
ATOM      6  O   UNL     1     176.710 161.453 184.998  1.00  0.00    -0.550 OA
ATOM      7  O   UNL     1     174.918 161.041 183.632  1.00  0.00    -0.550 OA
ENDBRANCH   4   5
ENDBRANCH   3   4
ENDBRANCH   2   3
ENDBRANCH   1   2
BRANCH   1   8
ATOM      8  C   UNL     1     176.893 161.610 188.765  1.00  0.00     0.000 C 
BRANCH   8   9
ATOM      9  C   UNL     1     176.508 163.030 188.332  1.00  0.00     0.000 C 
BRANCH   9  10
ATOM     10  C   UNL     1     177.048 164.072 189.319  1.00  0.00     0.006 C 
BRANCH  10  11
ATOM     11  C   UNL     1     176.033 164.354 190.430  1.00  0.00     0.053 C 
BRANCH  11  12
ATOM     12  C   UNL     1     174.803 164.992 189.866  1.00  0.00     0.041 C 
ATOM     13  O   UNL     1     174.853 166.158 189.394  1.00  0.00    -0.550 OA
ATOM     14  O   UNL     1     173.588 164.318 189.908  1.00  0.00    -0.550 OA
ENDBRANCH  11  12
ENDBRANCH  10  11
ENDBRANCH   9  10
ENDBRANCH   8   9
ENDBRANCH   1   8
TORSDOF 9
ENDMDL
MODEL 8
REMARK VINA RESULT:    -3.544     15.097     17.361
REMARK INTER + INTRA:          -5.948
REMARK INTER:                  -5.066
REMARK INTRA:                  -0.881
REMARK UNBOUND:                -0.538
REMARK SMILES O=C([O-])CCCCCCCCC(=O)[O-]
REMARK SMILES IDX 7 1 6 2 5 3 4 4 2 5 1 6 3 7 8 8 9 9 10 10 11 11 12 12 13 13
REMARK SMILES IDX 14 14
REMARK H PARENT
REMARK Flexibility Score: inf
ROOT
ATOM      1  C   UNL     1     162.300 162.300 188.343  1.00  0.00     0.000 C 
ENDROOT
BRANCH   1   2
ATOM      2  C   UNL     1     162.884 160.930 188.722  1.00  0.00     0.000 C 
BRANCH   2   3
ATOM      3  C   UNL     1     164.305 160.721 188.175  1.00  0.00     0.006 C 
BRANCH   3   4
ATOM      4  C   UNL     1     164.728 161.823 187.193  1.00  0.00     0.053 C 
BRANCH   4   5
ATOM      5  C   UNL     1     165.348 161.221 185.972  1.00  0.00     0.041 C 
ATOM      6  O   UNL     1     166.084 161.919 185.225  1.00  0.00    -0.550 OA
ATOM      7  O   UNL     1     165.153 159.877 185.684  1.00  0.00    -0.550 OA
ENDBRANCH   4   5
ENDBRANCH   3   4
ENDBRANCH   2   3
ENDBRANCH   1   2
BRANCH   1   8
ATOM      8  C   UNL     1     160.854 162.435 188.838  1.00  0.00     0.000 C 
BRANCH   8   9
ATOM      9  C   UNL     1     159.875 161.757 187.871  1.00  0.00     0.000 C 
BRANCH   9  10
ATOM     10  C   UNL     1     159.924 162.416 186.487  1.00  0.00     0.006 C 
BRANCH  10  11
ATOM     11  C   UNL     1     160.099 161.367 185.385  1.00  0.00     0.053 C 
BRANCH  11  12
ATOM     12  C   UNL     1     161.516 161.343 184.906  1.00  0.00     0.041 C 
ATOM     13  O   UNL     1     162.119 160.247 184.760  1.00  0.00    -0.550 OA
ATOM     14  O   UNL     1     162.189 162.536 184.666  1.00  0.00    -0.550 OA
ENDBRANCH  11  12
ENDBRANCH  10  11
ENDBRANCH   9  10
ENDBRANCH   8   9
ENDBRANCH   1   8
TORSDOF 9
ENDMDL
MODEL 9
REMARK VINA RESULT:    -3.424     15.195     17.510
REMARK INTER + INTRA:          -5.763
REMARK INTER:                  -5.031
REMARK INTRA:                  -0.732
REMARK UNBOUND:                -0.538
REMARK SMILES O=C([O-])CCCCCCCCC(=O)[O-]
REMARK SMILES IDX 7 1 6 2 5 3 4 4 2 5 1 6 3 7 8 8 9 9 10 10 11 11 12 12 13 13
REMARK SMILES IDX 14 14
REMARK H PARENT
REMARK Flexibility Score: inf
ROOT
ATOM      1  C   UNL     1     163.421 162.334 188.225  1.00  0.00     0.000 C 
ENDROOT
BRANCH   1   2
ATOM      2  C   UNL     1     163.120 160.852 188.496  1.00  0.00     0.000 C 
BRANCH   2   3
ATOM      3  C   UNL     1     164.344 159.949 188.273  1.00  0.00     0.006 C 
BRANCH   3   4
ATOM      4  C   UNL     1     165.586 160.736 187.831  1.00  0.00     0.053 C 
BRANCH   4   5
ATOM      5  C   UNL     1     166.675 160.602 188.848  1.00  0.00     0.041 C 
ATOM      6  O   UNL     1     167.875 160.487 188.481  1.00  0.00    -0.550 OA
ATOM      7  O   UNL     1     166.372 160.652 190.202  1.00  0.00    -0.550 OA
ENDBRANCH   4   5
ENDBRANCH   3   4
ENDBRANCH   2   3
ENDBRANCH   1   2
BRANCH   1   8
ATOM      8  C   UNL     1     162.141 163.176 188.298  1.00  0.00     0.000 C 
BRANCH   8   9
ATOM      9  C   UNL     1     160.930 162.306 188.658  1.00  0.00     0.000 C 
BRANCH   9  10
ATOM     10  C   UNL     1     159.875 162.343 187.546  1.00  0.00     0.006 C 
BRANCH  10  11
ATOM     11  C   UNL     1     159.875 161.038 186.745  1.00  0.00     0.053 C 
BRANCH  11  12
ATOM     12  C   UNL     1     160.628 161.209 185.464  1.00  0.00     0.041 C 
ATOM     13  O   UNL     1     160.350 162.160 184.687  1.00  0.00    -0.550 OA
ATOM     14  O   UNL     1     161.605 160.289 185.103  1.00  0.00    -0.550 OA
ENDBRANCH  11  12
ENDBRANCH  10  11
ENDBRANCH   9  10
ENDBRANCH   8   9
ENDBRANCH   1   8
TORSDOF 9
ENDMDL
