MODEL 1
REMARK VINA RESULT:    -7.331      0.000      0.000
REMARK INTER + INTRA:          -9.162
REMARK INTER:                  -8.831
REMARK INTRA:                  -0.331
REMARK UNBOUND:                -0.331
REMARK SMILES Oc1cc(O)c2cc(O)c(-c3ccc(O)c(O)c3)[o+]c2c1
REMARK SMILES IDX 10 1 19 2 20 3 21 4 2 5 3 6 4 7 6 8 7 9 8 10 11 11 12 12
REMARK SMILES IDX 13 13 14 14 18 15 16 16 15 17 17 19 9 21 1 23 5 25
REMARK H PARENT 15 18 17 20 9 22 1 24 5 26
REMARK Flexibility Score: inf
ROOT
ATOM      1  C   UNL     1       3.851   0.337 -23.291  1.00  0.00     0.402 A 
ATOM      2  O   UNL     1       2.575   0.027 -23.495  1.00  0.00    -0.202 OA
ATOM      3  C   UNL     1       2.113  -1.219 -23.467  1.00  0.00     0.368 A 
ATOM      4  C   UNL     1       0.752  -1.445 -23.691  1.00  0.00     0.162 A 
ATOM      5  C   UNL     1       0.239  -2.745 -23.663  1.00  0.00     0.128 A 
ATOM      6  C   UNL     1       1.091  -3.823 -23.411  1.00  0.00     0.093 A 
ATOM      7  C   UNL     1       2.457  -3.623 -23.183  1.00  0.00     0.136 A 
ATOM      8  C   UNL     1       2.983  -2.306 -23.212  1.00  0.00     0.125 A 
ATOM      9  C   UNL     1       4.342  -2.011 -23.008  1.00  0.00     0.078 A 
ATOM     10  C   UNL     1       4.787  -0.688 -23.056  1.00  0.00     0.223 A 
ENDROOT
BRANCH   1  11
ATOM     11  C   UNL     1       4.241   1.765 -23.337  1.00  0.00     0.087 A 
ATOM     12  C   UNL     1       4.410   2.474 -22.137  1.00  0.00     0.022 A 
ATOM     13  C   UNL     1       4.796   3.817 -22.157  1.00  0.00     0.051 A 
ATOM     14  C   UNL     1       5.034   4.465 -23.375  1.00  0.00     0.157 A 
ATOM     15  C   UNL     1       4.500   2.415 -24.557  1.00  0.00     0.068 A 
ATOM     16  C   UNL     1       4.890   3.763 -24.577  1.00  0.00     0.158 A 
BRANCH  14  17
ATOM     17  O   UNL     1       5.418   5.805 -23.399  1.00  0.00    -0.504 OA
ATOM     18  H   UNL     1       6.140   6.160 -22.784  1.00  0.00     0.293 HD
ENDBRANCH  14  17
BRANCH  16  19
ATOM     19  O   UNL     1       5.141   4.406 -25.788  1.00  0.00    -0.504 OA
ATOM     20  H   UNL     1       5.492   3.903 -26.594  1.00  0.00     0.293 HD
ENDBRANCH  16  19
ENDBRANCH   1  11
BRANCH  10  21
ATOM     21  O   UNL     1       6.144  -0.400 -22.904  1.00  0.00    -0.500 OA
ATOM     22  H   UNL     1       6.633  -0.581 -22.036  1.00  0.00     0.294 HD
ENDBRANCH  10  21
BRANCH   5  23
ATOM     23  O   UNL     1      -1.116  -2.978 -23.886  1.00  0.00    -0.507 OA
ATOM     24  H   UNL     1      -1.820  -2.690 -23.217  1.00  0.00     0.293 HD
ENDBRANCH   5  23
BRANCH   7  25
ATOM     25  O   UNL     1       3.240  -4.754 -22.934  1.00  0.00    -0.507 OA
ATOM     26  H   UNL     1       3.088  -5.397 -22.169  1.00  0.00     0.293 HD
ENDBRANCH   7  25
TORSDOF 6
ENDMDL
MODEL 2
REMARK VINA RESULT:    -6.872      1.839      6.910
REMARK INTER + INTRA:          -8.609
REMARK INTER:                  -8.285
REMARK INTRA:                  -0.324
REMARK UNBOUND:                -0.331
REMARK SMILES Oc1cc(O)c2cc(O)c(-c3ccc(O)c(O)c3)[o+]c2c1
REMARK SMILES IDX 10 1 19 2 20 3 21 4 2 5 3 6 4 7 6 8 7 9 8 10 11 11 12 12
REMARK SMILES IDX 13 13 14 14 18 15 16 16 15 17 17 19 9 21 1 23 5 25
REMARK H PARENT 15 18 17 20 9 22 1 24 5 26
REMARK Flexibility Score: inf
ROOT
ATOM      1  C   UNL     1       4.378   0.819 -23.576  1.00  0.00     0.402 A 
ATOM      2  O   UNL     1       3.683   1.545 -24.447  1.00  0.00    -0.202 OA
ATOM      3  C   UNL     1       3.905   2.837 -24.661  1.00  0.00     0.368 A 
ATOM      4  C   UNL     1       3.124   3.516 -25.601  1.00  0.00     0.162 A 
ATOM      5  C   UNL     1       3.339   4.874 -25.848  1.00  0.00     0.128 A 
ATOM      6  C   UNL     1       4.339   5.558 -25.152  1.00  0.00     0.093 A 
ATOM      7  C   UNL     1       5.135   4.902 -24.206  1.00  0.00     0.136 A 
ATOM      8  C   UNL     1       4.919   3.523 -23.950  1.00  0.00     0.125 A 
ATOM      9  C   UNL     1       5.660   2.787 -23.010  1.00  0.00     0.078 A 
ATOM     10  C   UNL     1       5.386   1.431 -22.809  1.00  0.00     0.223 A 
ENDROOT
BRANCH   1  11
ATOM     11  C   UNL     1       4.042  -0.617 -23.436  1.00  0.00     0.087 A 
ATOM     12  C   UNL     1       4.598  -1.546 -24.330  1.00  0.00     0.022 A 
ATOM     13  C   UNL     1       4.310  -2.908 -24.204  1.00  0.00     0.051 A 
ATOM     14  C   UNL     1       3.476  -3.361 -23.175  1.00  0.00     0.157 A 
ATOM     15  C   UNL     1       3.221  -1.079 -22.392  1.00  0.00     0.068 A 
ATOM     16  C   UNL     1       2.934  -2.446 -22.264  1.00  0.00     0.158 A 
BRANCH  14  17
ATOM     17  O   UNL     1       3.185  -4.718 -23.047  1.00  0.00    -0.504 OA
ATOM     18  H   UNL     1       2.249  -5.076 -23.196  1.00  0.00     0.293 HD
ENDBRANCH  14  17
BRANCH  16  19
ATOM     19  O   UNL     1       2.115  -2.902 -21.232  1.00  0.00    -0.504 OA
ATOM     20  H   UNL     1       1.298  -3.472 -21.415  1.00  0.00     0.293 HD
ENDBRANCH  16  19
ENDBRANCH   1  11
BRANCH  10  21
ATOM     21  O   UNL     1       6.087   0.713 -21.840  1.00  0.00    -0.500 OA
ATOM     22  H   UNL     1       5.655   0.433 -20.967  1.00  0.00     0.294 HD
ENDBRANCH  10  21
BRANCH   5  23
ATOM     23  O   UNL     1       2.564   5.557 -26.783  1.00  0.00    -0.507 OA
ATOM     24  H   UNL     1       2.842   5.622 -27.756  1.00  0.00     0.293 HD
ENDBRANCH   5  23
BRANCH   7  25
ATOM     25  O   UNL     1       6.115   5.657 -23.556  1.00  0.00    -0.507 OA
ATOM     26  H   UNL     1       7.096   5.416 -23.530  1.00  0.00     0.293 HD
ENDBRANCH   7  25
TORSDOF 6
ENDMDL
MODEL 3
REMARK VINA RESULT:    -6.864      1.918      6.821
REMARK INTER + INTRA:          -8.599
REMARK INTER:                  -8.247
REMARK INTRA:                  -0.352
REMARK UNBOUND:                -0.331
REMARK SMILES Oc1cc(O)c2cc(O)c(-c3ccc(O)c(O)c3)[o+]c2c1
REMARK SMILES IDX 10 1 19 2 20 3 21 4 2 5 3 6 4 7 6 8 7 9 8 10 11 11 12 12
REMARK SMILES IDX 13 13 14 14 18 15 16 16 15 17 17 19 9 21 1 23 5 25
REMARK H PARENT 15 18 17 20 9 22 1 24 5 26
REMARK Flexibility Score: inf
ROOT
ATOM      1  C   UNL     1       4.520   0.953 -23.472  1.00  0.00     0.402 A 
ATOM      2  O   UNL     1       3.811   1.685 -24.326  1.00  0.00    -0.202 OA
ATOM      3  C   UNL     1       3.999   2.989 -24.501  1.00  0.00     0.368 A 
ATOM      4  C   UNL     1       3.205   3.674 -25.426  1.00  0.00     0.162 A 
ATOM      5  C   UNL     1       3.385   5.044 -25.631  1.00  0.00     0.128 A 
ATOM      6  C   UNL     1       4.362   5.734 -24.909  1.00  0.00     0.093 A 
ATOM      7  C   UNL     1       5.170   5.071 -23.977  1.00  0.00     0.136 A 
ATOM      8  C   UNL     1       4.990   3.680 -23.763  1.00  0.00     0.125 A 
ATOM      9  C   UNL     1       5.745   2.936 -22.840  1.00  0.00     0.078 A 
ATOM     10  C   UNL     1       5.508   1.568 -22.681  1.00  0.00     0.223 A 
ENDROOT
BRANCH   1  11
ATOM     11  C   UNL     1       4.222  -0.495 -23.376  1.00  0.00     0.087 A 
ATOM     12  C   UNL     1       3.231  -0.938 -22.486  1.00  0.00     0.022 A 
ATOM     13  C   UNL     1       2.919  -2.298 -22.393  1.00  0.00     0.051 A 
ATOM     14  C   UNL     1       3.584  -3.230 -23.199  1.00  0.00     0.157 A 
ATOM     15  C   UNL     1       4.872  -1.433 -24.198  1.00  0.00     0.068 A 
ATOM     16  C   UNL     1       4.558  -2.798 -24.106  1.00  0.00     0.158 A 
BRANCH  14  17
ATOM     17  O   UNL     1       3.277  -4.587 -23.108  1.00  0.00    -0.504 OA
ATOM     18  H   UNL     1       3.977  -5.271 -22.845  1.00  0.00     0.293 HD
ENDBRANCH  14  17
BRANCH  16  19
ATOM     19  O   UNL     1       5.208  -3.727 -24.918  1.00  0.00    -0.504 OA
ATOM     20  H   UNL     1       6.144  -4.051 -24.708  1.00  0.00     0.293 HD
ENDBRANCH  16  19
ENDBRANCH   1  11
BRANCH  10  21
ATOM     21  O   UNL     1       6.222   0.840 -21.729  1.00  0.00    -0.500 OA
ATOM     22  H   UNL     1       5.966   0.849 -20.749  1.00  0.00     0.294 HD
ENDBRANCH  10  21
BRANCH   5  23
ATOM     23  O   UNL     1       2.598   5.733 -26.550  1.00  0.00    -0.507 OA
ATOM     24  H   UNL     1       2.829   5.752 -27.537  1.00  0.00     0.293 HD
ENDBRANCH   5  23
BRANCH   7  25
ATOM     25  O   UNL     1       6.127   5.832 -23.299  1.00  0.00    -0.507 OA
ATOM     26  H   UNL     1       6.857   6.365 -23.751  1.00  0.00     0.293 HD
ENDBRANCH   7  25
TORSDOF 6
ENDMDL
MODEL 4
REMARK VINA RESULT:    -6.723      1.942      7.222
REMARK INTER + INTRA:          -8.430
REMARK INTER:                  -8.087
REMARK INTRA:                  -0.343
REMARK UNBOUND:                -0.331
REMARK SMILES Oc1cc(O)c2cc(O)c(-c3ccc(O)c(O)c3)[o+]c2c1
REMARK SMILES IDX 10 1 19 2 20 3 21 4 2 5 3 6 4 7 6 8 7 9 8 10 11 11 12 12
REMARK SMILES IDX 13 13 14 14 18 15 16 16 15 17 17 19 9 21 1 23 5 25
REMARK H PARENT 15 18 17 20 9 22 1 24 5 26
REMARK Flexibility Score: inf
ROOT
ATOM      1  C   UNL     1       3.818   1.008 -24.273  1.00  0.00     0.402 A 
ATOM      2  O   UNL     1       4.506   1.830 -23.486  1.00  0.00    -0.202 OA
ATOM      3  C   UNL     1       4.616   3.134 -23.711  1.00  0.00     0.368 A 
ATOM      4  C   UNL     1       5.359   3.918 -22.823  1.00  0.00     0.162 A 
ATOM      5  C   UNL     1       5.487   5.293 -23.035  1.00  0.00     0.128 A 
ATOM      6  C   UNL     1       4.871   5.888 -24.139  1.00  0.00     0.093 A 
ATOM      7  C   UNL     1       4.121   5.126 -25.042  1.00  0.00     0.136 A 
ATOM      8  C   UNL     1       3.990   3.728 -24.833  1.00  0.00     0.125 A 
ATOM      9  C   UNL     1       3.268   2.883 -25.693  1.00  0.00     0.078 A 
ATOM     10  C   UNL     1       3.186   1.514 -25.424  1.00  0.00     0.223 A 
ENDROOT
BRANCH   1  11
ATOM     11  C   UNL     1       3.761  -0.427 -23.908  1.00  0.00     0.087 A 
ATOM     12  C   UNL     1       2.747  -0.881 -23.050  1.00  0.00     0.022 A 
ATOM     13  C   UNL     1       2.662  -2.234 -22.708  1.00  0.00     0.051 A 
ATOM     14  C   UNL     1       3.580  -3.152 -23.232  1.00  0.00     0.157 A 
ATOM     15  C   UNL     1       4.669  -1.356 -24.447  1.00  0.00     0.068 A 
ATOM     16  C   UNL     1       4.583  -2.715 -24.106  1.00  0.00     0.158 A 
BRANCH  14  17
ATOM     17  O   UNL     1       3.501  -4.502 -22.892  1.00  0.00    -0.504 OA
ATOM     18  H   UNL     1       4.006  -5.210 -23.412  1.00  0.00     0.293 HD
ENDBRANCH  14  17
BRANCH  16  19
ATOM     19  O   UNL     1       5.487  -3.634 -24.636  1.00  0.00    -0.504 OA
ATOM     20  H   UNL     1       5.356  -4.632 -24.524  1.00  0.00     0.293 HD
ENDBRANCH  16  19
ENDBRANCH   1  11
BRANCH  10  21
ATOM     21  O   UNL     1       2.513   0.667 -26.305  1.00  0.00    -0.500 OA
ATOM     22  H   UNL     1       1.578   0.875 -26.634  1.00  0.00     0.294 HD
ENDBRANCH  10  21
BRANCH   5  23
ATOM     23  O   UNL     1       6.227   6.081 -22.155  1.00  0.00    -0.507 OA
ATOM     24  H   UNL     1       6.945   5.681 -21.562  1.00  0.00     0.293 HD
ENDBRANCH   5  23
BRANCH   7  25
ATOM     25  O   UNL     1       3.534   5.797 -26.118  1.00  0.00    -0.507 OA
ATOM     26  H   UNL     1       3.947   6.587 -26.593  1.00  0.00     0.293 HD
ENDBRANCH   7  25
TORSDOF 6
ENDMDL
MODEL 5
REMARK VINA RESULT:    -6.640      1.388      7.128
REMARK INTER + INTRA:          -8.329
REMARK INTER:                  -8.001
REMARK INTRA:                  -0.328
REMARK UNBOUND:                -0.331
REMARK SMILES Oc1cc(O)c2cc(O)c(-c3ccc(O)c(O)c3)[o+]c2c1
REMARK SMILES IDX 10 1 19 2 20 3 21 4 2 5 3 6 4 7 6 8 7 9 8 10 11 11 12 12
REMARK SMILES IDX 13 13 14 14 18 15 16 16 15 17 17 19 9 21 1 23 5 25
REMARK H PARENT 15 18 17 20 9 22 1 24 5 26
REMARK Flexibility Score: inf
ROOT
ATOM      1  C   UNL     1       3.017  -0.246 -24.368  1.00  0.00     0.402 A 
ATOM      2  O   UNL     1       3.404   0.594 -23.413  1.00  0.00    -0.202 OA
ATOM      3  C   UNL     1       3.983   1.764 -23.660  1.00  0.00     0.368 A 
ATOM      4  C   UNL     1       4.352   2.581 -22.587  1.00  0.00     0.162 A 
ATOM      5  C   UNL     1       4.959   3.818 -22.820  1.00  0.00     0.128 A 
ATOM      6  C   UNL     1       5.198   4.241 -24.130  1.00  0.00     0.093 A 
ATOM      7  C   UNL     1       4.838   3.442 -25.221  1.00  0.00     0.136 A 
ATOM      8  C   UNL     1       4.223   2.183 -24.991  1.00  0.00     0.125 A 
ATOM      9  C   UNL     1       3.840   1.310 -26.023  1.00  0.00     0.078 A 
ATOM     10  C   UNL     1       3.243   0.084 -25.718  1.00  0.00     0.223 A 
ENDROOT
BRANCH   1  11
ATOM     11  C   UNL     1       2.373  -1.517 -23.965  1.00  0.00     0.087 A 
ATOM     12  C   UNL     1       0.974  -1.631 -24.023  1.00  0.00     0.022 A 
ATOM     13  C   UNL     1       0.346  -2.827 -23.665  1.00  0.00     0.051 A 
ATOM     14  C   UNL     1       1.108  -3.930 -23.260  1.00  0.00     0.157 A 
ATOM     15  C   UNL     1       3.134  -2.634 -23.576  1.00  0.00     0.068 A 
ATOM     16  C   UNL     1       2.504  -3.835 -23.219  1.00  0.00     0.158 A 
BRANCH  14  17
ATOM     17  O   UNL     1       0.485  -5.125 -22.901  1.00  0.00    -0.504 OA
ATOM     18  H   UNL     1      -0.453  -5.139 -22.518  1.00  0.00     0.293 HD
ENDBRANCH  14  17
BRANCH  16  19
ATOM     19  O   UNL     1       3.260  -4.939 -22.829  1.00  0.00    -0.504 OA
ATOM     20  H   UNL     1       4.000  -4.859 -22.141  1.00  0.00     0.293 HD
ENDBRANCH  16  19
ENDBRANCH   1  11
BRANCH  10  21
ATOM     21  O   UNL     1       2.909  -0.804 -26.740  1.00  0.00    -0.500 OA
ATOM     22  H   UNL     1       3.196  -0.647 -27.699  1.00  0.00     0.294 HD
ENDBRANCH  10  21
BRANCH   5  23
ATOM     23  O   UNL     1       5.331   4.637 -21.756  1.00  0.00    -0.507 OA
ATOM     24  H   UNL     1       6.103   5.289 -21.833  1.00  0.00     0.293 HD
ENDBRANCH   5  23
BRANCH   7  25
ATOM     25  O   UNL     1       5.107   3.939 -26.499  1.00  0.00    -0.507 OA
ATOM     26  H   UNL     1       5.724   3.496 -27.166  1.00  0.00     0.293 HD
ENDBRANCH   7  25
TORSDOF 6
ENDMDL
MODEL 6
REMARK VINA RESULT:    -6.634      1.944      2.166
REMARK INTER + INTRA:          -8.323
REMARK INTER:                  -7.980
REMARK INTRA:                  -0.343
REMARK UNBOUND:                -0.331
REMARK SMILES Oc1cc(O)c2cc(O)c(-c3ccc(O)c(O)c3)[o+]c2c1
REMARK SMILES IDX 10 1 19 2 20 3 21 4 2 5 3 6 4 7 6 8 7 9 8 10 11 11 12 12
REMARK SMILES IDX 13 13 14 14 18 15 16 16 15 17 17 19 9 21 1 23 5 25
REMARK H PARENT 15 18 17 20 9 22 1 24 5 26
REMARK Flexibility Score: inf
ROOT
ATOM      1  C   UNL     1       4.387   1.286 -23.768  1.00  0.00     0.402 A 
ATOM      2  O   UNL     1       3.687   0.646 -22.836  1.00  0.00    -0.202 OA
ATOM      3  C   UNL     1       3.489  -0.668 -22.844  1.00  0.00     0.368 A 
ATOM      4  C   UNL     1       2.741  -1.250 -21.817  1.00  0.00     0.162 A 
ATOM      5  C   UNL     1       2.521  -2.630 -21.800  1.00  0.00     0.128 A 
ATOM      6  C   UNL     1       3.051  -3.432 -22.814  1.00  0.00     0.093 A 
ATOM      7  C   UNL     1       3.803  -2.873 -23.854  1.00  0.00     0.136 A 
ATOM      8  C   UNL     1       4.028  -1.472 -23.877  1.00  0.00     0.125 A 
ATOM      9  C   UNL     1       4.759  -0.823 -24.887  1.00  0.00     0.078 A 
ATOM     10  C   UNL     1       4.935   0.563 -24.844  1.00  0.00     0.223 A 
ENDROOT
BRANCH   1  11
ATOM     11  C   UNL     1       4.546   2.753 -23.642  1.00  0.00     0.087 A 
ATOM     12  C   UNL     1       5.623   3.269 -22.904  1.00  0.00     0.022 A 
ATOM     13  C   UNL     1       5.804   4.650 -22.788  1.00  0.00     0.051 A 
ATOM     14  C   UNL     1       4.919   5.533 -23.420  1.00  0.00     0.157 A 
ATOM     15  C   UNL     1       3.672   3.643 -24.291  1.00  0.00     0.068 A 
ATOM     16  C   UNL     1       3.854   5.030 -24.176  1.00  0.00     0.158 A 
BRANCH  14  17
ATOM     17  O   UNL     1       5.095   6.911 -23.305  1.00  0.00    -0.504 OA
ATOM     18  H   UNL     1       4.603   7.451 -22.603  1.00  0.00     0.293 HD
ENDBRANCH  14  17
BRANCH  16  19
ATOM     19  O   UNL     1       2.984   5.911 -24.816  1.00  0.00    -0.504 OA
ATOM     20  H   UNL     1       2.826   5.869 -25.815  1.00  0.00     0.293 HD
ENDBRANCH  16  19
ENDBRANCH   1  11
BRANCH  10  21
ATOM     21  O   UNL     1       5.617   1.213 -25.873  1.00  0.00    -0.500 OA
ATOM     22  H   UNL     1       6.137   0.700 -26.575  1.00  0.00     0.294 HD
ENDBRANCH  10  21
BRANCH   5  23
ATOM     23  O   UNL     1       1.776  -3.217 -20.780  1.00  0.00    -0.507 OA
ATOM     24  H   UNL     1       0.824  -3.530 -20.932  1.00  0.00     0.293 HD
ENDBRANCH   5  23
BRANCH   7  25
ATOM     25  O   UNL     1       4.301  -3.744 -24.827  1.00  0.00    -0.507 OA
ATOM     26  H   UNL     1       5.113  -4.333 -24.705  1.00  0.00     0.293 HD
ENDBRANCH   7  25
TORSDOF 6
ENDMDL
MODEL 7
REMARK VINA RESULT:    -6.554      1.948      2.408
REMARK INTER + INTRA:          -8.226
REMARK INTER:                  -7.922
REMARK INTRA:                  -0.304
REMARK UNBOUND:                -0.331
REMARK SMILES Oc1cc(O)c2cc(O)c(-c3ccc(O)c(O)c3)[o+]c2c1
REMARK SMILES IDX 10 1 19 2 20 3 21 4 2 5 3 6 4 7 6 8 7 9 8 10 11 11 12 12
REMARK SMILES IDX 13 13 14 14 18 15 16 16 15 17 17 19 9 21 1 23 5 25
REMARK H PARENT 15 18 17 20 9 22 1 24 5 26
REMARK Flexibility Score: inf
ROOT
ATOM      1  C   UNL     1       4.276   1.202 -24.044  1.00  0.00     0.402 A 
ATOM      2  O   UNL     1       3.579   0.593 -23.089  1.00  0.00    -0.202 OA
ATOM      3  C   UNL     1       3.430  -0.725 -23.021  1.00  0.00     0.368 A 
ATOM      4  C   UNL     1       2.680  -1.272 -21.975  1.00  0.00     0.162 A 
ATOM      5  C   UNL     1       2.511  -2.656 -21.879  1.00  0.00     0.128 A 
ATOM      6  C   UNL     1       3.093  -3.497 -22.831  1.00  0.00     0.093 A 
ATOM      7  C   UNL     1       3.848  -2.974 -23.887  1.00  0.00     0.136 A 
ATOM      8  C   UNL     1       4.021  -1.569 -23.992  1.00  0.00     0.125 A 
ATOM      9  C   UNL     1       4.751  -0.955 -25.024  1.00  0.00     0.078 A 
ATOM     10  C   UNL     1       4.874   0.436 -25.063  1.00  0.00     0.223 A 
ENDROOT
BRANCH   1  11
ATOM     11  C   UNL     1       4.377   2.678 -24.005  1.00  0.00     0.087 A 
ATOM     12  C   UNL     1       3.558   3.449 -24.845  1.00  0.00     0.022 A 
ATOM     13  C   UNL     1       3.623   4.845 -24.811  1.00  0.00     0.051 A 
ATOM     14  C   UNL     1       4.497   5.489 -23.926  1.00  0.00     0.157 A 
ATOM     15  C   UNL     1       5.239   3.330 -23.104  1.00  0.00     0.068 A 
ATOM     16  C   UNL     1       5.303   4.731 -23.068  1.00  0.00     0.158 A 
BRANCH  14  17
ATOM     17  O   UNL     1       4.566   6.881 -23.890  1.00  0.00    -0.504 OA
ATOM     18  H   UNL     1       4.319   7.402 -23.057  1.00  0.00     0.293 HD
ENDBRANCH  14  17
BRANCH  16  19
ATOM     19  O   UNL     1       6.161   5.375 -22.178  1.00  0.00    -0.504 OA
ATOM     20  H   UNL     1       5.909   6.252 -21.739  1.00  0.00     0.293 HD
ENDBRANCH  16  19
ENDBRANCH   1  11
BRANCH  10  21
ATOM     21  O   UNL     1       5.555   1.049 -26.115  1.00  0.00    -0.500 OA
ATOM     22  H   UNL     1       5.369   2.007 -26.385  1.00  0.00     0.294 HD
ENDBRANCH  10  21
BRANCH   5  23
ATOM     23  O   UNL     1       1.765  -3.209 -20.840  1.00  0.00    -0.507 OA
ATOM     24  H   UNL     1       1.847  -2.868 -19.889  1.00  0.00     0.293 HD
ENDBRANCH   5  23
BRANCH   7  25
ATOM     25  O   UNL     1       4.399  -3.882 -24.795  1.00  0.00    -0.507 OA
ATOM     26  H   UNL     1       5.247  -4.407 -24.633  1.00  0.00     0.293 HD
ENDBRANCH   7  25
TORSDOF 6
ENDMDL
MODEL 8
REMARK VINA RESULT:    -6.358      2.361      3.526
REMARK INTER + INTRA:          -7.990
REMARK INTER:                  -7.762
REMARK INTRA:                  -0.227
REMARK UNBOUND:                -0.331
REMARK SMILES Oc1cc(O)c2cc(O)c(-c3ccc(O)c(O)c3)[o+]c2c1
REMARK SMILES IDX 10 1 19 2 20 3 21 4 2 5 3 6 4 7 6 8 7 9 8 10 11 11 12 12
REMARK SMILES IDX 13 13 14 14 18 15 16 16 15 17 17 19 9 21 1 23 5 25
REMARK H PARENT 15 18 17 20 9 22 1 24 5 26
REMARK Flexibility Score: inf
ROOT
ATOM      1  C   UNL     1       4.942   2.147 -24.684  1.00  0.00     0.402 A 
ATOM      2  O   UNL     1       4.715   1.101 -23.895  1.00  0.00    -0.202 OA
ATOM      3  C   UNL     1       4.605  -0.144 -24.346  1.00  0.00     0.368 A 
ATOM      4  C   UNL     1       4.368  -1.180 -23.437  1.00  0.00     0.162 A 
ATOM      5  C   UNL     1       4.252  -2.498 -23.885  1.00  0.00     0.128 A 
ATOM      6  C   UNL     1       4.371  -2.784 -25.247  1.00  0.00     0.093 A 
ATOM      7  C   UNL     1       4.608  -1.765 -26.178  1.00  0.00     0.136 A 
ATOM      8  C   UNL     1       4.725  -0.424 -25.729  1.00  0.00     0.125 A 
ATOM      9  C   UNL     1       4.950   0.663 -26.591  1.00  0.00     0.078 A 
ATOM     10  C   UNL     1       5.049   1.958 -26.074  1.00  0.00     0.223 A 
ENDROOT
BRANCH   1  11
ATOM     11  C   UNL     1       5.055   3.484 -24.058  1.00  0.00     0.087 A 
ATOM     12  C   UNL     1       6.188   3.792 -23.288  1.00  0.00     0.022 A 
ATOM     13  C   UNL     1       6.326   5.055 -22.705  1.00  0.00     0.051 A 
ATOM     14  C   UNL     1       5.340   6.031 -22.896  1.00  0.00     0.157 A 
ATOM     15  C   UNL     1       4.078   4.474 -24.263  1.00  0.00     0.068 A 
ATOM     16  C   UNL     1       4.217   5.743 -23.680  1.00  0.00     0.158 A 
BRANCH  14  17
ATOM     17  O   UNL     1       5.472   7.291 -22.314  1.00  0.00    -0.504 OA
ATOM     18  H   UNL     1       4.692   7.936 -22.264  1.00  0.00     0.293 HD
ENDBRANCH  14  17
BRANCH  16  19
ATOM     19  O   UNL     1       3.244   6.721 -23.879  1.00  0.00    -0.504 OA
ATOM     20  H   UNL     1       2.899   6.945 -24.805  1.00  0.00     0.293 HD
ENDBRANCH  16  19
ENDBRANCH   1  11
BRANCH  10  21
ATOM     21  O   UNL     1       5.221   3.043 -26.935  1.00  0.00    -0.500 OA
ATOM     22  H   UNL     1       4.810   3.059 -27.861  1.00  0.00     0.294 HD
ENDBRANCH  10  21
BRANCH   5  23
ATOM     23  O   UNL     1       4.015  -3.535 -22.985  1.00  0.00    -0.507 OA
ATOM     24  H   UNL     1       4.760  -3.925 -22.418  1.00  0.00     0.293 HD
ENDBRANCH   5  23
BRANCH   7  25
ATOM     25  O   UNL     1       4.720  -2.134 -27.521  1.00  0.00    -0.507 OA
ATOM     26  H   UNL     1       3.993  -2.598 -28.048  1.00  0.00     0.293 HD
ENDBRANCH   7  25
TORSDOF 6
ENDMDL
MODEL 9
REMARK VINA RESULT:    -6.209      2.297      7.080
REMARK INTER + INTRA:          -7.810
REMARK INTER:                  -7.864
REMARK INTRA:                   0.053
REMARK UNBOUND:                -0.331
REMARK SMILES Oc1cc(O)c2cc(O)c(-c3ccc(O)c(O)c3)[o+]c2c1
REMARK SMILES IDX 10 1 19 2 20 3 21 4 2 5 3 6 4 7 6 8 7 9 8 10 11 11 12 12
REMARK SMILES IDX 13 13 14 14 18 15 16 16 15 17 17 19 9 21 1 23 5 25
REMARK H PARENT 15 18 17 20 9 22 1 24 5 26
REMARK Flexibility Score: inf
ROOT
ATOM      1  C   UNL     1       3.379  -0.574 -25.408  1.00  0.00     0.402 A 
ATOM      2  O   UNL     1       3.006   0.684 -25.191  1.00  0.00    -0.202 OA
ATOM      3  C   UNL     1       3.600   1.729 -25.757  1.00  0.00     0.368 A 
ATOM      4  C   UNL     1       3.134   3.015 -25.468  1.00  0.00     0.162 A 
ATOM      5  C   UNL     1       3.738   4.131 -26.053  1.00  0.00     0.128 A 
ATOM      6  C   UNL     1       4.812   3.962 -26.930  1.00  0.00     0.093 A 
ATOM      7  C   UNL     1       5.298   2.685 -27.235  1.00  0.00     0.136 A 
ATOM      8  C   UNL     1       4.690   1.548 -26.642  1.00  0.00     0.125 A 
ATOM      9  C   UNL     1       5.117   0.231 -26.880  1.00  0.00     0.078 A 
ATOM     10  C   UNL     1       4.471  -0.839 -26.256  1.00  0.00     0.223 A 
ENDROOT
BRANCH   1  11
ATOM     11  C   UNL     1       2.630  -1.654 -24.726  1.00  0.00     0.087 A 
ATOM     12  C   UNL     1       1.226  -1.646 -24.755  1.00  0.00     0.022 A 
ATOM     13  C   UNL     1       0.499  -2.666 -24.134  1.00  0.00     0.051 A 
ATOM     14  C   UNL     1       1.166  -3.715 -23.489  1.00  0.00     0.157 A 
ATOM     15  C   UNL     1       3.295  -2.721 -24.094  1.00  0.00     0.068 A 
ATOM     16  C   UNL     1       2.565  -3.746 -23.472  1.00  0.00     0.158 A 
BRANCH  14  17
ATOM     17  O   UNL     1       0.444  -4.733 -22.867  1.00  0.00    -0.504 OA
ATOM     18  H   UNL     1       0.844  -5.653 -22.723  1.00  0.00     0.293 HD
ENDBRANCH  14  17
BRANCH  16  19
ATOM     19  O   UNL     1       3.226  -4.799 -22.842  1.00  0.00    -0.504 OA
ATOM     20  H   UNL     1       3.870  -4.639 -22.077  1.00  0.00     0.293 HD
ENDBRANCH  16  19
ENDBRANCH   1  11
BRANCH  10  21
ATOM     21  O   UNL     1       4.928  -2.143 -26.452  1.00  0.00    -0.500 OA
ATOM     22  H   UNL     1       4.788  -2.867 -25.757  1.00  0.00     0.294 HD
ENDBRANCH  10  21
BRANCH   5  23
ATOM     23  O   UNL     1       3.279   5.416 -25.770  1.00  0.00    -0.507 OA
ATOM     24  H   UNL     1       3.542   5.896 -24.917  1.00  0.00     0.293 HD
ENDBRANCH   5  23
BRANCH   7  25
ATOM     25  O   UNL     1       6.373   2.601 -28.124  1.00  0.00    -0.507 OA
ATOM     26  H   UNL     1       6.892   3.396 -28.469  1.00  0.00     0.293 HD
ENDBRANCH   7  25
TORSDOF 6
ENDMDL
