MODEL 1
REMARK VINA RESULT:    -3.682      0.000      0.000
REMARK INTER + INTRA:          -4.359
REMARK INTER:                  -4.328
REMARK INTRA:                  -0.032
REMARK UNBOUND:                -0.032
REMARK SMILES O=C([O-])CCC(=O)[O-]
REMARK SMILES IDX 4 1 2 2 1 3 3 4 5 5 6 6 7 7 8 8
REMARK H PARENT
REMARK Flexibility Score: inf
ROOT
ATOM      1  C   UNL     1      -8.282  26.073  -2.051  1.00  0.00     0.059 C 
ENDROOT
BRANCH   1   2
ATOM      2  C   UNL     1      -9.103  27.015  -2.873  1.00  0.00     0.042 C 
ATOM      3  O   UNL     1      -8.983  28.259  -2.722  1.00  0.00    -0.550 OA
ATOM      4  O   UNL     1     -10.038  26.518  -3.772  1.00  0.00    -0.550 OA
ENDBRANCH   1   2
BRANCH   1   5
ATOM      5  C   UNL     1      -7.113  25.525  -2.870  1.00  0.00     0.059 C 
BRANCH   5   6
ATOM      6  C   UNL     1      -6.399  24.451  -2.111  1.00  0.00     0.042 C 
ATOM      7  O   UNL     1      -6.398  24.462  -0.851  1.00  0.00    -0.550 OA
ATOM      8  O   UNL     1      -5.693  23.469  -2.793  1.00  0.00    -0.550 OA
ENDBRANCH   5   6
ENDBRANCH   1   5
TORSDOF 3
ENDMDL
MODEL 2
REMARK VINA RESULT:    -3.652      0.385      4.202
REMARK INTER + INTRA:          -4.324
REMARK INTER:                  -4.291
REMARK INTRA:                  -0.034
REMARK UNBOUND:                -0.032
REMARK SMILES O=C([O-])CCC(=O)[O-]
REMARK SMILES IDX 4 1 2 2 1 3 3 4 5 5 6 6 7 7 8 8
REMARK H PARENT
REMARK Flexibility Score: inf
ROOT
ATOM      1  C   UNL     1      -7.162  25.097  -3.050  1.00  0.00     0.059 C 
ENDROOT
BRANCH   1   2
ATOM      2  C   UNL     1      -6.227  24.172  -2.337  1.00  0.00     0.042 C 
ATOM      3  O   UNL     1      -6.046  24.287  -1.096  1.00  0.00    -0.550 OA
ATOM      4  O   UNL     1      -5.517  23.215  -3.050  1.00  0.00    -0.550 OA
ENDBRANCH   1   2
BRANCH   1   5
ATOM      5  C   UNL     1      -8.109  25.771  -2.058  1.00  0.00     0.059 C 
BRANCH   5   6
ATOM      6  C   UNL     1      -9.012  26.732  -2.765  1.00  0.00     0.042 C 
ATOM      7  O   UNL     1      -8.945  27.965  -2.514  1.00  0.00    -0.550 OA
ATOM      8  O   UNL     1      -9.960  26.263  -3.665  1.00  0.00    -0.550 OA
ENDBRANCH   5   6
ENDBRANCH   1   5
TORSDOF 3
ENDMDL
MODEL 3
REMARK VINA RESULT:    -3.577     14.102     14.656
REMARK INTER + INTRA:          -4.236
REMARK INTER:                  -4.198
REMARK INTRA:                  -0.038
REMARK UNBOUND:                -0.032
REMARK SMILES O=C([O-])CCC(=O)[O-]
REMARK SMILES IDX 4 1 2 2 1 3 3 4 5 5 6 6 7 7 8 8
REMARK H PARENT
REMARK Flexibility Score: inf
ROOT
ATOM      1  C   UNL     1       4.142  32.980  -8.468  1.00  0.00     0.059 C 
ENDROOT
BRANCH   1   2
ATOM      2  C   UNL     1       4.361  34.436  -8.208  1.00  0.00     0.042 C 
ATOM      3  O   UNL     1       3.463  35.123  -7.654  1.00  0.00    -0.550 OA
ATOM      4  O   UNL     1       5.538  35.047  -8.623  1.00  0.00    -0.550 OA
ENDBRANCH   1   2
BRANCH   1   5
ATOM      5  C   UNL     1       3.715  32.265  -7.185  1.00  0.00     0.059 C 
BRANCH   5   6
ATOM      6  C   UNL     1       2.929  31.034  -7.508  1.00  0.00     0.042 C 
ATOM      7  O   UNL     1       1.670  31.057  -7.461  1.00  0.00    -0.550 OA
ATOM      8  O   UNL     1       3.585  29.848  -7.812  1.00  0.00    -0.550 OA
ENDBRANCH   5   6
ENDBRANCH   1   5
TORSDOF 3
ENDMDL
MODEL 4
REMARK VINA RESULT:    -3.535     10.443     11.398
REMARK INTER + INTRA:          -4.186
REMARK INTER:                  -4.083
REMARK INTRA:                  -0.103
REMARK UNBOUND:                -0.032
REMARK SMILES O=C([O-])CCC(=O)[O-]
REMARK SMILES IDX 4 1 2 2 1 3 3 4 5 5 6 6 7 7 8 8
REMARK H PARENT
REMARK Flexibility Score: inf
ROOT
ATOM      1  C   UNL     1       0.595  18.606  -1.499  1.00  0.00     0.059 C 
ENDROOT
BRANCH   1   2
ATOM      2  C   UNL     1       0.719  19.021  -0.067  1.00  0.00     0.042 C 
ATOM      3  O   UNL     1       1.824  18.923   0.528  1.00  0.00    -0.550 OA
ATOM      4  O   UNL     1      -0.399  19.469   0.625  1.00  0.00    -0.550 OA
ENDBRANCH   1   2
BRANCH   1   5
ATOM      5  C   UNL     1      -0.841  18.185  -1.813  1.00  0.00     0.059 C 
BRANCH   5   6
ATOM      6  C   UNL     1      -1.079  16.772  -1.384  1.00  0.00     0.042 C 
ATOM      7  O   UNL     1      -0.203  15.891  -1.595  1.00  0.00    -0.550 OA
ATOM      8  O   UNL     1      -2.286  16.416  -0.796  1.00  0.00    -0.550 OA
ENDBRANCH   5   6
ENDBRANCH   1   5
TORSDOF 3
ENDMDL
MODEL 5
REMARK VINA RESULT:    -3.523     10.467     11.427
REMARK INTER + INTRA:          -4.173
REMARK INTER:                  -4.063
REMARK INTRA:                  -0.110
REMARK UNBOUND:                -0.032
REMARK SMILES O=C([O-])CCC(=O)[O-]
REMARK SMILES IDX 4 1 2 2 1 3 3 4 5 5 6 6 7 7 8 8
REMARK H PARENT
REMARK Flexibility Score: inf
ROOT
ATOM      1  C   UNL     1      -0.823  18.182  -1.815  1.00  0.00     0.059 C 
ENDROOT
BRANCH   1   2
ATOM      2  C   UNL     1      -1.089  16.760  -1.435  1.00  0.00     0.042 C 
ATOM      3  O   UNL     1      -0.228  15.871  -1.663  1.00  0.00    -0.550 OA
ATOM      4  O   UNL     1      -2.311  16.408  -0.875  1.00  0.00    -0.550 OA
ENDBRANCH   1   2
BRANCH   1   5
ATOM      5  C   UNL     1       0.629  18.554  -1.512  1.00  0.00     0.059 C 
BRANCH   5   6
ATOM      6  C   UNL     1       0.772  18.987  -0.086  1.00  0.00     0.042 C 
ATOM      7  O   UNL     1       1.875  18.856   0.507  1.00  0.00    -0.550 OA
ATOM      8  O   UNL     1      -0.326  19.487   0.602  1.00  0.00    -0.550 OA
ENDBRANCH   5   6
ENDBRANCH   1   5
TORSDOF 3
ENDMDL
MODEL 6
REMARK VINA RESULT:    -3.489      5.195      6.803
REMARK INTER + INTRA:          -4.132
REMARK INTER:                  -4.043
REMARK INTRA:                  -0.089
REMARK UNBOUND:                -0.032
REMARK SMILES O=C([O-])CCC(=O)[O-]
REMARK SMILES IDX 4 1 2 2 1 3 3 4 5 5 6 6 7 7 8 8
REMARK H PARENT
REMARK Flexibility Score: inf
ROOT
ATOM      1  C   UNL     1      -8.229  31.964  -4.001  1.00  0.00     0.059 C 
ENDROOT
BRANCH   1   2
ATOM      2  C   UNL     1      -8.033  33.248  -3.259  1.00  0.00     0.042 C 
ATOM      3  O   UNL     1      -8.398  33.348  -2.058  1.00  0.00    -0.550 OA
ATOM      4  O   UNL     1      -7.494  34.351  -3.909  1.00  0.00    -0.550 OA
ENDBRANCH   1   2
BRANCH   1   5
ATOM      5  C   UNL     1      -9.703  31.559  -3.991  1.00  0.00     0.059 C 
BRANCH   5   6
ATOM      6  C   UNL     1      -9.854  30.141  -3.538  1.00  0.00     0.042 C 
ATOM      7  O   UNL     1     -10.124  29.236  -4.372  1.00  0.00    -0.550 OA
ATOM      8  O   UNL     1      -9.746  29.826  -2.190  1.00  0.00    -0.550 OA
ENDBRANCH   5   6
ENDBRANCH   1   5
TORSDOF 3
ENDMDL
MODEL 7
REMARK VINA RESULT:    -3.443     10.373     12.063
REMARK INTER + INTRA:          -4.079
REMARK INTER:                  -3.977
REMARK INTRA:                  -0.102
REMARK UNBOUND:                -0.032
REMARK SMILES O=C([O-])CCC(=O)[O-]
REMARK SMILES IDX 4 1 2 2 1 3 3 4 5 5 6 6 7 7 8 8
REMARK H PARENT
REMARK Flexibility Score: inf
ROOT
ATOM      1  C   UNL     1       0.717  17.763  -1.919  1.00  0.00     0.059 C 
ENDROOT
BRANCH   1   2
ATOM      2  C   UNL     1       0.728  16.411  -1.280  1.00  0.00     0.042 C 
ATOM      3  O   UNL     1      -0.060  15.514  -1.680  1.00  0.00    -0.550 OA
ATOM      4  O   UNL     1       1.573  16.156  -0.207  1.00  0.00    -0.550 OA
ENDBRANCH   1   2
BRANCH   1   5
ATOM      5  C   UNL     1      -0.372  18.639  -1.300  1.00  0.00     0.059 C 
BRANCH   5   6
ATOM      6  C   UNL     1       0.104  19.234  -0.011  1.00  0.00     0.042 C 
ATOM      7  O   UNL     1      -0.724  19.542   0.887  1.00  0.00    -0.550 OA
ATOM      8  O   UNL     1       1.455  19.495   0.177  1.00  0.00    -0.550 OA
ENDBRANCH   5   6
ENDBRANCH   1   5
TORSDOF 3
ENDMDL
MODEL 8
REMARK VINA RESULT:    -3.212      1.180      4.125
REMARK INTER + INTRA:          -3.807
REMARK INTER:                  -3.709
REMARK INTRA:                  -0.098
REMARK UNBOUND:                -0.032
REMARK SMILES O=C([O-])CCC(=O)[O-]
REMARK SMILES IDX 4 1 2 2 1 3 3 4 5 5 6 6 7 7 8 8
REMARK H PARENT
REMARK Flexibility Score: inf
ROOT
ATOM      1  C   UNL     1      -7.356  25.545  -2.612  1.00  0.00     0.059 C 
ENDROOT
BRANCH   1   2
ATOM      2  C   UNL     1      -7.042  25.000  -1.254  1.00  0.00     0.042 C 
ATOM      3  O   UNL     1      -6.104  24.174  -1.105  1.00  0.00    -0.550 OA
ATOM      4  O   UNL     1      -7.818  25.367  -0.162  1.00  0.00    -0.550 OA
ENDBRANCH   1   2
BRANCH   1   5
ATOM      5  C   UNL     1      -8.289  26.751  -2.502  1.00  0.00     0.059 C 
BRANCH   5   6
ATOM      6  C   UNL     1      -9.538  26.521  -3.295  1.00  0.00     0.042 C 
ATOM      7  O   UNL     1     -10.034  25.366  -3.372  1.00  0.00    -0.550 OA
ATOM      8  O   UNL     1     -10.125  27.572  -3.988  1.00  0.00    -0.550 OA
ENDBRANCH   5   6
ENDBRANCH   1   5
TORSDOF 3
ENDMDL
