MODEL 1
REMARK VINA RESULT:    -2.320      0.000      0.000
REMARK INTER + INTRA:          -7.593
REMARK INTER:                  -6.118
REMARK INTRA:                  -1.474
REMARK UNBOUND:                -1.474
REMARK SMILES CCCCCCCCCCCCCCCCCCCCCCCCCCCCCC(=O)[O-]
REMARK SMILES IDX 16 1 17 2 18 3 19 4 20 5 21 6 22 7 23 8 24 9 25 10 26 11
REMARK SMILES IDX 27 12 28 13 29 14 30 15 31 16 32 17 15 18 14 19 13 20 12 21
REMARK SMILES IDX 11 22 10 23 9 24 8 25 7 26 6 27 5 28 4 29 3 30 2 31 1 32
REMARK H PARENT
REMARK Flexibility Score: inf
ROOT
ATOM      1  C   UNL     1       0.369 -21.926  16.316  1.00  0.00     0.000 C 
ENDROOT
BRANCH   1   2
ATOM      2  C   UNL     1      -0.848 -22.867  16.380  1.00  0.00     0.000 C 
BRANCH   2   3
ATOM      3  C   UNL     1      -2.146 -22.165  15.941  1.00  0.00     0.000 C 
BRANCH   3   4
ATOM      4  C   UNL     1      -3.355 -23.120  15.965  1.00  0.00     0.000 C 
BRANCH   4   5
ATOM      5  C   UNL     1      -4.538 -22.579  16.788  1.00  0.00     0.000 C 
BRANCH   5   6
ATOM      6  C   UNL     1      -5.933 -23.044  16.322  1.00  0.00     0.000 C 
BRANCH   6   7
ATOM      7  C   UNL     1      -7.007 -23.113  17.423  1.00  0.00     0.000 C 
BRANCH   7   8
ATOM      8  C   UNL     1      -7.859 -21.841  17.582  1.00  0.00     0.000 C 
BRANCH   8   9
ATOM      9  C   UNL     1      -9.380 -22.095  17.504  1.00  0.00     0.000 C 
BRANCH   9  10
ATOM     10  C   UNL     1     -10.163 -20.845  17.073  1.00  0.00     0.000 C 
BRANCH  10  11
ATOM     11  C   UNL     1     -11.016 -20.255  18.211  1.00  0.00     0.000 C 
BRANCH  11  12
ATOM     12  C   UNL     1     -10.230 -20.047  19.524  1.00  0.00     0.000 C 
BRANCH  12  13
ATOM     13  C   UNL     1     -10.702 -20.993  20.643  1.00  0.00     0.006 C 
BRANCH  13  14
ATOM     14  C   UNL     1      -9.537 -21.720  21.327  1.00  0.00     0.053 C 
BRANCH  14  15
ATOM     15  C   UNL     1      -9.331 -21.245  22.732  1.00  0.00     0.041 C 
ATOM     16  O   UNL     1      -9.746 -21.934  23.701  1.00  0.00    -0.550 OA
ATOM     17  O   UNL     1      -8.639 -20.066  22.974  1.00  0.00    -0.550 OA
ENDBRANCH  14  15
ENDBRANCH  13  14
ENDBRANCH  12  13
ENDBRANCH  11  12
ENDBRANCH  10  11
ENDBRANCH   9  10
ENDBRANCH   8   9
ENDBRANCH   7   8
ENDBRANCH   6   7
ENDBRANCH   5   6
ENDBRANCH   4   5
ENDBRANCH   3   4
ENDBRANCH   2   3
ENDBRANCH   1   2
BRANCH   1  18
ATOM     18  C   UNL     1       1.672 -22.662  15.943  1.00  0.00     0.000 C 
BRANCH  18  19
ATOM     19  C   UNL     1       2.920 -22.125  16.664  1.00  0.00     0.000 C 
BRANCH  19  20
ATOM     20  C   UNL     1       4.232 -22.620  16.036  1.00  0.00     0.000 C 
BRANCH  20  21
ATOM     21  C   UNL     1       5.484 -22.083  16.751  1.00  0.00     0.000 C 
BRANCH  21  22
ATOM     22  C   UNL     1       6.833 -22.412  16.076  1.00  0.00     0.000 C 
BRANCH  22  23
ATOM     23  C   UNL     1       7.861 -21.256  16.112  1.00  0.00     0.000 C 
BRANCH  23  24
ATOM     24  C   UNL     1       8.949 -21.316  15.018  1.00  0.00    -0.000 C 
BRANCH  24  25
ATOM     25  C   UNL     1       9.121 -22.684  14.326  1.00  0.00    -0.000 C 
BRANCH  25  26
ATOM     26  C   UNL     1       8.857 -22.690  12.807  1.00  0.00    -0.000 C 
BRANCH  26  27
ATOM     27  C   UNL     1       7.416 -22.287  12.426  1.00  0.00    -0.000 C 
BRANCH  27  28
ATOM     28  C   UNL     1       7.167 -22.355  10.911  1.00  0.00    -0.000 C 
BRANCH  28  29
ATOM     29  C   UNL     1       8.393 -21.859  10.134  1.00  0.00    -0.000 C 
BRANCH  29  30
ATOM     30  C   UNL     1       8.045 -20.633   9.274  1.00  0.00    -0.000 C 
BRANCH  30  31
ATOM     31  C   UNL     1       6.588 -20.178   9.454  1.00  0.00    -0.003 C 
ATOM     32  C   UNL     1       6.390 -18.691   9.166  1.00  0.00     0.004 C 
ENDBRANCH  30  31
ENDBRANCH  29  30
ENDBRANCH  28  29
ENDBRANCH  27  28
ENDBRANCH  26  27
ENDBRANCH  25  26
ENDBRANCH  24  25
ENDBRANCH  23  24
ENDBRANCH  22  23
ENDBRANCH  21  22
ENDBRANCH  20  21
ENDBRANCH  19  20
ENDBRANCH  18  19
ENDBRANCH   1  18
TORSDOF 28
ENDMDL
MODEL 2
REMARK VINA RESULT:    -2.079      5.231     16.102
REMARK INTER + INTRA:          -6.955
REMARK INTER:                  -5.059
REMARK INTRA:                  -1.896
REMARK UNBOUND:                -1.474
REMARK SMILES CCCCCCCCCCCCCCCCCCCCCCCCCCCCCC(=O)[O-]
REMARK SMILES IDX 16 1 17 2 18 3 19 4 20 5 21 6 22 7 23 8 24 9 25 10 26 11
REMARK SMILES IDX 27 12 28 13 29 14 30 15 31 16 32 17 15 18 14 19 13 20 12 21
REMARK SMILES IDX 11 22 10 23 9 24 8 25 7 26 6 27 5 28 4 29 3 30 2 31 1 32
REMARK H PARENT
REMARK Flexibility Score: inf
ROOT
ATOM      1  C   UNL     1       0.775 -22.800  15.894  1.00  0.00     0.000 C 
ENDROOT
BRANCH   1   2
ATOM      2  C   UNL     1       2.192 -22.203  15.963  1.00  0.00     0.000 C 
BRANCH   2   3
ATOM      3  C   UNL     1       3.231 -23.092  15.254  1.00  0.00     0.000 C 
BRANCH   3   4
ATOM      4  C   UNL     1       4.656 -22.851  15.785  1.00  0.00     0.000 C 
BRANCH   4   5
ATOM      5  C   UNL     1       4.699 -21.896  16.992  1.00  0.00     0.000 C 
BRANCH   5   6
ATOM      6  C   UNL     1       6.098 -21.362  17.361  1.00  0.00     0.000 C 
BRANCH   6   7
ATOM      7  C   UNL     1       7.107 -22.425  17.834  1.00  0.00     0.000 C 
BRANCH   7   8
ATOM      8  C   UNL     1       8.455 -22.419  17.090  1.00  0.00     0.000 C 
BRANCH   8   9
ATOM      9  C   UNL     1       8.376 -22.977  15.652  1.00  0.00     0.000 C 
BRANCH   9  10
ATOM     10  C   UNL     1       9.106 -22.086  14.636  1.00  0.00     0.000 C 
BRANCH  10  11
ATOM     11  C   UNL     1       8.448 -20.703  14.474  1.00  0.00     0.000 C 
BRANCH  11  12
ATOM     12  C   UNL     1       9.028 -19.880  13.302  1.00  0.00     0.000 C 
BRANCH  12  13
ATOM     13  C   UNL     1       8.721 -20.516  11.935  1.00  0.00     0.006 C 
BRANCH  13  14
ATOM     14  C   UNL     1       7.289 -21.062  11.850  1.00  0.00     0.053 C 
BRANCH  14  15
ATOM     15  C   UNL     1       7.180 -22.190  10.871  1.00  0.00     0.041 C 
ATOM     16  O   UNL     1       6.127 -22.879  10.814  1.00  0.00    -0.550 OA
ATOM     17  O   UNL     1       8.219 -22.451   9.990  1.00  0.00    -0.550 OA
ENDBRANCH  14  15
ENDBRANCH  13  14
ENDBRANCH  12  13
ENDBRANCH  11  12
ENDBRANCH  10  11
ENDBRANCH   9  10
ENDBRANCH   8   9
ENDBRANCH   7   8
ENDBRANCH   6   7
ENDBRANCH   5   6
ENDBRANCH   4   5
ENDBRANCH   3   4
ENDBRANCH   2   3
ENDBRANCH   1   2
BRANCH   1  18
ATOM     18  C   UNL     1      -0.230 -22.055  16.796  1.00  0.00     0.000 C 
BRANCH  18  19
ATOM     19  C   UNL     1      -1.687 -22.511  16.616  1.00  0.00     0.000 C 
BRANCH  19  20
ATOM     20  C   UNL     1      -2.378 -21.848  15.413  1.00  0.00     0.000 C 
BRANCH  20  21
ATOM     21  C   UNL     1      -3.912 -21.933  15.475  1.00  0.00     0.000 C 
BRANCH  21  22
ATOM     22  C   UNL     1      -4.485 -23.065  16.354  1.00  0.00     0.000 C 
BRANCH  22  23
ATOM     23  C   UNL     1      -5.316 -22.574  17.563  1.00  0.00     0.000 C 
BRANCH  23  24
ATOM     24  C   UNL     1      -6.673 -21.930  17.203  1.00  0.00    -0.000 C 
BRANCH  24  25
ATOM     25  C   UNL     1      -7.872 -22.898  17.141  1.00  0.00    -0.000 C 
BRANCH  25  26
ATOM     26  C   UNL     1      -8.618 -23.109  18.473  1.00  0.00    -0.000 C 
BRANCH  26  27
ATOM     27  C   UNL     1     -10.083 -22.624  18.449  1.00  0.00    -0.000 C 
BRANCH  27  28
ATOM     28  C   UNL     1     -10.198 -21.094  18.531  1.00  0.00    -0.000 C 
BRANCH  28  29
ATOM     29  C   UNL     1      -9.832 -20.594  19.934  1.00  0.00    -0.000 C 
BRANCH  29  30
ATOM     30  C   UNL     1     -10.715 -21.254  21.006  1.00  0.00    -0.000 C 
BRANCH  30  31
ATOM     31  C   UNL     1     -10.502 -20.649  22.403  1.00  0.00    -0.003 C 
ATOM     32  C   UNL     1      -9.130 -20.978  22.990  1.00  0.00     0.004 C 
ENDBRANCH  30  31
ENDBRANCH  29  30
ENDBRANCH  28  29
ENDBRANCH  27  28
ENDBRANCH  26  27
ENDBRANCH  25  26
ENDBRANCH  24  25
ENDBRANCH  23  24
ENDBRANCH  22  23
ENDBRANCH  21  22
ENDBRANCH  20  21
ENDBRANCH  19  20
ENDBRANCH  18  19
ENDBRANCH   1  18
TORSDOF 28
ENDMDL
MODEL 3
REMARK VINA RESULT:    -1.935      5.309     15.725
REMARK INTER + INTRA:          -6.576
REMARK INTER:                  -4.680
REMARK INTRA:                  -1.897
REMARK UNBOUND:                -1.474
REMARK SMILES CCCCCCCCCCCCCCCCCCCCCCCCCCCCCC(=O)[O-]
REMARK SMILES IDX 16 1 17 2 18 3 19 4 20 5 21 6 22 7 23 8 24 9 25 10 26 11
REMARK SMILES IDX 27 12 28 13 29 14 30 15 31 16 32 17 15 18 14 19 13 20 12 21
REMARK SMILES IDX 11 22 10 23 9 24 8 25 7 26 6 27 5 28 4 29 3 30 2 31 1 32
REMARK H PARENT
REMARK Flexibility Score: inf
ROOT
ATOM      1  C   UNL     1      -0.153 -22.010  16.664  1.00  0.00     0.000 C 
ENDROOT
BRANCH   1   2
ATOM      2  C   UNL     1       0.578 -23.124  15.892  1.00  0.00     0.000 C 
BRANCH   2   3
ATOM      3  C   UNL     1       1.211 -22.605  14.588  1.00  0.00     0.000 C 
BRANCH   3   4
ATOM      4  C   UNL     1       2.719 -22.333  14.748  1.00  0.00     0.000 C 
BRANCH   4   5
ATOM      5  C   UNL     1       3.187 -22.356  16.214  1.00  0.00     0.000 C 
BRANCH   5   6
ATOM      6  C   UNL     1       4.689 -22.640  16.423  1.00  0.00     0.000 C 
BRANCH   6   7
ATOM      7  C   UNL     1       5.381 -21.777  17.493  1.00  0.00     0.000 C 
BRANCH   7   8
ATOM      8  C   UNL     1       6.915 -21.708  17.381  1.00  0.00     0.000 C 
BRANCH   8   9
ATOM      9  C   UNL     1       7.515 -22.739  16.401  1.00  0.00     0.000 C 
BRANCH   9  10
ATOM     10  C   UNL     1       8.887 -22.305  15.860  1.00  0.00     0.000 C 
BRANCH  10  11
ATOM     11  C   UNL     1       9.124 -22.756  14.407  1.00  0.00     0.000 C 
BRANCH  11  12
ATOM     12  C   UNL     1       7.954 -22.412  13.458  1.00  0.00     0.000 C 
BRANCH  12  13
ATOM     13  C   UNL     1       8.244 -21.166  12.603  1.00  0.00     0.006 C 
BRANCH  13  14
ATOM     14  C   UNL     1       7.015 -20.700  11.811  1.00  0.00     0.053 C 
BRANCH  14  15
ATOM     15  C   UNL     1       7.380 -19.719  10.740  1.00  0.00     0.041 C 
ATOM     16  O   UNL     1       8.350 -19.952   9.972  1.00  0.00    -0.550 OA
ATOM     17  O   UNL     1       6.621 -18.571  10.560  1.00  0.00    -0.550 OA
ENDBRANCH  14  15
ENDBRANCH  13  14
ENDBRANCH  12  13
ENDBRANCH  11  12
ENDBRANCH  10  11
ENDBRANCH   9  10
ENDBRANCH   8   9
ENDBRANCH   7   8
ENDBRANCH   6   7
ENDBRANCH   5   6
ENDBRANCH   4   5
ENDBRANCH   3   4
ENDBRANCH   2   3
ENDBRANCH   1   2
BRANCH   1  18
ATOM     18  C   UNL     1      -1.676 -22.239  16.740  1.00  0.00     0.000 C 
BRANCH  18  19
ATOM     19  C   UNL     1      -2.448 -21.712  15.518  1.00  0.00     0.000 C 
BRANCH  19  20
ATOM     20  C   UNL     1      -3.963 -21.624  15.761  1.00  0.00     0.000 C 
BRANCH  20  21
ATOM     21  C   UNL     1      -4.590 -22.969  16.163  1.00  0.00     0.000 C 
BRANCH  21  22
ATOM     22  C   UNL     1      -5.321 -22.987  17.522  1.00  0.00     0.000 C 
BRANCH  22  23
ATOM     23  C   UNL     1      -6.829 -22.652  17.438  1.00  0.00     0.000 C 
BRANCH  23  24
ATOM     24  C   UNL     1      -7.417 -22.648  16.009  1.00  0.00    -0.000 C 
BRANCH  24  25
ATOM     25  C   UNL     1      -7.600 -21.256  15.370  1.00  0.00    -0.000 C 
BRANCH  25  26
ATOM     26  C   UNL     1      -8.868 -21.088  14.510  1.00  0.00    -0.000 C 
BRANCH  26  27
ATOM     27  C   UNL     1      -9.878 -20.073  15.084  1.00  0.00    -0.000 C 
BRANCH  27  28
ATOM     28  C   UNL     1     -10.953 -20.740  15.956  1.00  0.00    -0.000 C 
BRANCH  28  29
ATOM     29  C   UNL     1     -10.951 -20.151  17.372  1.00  0.00    -0.000 C 
BRANCH  29  30
ATOM     30  C   UNL     1      -9.978 -20.912  18.288  1.00  0.00    -0.000 C 
BRANCH  30  31
ATOM     31  C   UNL     1      -9.799 -20.233  19.655  1.00  0.00    -0.003 C 
ATOM     32  C   UNL     1     -10.629 -18.959  19.799  1.00  0.00     0.004 C 
ENDBRANCH  30  31
ENDBRANCH  29  30
ENDBRANCH  28  29
ENDBRANCH  27  28
ENDBRANCH  26  27
ENDBRANCH  25  26
ENDBRANCH  24  25
ENDBRANCH  23  24
ENDBRANCH  22  23
ENDBRANCH  21  22
ENDBRANCH  20  21
ENDBRANCH  19  20
ENDBRANCH  18  19
ENDBRANCH   1  18
TORSDOF 28
ENDMDL
MODEL 4
REMARK VINA RESULT:    -1.110      5.258     15.943
REMARK INTER + INTRA:          -4.401
REMARK INTER:                  -3.904
REMARK INTRA:                  -0.498
REMARK UNBOUND:                -1.474
REMARK SMILES CCCCCCCCCCCCCCCCCCCCCCCCCCCCCC(=O)[O-]
REMARK SMILES IDX 16 1 17 2 18 3 19 4 20 5 21 6 22 7 23 8 24 9 25 10 26 11
REMARK SMILES IDX 27 12 28 13 29 14 30 15 31 16 32 17 15 18 14 19 13 20 12 21
REMARK SMILES IDX 11 22 10 23 9 24 8 25 7 26 6 27 5 28 4 29 3 30 2 31 1 32
REMARK H PARENT
REMARK Flexibility Score: inf
ROOT
ATOM      1  C   UNL     1       1.043 -21.863  16.594  1.00  0.00     0.000 C 
ENDROOT
BRANCH   1   2
ATOM      2  C   UNL     1       1.920 -22.849  15.801  1.00  0.00     0.000 C 
BRANCH   2   3
ATOM      3  C   UNL     1       3.110 -22.148  15.121  1.00  0.00     0.000 C 
BRANCH   3   4
ATOM      4  C   UNL     1       4.324 -23.084  14.973  1.00  0.00     0.000 C 
BRANCH   4   5
ATOM      5  C   UNL     1       5.552 -22.616  15.774  1.00  0.00     0.000 C 
BRANCH   5   6
ATOM      6  C   UNL     1       5.337 -22.487  17.296  1.00  0.00     0.000 C 
BRANCH   6   7
ATOM      7  C   UNL     1       6.548 -21.964  18.090  1.00  0.00     0.000 C 
BRANCH   7   8
ATOM      8  C   UNL     1       7.846 -21.816  17.275  1.00  0.00     0.000 C 
BRANCH   8   9
ATOM      9  C   UNL     1       7.652 -21.106  15.918  1.00  0.00     0.000 C 
BRANCH   9  10
ATOM     10  C   UNL     1       8.825 -21.350  14.955  1.00  0.00     0.000 C 
BRANCH  10  11
ATOM     11  C   UNL     1       8.575 -22.530  13.999  1.00  0.00     0.000 C 
BRANCH  11  12
ATOM     12  C   UNL     1       8.748 -22.160  12.508  1.00  0.00     0.000 C 
BRANCH  12  13
ATOM     13  C   UNL     1       7.542 -21.378  11.958  1.00  0.00     0.006 C 
BRANCH  13  14
ATOM     14  C   UNL     1       7.712 -21.002  10.480  1.00  0.00     0.053 C 
BRANCH  14  15
ATOM     15  C   UNL     1       6.978 -19.742  10.138  1.00  0.00     0.041 C 
ATOM     16  O   UNL     1       7.072 -18.732  10.883  1.00  0.00    -0.550 OA
ATOM     17  O   UNL     1       6.230 -19.668   8.971  1.00  0.00    -0.550 OA
ENDBRANCH  14  15
ENDBRANCH  13  14
ENDBRANCH  12  13
ENDBRANCH  11  12
ENDBRANCH  10  11
ENDBRANCH   9  10
ENDBRANCH   8   9
ENDBRANCH   7   8
ENDBRANCH   6   7
ENDBRANCH   5   6
ENDBRANCH   4   5
ENDBRANCH   3   4
ENDBRANCH   2   3
ENDBRANCH   1   2
BRANCH   1  18
ATOM     18  C   UNL     1      -0.404 -21.792  16.063  1.00  0.00     0.000 C 
BRANCH  18  19
ATOM     19  C   UNL     1      -1.177 -23.117  16.182  1.00  0.00     0.000 C 
BRANCH  19  20
ATOM     20  C   UNL     1      -2.473 -22.981  16.995  1.00  0.00     0.000 C 
BRANCH  20  21
ATOM     21  C   UNL     1      -3.742 -23.109  16.135  1.00  0.00     0.000 C 
BRANCH  21  22
ATOM     22  C   UNL     1      -5.077 -23.122  16.910  1.00  0.00     0.000 C 
BRANCH  22  23
ATOM     23  C   UNL     1      -5.776 -21.745  16.997  1.00  0.00     0.000 C 
BRANCH  23  24
ATOM     24  C   UNL     1      -6.609 -21.355  15.755  1.00  0.00    -0.000 C 
BRANCH  24  25
ATOM     25  C   UNL     1      -8.129 -21.584  15.876  1.00  0.00    -0.000 C 
BRANCH  25  26
ATOM     26  C   UNL     1      -8.598 -22.201  17.209  1.00  0.00    -0.000 C 
BRANCH  26  27
ATOM     27  C   UNL     1     -10.047 -21.829  17.590  1.00  0.00    -0.000 C 
BRANCH  27  28
ATOM     28  C   UNL     1     -10.233 -21.665  19.106  1.00  0.00    -0.000 C 
BRANCH  28  29
ATOM     29  C   UNL     1     -10.105 -20.193  19.516  1.00  0.00    -0.000 C 
BRANCH  29  30
ATOM     30  C   UNL     1      -9.667 -20.062  20.984  1.00  0.00    -0.000 C 
BRANCH  30  31
ATOM     31  C   UNL     1      -9.490 -21.426  21.672  1.00  0.00    -0.003 C 
ATOM     32  C   UNL     1      -8.558 -21.365  22.881  1.00  0.00     0.004 C 
ENDBRANCH  30  31
ENDBRANCH  29  30
ENDBRANCH  28  29
ENDBRANCH  27  28
ENDBRANCH  26  27
ENDBRANCH  25  26
ENDBRANCH  24  25
ENDBRANCH  23  24
ENDBRANCH  22  23
ENDBRANCH  21  22
ENDBRANCH  20  21
ENDBRANCH  19  20
ENDBRANCH  18  19
ENDBRANCH   1  18
TORSDOF 28
ENDMDL
MODEL 5
REMARK VINA RESULT:    -0.872      2.344      3.022
REMARK INTER + INTRA:          -3.775
REMARK INTER:                  -2.827
REMARK INTRA:                  -0.947
REMARK UNBOUND:                -1.474
REMARK SMILES CCCCCCCCCCCCCCCCCCCCCCCCCCCCCC(=O)[O-]
REMARK SMILES IDX 16 1 17 2 18 3 19 4 20 5 21 6 22 7 23 8 24 9 25 10 26 11
REMARK SMILES IDX 27 12 28 13 29 14 30 15 31 16 32 17 15 18 14 19 13 20 12 21
REMARK SMILES IDX 11 22 10 23 9 24 8 25 7 26 6 27 5 28 4 29 3 30 2 31 1 32
REMARK H PARENT
REMARK Flexibility Score: inf
ROOT
ATOM      1  C   UNL     1       0.496 -21.131  16.537  1.00  0.00     0.000 C 
ENDROOT
BRANCH   1   2
ATOM      2  C   UNL     1      -0.605 -22.190  16.737  1.00  0.00     0.000 C 
BRANCH   2   3
ATOM      3  C   UNL     1      -1.670 -22.133  15.626  1.00  0.00     0.000 C 
BRANCH   3   4
ATOM      4  C   UNL     1      -2.873 -23.045  15.934  1.00  0.00     0.000 C 
BRANCH   4   5
ATOM      5  C   UNL     1      -4.137 -22.266  16.340  1.00  0.00     0.000 C 
BRANCH   5   6
ATOM      6  C   UNL     1      -5.292 -23.125  16.893  1.00  0.00     0.000 C 
BRANCH   6   7
ATOM      7  C   UNL     1      -5.933 -22.609  18.194  1.00  0.00     0.000 C 
BRANCH   7   8
ATOM      8  C   UNL     1      -7.469 -22.498  18.164  1.00  0.00     0.000 C 
BRANCH   8   9
ATOM      9  C   UNL     1      -8.112 -22.371  19.561  1.00  0.00     0.000 C 
BRANCH   9  10
ATOM     10  C   UNL     1      -9.606 -22.732  19.554  1.00  0.00     0.000 C 
BRANCH  10  11
ATOM     11  C   UNL     1     -10.514 -21.508  19.332  1.00  0.00     0.000 C 
BRANCH  11  12
ATOM     12  C   UNL     1     -10.028 -20.582  18.194  1.00  0.00     0.000 C 
BRANCH  12  13
ATOM     13  C   UNL     1     -11.069 -20.443  17.070  1.00  0.00     0.006 C 
BRANCH  13  14
ATOM     14  C   UNL     1     -10.651 -21.178  15.789  1.00  0.00     0.053 C 
BRANCH  14  15
ATOM     15  C   UNL     1      -9.335 -20.686  15.269  1.00  0.00     0.041 C 
ATOM     16  O   UNL     1      -9.227 -19.512  14.827  1.00  0.00    -0.550 OA
ATOM     17  O   UNL     1      -8.217 -21.507  15.319  1.00  0.00    -0.550 OA
ENDBRANCH  14  15
ENDBRANCH  13  14
ENDBRANCH  12  13
ENDBRANCH  11  12
ENDBRANCH  10  11
ENDBRANCH   9  10
ENDBRANCH   8   9
ENDBRANCH   7   8
ENDBRANCH   6   7
ENDBRANCH   5   6
ENDBRANCH   4   5
ENDBRANCH   3   4
ENDBRANCH   2   3
ENDBRANCH   1   2
BRANCH   1  18
ATOM     18  C   UNL     1       1.824 -21.739  16.041  1.00  0.00     0.000 C 
BRANCH  18  19
ATOM     19  C   UNL     1       2.934 -21.763  17.105  1.00  0.00     0.000 C 
BRANCH  19  20
ATOM     20  C   UNL     1       4.114 -22.669  16.718  1.00  0.00     0.000 C 
BRANCH  20  21
ATOM     21  C   UNL     1       5.459 -22.185  17.284  1.00  0.00     0.000 C 
BRANCH  21  22
ATOM     22  C   UNL     1       6.703 -22.519  16.433  1.00  0.00     0.000 C 
BRANCH  22  23
ATOM     23  C   UNL     1       7.905 -21.573  16.664  1.00  0.00     0.000 C 
BRANCH  23  24
ATOM     24  C   UNL     1       8.354 -20.773  15.422  1.00  0.00    -0.000 C 
BRANCH  24  25
ATOM     25  C   UNL     1       9.088 -21.586  14.337  1.00  0.00    -0.000 C 
BRANCH  25  26
ATOM     26  C   UNL     1       8.190 -22.493  13.473  1.00  0.00    -0.000 C 
BRANCH  26  27
ATOM     27  C   UNL     1       8.731 -22.724  12.046  1.00  0.00    -0.000 C 
BRANCH  27  28
ATOM     28  C   UNL     1       7.746 -22.261  10.961  1.00  0.00    -0.000 C 
BRANCH  28  29
ATOM     29  C   UNL     1       6.888 -21.094  11.465  1.00  0.00    -0.000 C 
BRANCH  29  30
ATOM     30  C   UNL     1       7.473 -19.743  11.021  1.00  0.00    -0.000 C 
BRANCH  30  31
ATOM     31  C   UNL     1       7.497 -19.583   9.493  1.00  0.00    -0.003 C 
ATOM     32  C   UNL     1       6.226 -18.940   8.942  1.00  0.00     0.004 C 
ENDBRANCH  30  31
ENDBRANCH  29  30
ENDBRANCH  28  29
ENDBRANCH  27  28
ENDBRANCH  26  27
ENDBRANCH  25  26
ENDBRANCH  24  25
ENDBRANCH  23  24
ENDBRANCH  22  23
ENDBRANCH  21  22
ENDBRANCH  20  21
ENDBRANCH  19  20
ENDBRANCH  18  19
ENDBRANCH   1  18
TORSDOF 28
ENDMDL
MODEL 6
REMARK VINA RESULT:    -0.683      5.170     16.401
REMARK INTER + INTRA:          -3.274
REMARK INTER:                  -3.487
REMARK INTRA:                   0.213
REMARK UNBOUND:                -1.474
REMARK SMILES CCCCCCCCCCCCCCCCCCCCCCCCCCCCCC(=O)[O-]
REMARK SMILES IDX 16 1 17 2 18 3 19 4 20 5 21 6 22 7 23 8 24 9 25 10 26 11
REMARK SMILES IDX 27 12 28 13 29 14 30 15 31 16 32 17 15 18 14 19 13 20 12 21
REMARK SMILES IDX 11 22 10 23 9 24 8 25 7 26 6 27 5 28 4 29 3 30 2 31 1 32
REMARK H PARENT
REMARK Flexibility Score: inf
ROOT
ATOM      1  C   UNL     1      -4.056 -22.550  15.599  1.00  0.00     0.000 C 
ENDROOT
BRANCH   1   2
ATOM      2  C   UNL     1      -2.770 -21.997  16.240  1.00  0.00     0.000 C 
BRANCH   2   3
ATOM      3  C   UNL     1      -1.642 -23.045  16.273  1.00  0.00     0.000 C 
BRANCH   3   4
ATOM      4  C   UNL     1      -0.254 -22.394  16.426  1.00  0.00     0.000 C 
BRANCH   4   5
ATOM      5  C   UNL     1       0.840 -23.101  15.607  1.00  0.00     0.000 C 
BRANCH   5   6
ATOM      6  C   UNL     1       2.181 -22.345  15.506  1.00  0.00     0.000 C 
BRANCH   6   7
ATOM      7  C   UNL     1       3.317 -22.896  16.388  1.00  0.00     0.000 C 
BRANCH   7   8
ATOM      8  C   UNL     1       4.681 -22.209  16.195  1.00  0.00     0.000 C 
BRANCH   8   9
ATOM      9  C   UNL     1       5.650 -22.403  17.382  1.00  0.00     0.000 C 
BRANCH   9  10
ATOM     10  C   UNL     1       6.669 -21.258  17.501  1.00  0.00     0.000 C 
BRANCH  10  11
ATOM     11  C   UNL     1       8.051 -21.629  16.932  1.00  0.00     0.000 C 
BRANCH  11  12
ATOM     12  C   UNL     1       8.125 -23.075  16.392  1.00  0.00     0.000 C 
BRANCH  12  13
ATOM     13  C   UNL     1       8.248 -23.119  14.859  1.00  0.00     0.006 C 
BRANCH  13  14
ATOM     14  C   UNL     1       6.883 -23.067  14.160  1.00  0.00     0.053 C 
BRANCH  14  15
ATOM     15  C   UNL     1       6.998 -22.580  12.748  1.00  0.00     0.041 C 
ATOM     16  O   UNL     1       7.956 -21.837  12.411  1.00  0.00    -0.550 OA
ATOM     17  O   UNL     1       6.074 -22.986  11.795  1.00  0.00    -0.550 OA
ENDBRANCH  14  15
ENDBRANCH  13  14
ENDBRANCH  12  13
ENDBRANCH  11  12
ENDBRANCH  10  11
ENDBRANCH   9  10
ENDBRANCH   8   9
ENDBRANCH   7   8
ENDBRANCH   6   7
ENDBRANCH   5   6
ENDBRANCH   4   5
ENDBRANCH   3   4
ENDBRANCH   2   3
ENDBRANCH   1   2
BRANCH   1  18
ATOM     18  C   UNL     1      -5.196 -21.512  15.558  1.00  0.00     0.000 C 
BRANCH  18  19
ATOM     19  C   UNL     1      -6.603 -22.131  15.559  1.00  0.00     0.000 C 
BRANCH  19  20
ATOM     20  C   UNL     1      -7.700 -21.122  15.182  1.00  0.00     0.000 C 
BRANCH  20  21
ATOM     21  C   UNL     1      -8.700 -20.863  16.322  1.00  0.00     0.000 C 
BRANCH  21  22
ATOM     22  C   UNL     1      -9.217 -22.118  17.057  1.00  0.00     0.000 C 
BRANCH  22  23
ATOM     23  C   UNL     1     -10.569 -21.919  17.781  1.00  0.00     0.000 C 
BRANCH  23  24
ATOM     24  C   UNL     1     -11.043 -23.125  18.622  1.00  0.00    -0.000 C 
BRANCH  24  25
ATOM     25  C   UNL     1     -10.598 -23.122  20.098  1.00  0.00    -0.000 C 
BRANCH  25  26
ATOM     26  C   UNL     1      -9.350 -22.272  20.408  1.00  0.00    -0.000 C 
BRANCH  26  27
ATOM     27  C   UNL     1      -9.654 -20.772  20.604  1.00  0.00    -0.000 C 
BRANCH  27  28
ATOM     28  C   UNL     1     -10.333 -20.479  21.952  1.00  0.00    -0.000 C 
BRANCH  28  29
ATOM     29  C   UNL     1      -9.322 -20.563  23.102  1.00  0.00    -0.000 C 
BRANCH  29  30
ATOM     30  C   UNL     1      -8.720 -21.973  23.210  1.00  0.00    -0.000 C 
BRANCH  30  31
ATOM     31  C   UNL     1      -9.681 -22.978  23.866  1.00  0.00    -0.003 C 
ATOM     32  C   UNL     1     -11.022 -22.354  24.247  1.00  0.00     0.004 C 
ENDBRANCH  30  31
ENDBRANCH  29  30
ENDBRANCH  28  29
ENDBRANCH  27  28
ENDBRANCH  26  27
ENDBRANCH  25  26
ENDBRANCH  24  25
ENDBRANCH  23  24
ENDBRANCH  22  23
ENDBRANCH  21  22
ENDBRANCH  20  21
ENDBRANCH  19  20
ENDBRANCH  18  19
ENDBRANCH   1  18
TORSDOF 28
ENDMDL
MODEL 7
REMARK VINA RESULT:    -0.110      2.038      4.105
REMARK INTER + INTRA:          -1.765
REMARK INTER:                  -0.125
REMARK INTRA:                  -1.641
REMARK UNBOUND:                -1.474
REMARK SMILES CCCCCCCCCCCCCCCCCCCCCCCCCCCCCC(=O)[O-]
REMARK SMILES IDX 16 1 17 2 18 3 19 4 20 5 21 6 22 7 23 8 24 9 25 10 26 11
REMARK SMILES IDX 27 12 28 13 29 14 30 15 31 16 32 17 15 18 14 19 13 20 12 21
REMARK SMILES IDX 11 22 10 23 9 24 8 25 7 26 6 27 5 28 4 29 3 30 2 31 1 32
REMARK H PARENT
REMARK Flexibility Score: inf
ROOT
ATOM      1  C   UNL     1      -2.613 -22.435  15.984  1.00  0.00     0.000 C 
ENDROOT
BRANCH   1   2
ATOM      2  C   UNL     1      -3.558 -23.048  17.033  1.00  0.00     0.000 C 
BRANCH   2   3
ATOM      3  C   UNL     1      -4.955 -22.401  17.004  1.00  0.00     0.000 C 
BRANCH   3   4
ATOM      4  C   UNL     1      -5.829 -22.860  18.185  1.00  0.00     0.000 C 
BRANCH   4   5
ATOM      5  C   UNL     1      -7.297 -23.111  17.792  1.00  0.00     0.000 C 
BRANCH   5   6
ATOM      6  C   UNL     1      -7.973 -21.969  17.006  1.00  0.00     0.000 C 
BRANCH   6   7
ATOM      7  C   UNL     1      -7.531 -21.827  15.539  1.00  0.00     0.000 C 
BRANCH   7   8
ATOM      8  C   UNL     1      -7.527 -20.385  14.997  1.00  0.00     0.000 C 
BRANCH   8   9
ATOM      9  C   UNL     1      -8.818 -19.998  14.245  1.00  0.00     0.000 C 
BRANCH   9  10
ATOM     10  C   UNL     1      -9.835 -21.149  14.193  1.00  0.00     0.000 C 
BRANCH  10  11
ATOM     11  C   UNL     1     -11.101 -20.864  15.020  1.00  0.00     0.000 C 
BRANCH  11  12
ATOM     12  C   UNL     1     -10.859 -19.896  16.200  1.00  0.00     0.000 C 
BRANCH  12  13
ATOM     13  C   UNL     1     -10.930 -20.607  17.563  1.00  0.00     0.006 C 
BRANCH  13  14
ATOM     14  C   UNL     1     -10.546 -19.684  18.727  1.00  0.00     0.053 C 
BRANCH  14  15
ATOM     15  C   UNL     1     -10.489 -20.422  20.029  1.00  0.00     0.041 C 
ATOM     16  O   UNL     1     -10.187 -19.814  21.089  1.00  0.00    -0.550 OA
ATOM     17  O   UNL     1     -10.817 -21.770  20.079  1.00  0.00    -0.550 OA
ENDBRANCH  14  15
ENDBRANCH  13  14
ENDBRANCH  12  13
ENDBRANCH  11  12
ENDBRANCH  10  11
ENDBRANCH   9  10
ENDBRANCH   8   9
ENDBRANCH   7   8
ENDBRANCH   6   7
ENDBRANCH   5   6
ENDBRANCH   4   5
ENDBRANCH   3   4
ENDBRANCH   2   3
ENDBRANCH   1   2
BRANCH   1  18
ATOM     18  C   UNL     1      -1.129 -22.745  16.266  1.00  0.00     0.000 C 
BRANCH  18  19
ATOM     19  C   UNL     1      -0.206 -21.518  16.169  1.00  0.00     0.000 C 
BRANCH  19  20
ATOM     20  C   UNL     1       0.899 -21.516  17.237  1.00  0.00     0.000 C 
BRANCH  20  21
ATOM     21  C   UNL     1       2.136 -22.334  16.828  1.00  0.00     0.000 C 
BRANCH  21  22
ATOM     22  C   UNL     1       2.800 -21.923  15.496  1.00  0.00     0.000 C 
BRANCH  22  23
ATOM     23  C   UNL     1       3.441 -23.096  14.717  1.00  0.00     0.000 C 
BRANCH  23  24
ATOM     24  C   UNL     1       3.674 -22.830  13.213  1.00  0.00    -0.000 C 
BRANCH  24  25
ATOM     25  C   UNL     1       5.098 -23.125  12.699  1.00  0.00    -0.000 C 
BRANCH  25  26
ATOM     26  C   UNL     1       6.164 -22.077  13.075  1.00  0.00    -0.000 C 
BRANCH  26  27
ATOM     27  C   UNL     1       7.594 -22.651  13.162  1.00  0.00    -0.000 C 
BRANCH  27  28
ATOM     28  C   UNL     1       8.621 -21.605  13.625  1.00  0.00    -0.000 C 
BRANCH  28  29
ATOM     29  C   UNL     1       8.275 -21.082  15.025  1.00  0.00    -0.000 C 
BRANCH  29  30
ATOM     30  C   UNL     1       8.973 -21.912  16.115  1.00  0.00    -0.000 C 
BRANCH  30  31
ATOM     31  C   UNL     1       7.988 -22.467  17.156  1.00  0.00    -0.003 C 
ATOM     32  C   UNL     1       6.604 -21.827  17.066  1.00  0.00     0.004 C 
ENDBRANCH  30  31
ENDBRANCH  29  30
ENDBRANCH  28  29
ENDBRANCH  27  28
ENDBRANCH  26  27
ENDBRANCH  25  26
ENDBRANCH  24  25
ENDBRANCH  23  24
ENDBRANCH  22  23
ENDBRANCH  21  22
ENDBRANCH  20  21
ENDBRANCH  19  20
ENDBRANCH  18  19
ENDBRANCH   1  18
TORSDOF 28
ENDMDL
MODEL 8
REMARK VINA RESULT:     0.127      1.212      3.881
REMARK INTER + INTRA:          -1.139
REMARK INTER:                  -0.386
REMARK INTRA:                  -0.753
REMARK UNBOUND:                -1.474
REMARK SMILES CCCCCCCCCCCCCCCCCCCCCCCCCCCCCC(=O)[O-]
REMARK SMILES IDX 16 1 17 2 18 3 19 4 20 5 21 6 22 7 23 8 24 9 25 10 26 11
REMARK SMILES IDX 27 12 28 13 29 14 30 15 31 16 32 17 15 18 14 19 13 20 12 21
REMARK SMILES IDX 11 22 10 23 9 24 8 25 7 26 6 27 5 28 4 29 3 30 2 31 1 32
REMARK H PARENT
REMARK Flexibility Score: inf
ROOT
ATOM      1  C   UNL     1      -4.612 -21.245  14.546  1.00  0.00     0.000 C 
ENDROOT
BRANCH   1   2
ATOM      2  C   UNL     1      -5.788 -20.892  15.475  1.00  0.00     0.000 C 
BRANCH   2   3
ATOM      3  C   UNL     1      -6.135 -22.045  16.435  1.00  0.00     0.000 C 
BRANCH   3   4
ATOM      4  C   UNL     1      -7.508 -22.665  16.119  1.00  0.00     0.000 C 
BRANCH   4   5
ATOM      5  C   UNL     1      -8.272 -23.120  17.376  1.00  0.00     0.000 C 
BRANCH   5   6
ATOM      6  C   UNL     1      -9.638 -22.440  17.599  1.00  0.00     0.000 C 
BRANCH   6   7
ATOM      7  C   UNL     1     -10.167 -21.616  16.411  1.00  0.00     0.000 C 
BRANCH   7   8
ATOM      8  C   UNL     1      -9.899 -20.102  16.500  1.00  0.00     0.000 C 
BRANCH   8   9
ATOM      9  C   UNL     1     -11.116 -19.281  16.981  1.00  0.00     0.000 C 
BRANCH   9  10
ATOM     10  C   UNL     1     -11.124 -19.082  18.505  1.00  0.00     0.000 C 
BRANCH  10  11
ATOM     11  C   UNL     1     -11.034 -20.408  19.280  1.00  0.00     0.000 C 
BRANCH  11  12
ATOM     12  C   UNL     1     -10.072 -20.350  20.488  1.00  0.00     0.000 C 
BRANCH  12  13
ATOM     13  C   UNL     1      -9.143 -21.575  20.554  1.00  0.00     0.006 C 
BRANCH  13  14
ATOM     14  C   UNL     1      -9.466 -22.493  21.740  1.00  0.00     0.053 C 
BRANCH  14  15
ATOM     15  C   UNL     1      -9.439 -21.752  23.042  1.00  0.00     0.041 C 
ATOM     16  O   UNL     1     -10.498 -21.598  23.705  1.00  0.00    -0.550 OA
ATOM     17  O   UNL     1      -8.237 -21.275  23.546  1.00  0.00    -0.550 OA
ENDBRANCH  14  15
ENDBRANCH  13  14
ENDBRANCH  12  13
ENDBRANCH  11  12
ENDBRANCH  10  11
ENDBRANCH   9  10
ENDBRANCH   8   9
ENDBRANCH   7   8
ENDBRANCH   6   7
ENDBRANCH   5   6
ENDBRANCH   4   5
ENDBRANCH   3   4
ENDBRANCH   2   3
ENDBRANCH   1   2
BRANCH   1  18
ATOM     18  C   UNL     1      -3.240 -20.919  15.173  1.00  0.00     0.000 C 
BRANCH  18  19
ATOM     19  C   UNL     1      -2.456 -22.158  15.637  1.00  0.00     0.000 C 
BRANCH  19  20
ATOM     20  C   UNL     1      -1.008 -21.833  16.037  1.00  0.00     0.000 C 
BRANCH  20  21
ATOM     21  C   UNL     1      -0.102 -23.075  16.086  1.00  0.00     0.000 C 
BRANCH  21  22
ATOM     22  C   UNL     1       1.226 -22.966  15.308  1.00  0.00     0.000 C 
BRANCH  22  23
ATOM     23  C   UNL     1       2.357 -22.242  16.077  1.00  0.00     0.000 C 
BRANCH  23  24
ATOM     24  C   UNL     1       3.608 -23.102  16.360  1.00  0.00    -0.000 C 
BRANCH  24  25
ATOM     25  C   UNL     1       4.923 -22.320  16.550  1.00  0.00    -0.000 C 
BRANCH  25  26
ATOM     26  C   UNL     1       6.130 -22.858  15.756  1.00  0.00    -0.000 C 
BRANCH  26  27
ATOM     27  C   UNL     1       7.366 -21.934  15.803  1.00  0.00    -0.000 C 
BRANCH  27  28
ATOM     28  C   UNL     1       8.011 -21.742  14.422  1.00  0.00    -0.000 C 
BRANCH  28  29
ATOM     29  C   UNL     1       7.190 -22.445  13.334  1.00  0.00    -0.000 C 
BRANCH  29  30
ATOM     30  C   UNL     1       6.733 -21.450  12.254  1.00  0.00    -0.000 C 
BRANCH  30  31
ATOM     31  C   UNL     1       7.910 -20.851  11.467  1.00  0.00    -0.003 C 
ATOM     32  C   UNL     1       7.468 -19.813  10.437  1.00  0.00     0.004 C 
ENDBRANCH  30  31
ENDBRANCH  29  30
ENDBRANCH  28  29
ENDBRANCH  27  28
ENDBRANCH  26  27
ENDBRANCH  25  26
ENDBRANCH  24  25
ENDBRANCH  23  24
ENDBRANCH  22  23
ENDBRANCH  21  22
ENDBRANCH  20  21
ENDBRANCH  19  20
ENDBRANCH  18  19
ENDBRANCH   1  18
TORSDOF 28
ENDMDL
