MODEL 1
REMARK VINA RESULT:    -3.557      0.000      0.000
REMARK INTER + INTRA:          -5.226
REMARK INTER:                  -4.805
REMARK INTRA:                  -0.421
REMARK UNBOUND:                -0.421
REMARK SMILES CCCCCCC=CC(=O)[O-]
REMARK SMILES IDX 5 1 6 2 7 3 8 4 9 5 10 6 11 7 4 8 3 9 2 10 1 11
REMARK H PARENT
REMARK Flexibility Score: inf
ROOT
ATOM      1  C   UNL     1      -8.827  24.844 -22.318  1.00  0.00     0.004 C 
ENDROOT
BRANCH   1   2
ATOM      2  C   UNL     1      -8.624  24.736 -20.802  1.00  0.00     0.027 C 
BRANCH   2   3
ATOM      3  C   UNL     1      -7.313  24.075 -20.472  1.00  0.00    -0.025 C 
ATOM      4  C   UNL     1      -7.022  23.419 -19.336  1.00  0.00     0.020 C 
BRANCH   4   5
ATOM      5  C   UNL     1      -7.937  23.175 -18.201  1.00  0.00     0.064 C 
ATOM      6  O   UNL     1      -8.231  21.989 -17.902  1.00  0.00    -0.545 OA
ATOM      7  O   UNL     1      -8.505  24.211 -17.469  1.00  0.00    -0.545 OA
ENDBRANCH   4   5
ENDBRANCH   2   3
ENDBRANCH   1   2
BRANCH   1   8
ATOM      8  C   UNL     1      -9.243  26.268 -22.717  1.00  0.00     0.000 C 
BRANCH   8   9
ATOM      9  C   UNL     1      -9.359  27.206 -21.497  1.00  0.00    -0.000 C 
BRANCH   9  10
ATOM     10  C   UNL     1      -8.360  28.374 -21.521  1.00  0.00    -0.003 C 
ATOM     11  C   UNL     1      -7.304  28.238 -22.616  1.00  0.00     0.004 C 
ENDBRANCH   9  10
ENDBRANCH   8   9
ENDBRANCH   1   8
TORSDOF 6
ENDMDL
MODEL 2
REMARK VINA RESULT:    -3.236      1.390      2.065
REMARK INTER + INTRA:          -4.792
REMARK INTER:                  -4.355
REMARK INTRA:                  -0.437
REMARK UNBOUND:                -0.421
REMARK SMILES CCCCCCC=CC(=O)[O-]
REMARK SMILES IDX 5 1 6 2 7 3 8 4 9 5 10 6 11 7 4 8 3 9 2 10 1 11
REMARK H PARENT
REMARK Flexibility Score: inf
ROOT
ATOM      1  C   UNL     1      -7.955  24.709 -20.928  1.00  0.00     0.004 C 
ENDROOT
BRANCH   1   2
ATOM      2  C   UNL     1      -8.673  24.160 -19.689  1.00  0.00     0.027 C 
BRANCH   2   3
ATOM      3  C   UNL     1      -9.291  22.816 -19.965  1.00  0.00    -0.025 C 
ATOM      4  C   UNL     1      -8.849  21.634 -19.507  1.00  0.00     0.020 C 
BRANCH   4   5
ATOM      5  C   UNL     1      -7.697  21.413 -18.607  1.00  0.00     0.064 C 
ATOM      6  O   UNL     1      -7.876  21.484 -17.363  1.00  0.00    -0.545 OA
ATOM      7  O   UNL     1      -6.419  21.157 -19.086  1.00  0.00    -0.545 OA
ENDBRANCH   4   5
ENDBRANCH   2   3
ENDBRANCH   1   2
BRANCH   1   8
ATOM      8  C   UNL     1      -8.886  24.706 -22.149  1.00  0.00     0.000 C 
BRANCH   8   9
ATOM      9  C   UNL     1      -9.173  26.131 -22.669  1.00  0.00    -0.000 C 
BRANCH   9  10
ATOM     10  C   UNL     1      -9.359  27.169 -21.551  1.00  0.00    -0.003 C 
ATOM     11  C   UNL     1      -8.386  28.341 -21.652  1.00  0.00     0.004 C 
ENDBRANCH   9  10
ENDBRANCH   8   9
ENDBRANCH   1   8
TORSDOF 6
ENDMDL
MODEL 3
REMARK VINA RESULT:    -3.217      4.596      6.710
REMARK INTER + INTRA:          -4.766
REMARK INTER:                  -4.423
REMARK INTRA:                  -0.344
REMARK UNBOUND:                -0.421
REMARK SMILES CCCCCCC=CC(=O)[O-]
REMARK SMILES IDX 5 1 6 2 7 3 8 4 9 5 10 6 11 7 4 8 3 9 2 10 1 11
REMARK H PARENT
REMARK Flexibility Score: inf
ROOT
ATOM      1  C   UNL     1      -8.467  28.447 -21.553  1.00  0.00     0.004 C 
ENDROOT
BRANCH   1   2
ATOM      2  C   UNL     1      -7.368  28.271 -22.607  1.00  0.00     0.027 C 
BRANCH   2   3
ATOM      3  C   UNL     1      -6.392  29.417 -22.575  1.00  0.00    -0.025 C 
ATOM      4  C   UNL     1      -6.211  30.328 -23.545  1.00  0.00     0.020 C 
BRANCH   4   5
ATOM      5  C   UNL     1      -6.957  30.420 -24.818  1.00  0.00     0.064 C 
ATOM      6  O   UNL     1      -6.851  29.484 -25.653  1.00  0.00    -0.545 OA
ATOM      7  O   UNL     1      -7.749  31.516 -25.137  1.00  0.00    -0.545 OA
ENDBRANCH   4   5
ENDBRANCH   2   3
ENDBRANCH   1   2
BRANCH   1   8
ATOM      8  C   UNL     1      -9.394  27.222 -21.517  1.00  0.00     0.000 C 
BRANCH   8   9
ATOM      9  C   UNL     1      -9.077  26.215 -22.641  1.00  0.00    -0.000 C 
BRANCH   9  10
ATOM     10  C   UNL     1      -8.809  24.789 -22.133  1.00  0.00    -0.003 C 
ATOM     11  C   UNL     1      -8.587  24.722 -20.623  1.00  0.00     0.004 C 
ENDBRANCH   9  10
ENDBRANCH   8   9
ENDBRANCH   1   8
TORSDOF 6
ENDMDL
MODEL 4
REMARK VINA RESULT:    -3.214     12.061     13.008
REMARK INTER + INTRA:          -4.763
REMARK INTER:                  -4.139
REMARK INTRA:                  -0.624
REMARK UNBOUND:                -0.421
REMARK SMILES CCCCCCC=CC(=O)[O-]
REMARK SMILES IDX 5 1 6 2 7 3 8 4 9 5 10 6 11 7 4 8 3 9 2 10 1 11
REMARK H PARENT
REMARK Flexibility Score: inf
ROOT
ATOM      1  C   UNL     1      -6.729  36.906 -22.657  1.00  0.00     0.004 C 
ENDROOT
BRANCH   1   2
ATOM      2  C   UNL     1      -6.246  36.739 -21.211  1.00  0.00     0.027 C 
BRANCH   2   3
ATOM      3  C   UNL     1      -5.746  38.042 -20.648  1.00  0.00    -0.025 C 
ATOM      4  C   UNL     1      -5.173  38.215 -19.445  1.00  0.00     0.020 C 
BRANCH   4   5
ATOM      5  C   UNL     1      -4.878  37.162 -18.450  1.00  0.00     0.064 C 
ATOM      6  O   UNL     1      -5.574  37.103 -17.403  1.00  0.00    -0.545 OA
ATOM      7  O   UNL     1      -3.842  36.252 -18.617  1.00  0.00    -0.545 OA
ENDBRANCH   4   5
ENDBRANCH   2   3
ENDBRANCH   1   2
BRANCH   1   8
ATOM      8  C   UNL     1      -7.451  38.248 -22.844  1.00  0.00     0.000 C 
BRANCH   8   9
ATOM      9  C   UNL     1      -8.976  38.126 -22.640  1.00  0.00    -0.000 C 
BRANCH   9  10
ATOM     10  C   UNL     1      -9.540  39.112 -21.605  1.00  0.00    -0.003 C 
ATOM     11  C   UNL     1      -8.598  40.278 -21.311  1.00  0.00     0.004 C 
ENDBRANCH   9  10
ENDBRANCH   8   9
ENDBRANCH   1   8
TORSDOF 6
ENDMDL
MODEL 5
REMARK VINA RESULT:    -3.206      3.602      5.307
REMARK INTER + INTRA:          -4.752
REMARK INTER:                  -3.950
REMARK INTRA:                  -0.802
REMARK UNBOUND:                -0.421
REMARK SMILES CCCCCCC=CC(=O)[O-]
REMARK SMILES IDX 5 1 6 2 7 3 8 4 9 5 10 6 11 7 4 8 3 9 2 10 1 11
REMARK H PARENT
REMARK Flexibility Score: inf
ROOT
ATOM      1  C   UNL     1      -8.708  25.718 -21.193  1.00  0.00     0.004 C 
ENDROOT
BRANCH   1   2
ATOM      2  C   UNL     1      -9.318  26.961 -21.854  1.00  0.00     0.027 C 
BRANCH   2   3
ATOM      3  C   UNL     1      -8.516  28.195 -21.542  1.00  0.00    -0.025 C 
ATOM      4  C   UNL     1      -7.461  28.649 -22.238  1.00  0.00     0.020 C 
BRANCH   4   5
ATOM      5  C   UNL     1      -6.900  28.060 -23.472  1.00  0.00     0.064 C 
ATOM      6  O   UNL     1      -7.085  28.653 -24.567  1.00  0.00    -0.545 OA
ATOM      7  O   UNL     1      -6.199  26.860 -23.470  1.00  0.00    -0.545 OA
ENDBRANCH   4   5
ENDBRANCH   2   3
ENDBRANCH   1   2
BRANCH   1   8
ATOM      8  C   UNL     1      -8.574  24.569 -22.203  1.00  0.00     0.000 C 
BRANCH   8   9
ATOM      9  C   UNL     1      -9.538  24.724 -23.398  1.00  0.00    -0.000 C 
BRANCH   9  10
ATOM     10  C   UNL     1      -8.829  24.755 -24.762  1.00  0.00    -0.003 C 
ATOM     11  C   UNL     1      -9.161  25.999 -25.583  1.00  0.00     0.004 C 
ENDBRANCH   9  10
ENDBRANCH   8   9
ENDBRANCH   1   8
TORSDOF 6
ENDMDL
MODEL 6
REMARK VINA RESULT:    -3.192     11.328     12.421
REMARK INTER + INTRA:          -4.732
REMARK INTER:                  -4.232
REMARK INTRA:                  -0.501
REMARK UNBOUND:                -0.421
REMARK SMILES CCCCCCC=CC(=O)[O-]
REMARK SMILES IDX 5 1 6 2 7 3 8 4 9 5 10 6 11 7 4 8 3 9 2 10 1 11
REMARK H PARENT
REMARK Flexibility Score: inf
ROOT
ATOM      1  C   UNL     1      -4.965  38.354 -19.346  1.00  0.00     0.004 C 
ENDROOT
BRANCH   1   2
ATOM      2  C   UNL     1      -5.219  37.296 -18.265  1.00  0.00     0.027 C 
BRANCH   2   3
ATOM      3  C   UNL     1      -3.963  36.991 -17.494  1.00  0.00    -0.025 C 
ATOM      4  C   UNL     1      -2.977  36.167 -17.884  1.00  0.00     0.020 C 
BRANCH   4   5
ATOM      5  C   UNL     1      -2.899  35.429 -19.162  1.00  0.00     0.064 C 
ATOM      6  O   UNL     1      -2.226  35.917 -20.106  1.00  0.00    -0.545 OA
ATOM      7  O   UNL     1      -3.567  34.228 -19.366  1.00  0.00    -0.545 OA
ENDBRANCH   4   5
ENDBRANCH   2   3
ENDBRANCH   1   2
BRANCH   1   8
ATOM      8  C   UNL     1      -5.864  38.117 -20.569  1.00  0.00     0.000 C 
BRANCH   8   9
ATOM      9  C   UNL     1      -5.911  36.631 -20.981  1.00  0.00    -0.000 C 
BRANCH   9  10
ATOM     10  C   UNL     1      -6.493  36.399 -22.385  1.00  0.00    -0.003 C 
ATOM     11  C   UNL     1      -7.732  37.246 -22.667  1.00  0.00     0.004 C 
ENDBRANCH   9  10
ENDBRANCH   8   9
ENDBRANCH   1   8
TORSDOF 6
ENDMDL
MODEL 7
REMARK VINA RESULT:    -3.161      1.270      1.931
REMARK INTER + INTRA:          -4.691
REMARK INTER:                  -4.247
REMARK INTRA:                  -0.444
REMARK UNBOUND:                -0.421
REMARK SMILES CCCCCCC=CC(=O)[O-]
REMARK SMILES IDX 5 1 6 2 7 3 8 4 9 5 10 6 11 7 4 8 3 9 2 10 1 11
REMARK H PARENT
REMARK Flexibility Score: inf
ROOT
ATOM      1  C   UNL     1      -8.813  25.849 -21.119  1.00  0.00     0.004 C 
ENDROOT
BRANCH   1   2
ATOM      2  C   UNL     1      -8.618  24.330 -21.202  1.00  0.00     0.027 C 
BRANCH   2   3
ATOM      3  C   UNL     1      -7.284  23.918 -20.639  1.00  0.00    -0.025 C 
ATOM      4  C   UNL     1      -7.058  23.465 -19.395  1.00  0.00     0.020 C 
BRANCH   4   5
ATOM      5  C   UNL     1      -8.070  23.236 -18.343  1.00  0.00     0.064 C 
ATOM      6  O   UNL     1      -8.592  22.095 -18.240  1.00  0.00    -0.545 OA
ATOM      7  O   UNL     1      -8.485  24.243 -17.480  1.00  0.00    -0.545 OA
ENDBRANCH   4   5
ENDBRANCH   2   3
ENDBRANCH   1   2
BRANCH   1   8
ATOM      8  C   UNL     1      -9.103  26.442 -22.506  1.00  0.00     0.000 C 
BRANCH   8   9
ATOM      9  C   UNL     1      -7.822  26.617 -23.348  1.00  0.00    -0.000 C 
BRANCH   9  10
ATOM     10  C   UNL     1      -8.076  26.616 -24.864  1.00  0.00    -0.003 C 
ATOM     11  C   UNL     1      -9.196  25.666 -25.284  1.00  0.00     0.004 C 
ENDBRANCH   9  10
ENDBRANCH   8   9
ENDBRANCH   1   8
TORSDOF 6
ENDMDL
MODEL 8
REMARK VINA RESULT:    -3.141     11.742     12.994
REMARK INTER + INTRA:          -4.664
REMARK INTER:                  -3.781
REMARK INTRA:                  -0.883
REMARK UNBOUND:                -0.421
REMARK SMILES CCCCCCC=CC(=O)[O-]
REMARK SMILES IDX 5 1 6 2 7 3 8 4 9 5 10 6 11 7 4 8 3 9 2 10 1 11
REMARK H PARENT
REMARK Flexibility Score: inf
ROOT
ATOM      1  C   UNL     1      -6.887  39.051 -21.991  1.00  0.00     0.004 C 
ENDROOT
BRANCH   1   2
ATOM      2  C   UNL     1      -6.513  39.428 -20.552  1.00  0.00     0.027 C 
BRANCH   2   3
ATOM      3  C   UNL     1      -5.048  39.203 -20.291  1.00  0.00    -0.025 C 
ATOM      4  C   UNL     1      -4.519  38.205 -19.565  1.00  0.00     0.020 C 
BRANCH   4   5
ATOM      5  C   UNL     1      -5.258  37.103 -18.913  1.00  0.00     0.064 C 
ATOM      6  O   UNL     1      -5.447  37.151 -17.670  1.00  0.00    -0.545 OA
ATOM      7  O   UNL     1      -5.725  36.002 -19.620  1.00  0.00    -0.545 OA
ENDBRANCH   4   5
ENDBRANCH   2   3
ENDBRANCH   1   2
BRANCH   1   8
ATOM      8  C   UNL     1      -7.746  37.778 -22.020  1.00  0.00     0.000 C 
BRANCH   8   9
ATOM      9  C   UNL     1      -7.018  36.596 -22.694  1.00  0.00    -0.000 C 
BRANCH   9  10
ATOM     10  C   UNL     1      -5.639  36.967 -23.265  1.00  0.00    -0.003 C 
ATOM     11  C   UNL     1      -4.558  35.940 -22.935  1.00  0.00     0.004 C 
ENDBRANCH   9  10
ENDBRANCH   8   9
ENDBRANCH   1   8
TORSDOF 6
ENDMDL
MODEL 9
REMARK VINA RESULT:    -3.079      2.694      4.604
REMARK INTER + INTRA:          -4.580
REMARK INTER:                  -4.073
REMARK INTRA:                  -0.507
REMARK UNBOUND:                -0.421
REMARK SMILES CCCCCCC=CC(=O)[O-]
REMARK SMILES IDX 5 1 6 2 7 3 8 4 9 5 10 6 11 7 4 8 3 9 2 10 1 11
REMARK H PARENT
REMARK Flexibility Score: inf
ROOT
ATOM      1  C   UNL     1      -6.678  29.606 -22.837  1.00  0.00     0.004 C 
ENDROOT
BRANCH   1   2
ATOM      2  C   UNL     1      -7.171  28.202 -22.466  1.00  0.00     0.027 C 
BRANCH   2   3
ATOM      3  C   UNL     1      -8.413  28.265 -21.618  1.00  0.00    -0.025 C 
ATOM      4  C   UNL     1      -9.179  27.222 -21.261  1.00  0.00     0.020 C 
BRANCH   4   5
ATOM      5  C   UNL     1      -8.940  25.800 -21.587  1.00  0.00     0.064 C 
ATOM      6  O   UNL     1      -9.267  25.375 -22.726  1.00  0.00    -0.545 OA
ATOM      7  O   UNL     1      -8.392  24.910 -20.672  1.00  0.00    -0.545 OA
ENDBRANCH   4   5
ENDBRANCH   2   3
ENDBRANCH   1   2
BRANCH   1   8
ATOM      8  C   UNL     1      -6.601  29.777 -24.361  1.00  0.00     0.000 C 
BRANCH   8   9
ATOM      9  C   UNL     1      -6.348  28.439 -25.088  1.00  0.00    -0.000 C 
BRANCH   9  10
ATOM     10  C   UNL     1      -7.438  28.076 -26.109  1.00  0.00    -0.003 C 
ATOM     11  C   UNL     1      -8.239  26.836 -25.717  1.00  0.00     0.004 C 
ENDBRANCH   9  10
ENDBRANCH   8   9
ENDBRANCH   1   8
TORSDOF 6
ENDMDL
