MODEL 1
REMARK VINA RESULT:    -5.404      0.000      0.000
REMARK INTER + INTRA:          -6.091
REMARK INTER:                  -6.036
REMARK INTRA:                  -0.055
REMARK UNBOUND:                -0.055
REMARK SMILES COc1cc2ccc(=O)oc2c(O)c1O
REMARK SMILES IDX 3 1 14 2 12 3 11 4 5 5 4 6 6 7 7 8 8 9 9 10 10 11 2 12 1 13
REMARK SMILES IDX 15 14 13 16
REMARK H PARENT 15 15 13 17
REMARK Flexibility Score: inf
ROOT
ATOM      1  C   UNL     1      20.414  -0.084 -20.084  1.00  0.00     0.165 A 
ATOM      2  C   UNL     1      19.404  -0.470 -19.189  1.00  0.00     0.204 A 
ATOM      3  C   UNL     1      19.526  -0.172 -17.808  1.00  0.00     0.205 A 
ATOM      4  C   UNL     1      20.661   0.508 -17.345  1.00  0.00     0.184 A 
ATOM      5  C   UNL     1      21.673   0.895 -18.247  1.00  0.00     0.025 A 
ATOM      6  C   UNL     1      21.549   0.599 -19.608  1.00  0.00     0.062 A 
ATOM      7  C   UNL     1      22.791   1.572 -17.748  1.00  0.00     0.020 A 
ATOM      8  C   UNL     1      22.873   1.846 -16.384  1.00  0.00     0.094 A 
ATOM      9  C   UNL     1      21.831   1.433 -15.547  1.00  0.00     0.336 A 
ATOM     10  O   UNL     1      21.886   1.670 -14.312  1.00  0.00    -0.246 OA
ATOM     11  O   UNL     1      20.781   0.790 -16.049  1.00  0.00    -0.419 OA
ENDROOT
BRANCH   1  12
ATOM     12  O   UNL     1      20.254  -0.398 -21.443  1.00  0.00    -0.493 OA
ATOM     13  C   UNL     1      21.325  -0.608 -22.357  1.00  0.00     0.278 C 
ENDBRANCH   1  12
BRANCH   2  14
ATOM     14  O   UNL     1      18.297  -1.146 -19.710  1.00  0.00    -0.502 OA
ATOM     15  H   UNL     1      17.909  -1.991 -19.316  1.00  0.00     0.293 HD
ENDBRANCH   2  14
BRANCH   3  16
ATOM     16  O   UNL     1      18.553  -0.533 -16.872  1.00  0.00    -0.502 OA
ATOM     17  H   UNL     1      17.847  -1.238 -17.030  1.00  0.00     0.293 HD
ENDBRANCH   3  16
TORSDOF 3
ENDMDL
MODEL 2
REMARK VINA RESULT:    -5.333     15.191     17.392
REMARK INTER + INTRA:          -6.012
REMARK INTER:                  -5.952
REMARK INTRA:                  -0.060
REMARK UNBOUND:                -0.055
REMARK SMILES COc1cc2ccc(=O)oc2c(O)c1O
REMARK SMILES IDX 3 1 14 2 12 3 11 4 5 5 4 6 6 7 7 8 8 9 9 10 10 11 2 12 1 13
REMARK SMILES IDX 15 14 13 16
REMARK H PARENT 15 15 13 17
REMARK Flexibility Score: inf
ROOT
ATOM      1  C   UNL     1       8.426  -6.144  -6.995  1.00  0.00     0.165 A 
ATOM      2  C   UNL     1       9.749  -5.746  -7.248  1.00  0.00     0.204 A 
ATOM      3  C   UNL     1      10.371  -6.088  -8.475  1.00  0.00     0.205 A 
ATOM      4  C   UNL     1       9.658  -6.824  -9.431  1.00  0.00     0.184 A 
ATOM      5  C   UNL     1       8.329  -7.221  -9.174  1.00  0.00     0.025 A 
ATOM      6  C   UNL     1       7.719  -6.882  -7.962  1.00  0.00     0.062 A 
ATOM      7  C   UNL     1       7.649  -7.955 -10.152  1.00  0.00     0.020 A 
ATOM      8  C   UNL     1       8.296  -8.271 -11.345  1.00  0.00     0.094 A 
ATOM      9  C   UNL     1       9.615  -7.844 -11.533  1.00  0.00     0.336 A 
ATOM     10  O   UNL     1      10.218  -8.119 -12.603  1.00  0.00    -0.246 OA
ATOM     11  O   UNL     1      10.238  -7.148 -10.585  1.00  0.00    -0.419 OA
ENDROOT
BRANCH   1  12
ATOM     12  O   UNL     1       7.847  -5.784  -5.767  1.00  0.00    -0.493 OA
ATOM     13  C   UNL     1       7.766  -6.638  -4.630  1.00  0.00     0.278 C 
ENDBRANCH   1  12
BRANCH   2  14
ATOM     14  O   UNL     1      10.408  -5.015  -6.256  1.00  0.00    -0.502 OA
ATOM     15  H   UNL     1      11.405  -4.858  -6.233  1.00  0.00     0.293 HD
ENDBRANCH   2  14
BRANCH   3  16
ATOM     16  O   UNL     1      11.684  -5.720  -8.779  1.00  0.00    -0.502 OA
ATOM     17  H   UNL     1      12.170  -5.994  -9.621  1.00  0.00     0.293 HD
ENDBRANCH   3  16
TORSDOF 3
ENDMDL
MODEL 3
REMARK VINA RESULT:    -5.215      1.730      5.380
REMARK INTER + INTRA:          -5.879
REMARK INTER:                  -5.822
REMARK INTRA:                  -0.057
REMARK UNBOUND:                -0.055
REMARK SMILES COc1cc2ccc(=O)oc2c(O)c1O
REMARK SMILES IDX 3 1 14 2 12 3 11 4 5 5 4 6 6 7 7 8 8 9 9 10 10 11 2 12 1 13
REMARK SMILES IDX 15 14 13 16
REMARK H PARENT 15 15 13 17
REMARK Flexibility Score: inf
ROOT
ATOM      1  C   UNL     1      20.056   0.976 -15.577  1.00  0.00     0.165 A 
ATOM      2  C   UNL     1      21.352   1.292 -16.016  1.00  0.00     0.204 A 
ATOM      3  C   UNL     1      21.770   0.925 -17.319  1.00  0.00     0.205 A 
ATOM      4  C   UNL     1      20.883   0.244 -18.164  1.00  0.00     0.184 A 
ATOM      5  C   UNL     1      19.583  -0.073 -17.720  1.00  0.00     0.025 A 
ATOM      6  C   UNL     1      19.174   0.292 -16.434  1.00  0.00     0.062 A 
ATOM      7  C   UNL     1      18.725  -0.753 -18.592  1.00  0.00     0.020 A 
ATOM      8  C   UNL     1      19.175  -1.097 -19.865  1.00  0.00     0.094 A 
ATOM      9  C   UNL     1      20.477  -0.751 -20.239  1.00  0.00     0.336 A 
ATOM     10  O   UNL     1      20.903  -1.053 -21.385  1.00  0.00    -0.246 OA
ATOM     11  O   UNL     1      21.272  -0.104 -19.390  1.00  0.00    -0.419 OA
ENDROOT
BRANCH   1  12
ATOM     12  O   UNL     1      19.682   1.358 -14.279  1.00  0.00    -0.493 OA
ATOM     13  C   UNL     1      18.375   1.785 -13.906  1.00  0.00     0.278 C 
ENDBRANCH   1  12
BRANCH   2  14
ATOM     14  O   UNL     1      22.190   1.972 -15.128  1.00  0.00    -0.502 OA
ATOM     15  H   UNL     1      21.910   2.291 -14.212  1.00  0.00     0.293 HD
ENDBRANCH   2  14
BRANCH   3  16
ATOM     16  O   UNL     1      23.047   1.213 -17.808  1.00  0.00    -0.502 OA
ATOM     17  H   UNL     1      23.689   1.860 -17.373  1.00  0.00     0.293 HD
ENDBRANCH   3  16
TORSDOF 3
ENDMDL
MODEL 4
REMARK VINA RESULT:    -5.198     14.262     16.014
REMARK INTER + INTRA:          -5.860
REMARK INTER:                  -5.799
REMARK INTRA:                  -0.062
REMARK UNBOUND:                -0.055
REMARK SMILES COc1cc2ccc(=O)oc2c(O)c1O
REMARK SMILES IDX 3 1 14 2 12 3 11 4 5 5 4 6 6 7 7 8 8 9 9 10 10 11 2 12 1 13
REMARK SMILES IDX 15 14 13 16
REMARK H PARENT 15 15 13 17
REMARK Flexibility Score: inf
ROOT
ATOM      1  C   UNL     1       9.434  -7.001 -11.381  1.00  0.00     0.165 A 
ATOM      2  C   UNL     1      10.721  -6.686 -10.916  1.00  0.00     0.204 A 
ATOM      3  C   UNL     1      10.902  -6.213  -9.592  1.00  0.00     0.205 A 
ATOM      4  C   UNL     1       9.789  -6.060  -8.754  1.00  0.00     0.184 A 
ATOM      5  C   UNL     1       8.498  -6.377  -9.225  1.00  0.00     0.025 A 
ATOM      6  C   UNL     1       8.323  -6.844 -10.531  1.00  0.00     0.062 A 
ATOM      7  C   UNL     1       7.411  -6.212  -8.359  1.00  0.00     0.020 A 
ATOM      8  C   UNL     1       7.631  -5.744  -7.065  1.00  0.00     0.094 A 
ATOM      9  C   UNL     1       8.938  -5.450  -6.665  1.00  0.00     0.336 A 
ATOM     10  O   UNL     1       9.159  -5.025  -5.500  1.00  0.00    -0.246 OA
ATOM     11  O   UNL     1       9.953  -5.615  -7.510  1.00  0.00    -0.419 OA
ENDROOT
BRANCH   1  12
ATOM     12  O   UNL     1       9.299  -7.467 -12.699  1.00  0.00    -0.493 OA
ATOM     13  C   UNL     1       9.179  -8.838 -13.064  1.00  0.00     0.278 C 
ENDBRANCH   1  12
BRANCH   2  14
ATOM     14  O   UNL     1      11.791  -6.858 -11.799  1.00  0.00    -0.502 OA
ATOM     15  H   UNL     1      11.934  -6.308 -12.633  1.00  0.00     0.293 HD
ENDBRANCH   2  14
BRANCH   3  16
ATOM     16  O   UNL     1      12.158  -5.884  -9.077  1.00  0.00    -0.502 OA
ATOM     17  H   UNL     1      12.956  -5.631  -9.642  1.00  0.00     0.293 HD
ENDBRANCH   3  16
TORSDOF 3
ENDMDL
MODEL 5
REMARK VINA RESULT:    -5.138      1.613      5.078
REMARK INTER + INTRA:          -5.794
REMARK INTER:                  -5.738
REMARK INTRA:                  -0.056
REMARK UNBOUND:                -0.055
REMARK SMILES COc1cc2ccc(=O)oc2c(O)c1O
REMARK SMILES IDX 3 1 14 2 12 3 11 4 5 5 4 6 6 7 7 8 8 9 9 10 10 11 2 12 1 13
REMARK SMILES IDX 15 14 13 16
REMARK H PARENT 15 15 13 17
REMARK Flexibility Score: inf
ROOT
ATOM      1  C   UNL     1      19.504  -0.061 -17.175  1.00  0.00     0.165 A 
ATOM      2  C   UNL     1      20.683   0.697 -17.095  1.00  0.00     0.204 A 
ATOM      3  C   UNL     1      21.475   0.903 -18.253  1.00  0.00     0.205 A 
ATOM      4  C   UNL     1      21.073   0.345 -19.474  1.00  0.00     0.184 A 
ATOM      5  C   UNL     1      19.888  -0.415 -19.551  1.00  0.00     0.025 A 
ATOM      6  C   UNL     1      19.109  -0.616 -18.406  1.00  0.00     0.062 A 
ATOM      7  C   UNL     1      19.519  -0.956 -20.787  1.00  0.00     0.020 A 
ATOM      8  C   UNL     1      20.324  -0.731 -21.902  1.00  0.00     0.094 A 
ATOM      9  C   UNL     1      21.486   0.034 -21.752  1.00  0.00     0.336 A 
ATOM     10  O   UNL     1      22.228   0.249 -22.747  1.00  0.00    -0.246 OA
ATOM     11  O   UNL     1      21.813   0.535 -20.565  1.00  0.00    -0.419 OA
ENDROOT
BRANCH   1  12
ATOM     12  O   UNL     1      18.749  -0.241 -16.005  1.00  0.00    -0.493 OA
ATOM     13  C   UNL     1      17.995  -1.410 -15.700  1.00  0.00     0.278 C 
ENDBRANCH   1  12
BRANCH   2  14
ATOM     14  O   UNL     1      21.032   1.227 -15.850  1.00  0.00    -0.502 OA
ATOM     15  H   UNL     1      20.637   2.070 -15.460  1.00  0.00     0.293 HD
ENDBRANCH   2  14
BRANCH   3  16
ATOM     16  O   UNL     1      22.658   1.647 -18.232  1.00  0.00    -0.502 OA
ATOM     17  H   UNL     1      22.862   2.369 -17.557  1.00  0.00     0.293 HD
ENDBRANCH   3  16
TORSDOF 3
ENDMDL
MODEL 6
REMARK VINA RESULT:    -5.032      9.542     11.751
REMARK INTER + INTRA:          -5.675
REMARK INTER:                  -5.606
REMARK INTRA:                  -0.069
REMARK UNBOUND:                -0.055
REMARK SMILES COc1cc2ccc(=O)oc2c(O)c1O
REMARK SMILES IDX 3 1 14 2 12 3 11 4 5 5 4 6 6 7 7 8 8 9 9 10 10 11 2 12 1 13
REMARK SMILES IDX 15 14 13 16
REMARK H PARENT 15 15 13 17
REMARK Flexibility Score: inf
ROOT
ATOM      1  C   UNL     1      19.482  -1.890  -8.338  1.00  0.00     0.165 A 
ATOM      2  C   UNL     1      18.948  -2.277  -7.098  1.00  0.00     0.204 A 
ATOM      3  C   UNL     1      19.800  -2.784  -6.085  1.00  0.00     0.205 A 
ATOM      4  C   UNL     1      21.176  -2.897  -6.331  1.00  0.00     0.184 A 
ATOM      5  C   UNL     1      21.708  -2.508  -7.577  1.00  0.00     0.025 A 
ATOM      6  C   UNL     1      20.864  -2.008  -8.574  1.00  0.00     0.062 A 
ATOM      7  C   UNL     1      23.085  -2.635  -7.785  1.00  0.00     0.020 A 
ATOM      8  C   UNL     1      23.889  -3.138  -6.764  1.00  0.00     0.094 A 
ATOM      9  C   UNL     1      23.293  -3.504  -5.553  1.00  0.00     0.336 A 
ATOM     10  O   UNL     1      24.001  -3.962  -4.617  1.00  0.00    -0.246 OA
ATOM     11  O   UNL     1      21.980  -3.373  -5.382  1.00  0.00    -0.419 OA
ENDROOT
BRANCH   1  12
ATOM     12  O   UNL     1      18.603  -1.393  -9.314  1.00  0.00    -0.493 OA
ATOM     13  C   UNL     1      18.142  -2.132 -10.441  1.00  0.00     0.278 C 
ENDBRANCH   1  12
BRANCH   2  14
ATOM     14  O   UNL     1      17.569  -2.140  -6.913  1.00  0.00    -0.502 OA
ATOM     15  H   UNL     1      17.142  -1.764  -6.080  1.00  0.00     0.293 HD
ENDBRANCH   2  14
BRANCH   3  16
ATOM     16  O   UNL     1      19.324  -3.184  -4.834  1.00  0.00    -0.502 OA
ATOM     17  H   UNL     1      19.439  -2.649  -3.985  1.00  0.00     0.293 HD
ENDBRANCH   3  16
TORSDOF 3
ENDMDL
MODEL 7
REMARK VINA RESULT:    -4.837     15.510     17.328
REMARK INTER + INTRA:          -5.457
REMARK INTER:                  -5.403
REMARK INTRA:                  -0.054
REMARK UNBOUND:                -0.055
REMARK SMILES COc1cc2ccc(=O)oc2c(O)c1O
REMARK SMILES IDX 3 1 14 2 12 3 11 4 5 5 4 6 6 7 7 8 8 9 9 10 10 11 2 12 1 13
REMARK SMILES IDX 15 14 13 16
REMARK H PARENT 15 15 13 17
REMARK Flexibility Score: inf
ROOT
ATOM      1  C   UNL     1      10.278  -7.339 -10.017  1.00  0.00     0.165 A 
ATOM      2  C   UNL     1      10.687  -6.320  -9.141  1.00  0.00     0.204 A 
ATOM      3  C   UNL     1      10.135  -6.240  -7.838  1.00  0.00     0.205 A 
ATOM      4  C   UNL     1       9.179  -7.182  -7.432  1.00  0.00     0.184 A 
ATOM      5  C   UNL     1       8.770  -8.203  -8.315  1.00  0.00     0.025 A 
ATOM      6  C   UNL     1       9.318  -8.279  -9.600  1.00  0.00     0.062 A 
ATOM      7  C   UNL     1       7.815  -9.125  -7.875  1.00  0.00     0.020 A 
ATOM      8  C   UNL     1       7.296  -9.012  -6.586  1.00  0.00     0.094 A 
ATOM      9  C   UNL     1       7.747  -7.974  -5.765  1.00  0.00     0.336 A 
ATOM     10  O   UNL     1       7.291  -7.853  -4.597  1.00  0.00    -0.246 OA
ATOM     11  O   UNL     1       8.657  -7.111  -6.209  1.00  0.00    -0.419 OA
ENDROOT
BRANCH   1  12
ATOM     12  O   UNL     1      10.850  -7.382 -11.299  1.00  0.00    -0.493 OA
ATOM     13  C   UNL     1      10.246  -7.994 -12.435  1.00  0.00     0.278 C 
ENDBRANCH   1  12
BRANCH   2  14
ATOM     14  O   UNL     1      11.643  -5.411  -9.603  1.00  0.00    -0.502 OA
ATOM     15  H   UNL     1      11.463  -4.702 -10.298  1.00  0.00     0.293 HD
ENDBRANCH   2  14
BRANCH   3  16
ATOM     16  O   UNL     1      10.504  -5.249  -6.925  1.00  0.00    -0.502 OA
ATOM     17  H   UNL     1      10.989  -5.427  -6.058  1.00  0.00     0.293 HD
ENDBRANCH   3  16
TORSDOF 3
ENDMDL
MODEL 8
REMARK VINA RESULT:    -4.772      6.358      7.671
REMARK INTER + INTRA:          -5.385
REMARK INTER:                  -5.317
REMARK INTRA:                  -0.067
REMARK UNBOUND:                -0.055
REMARK SMILES COc1cc2ccc(=O)oc2c(O)c1O
REMARK SMILES IDX 3 1 14 2 12 3 11 4 5 5 4 6 6 7 7 8 8 9 9 10 10 11 2 12 1 13
REMARK SMILES IDX 15 14 13 16
REMARK H PARENT 15 15 13 17
REMARK Flexibility Score: inf
ROOT
ATOM      1  C   UNL     1      23.966   6.230 -19.543  1.00  0.00     0.165 A 
ATOM      2  C   UNL     1      23.834   5.368 -18.442  1.00  0.00     0.204 A 
ATOM      3  C   UNL     1      23.962   5.875 -17.124  1.00  0.00     0.205 A 
ATOM      4  C   UNL     1      24.222   7.238 -16.929  1.00  0.00     0.184 A 
ATOM      5  C   UNL     1      24.355   8.100 -18.037  1.00  0.00     0.025 A 
ATOM      6  C   UNL     1      24.228   7.597 -19.336  1.00  0.00     0.062 A 
ATOM      7  C   UNL     1      24.615   9.455 -17.803  1.00  0.00     0.020 A 
ATOM      8  C   UNL     1      24.734   9.913 -16.493  1.00  0.00     0.094 A 
ATOM      9  C   UNL     1      24.590   9.002 -15.442  1.00  0.00     0.336 A 
ATOM     10  O   UNL     1      24.695   9.395 -14.250  1.00  0.00    -0.246 OA
ATOM     11  O   UNL     1      24.344   7.719 -15.693  1.00  0.00    -0.419 OA
ENDROOT
BRANCH   1  12
ATOM     12  O   UNL     1      23.832   5.687 -20.831  1.00  0.00    -0.493 OA
ATOM     13  C   UNL     1      24.861   5.677 -21.816  1.00  0.00     0.278 C 
ENDBRANCH   1  12
BRANCH   2  14
ATOM     14  O   UNL     1      23.574   4.019 -18.700  1.00  0.00    -0.502 OA
ATOM     15  H   UNL     1      24.097   3.253 -18.301  1.00  0.00     0.293 HD
ENDBRANCH   2  14
BRANCH   3  16
ATOM     16  O   UNL     1      23.840   5.064 -15.992  1.00  0.00    -0.502 OA
ATOM     17  H   UNL     1      23.236   4.257 -15.934  1.00  0.00     0.293 HD
ENDBRANCH   3  16
TORSDOF 3
ENDMDL
MODEL 9
REMARK VINA RESULT:    -4.726     12.667     14.963
REMARK INTER + INTRA:          -5.333
REMARK INTER:                  -5.265
REMARK INTRA:                  -0.068
REMARK UNBOUND:                -0.055
REMARK SMILES COc1cc2ccc(=O)oc2c(O)c1O
REMARK SMILES IDX 3 1 14 2 12 3 11 4 5 5 4 6 6 7 7 8 8 9 9 10 10 11 2 12 1 13
REMARK SMILES IDX 15 14 13 16
REMARK H PARENT 15 15 13 17
REMARK Flexibility Score: inf
ROOT
ATOM      1  C   UNL     1      12.598   3.721  -4.467  1.00  0.00     0.165 A 
ATOM      2  C   UNL     1      12.076   2.876  -5.459  1.00  0.00     0.204 A 
ATOM      3  C   UNL     1      12.744   2.741  -6.702  1.00  0.00     0.205 A 
ATOM      4  C   UNL     1      13.927   3.457  -6.933  1.00  0.00     0.184 A 
ATOM      5  C   UNL     1      14.448   4.305  -5.934  1.00  0.00     0.025 A 
ATOM      6  C   UNL     1      13.786   4.435  -4.709  1.00  0.00     0.062 A 
ATOM      7  C   UNL     1      15.631   5.004  -6.200  1.00  0.00     0.020 A 
ATOM      8  C   UNL     1      16.257   4.845  -7.435  1.00  0.00     0.094 A 
ATOM      9  C   UNL     1      15.683   3.987  -8.379  1.00  0.00     0.336 A 
ATOM     10  O   UNL     1      16.233   3.829  -9.501  1.00  0.00    -0.246 OA
ATOM     11  O   UNL     1      14.558   3.335  -8.099  1.00  0.00    -0.419 OA
ENDROOT
BRANCH   1  12
ATOM     12  O   UNL     1      11.905   3.825  -3.250  1.00  0.00    -0.493 OA
ATOM     13  C   UNL     1      11.061   4.914  -2.890  1.00  0.00     0.278 C 
ENDBRANCH   1  12
BRANCH   2  14
ATOM     14  O   UNL     1      10.893   2.188  -5.170  1.00  0.00    -0.502 OA
ATOM     15  H   UNL     1      10.597   1.933  -4.239  1.00  0.00     0.293 HD
ENDBRANCH   2  14
BRANCH   3  16
ATOM     16  O   UNL     1      12.269   1.916  -7.725  1.00  0.00    -0.502 OA
ATOM     17  H   UNL     1      12.766   1.113  -8.083  1.00  0.00     0.293 HD
ENDBRANCH   3  16
TORSDOF 3
ENDMDL
