MODEL 1
REMARK VINA RESULT:    -7.086      0.000      0.000
REMARK INTER + INTRA:          -9.623
REMARK INTER:                  -8.951
REMARK INTRA:                  -0.673
REMARK UNBOUND:                -0.673
REMARK SMILES CC(C)[C@H](C)C=C[C@@H](C)[C@@H]1CC[C@@H]2C3=CC=C4C[C@H](O)CC[C@]4(C)[C@H]3CC[C@@]21C
REMARK SMILES IDX 8 1 9 2 7 3 6 4 4 5 5 6 2 7 1 8 3 9 10 10 11 11 28 12 12 13
REMARK SMILES IDX 13 14 27 15 29 16 14 17 26 18 25 19 15 20 23 21 16 22 17 23
REMARK SMILES IDX 22 24 24 25 18 26 21 27 19 28 20 29
REMARK H PARENT 20 30
REMARK Flexibility Score: inf
ROOT
ATOM      1  C   UNL     1      12.923 -14.909  30.635  1.00  0.00     0.012 C 
ATOM      2  C   UNL     1      14.026 -15.626  31.440  1.00  0.00     0.012 C 
ENDROOT
BRANCH   1   3
ATOM      3  C   UNL     1      11.585 -15.488  31.047  1.00  0.00    -0.028 C 
ATOM      4  C   UNL     1      11.397 -16.053  32.252  1.00  0.00    -0.028 C 
BRANCH   4   5
ATOM      5  C   UNL     1      10.043 -16.584  32.676  1.00  0.00     0.011 C 
ATOM      6  C   UNL     1       8.936 -15.762  31.999  1.00  0.00     0.012 C 
BRANCH   5   7
ATOM      7  C   UNL     1       9.935 -18.117  32.413  1.00  0.00    -0.011 C 
ATOM      8  C   UNL     1       9.625 -18.943  33.673  1.00  0.00     0.008 C 
ATOM      9  C   UNL     1      11.189 -18.670  31.719  1.00  0.00     0.008 C 
ENDBRANCH   5   7
ENDBRANCH   4   5
ENDBRANCH   1   3
BRANCH   1  10
ATOM     10  C   UNL     1      13.050 -14.973  29.072  1.00  0.00     0.002 C 
ATOM     11  C   UNL     1      13.841 -16.149  28.496  1.00  0.00     0.005 C 
ATOM     12  C   UNL     1      13.563 -13.718  28.314  1.00  0.00    -0.023 C 
ATOM     13  C   UNL     1      14.209 -15.738  27.070  1.00  0.00     0.009 C 
ATOM     14  C   UNL     1      13.743 -14.285  26.888  1.00  0.00     0.021 C 
ATOM     15  C   UNL     1      14.919 -13.204  28.868  1.00  0.00     0.008 C 
ATOM     16  C   UNL     1      12.496 -12.591  28.330  1.00  0.00     0.012 C 
ATOM     17  C   UNL     1      14.682 -13.508  25.984  1.00  0.00    -0.063 C 
ATOM     18  C   UNL     1      15.577 -12.165  27.956  1.00  0.00     0.009 C 
ATOM     19  C   UNL     1      15.872 -12.733  26.547  1.00  0.00     0.025 C 
ATOM     20  C   UNL     1      14.627 -13.745  24.663  1.00  0.00    -0.000 C 
ATOM     21  C   UNL     1      16.377 -11.645  25.522  1.00  0.00    -0.005 C 
ATOM     22  C   UNL     1      15.661 -13.234  23.750  1.00  0.00    -0.000 C 
ATOM     23  C   UNL     1      16.538 -12.304  24.151  1.00  0.00    -0.061 C 
ATOM     24  C   UNL     1      17.756 -11.084  25.975  1.00  0.00     0.014 C 
ATOM     25  C   UNL     1      15.356 -10.484  25.387  1.00  0.00     0.017 C 
ATOM     26  C   UNL     1      17.734 -11.995  23.285  1.00  0.00     0.063 C 
ATOM     27  C   UNL     1      18.420 -10.139  24.954  1.00  0.00     0.033 C 
ATOM     28  C   UNL     1      18.204 -10.540  23.471  1.00  0.00     0.118 C 
BRANCH  28  29
ATOM     29  O   UNL     1      19.368 -10.302  22.717  1.00  0.00    -0.393 OA
ATOM     30  H   UNL     1      20.150 -10.458  23.313  1.00  0.00     0.210 HD
ENDBRANCH  28  29
ENDBRANCH   1  10
TORSDOF 5
ENDMDL
MODEL 2
REMARK VINA RESULT:    -6.977      3.412      4.655
REMARK INTER + INTRA:          -9.486
REMARK INTER:                  -8.691
REMARK INTRA:                  -0.794
REMARK UNBOUND:                -0.673
REMARK SMILES CC(C)[C@H](C)C=C[C@@H](C)[C@@H]1CC[C@@H]2C3=CC=C4C[C@H](O)CC[C@]4(C)[C@H]3CC[C@@]21C
REMARK SMILES IDX 8 1 9 2 7 3 6 4 4 5 5 6 2 7 1 8 3 9 10 10 11 11 28 12 12 13
REMARK SMILES IDX 13 14 27 15 29 16 14 17 26 18 25 19 15 20 23 21 16 22 17 23
REMARK SMILES IDX 22 24 24 25 18 26 21 27 19 28 20 29
REMARK H PARENT 20 30
REMARK Flexibility Score: inf
ROOT
ATOM      1  C   UNL     1      12.687 -14.185  28.297  1.00  0.00     0.012 C 
ATOM      2  C   UNL     1      11.680 -13.114  27.832  1.00  0.00     0.012 C 
ENDROOT
BRANCH   1   3
ATOM      3  C   UNL     1      12.449 -14.450  29.770  1.00  0.00    -0.028 C 
ATOM      4  C   UNL     1      11.632 -15.429  30.192  1.00  0.00    -0.028 C 
BRANCH   4   5
ATOM      5  C   UNL     1      11.439 -15.720  31.667  1.00  0.00     0.011 C 
ATOM      6  C   UNL     1       9.965 -15.507  32.041  1.00  0.00     0.012 C 
BRANCH   5   7
ATOM      7  C   UNL     1      11.981 -17.135  32.035  1.00  0.00    -0.011 C 
ATOM      8  C   UNL     1      13.364 -17.445  31.437  1.00  0.00     0.008 C 
ATOM      9  C   UNL     1      10.988 -18.245  31.660  1.00  0.00     0.008 C 
ENDBRANCH   5   7
ENDBRANCH   4   5
ENDBRANCH   1   3
BRANCH   1  10
ATOM     10  C   UNL     1      14.206 -13.856  28.073  1.00  0.00     0.002 C 
ATOM     11  C   UNL     1      14.524 -12.719  27.100  1.00  0.00     0.005 C 
ATOM     12  C   UNL     1      15.170 -15.012  27.690  1.00  0.00    -0.023 C 
ATOM     13  C   UNL     1      15.989 -12.911  26.709  1.00  0.00     0.009 C 
ATOM     14  C   UNL     1      16.457 -14.226  27.354  1.00  0.00     0.021 C 
ATOM     15  C   UNL     1      14.680 -15.806  26.449  1.00  0.00     0.008 C 
ATOM     16  C   UNL     1      15.400 -15.960  28.898  1.00  0.00     0.012 C 
ATOM     17  C   UNL     1      17.461 -14.951  26.478  1.00  0.00    -0.063 C 
ATOM     18  C   UNL     1      15.750 -16.744  25.885  1.00  0.00     0.009 C 
ATOM     19  C   UNL     1      17.017 -15.977  25.436  1.00  0.00     0.025 C 
ATOM     20  C   UNL     1      18.714 -14.471  26.425  1.00  0.00    -0.000 C 
ATOM     21  C   UNL     1      18.212 -16.920  25.024  1.00  0.00    -0.005 C 
ATOM     22  C   UNL     1      19.675 -14.949  25.418  1.00  0.00    -0.000 C 
ATOM     23  C   UNL     1      19.428 -16.052  24.698  1.00  0.00    -0.061 C 
ATOM     24  C   UNL     1      17.830 -17.745  23.760  1.00  0.00     0.014 C 
ATOM     25  C   UNL     1      18.596 -17.880  26.181  1.00  0.00     0.017 C 
ATOM     26  C   UNL     1      20.299 -16.365  23.506  1.00  0.00     0.063 C 
ATOM     27  C   UNL     1      18.990 -18.572  23.172  1.00  0.00     0.033 C 
ATOM     28  C   UNL     1      20.376 -17.881  23.247  1.00  0.00     0.118 C 
BRANCH  28  29
ATOM     29  O   UNL     1      21.125 -18.141  22.084  1.00  0.00    -0.393 OA
ATOM     30  H   UNL     1      21.968 -18.593  22.362  1.00  0.00     0.210 HD
ENDBRANCH  28  29
ENDBRANCH   1  10
TORSDOF 5
ENDMDL
MODEL 3
REMARK VINA RESULT:    -6.736      1.813      3.156
REMARK INTER + INTRA:          -9.181
REMARK INTER:                  -9.143
REMARK INTRA:                  -0.038
REMARK UNBOUND:                -0.673
REMARK SMILES CC(C)[C@H](C)C=C[C@@H](C)[C@@H]1CC[C@@H]2C3=CC=C4C[C@H](O)CC[C@]4(C)[C@H]3CC[C@@]21C
REMARK SMILES IDX 8 1 9 2 7 3 6 4 4 5 5 6 2 7 1 8 3 9 10 10 11 11 28 12 12 13
REMARK SMILES IDX 13 14 27 15 29 16 14 17 26 18 25 19 15 20 23 21 16 22 17 23
REMARK SMILES IDX 22 24 24 25 18 26 21 27 19 28 20 29
REMARK H PARENT 20 30
REMARK Flexibility Score: inf
ROOT
ATOM      1  C   UNL     1      12.334 -16.694  31.850  1.00  0.00     0.012 C 
ATOM      2  C   UNL     1      13.486 -17.670  31.540  1.00  0.00     0.012 C 
ENDROOT
BRANCH   1   3
ATOM      3  C   UNL     1      11.025 -17.440  31.690  1.00  0.00    -0.028 C 
ATOM      4  C   UNL     1      10.921 -18.754  31.949  1.00  0.00    -0.028 C 
BRANCH   4   5
ATOM      5  C   UNL     1       9.598 -19.483  31.835  1.00  0.00     0.011 C 
ATOM      6  C   UNL     1       9.489 -20.130  30.446  1.00  0.00     0.012 C 
BRANCH   5   7
ATOM      7  C   UNL     1       9.408 -20.488  33.012  1.00  0.00    -0.011 C 
ATOM      8  C   UNL     1      10.189 -20.112  34.283  1.00  0.00     0.008 C 
ATOM      9  C   UNL     1       9.745 -21.928  32.597  1.00  0.00     0.008 C 
ENDBRANCH   5   7
ENDBRANCH   4   5
ENDBRANCH   1   3
BRANCH   1  10
ATOM     10  C   UNL     1      12.285 -15.381  30.990  1.00  0.00     0.002 C 
ATOM     11  C   UNL     1      11.066 -15.202  30.083  1.00  0.00     0.005 C 
ATOM     12  C   UNL     1      13.513 -15.020  30.110  1.00  0.00    -0.023 C 
ATOM     13  C   UNL     1      11.472 -14.147  29.053  1.00  0.00     0.009 C 
ATOM     14  C   UNL     1      12.956 -13.831  29.296  1.00  0.00     0.021 C 
ATOM     15  C   UNL     1      13.925 -16.179  29.163  1.00  0.00     0.008 C 
ATOM     16  C   UNL     1      14.710 -14.574  30.992  1.00  0.00     0.012 C 
ATOM     17  C   UNL     1      13.681 -13.524  27.999  1.00  0.00    -0.063 C 
ATOM     18  C   UNL     1      14.930 -15.743  28.094  1.00  0.00     0.009 C 
ATOM     19  C   UNL     1      14.364 -14.624  27.188  1.00  0.00     0.025 C 
ATOM     20  C   UNL     1      13.467 -12.329  27.424  1.00  0.00    -0.000 C 
ATOM     21  C   UNL     1      15.430 -14.017  26.196  1.00  0.00    -0.005 C 
ATOM     22  C   UNL     1      13.920 -12.048  26.053  1.00  0.00    -0.000 C 
ATOM     23  C   UNL     1      14.782 -12.863  25.430  1.00  0.00    -0.061 C 
ATOM     24  C   UNL     1      15.889 -15.101  25.177  1.00  0.00     0.014 C 
ATOM     25  C   UNL     1      16.660 -13.462  26.962  1.00  0.00     0.017 C 
ATOM     26  C   UNL     1      15.021 -12.691  23.950  1.00  0.00     0.063 C 
ATOM     27  C   UNL     1      16.801 -14.567  24.055  1.00  0.00     0.033 C 
ATOM     28  C   UNL     1      16.438 -13.145  23.552  1.00  0.00     0.118 C 
BRANCH  28  29
ATOM     29  O   UNL     1      16.607 -13.053  22.158  1.00  0.00    -0.393 OA
ATOM     30  H   UNL     1      17.059 -12.186  21.965  1.00  0.00     0.210 HD
ENDBRANCH  28  29
ENDBRANCH   1  10
TORSDOF 5
ENDMDL
MODEL 4
REMARK VINA RESULT:    -6.570      1.600      2.376
REMARK INTER + INTRA:          -8.972
REMARK INTER:                  -8.177
REMARK INTRA:                  -0.794
REMARK UNBOUND:                -0.673
REMARK SMILES CC(C)[C@H](C)C=C[C@@H](C)[C@@H]1CC[C@@H]2C3=CC=C4C[C@H](O)CC[C@]4(C)[C@H]3CC[C@@]21C
REMARK SMILES IDX 8 1 9 2 7 3 6 4 4 5 5 6 2 7 1 8 3 9 10 10 11 11 28 12 12 13
REMARK SMILES IDX 13 14 27 15 29 16 14 17 26 18 25 19 15 20 23 21 16 22 17 23
REMARK SMILES IDX 22 24 24 25 18 26 21 27 19 28 20 29
REMARK H PARENT 20 30
REMARK Flexibility Score: inf
ROOT
ATOM      1  C   UNL     1      11.787 -16.238  30.797  1.00  0.00     0.012 C 
ATOM      2  C   UNL     1      12.146 -15.651  32.176  1.00  0.00     0.012 C 
ENDROOT
BRANCH   1   3
ATOM      3  C   UNL     1      11.251 -17.641  31.005  1.00  0.00    -0.028 C 
ATOM      4  C   UNL     1      10.993 -18.127  32.231  1.00  0.00    -0.028 C 
BRANCH   4   5
ATOM      5  C   UNL     1      10.410 -19.511  32.428  1.00  0.00     0.011 C 
ATOM      6  C   UNL     1      10.010 -19.692  33.900  1.00  0.00     0.012 C 
BRANCH   5   7
ATOM      7  C   UNL     1       9.246 -19.778  31.425  1.00  0.00    -0.011 C 
ATOM      8  C   UNL     1       7.855 -19.807  32.080  1.00  0.00     0.008 C 
ATOM      9  C   UNL     1       9.471 -21.063  30.615  1.00  0.00     0.008 C 
ENDBRANCH   5   7
ENDBRANCH   4   5
ENDBRANCH   1   3
BRANCH   1  10
ATOM     10  C   UNL     1      12.945 -16.284  29.737  1.00  0.00     0.002 C 
ATOM     11  C   UNL     1      14.365 -16.458  30.281  1.00  0.00     0.005 C 
ATOM     12  C   UNL     1      13.040 -15.144  28.687  1.00  0.00    -0.023 C 
ATOM     13  C   UNL     1      15.294 -16.008  29.154  1.00  0.00     0.009 C 
ATOM     14  C   UNL     1      14.402 -15.459  28.029  1.00  0.00     0.021 C 
ATOM     15  C   UNL     1      13.067 -13.736  29.341  1.00  0.00     0.008 C 
ATOM     16  C   UNL     1      11.889 -15.251  27.652  1.00  0.00     0.012 C 
ATOM     17  C   UNL     1      15.067 -14.302  27.306  1.00  0.00    -0.063 C 
ATOM     18  C   UNL     1      13.455 -12.632  28.356  1.00  0.00     0.009 C 
ATOM     19  C   UNL     1      14.863 -12.857  27.756  1.00  0.00     0.025 C 
ATOM     20  C   UNL     1      16.062 -14.582  26.449  1.00  0.00    -0.000 C 
ATOM     21  C   UNL     1      15.225 -11.846  26.600  1.00  0.00    -0.005 C 
ATOM     22  C   UNL     1      16.924 -13.522  25.904  1.00  0.00    -0.000 C 
ATOM     23  C   UNL     1      16.590 -12.230  26.026  1.00  0.00    -0.061 C 
ATOM     24  C   UNL     1      15.307 -10.398  27.163  1.00  0.00     0.014 C 
ATOM     25  C   UNL     1      14.181 -11.906  25.453  1.00  0.00     0.017 C 
ATOM     26  C   UNL     1      17.610 -11.170  25.692  1.00  0.00     0.063 C 
ATOM     27  C   UNL     1      15.823  -9.355  26.152  1.00  0.00     0.033 C 
ATOM     28  C   UNL     1      16.936  -9.874  25.204  1.00  0.00     0.118 C 
BRANCH  28  29
ATOM     29  O   UNL     1      17.901  -8.875  24.978  1.00  0.00    -0.393 OA
ATOM     30  H   UNL     1      17.497  -8.197  24.371  1.00  0.00     0.210 HD
ENDBRANCH  28  29
ENDBRANCH   1  10
TORSDOF 5
ENDMDL
MODEL 5
REMARK VINA RESULT:    -6.379      3.360      8.645
REMARK INTER + INTRA:          -8.730
REMARK INTER:                  -8.013
REMARK INTRA:                  -0.717
REMARK UNBOUND:                -0.673
REMARK SMILES CC(C)[C@H](C)C=C[C@@H](C)[C@@H]1CC[C@@H]2C3=CC=C4C[C@H](O)CC[C@]4(C)[C@H]3CC[C@@]21C
REMARK SMILES IDX 8 1 9 2 7 3 6 4 4 5 5 6 2 7 1 8 3 9 10 10 11 11 28 12 12 13
REMARK SMILES IDX 13 14 27 15 29 16 14 17 26 18 25 19 15 20 23 21 16 22 17 23
REMARK SMILES IDX 22 24 24 25 18 26 21 27 19 28 20 29
REMARK H PARENT 20 30
REMARK Flexibility Score: inf
ROOT
ATOM      1  C   UNL     1      18.302 -11.667  24.403  1.00  0.00     0.012 C 
ATOM      2  C   UNL     1      18.888 -10.512  23.567  1.00  0.00     0.012 C 
ENDROOT
BRANCH   1   3
ATOM      3  C   UNL     1      18.584 -12.967  23.676  1.00  0.00    -0.028 C 
ATOM      4  C   UNL     1      19.481 -13.857  24.136  1.00  0.00    -0.028 C 
BRANCH   4   5
ATOM      5  C   UNL     1      19.721 -15.176  23.432  1.00  0.00     0.011 C 
ATOM      6  C   UNL     1      21.116 -15.167  22.790  1.00  0.00     0.012 C 
BRANCH   5   7
ATOM      7  C   UNL     1      19.483 -16.378  24.397  1.00  0.00    -0.011 C 
ATOM      8  C   UNL     1      18.197 -17.168  24.100  1.00  0.00     0.008 C 
ATOM      9  C   UNL     1      19.503 -15.944  25.870  1.00  0.00     0.008 C 
ENDBRANCH   5   7
ENDBRANCH   4   5
ENDBRANCH   1   3
BRANCH   1  10
ATOM     10  C   UNL     1      16.768 -11.583  24.726  1.00  0.00     0.002 C 
ATOM     11  C   UNL     1      16.315 -10.412  25.600  1.00  0.00     0.005 C 
ATOM     12  C   UNL     1      16.060 -12.836  25.312  1.00  0.00    -0.023 C 
ATOM     13  C   UNL     1      14.940 -10.809  26.138  1.00  0.00     0.009 C 
ATOM     14  C   UNL     1      14.677 -12.252  25.678  1.00  0.00     0.021 C 
ATOM     15  C   UNL     1      16.771 -13.380  26.580  1.00  0.00     0.008 C 
ATOM     16  C   UNL     1      15.924 -13.945  24.235  1.00  0.00     0.012 C 
ATOM     17  C   UNL     1      13.886 -13.031  26.711  1.00  0.00    -0.063 C 
ATOM     18  C   UNL     1      15.933 -14.416  27.332  1.00  0.00     0.009 C 
ATOM     19  C   UNL     1      14.581 -13.834  27.810  1.00  0.00     0.025 C 
ATOM     20  C   UNL     1      12.573 -12.774  26.826  1.00  0.00    -0.000 C 
ATOM     21  C   UNL     1      13.611 -14.915  28.424  1.00  0.00    -0.005 C 
ATOM     22  C   UNL     1      11.788 -13.289  27.959  1.00  0.00    -0.000 C 
ATOM     23  C   UNL     1      12.281 -14.239  28.765  1.00  0.00    -0.061 C 
ATOM     24  C   UNL     1      14.224 -15.505  29.727  1.00  0.00     0.014 C 
ATOM     25  C   UNL     1      13.330 -16.057  27.411  1.00  0.00     0.017 C 
ATOM     26  C   UNL     1      11.567 -14.556  30.056  1.00  0.00     0.063 C 
ATOM     27  C   UNL     1      13.278 -16.446  30.500  1.00  0.00     0.033 C 
ATOM     28  C   UNL     1      11.787 -16.020  30.477  1.00  0.00     0.118 C 
BRANCH  28  29
ATOM     29  O   UNL     1      11.181 -16.267  31.723  1.00  0.00    -0.393 OA
ATOM     30  H   UNL     1      11.569 -15.626  32.380  1.00  0.00     0.210 HD
ENDBRANCH  28  29
ENDBRANCH   1  10
TORSDOF 5
ENDMDL
MODEL 6
REMARK VINA RESULT:    -6.080      4.341      7.779
REMARK INTER + INTRA:          -8.352
REMARK INTER:                  -7.944
REMARK INTRA:                  -0.408
REMARK UNBOUND:                -0.673
REMARK SMILES CC(C)[C@H](C)C=C[C@@H](C)[C@@H]1CC[C@@H]2C3=CC=C4C[C@H](O)CC[C@]4(C)[C@H]3CC[C@@]21C
REMARK SMILES IDX 8 1 9 2 7 3 6 4 4 5 5 6 2 7 1 8 3 9 10 10 11 11 28 12 12 13
REMARK SMILES IDX 13 14 27 15 29 16 14 17 26 18 25 19 15 20 23 21 16 22 17 23
REMARK SMILES IDX 22 24 24 25 18 26 21 27 19 28 20 29
REMARK H PARENT 20 30
REMARK Flexibility Score: inf
ROOT
ATOM      1  C   UNL     1      20.003 -16.159  26.894  1.00  0.00     0.012 C 
ATOM      2  C   UNL     1      20.555 -15.074  25.949  1.00  0.00     0.012 C 
ENDROOT
BRANCH   1   3
ATOM      3  C   UNL     1      19.876 -17.450  26.110  1.00  0.00    -0.028 C 
ATOM      4  C   UNL     1      20.033 -17.488  24.776  1.00  0.00    -0.028 C 
BRANCH   4   5
ATOM      5  C   UNL     1      19.955 -18.789  24.005  1.00  0.00     0.011 C 
ATOM      6  C   UNL     1      18.803 -19.642  24.556  1.00  0.00     0.012 C 
BRANCH   5   7
ATOM      7  C   UNL     1      19.863 -18.528  22.470  1.00  0.00    -0.011 C 
ATOM      8  C   UNL     1      19.615 -17.054  22.105  1.00  0.00     0.008 C 
ATOM      9  C   UNL     1      18.807 -19.419  21.799  1.00  0.00     0.008 C 
ENDBRANCH   5   7
ENDBRANCH   4   5
ENDBRANCH   1   3
BRANCH   1  10
ATOM     10  C   UNL     1      18.630 -15.844  27.588  1.00  0.00     0.002 C 
ATOM     11  C   UNL     1      17.606 -16.981  27.628  1.00  0.00     0.005 C 
ATOM     12  C   UNL     1      17.837 -14.587  27.135  1.00  0.00    -0.023 C 
ATOM     13  C   UNL     1      16.259 -16.311  27.902  1.00  0.00     0.009 C 
ATOM     14  C   UNL     1      16.502 -14.793  27.885  1.00  0.00     0.021 C 
ATOM     15  C   UNL     1      17.599 -14.557  25.601  1.00  0.00     0.008 C 
ATOM     16  C   UNL     1      18.544 -13.290  27.611  1.00  0.00     0.012 C 
ATOM     17  C   UNL     1      15.309 -14.044  27.321  1.00  0.00    -0.063 C 
ATOM     18  C   UNL     1      16.579 -13.497  25.181  1.00  0.00     0.009 C 
ATOM     19  C   UNL     1      15.194 -13.733  25.829  1.00  0.00     0.025 C 
ATOM     20  C   UNL     1      14.221 -13.913  28.097  1.00  0.00    -0.000 C 
ATOM     21  C   UNL     1      14.169 -12.562  25.571  1.00  0.00    -0.005 C 
ATOM     22  C   UNL     1      12.943 -13.433  27.550  1.00  0.00    -0.000 C 
ATOM     23  C   UNL     1      12.881 -12.864  26.339  1.00  0.00    -0.061 C 
ATOM     24  C   UNL     1      13.838 -12.467  24.053  1.00  0.00     0.014 C 
ATOM     25  C   UNL     1      14.728 -11.205  26.073  1.00  0.00     0.017 C 
ATOM     26  C   UNL     1      11.533 -12.623  25.705  1.00  0.00     0.063 C 
ATOM     27  C   UNL     1      12.715 -11.468  23.713  1.00  0.00     0.033 C 
ATOM     28  C   UNL     1      11.566 -11.413  24.754  1.00  0.00     0.118 C 
BRANCH  28  29
ATOM     29  O   UNL     1      10.322 -11.259  24.113  1.00  0.00    -0.393 OA
ATOM     30  H   UNL     1       9.862 -12.143  24.132  1.00  0.00     0.210 HD
ENDBRANCH  28  29
ENDBRANCH   1  10
TORSDOF 5
ENDMDL
MODEL 7
REMARK VINA RESULT:    -5.977      3.950      5.885
REMARK INTER + INTRA:          -8.222
REMARK INTER:                  -7.769
REMARK INTRA:                  -0.453
REMARK UNBOUND:                -0.673
REMARK SMILES CC(C)[C@H](C)C=C[C@@H](C)[C@@H]1CC[C@@H]2C3=CC=C4C[C@H](O)CC[C@]4(C)[C@H]3CC[C@@]21C
REMARK SMILES IDX 8 1 9 2 7 3 6 4 4 5 5 6 2 7 1 8 3 9 10 10 11 11 28 12 12 13
REMARK SMILES IDX 13 14 27 15 29 16 14 17 26 18 25 19 15 20 23 21 16 22 17 23
REMARK SMILES IDX 22 24 24 25 18 26 21 27 19 28 20 29
REMARK H PARENT 20 30
REMARK Flexibility Score: inf
ROOT
ATOM      1  C   UNL     1      14.762 -11.676  26.712  1.00  0.00     0.012 C 
ATOM      2  C   UNL     1      15.528 -11.546  28.044  1.00  0.00     0.012 C 
ENDROOT
BRANCH   1   3
ATOM      3  C   UNL     1      13.648 -12.686  26.903  1.00  0.00    -0.028 C 
ATOM      4  C   UNL     1      13.270 -13.102  28.123  1.00  0.00    -0.028 C 
BRANCH   4   5
ATOM      5  C   UNL     1      12.123 -14.074  28.309  1.00  0.00     0.011 C 
ATOM      6  C   UNL     1      11.750 -14.691  26.953  1.00  0.00     0.012 C 
BRANCH   5   7
ATOM      7  C   UNL     1      12.454 -15.129  29.409  1.00  0.00    -0.011 C 
ATOM      8  C   UNL     1      11.375 -15.250  30.499  1.00  0.00     0.008 C 
ATOM      9  C   UNL     1      13.824 -14.875  30.054  1.00  0.00     0.008 C 
ENDBRANCH   5   7
ENDBRANCH   4   5
ENDBRANCH   1   3
BRANCH   1  10
ATOM     10  C   UNL     1      15.614 -12.084  25.457  1.00  0.00     0.002 C 
ATOM     11  C   UNL     1      14.844 -12.643  24.259  1.00  0.00     0.005 C 
ATOM     12  C   UNL     1      16.823 -13.039  25.655  1.00  0.00    -0.023 C 
ATOM     13  C   UNL     1      15.883 -13.373  23.408  1.00  0.00     0.009 C 
ATOM     14  C   UNL     1      17.206 -13.340  24.189  1.00  0.00     0.021 C 
ATOM     15  C   UNL     1      16.430 -14.347  26.393  1.00  0.00     0.008 C 
ATOM     16  C   UNL     1      17.981 -12.314  26.392  1.00  0.00     0.012 C 
ATOM     17  C   UNL     1      18.016 -14.604  23.968  1.00  0.00    -0.063 C 
ATOM     18  C   UNL     1      17.527 -15.413  26.334  1.00  0.00     0.009 C 
ATOM     19  C   UNL     1      17.863 -15.820  24.880  1.00  0.00     0.025 C 
ATOM     20  C   UNL     1      18.653 -14.748  22.794  1.00  0.00    -0.000 C 
ATOM     21  C   UNL     1      19.112 -16.776  24.765  1.00  0.00    -0.005 C 
ATOM     22  C   UNL     1      19.243 -16.035  22.396  1.00  0.00    -0.000 C 
ATOM     23  C   UNL     1      19.401 -17.026  23.284  1.00  0.00    -0.061 C 
ATOM     24  C   UNL     1      18.807 -18.138  25.454  1.00  0.00     0.014 C 
ATOM     25  C   UNL     1      20.372 -16.134  25.405  1.00  0.00     0.017 C 
ATOM     26  C   UNL     1      19.763 -18.406  22.793  1.00  0.00     0.063 C 
ATOM     27  C   UNL     1      19.899 -19.207  25.250  1.00  0.00     0.033 C 
ATOM     28  C   UNL     1      20.566 -19.188  23.849  1.00  0.00     0.118 C 
BRANCH  28  29
ATOM     29  O   UNL     1      20.819 -20.498  23.401  1.00  0.00    -0.393 OA
ATOM     30  H   UNL     1      21.499 -20.898  24.009  1.00  0.00     0.210 HD
ENDBRANCH  28  29
ENDBRANCH   1  10
TORSDOF 5
ENDMDL
MODEL 8
REMARK VINA RESULT:    -5.653      8.844     10.641
REMARK INTER + INTRA:          -7.812
REMARK INTER:                  -7.456
REMARK INTRA:                  -0.357
REMARK UNBOUND:                -0.673
REMARK SMILES CC(C)[C@H](C)C=C[C@@H](C)[C@@H]1CC[C@@H]2C3=CC=C4C[C@H](O)CC[C@]4(C)[C@H]3CC[C@@]21C
REMARK SMILES IDX 8 1 9 2 7 3 6 4 4 5 5 6 2 7 1 8 3 9 10 10 11 11 28 12 12 13
REMARK SMILES IDX 13 14 27 15 29 16 14 17 26 18 25 19 15 20 23 21 16 22 17 23
REMARK SMILES IDX 22 24 24 25 18 26 21 27 19 28 20 29
REMARK H PARENT 20 30
REMARK Flexibility Score: inf
ROOT
ATOM      1  C   UNL     1      16.702 -26.249  23.557  1.00  0.00     0.012 C 
ATOM      2  C   UNL     1      16.084 -25.644  22.281  1.00  0.00     0.012 C 
ENDROOT
BRANCH   1   3
ATOM      3  C   UNL     1      15.605 -26.393  24.592  1.00  0.00    -0.028 C 
ATOM      4  C   UNL     1      14.315 -26.163  24.295  1.00  0.00    -0.028 C 
BRANCH   4   5
ATOM      5  C   UNL     1      13.218 -26.358  25.321  1.00  0.00     0.011 C 
ATOM      6  C   UNL     1      13.838 -26.431  26.725  1.00  0.00     0.012 C 
BRANCH   5   7
ATOM      7  C   UNL     1      12.115 -25.264  25.179  1.00  0.00    -0.011 C 
ATOM      8  C   UNL     1      11.744 -24.943  23.721  1.00  0.00     0.008 C 
ATOM      9  C   UNL     1      12.489 -23.973  25.922  1.00  0.00     0.008 C 
ENDBRANCH   5   7
ENDBRANCH   4   5
ENDBRANCH   1   3
BRANCH   1  10
ATOM     10  C   UNL     1      17.903 -25.460  24.189  1.00  0.00     0.002 C 
ATOM     11  C   UNL     1      17.904 -25.319  25.713  1.00  0.00     0.005 C 
ATOM     12  C   UNL     1      18.235 -24.044  23.642  1.00  0.00    -0.023 C 
ATOM     13  C   UNL     1      18.857 -24.163  26.018  1.00  0.00     0.009 C 
ATOM     14  C   UNL     1      19.288 -23.569  24.668  1.00  0.00     0.021 C 
ATOM     15  C   UNL     1      17.003 -23.100  23.653  1.00  0.00     0.008 C 
ATOM     16  C   UNL     1      18.850 -24.135  22.220  1.00  0.00     0.012 C 
ATOM     17  C   UNL     1      19.489 -22.068  24.758  1.00  0.00    -0.063 C 
ATOM     18  C   UNL     1      17.375 -21.637  23.401  1.00  0.00     0.009 C 
ATOM     19  C   UNL     1      18.348 -21.092  24.474  1.00  0.00     0.025 C 
ATOM     20  C   UNL     1      20.595 -21.614  25.369  1.00  0.00    -0.000 C 
ATOM     21  C   UNL     1      18.901 -19.651  24.150  1.00  0.00    -0.005 C 
ATOM     22  C   UNL     1      20.746 -20.195  25.725  1.00  0.00    -0.000 C 
ATOM     23  C   UNL     1      19.919 -19.267  25.225  1.00  0.00    -0.061 C 
ATOM     24  C   UNL     1      17.738 -18.617  24.167  1.00  0.00     0.014 C 
ATOM     25  C   UNL     1      19.613 -19.619  22.771  1.00  0.00     0.017 C 
ATOM     26  C   UNL     1      19.935 -17.874  25.805  1.00  0.00     0.063 C 
ATOM     27  C   UNL     1      18.195 -17.151  24.032  1.00  0.00     0.033 C 
ATOM     28  C   UNL     1      19.526 -16.822  24.759  1.00  0.00     0.118 C 
BRANCH  28  29
ATOM     29  O   UNL     1      19.468 -15.544  25.346  1.00  0.00    -0.393 OA
ATOM     30  H   UNL     1      18.513 -15.261  25.360  1.00  0.00     0.210 HD
ENDBRANCH  28  29
ENDBRANCH   1  10
TORSDOF 5
ENDMDL
MODEL 9
REMARK VINA RESULT:    -5.515      8.710     10.296
REMARK INTER + INTRA:          -7.638
REMARK INTER:                  -6.727
REMARK INTRA:                  -0.911
REMARK UNBOUND:                -0.673
REMARK SMILES CC(C)[C@H](C)C=C[C@@H](C)[C@@H]1CC[C@@H]2C3=CC=C4C[C@H](O)CC[C@]4(C)[C@H]3CC[C@@]21C
REMARK SMILES IDX 8 1 9 2 7 3 6 4 4 5 5 6 2 7 1 8 3 9 10 10 11 11 28 12 12 13
REMARK SMILES IDX 13 14 27 15 29 16 14 17 26 18 25 19 15 20 23 21 16 22 17 23
REMARK SMILES IDX 22 24 24 25 18 26 21 27 19 28 20 29
REMARK H PARENT 20 30
REMARK Flexibility Score: inf
ROOT
ATOM      1  C   UNL     1      17.598 -25.818  24.643  1.00  0.00     0.012 C 
ATOM      2  C   UNL     1      18.681 -26.898  24.451  1.00  0.00     0.012 C 
ENDROOT
BRANCH   1   3
ATOM      3  C   UNL     1      16.263 -26.513  24.818  1.00  0.00    -0.028 C 
ATOM      4  C   UNL     1      15.160 -25.845  25.196  1.00  0.00    -0.028 C 
BRANCH   4   5
ATOM      5  C   UNL     1      13.817 -26.536  25.319  1.00  0.00     0.011 C 
ATOM      6  C   UNL     1      13.601 -26.976  26.775  1.00  0.00     0.012 C 
BRANCH   5   7
ATOM      7  C   UNL     1      12.671 -25.641  24.758  1.00  0.00    -0.011 C 
ATOM      8  C   UNL     1      13.032 -24.919  23.448  1.00  0.00     0.008 C 
ATOM      9  C   UNL     1      12.176 -24.624  25.797  1.00  0.00     0.008 C 
ENDBRANCH   5   7
ENDBRANCH   4   5
ENDBRANCH   1   3
BRANCH   1  10
ATOM     10  C   UNL     1      17.474 -24.748  23.501  1.00  0.00     0.002 C 
ATOM     11  C   UNL     1      18.453 -24.876  22.332  1.00  0.00     0.005 C 
ATOM     12  C   UNL     1      17.482 -23.243  23.887  1.00  0.00    -0.023 C 
ATOM     13  C   UNL     1      18.447 -23.512  21.641  1.00  0.00     0.009 C 
ATOM     14  C   UNL     1      17.571 -22.580  22.493  1.00  0.00     0.021 C 
ATOM     15  C   UNL     1      18.714 -22.859  24.749  1.00  0.00     0.008 C 
ATOM     16  C   UNL     1      16.162 -22.851  24.602  1.00  0.00     0.012 C 
ATOM     17  C   UNL     1      18.091 -21.155  22.475  1.00  0.00    -0.063 C 
ATOM     18  C   UNL     1      18.894 -21.345  24.885  1.00  0.00     0.009 C 
ATOM     19  C   UNL     1      19.095 -20.658  23.514  1.00  0.00     0.025 C 
ATOM     20  C   UNL     1      17.884 -20.422  21.368  1.00  0.00    -0.000 C 
ATOM     21  C   UNL     1      19.097 -19.082  23.592  1.00  0.00    -0.005 C 
ATOM     22  C   UNL     1      18.565 -19.135  21.164  1.00  0.00    -0.000 C 
ATOM     23  C   UNL     1      19.203 -18.524  22.171  1.00  0.00    -0.061 C 
ATOM     24  C   UNL     1      20.321 -18.591  24.418  1.00  0.00     0.014 C 
ATOM     25  C   UNL     1      17.785 -18.549  24.228  1.00  0.00     0.017 C 
ATOM     26  C   UNL     1      20.103 -17.350  21.872  1.00  0.00     0.063 C 
ATOM     27  C   UNL     1      20.514 -17.061  24.411  1.00  0.00     0.033 C 
ATOM     28  C   UNL     1      20.173 -16.375  23.062  1.00  0.00     0.118 C 
BRANCH  28  29
ATOM     29  O   UNL     1      21.081 -15.335  22.790  1.00  0.00    -0.393 OA
ATOM     30  H   UNL     1      20.984 -15.094  21.828  1.00  0.00     0.210 HD
ENDBRANCH  28  29
ENDBRANCH   1  10
TORSDOF 5
ENDMDL
