MODEL 1
REMARK VINA RESULT:    -5.489      0.000      0.000
REMARK INTER + INTRA:          -6.976
REMARK INTER:                  -6.773
REMARK INTRA:                  -0.204
REMARK UNBOUND:                -0.204
REMARK SMILES C=CC[C@@H](C)C(=O)CC
REMARK SMILES IDX 4 1 5 2 6 3 7 4 8 5 9 6 3 7 2 8 1 9
REMARK H PARENT
REMARK Flexibility Score: inf
ROOT
ATOM      1  C   UNL     1     -14.778  14.292   2.078  1.00  0.00     0.057 C 
ATOM      2  C   UNL     1     -14.377  14.426   3.554  1.00  0.00     0.016 C 
ENDROOT
BRANCH   1   3
ATOM      3  C   UNL     1     -14.849  15.651   1.409  1.00  0.00     0.135 C 
ATOM      4  O   UNL     1     -13.820  16.256   1.146  1.00  0.00    -0.299 OA
BRANCH   3   5
ATOM      5  C   UNL     1     -16.174  16.278   1.065  1.00  0.00     0.072 C 
ATOM      6  C   UNL     1     -15.991  17.727   0.631  1.00  0.00     0.012 C 
ENDBRANCH   3   5
ENDBRANCH   1   3
BRANCH   1   7
ATOM      7  C   UNL     1     -13.862  13.320   1.304  1.00  0.00     0.038 C 
BRANCH   7   8
ATOM      8  C   UNL     1     -14.385  12.962  -0.065  1.00  0.00    -0.034 C 
ATOM      9  C   UNL     1     -14.687  11.703  -0.397  1.00  0.00     0.004 C 
ENDBRANCH   7   8
ENDBRANCH   1   7
TORSDOF 4
ENDMDL
MODEL 2
REMARK VINA RESULT:    -5.385      1.446      4.095
REMARK INTER + INTRA:          -6.848
REMARK INTER:                  -6.681
REMARK INTRA:                  -0.167
REMARK UNBOUND:                -0.204
REMARK SMILES C=CC[C@@H](C)C(=O)CC
REMARK SMILES IDX 4 1 5 2 6 3 7 4 8 5 9 6 3 7 2 8 1 9
REMARK H PARENT
REMARK Flexibility Score: inf
ROOT
ATOM      1  C   UNL     1     -14.489  14.580   0.903  1.00  0.00     0.057 C 
ATOM      2  C   UNL     1     -13.280  15.312   0.303  1.00  0.00     0.016 C 
ENDROOT
BRANCH   1   3
ATOM      3  C   UNL     1     -14.052  13.349   1.672  1.00  0.00     0.135 C 
ATOM      4  O   UNL     1     -13.678  13.455   2.831  1.00  0.00    -0.299 OA
BRANCH   3   5
ATOM      5  C   UNL     1     -14.066  11.987   1.030  1.00  0.00     0.072 C 
ATOM      6  C   UNL     1     -14.665  12.055  -0.369  1.00  0.00     0.012 C 
ENDBRANCH   3   5
ENDBRANCH   1   3
BRANCH   1   7
ATOM      7  C   UNL     1     -15.373  15.509   1.762  1.00  0.00     0.038 C 
BRANCH   7   8
ATOM      8  C   UNL     1     -16.255  16.422   0.948  1.00  0.00    -0.034 C 
ATOM      9  C   UNL     1     -15.915  17.690   0.694  1.00  0.00     0.004 C 
ENDBRANCH   7   8
ENDBRANCH   1   7
TORSDOF 4
ENDMDL
MODEL 3
REMARK VINA RESULT:    -5.220      1.545      4.106
REMARK INTER + INTRA:          -6.644
REMARK INTER:                  -6.362
REMARK INTRA:                  -0.283
REMARK UNBOUND:                -0.204
REMARK SMILES C=CC[C@@H](C)C(=O)CC
REMARK SMILES IDX 4 1 5 2 6 3 7 4 8 5 9 6 3 7 2 8 1 9
REMARK H PARENT
REMARK Flexibility Score: inf
ROOT
ATOM      1  C   UNL     1     -14.670  14.690   0.961  1.00  0.00     0.057 C 
ATOM      2  C   UNL     1     -14.394  13.660  -0.145  1.00  0.00     0.016 C 
ENDROOT
BRANCH   1   3
ATOM      3  C   UNL     1     -14.327  14.125   2.326  1.00  0.00     0.135 C 
ATOM      4  O   UNL     1     -14.670  14.721   3.337  1.00  0.00    -0.299 OA
BRANCH   3   5
ATOM      5  C   UNL     1     -13.560  12.836   2.462  1.00  0.00     0.072 C 
ATOM      6  C   UNL     1     -14.304  11.856   3.362  1.00  0.00     0.012 C 
ENDBRANCH   3   5
ENDBRANCH   1   3
BRANCH   1   7
ATOM      7  C   UNL     1     -13.961  16.036   0.703  1.00  0.00     0.038 C 
BRANCH   7   8
ATOM      8  C   UNL     1     -14.899  17.217   0.687  1.00  0.00    -0.034 C 
ATOM      9  C   UNL     1     -16.219  17.071   0.832  1.00  0.00     0.004 C 
ENDBRANCH   7   8
ENDBRANCH   1   7
TORSDOF 4
ENDMDL
MODEL 4
REMARK VINA RESULT:    -5.158      1.235      2.141
REMARK INTER + INTRA:          -6.569
REMARK INTER:                  -6.387
REMARK INTRA:                  -0.181
REMARK UNBOUND:                -0.204
REMARK SMILES C=CC[C@@H](C)C(=O)CC
REMARK SMILES IDX 4 1 5 2 6 3 7 4 8 5 9 6 3 7 2 8 1 9
REMARK H PARENT
REMARK Flexibility Score: inf
ROOT
ATOM      1  C   UNL     1     -13.965  14.154   0.812  1.00  0.00     0.057 C 
ATOM      2  C   UNL     1     -14.605  13.364  -0.338  1.00  0.00     0.016 C 
ENDROOT
BRANCH   1   3
ATOM      3  C   UNL     1     -14.350  15.619   0.744  1.00  0.00     0.135 C 
ATOM      4  O   UNL     1     -13.527  16.451   0.390  1.00  0.00    -0.299 OA
BRANCH   3   5
ATOM      5  C   UNL     1     -15.737  16.075   1.113  1.00  0.00     0.072 C 
ATOM      6  C   UNL     1     -15.956  17.527   0.706  1.00  0.00     0.012 C 
ENDBRANCH   3   5
ENDBRANCH   1   3
BRANCH   1   7
ATOM      7  C   UNL     1     -14.280  13.543   2.194  1.00  0.00     0.038 C 
BRANCH   7   8
ATOM      8  C   UNL     1     -13.481  12.299   2.497  1.00  0.00    -0.034 C 
ATOM      9  C   UNL     1     -14.052  11.197   2.991  1.00  0.00     0.004 C 
ENDBRANCH   7   8
ENDBRANCH   1   7
TORSDOF 4
ENDMDL
MODEL 5
REMARK VINA RESULT:    -5.098      1.644      3.229
REMARK INTER + INTRA:          -6.494
REMARK INTER:                  -6.076
REMARK INTRA:                  -0.418
REMARK UNBOUND:                -0.204
REMARK SMILES C=CC[C@@H](C)C(=O)CC
REMARK SMILES IDX 4 1 5 2 6 3 7 4 8 5 9 6 3 7 2 8 1 9
REMARK H PARENT
REMARK Flexibility Score: inf
ROOT
ATOM      1  C   UNL     1     -14.265  15.083   1.477  1.00  0.00     0.057 C 
ATOM      2  C   UNL     1     -15.635  15.719   1.199  1.00  0.00     0.016 C 
ENDROOT
BRANCH   1   3
ATOM      3  C   UNL     1     -14.295  14.265   2.753  1.00  0.00     0.135 C 
ATOM      4  O   UNL     1     -15.061  14.570   3.656  1.00  0.00    -0.299 OA
BRANCH   3   5
ATOM      5  C   UNL     1     -13.389  13.075   2.933  1.00  0.00     0.072 C 
ATOM      6  C   UNL     1     -14.193  11.833   3.295  1.00  0.00     0.012 C 
ENDBRANCH   3   5
ENDBRANCH   1   3
BRANCH   1   7
ATOM      7  C   UNL     1     -13.745  14.259   0.280  1.00  0.00     0.038 C 
BRANCH   7   8
ATOM      8  C   UNL     1     -14.793  13.367  -0.337  1.00  0.00    -0.034 C 
ATOM      9  C   UNL     1     -14.643  12.040  -0.399  1.00  0.00     0.004 C 
ENDBRANCH   7   8
ENDBRANCH   1   7
TORSDOF 4
ENDMDL
MODEL 6
REMARK VINA RESULT:    -5.055      1.749      3.986
REMARK INTER + INTRA:          -6.441
REMARK INTER:                  -6.139
REMARK INTRA:                  -0.303
REMARK UNBOUND:                -0.204
REMARK SMILES C=CC[C@@H](C)C(=O)CC
REMARK SMILES IDX 4 1 5 2 6 3 7 4 8 5 9 6 3 7 2 8 1 9
REMARK H PARENT
REMARK Flexibility Score: inf
ROOT
ATOM      1  C   UNL     1     -14.534  14.130   0.738  1.00  0.00     0.057 C 
ATOM      2  C   UNL     1     -14.766  13.129  -0.403  1.00  0.00     0.016 C 
ENDROOT
BRANCH   1   3
ATOM      3  C   UNL     1     -14.098  13.419   2.004  1.00  0.00     0.135 C 
ATOM      4  O   UNL     1     -13.544  12.331   1.933  1.00  0.00    -0.299 OA
BRANCH   3   5
ATOM      5  C   UNL     1     -14.339  14.029   3.360  1.00  0.00     0.072 C 
ATOM      6  C   UNL     1     -13.561  13.282   4.436  1.00  0.00     0.012 C 
ENDBRANCH   3   5
ENDBRANCH   1   3
BRANCH   1   7
ATOM      7  C   UNL     1     -13.552  15.254   0.345  1.00  0.00     0.038 C 
BRANCH   7   8
ATOM      8  C   UNL     1     -14.060  16.637   0.670  1.00  0.00    -0.034 C 
ATOM      9  C   UNL     1     -15.364  16.896   0.807  1.00  0.00     0.004 C 
ENDBRANCH   7   8
ENDBRANCH   1   7
TORSDOF 4
ENDMDL
MODEL 7
REMARK VINA RESULT:    -5.017      1.174      3.430
REMARK INTER + INTRA:          -6.394
REMARK INTER:                  -5.998
REMARK INTRA:                  -0.395
REMARK UNBOUND:                -0.204
REMARK SMILES C=CC[C@@H](C)C(=O)CC
REMARK SMILES IDX 4 1 5 2 6 3 7 4 8 5 9 6 3 7 2 8 1 9
REMARK H PARENT
REMARK Flexibility Score: inf
ROOT
ATOM      1  C   UNL     1     -15.144  14.777   1.486  1.00  0.00     0.057 C 
ATOM      2  C   UNL     1     -15.818  16.111   1.136  1.00  0.00     0.016 C 
ENDROOT
BRANCH   1   3
ATOM      3  C   UNL     1     -14.245  14.310   0.358  1.00  0.00     0.135 C 
ATOM      4  O   UNL     1     -13.159  14.842   0.182  1.00  0.00    -0.299 OA
BRANCH   3   5
ATOM      5  C   UNL     1     -14.670  13.196  -0.563  1.00  0.00     0.072 C 
ATOM      6  C   UNL     1     -14.377  11.837   0.062  1.00  0.00     0.012 C 
ENDBRANCH   3   5
ENDBRANCH   1   3
BRANCH   1   7
ATOM      7  C   UNL     1     -14.391  14.832   2.832  1.00  0.00     0.038 C 
BRANCH   7   8
ATOM      8  C   UNL     1     -13.871  13.491   3.286  1.00  0.00    -0.034 C 
ATOM      9  C   UNL     1     -14.660  12.591   3.879  1.00  0.00     0.004 C 
ENDBRANCH   7   8
ENDBRANCH   1   7
TORSDOF 4
ENDMDL
MODEL 8
REMARK VINA RESULT:    -4.803      1.970      4.364
REMARK INTER + INTRA:          -6.129
REMARK INTER:                  -5.953
REMARK INTRA:                  -0.176
REMARK UNBOUND:                -0.204
REMARK SMILES C=CC[C@@H](C)C(=O)CC
REMARK SMILES IDX 4 1 5 2 6 3 7 4 8 5 9 6 3 7 2 8 1 9
REMARK H PARENT
REMARK Flexibility Score: inf
ROOT
ATOM      1  C   UNL     1     -14.100  14.052   1.617  1.00  0.00     0.057 C 
ATOM      2  C   UNL     1     -14.432  14.313   3.093  1.00  0.00     0.016 C 
ENDROOT
BRANCH   1   3
ATOM      3  C   UNL     1     -14.149  12.569   1.304  1.00  0.00     0.135 C 
ATOM      4  O   UNL     1     -14.390  12.194   0.166  1.00  0.00    -0.299 OA
BRANCH   3   5
ATOM      5  C   UNL     1     -13.909  11.541   2.378  1.00  0.00     0.072 C 
ATOM      6  C   UNL     1     -12.953  10.460   1.888  1.00  0.00     0.012 C 
ENDBRANCH   3   5
ENDBRANCH   1   3
BRANCH   1   7
ATOM      7  C   UNL     1     -14.992  14.870   0.659  1.00  0.00     0.038 C 
BRANCH   7   8
ATOM      8  C   UNL     1     -15.789  15.947   1.352  1.00  0.00    -0.034 C 
ATOM      9  C   UNL     1     -15.971  17.152   0.805  1.00  0.00     0.004 C 
ENDBRANCH   7   8
ENDBRANCH   1   7
TORSDOF 4
ENDMDL
MODEL 9
REMARK VINA RESULT:    -4.459      1.750      3.240
REMARK INTER + INTRA:          -5.705
REMARK INTER:                  -5.487
REMARK INTRA:                  -0.218
REMARK UNBOUND:                -0.204
REMARK SMILES C=CC[C@@H](C)C(=O)CC
REMARK SMILES IDX 4 1 5 2 6 3 7 4 8 5 9 6 3 7 2 8 1 9
REMARK H PARENT
REMARK Flexibility Score: inf
ROOT
ATOM      1  C   UNL     1     -13.766  13.185   2.059  1.00  0.00     0.057 C 
ATOM      2  C   UNL     1     -13.966  11.738   1.587  1.00  0.00     0.016 C 
ENDROOT
BRANCH   1   3
ATOM      3  C   UNL     1     -14.416  14.164   1.101  1.00  0.00     0.135 C 
ATOM      4  O   UNL     1     -14.771  13.789  -0.007  1.00  0.00    -0.299 OA
BRANCH   3   5
ATOM      5  C   UNL     1     -14.632  15.603   1.489  1.00  0.00     0.072 C 
ATOM      6  C   UNL     1     -16.047  16.051   1.142  1.00  0.00     0.012 C 
ENDBRANCH   3   5
ENDBRANCH   1   3
BRANCH   1   7
ATOM      7  C   UNL     1     -14.242  13.403   3.511  1.00  0.00     0.038 C 
BRANCH   7   8
ATOM      8  C   UNL     1     -13.527  12.533   4.515  1.00  0.00    -0.034 C 
ATOM      9  C   UNL     1     -12.403  12.931   5.119  1.00  0.00     0.004 C 
ENDBRANCH   7   8
ENDBRANCH   1   7
TORSDOF 4
ENDMDL
