MODEL 1
REMARK VINA RESULT:    -2.694      0.000      0.000
REMARK INTER + INTRA:          -4.629
REMARK INTER:                  -4.269
REMARK INTRA:                  -0.360
REMARK UNBOUND:                -0.360
REMARK SMILES CCCCCCCCCCCC(=O)[O-]
REMARK SMILES IDX 7 1 8 2 9 3 10 4 11 5 12 6 13 7 14 8 6 9 5 10 4 11 3 12 2 13
REMARK SMILES IDX 1 14
REMARK H PARENT
REMARK Flexibility Score: inf
ROOT
ATOM      1  C   UNL     1      23.327  -1.308  -2.488  1.00  0.00     0.000 C 
ENDROOT
BRANCH   1   2
ATOM      2  C   UNL     1      22.937   0.182  -2.384  1.00  0.00     0.000 C 
BRANCH   2   3
ATOM      3  C   UNL     1      23.910   1.166  -3.060  1.00  0.00     0.000 C 
BRANCH   3   4
ATOM      4  C   UNL     1      23.743   2.642  -2.647  1.00  0.00     0.006 C 
BRANCH   4   5
ATOM      5  C   UNL     1      24.990   3.247  -1.975  1.00  0.00     0.053 C 
BRANCH   5   6
ATOM      6  C   UNL     1      25.061   4.737  -2.125  1.00  0.00     0.041 C 
ATOM      7  O   UNL     1      24.348   5.323  -2.981  1.00  0.00    -0.550 OA
ATOM      8  O   UNL     1      25.943   5.474  -1.345  1.00  0.00    -0.550 OA
ENDBRANCH   5   6
ENDBRANCH   4   5
ENDBRANCH   3   4
ENDBRANCH   2   3
ENDBRANCH   1   2
BRANCH   1   9
ATOM      9  C   UNL     1      24.596  -1.601  -3.308  1.00  0.00     0.000 C 
BRANCH   9  10
ATOM     10  C   UNL     1      25.575  -2.538  -2.580  1.00  0.00    -0.000 C 
BRANCH  10  11
ATOM     11  C   UNL     1      26.075  -3.691  -3.470  1.00  0.00    -0.000 C 
BRANCH  11  12
ATOM     12  C   UNL     1      27.335  -4.414  -2.960  1.00  0.00    -0.000 C 
BRANCH  12  13
ATOM     13  C   UNL     1      27.060  -5.315  -1.748  1.00  0.00    -0.003 C 
ATOM     14  C   UNL     1      27.655  -4.720  -0.475  1.00  0.00     0.004 C 
ENDBRANCH  12  13
ENDBRANCH  11  12
ENDBRANCH  10  11
ENDBRANCH   9  10
ENDBRANCH   1   9
TORSDOF 10
ENDMDL
MODEL 2
REMARK VINA RESULT:    -2.654      5.713     10.870
REMARK INTER + INTRA:          -4.566
REMARK INTER:                  -4.133
REMARK INTRA:                  -0.433
REMARK UNBOUND:                -0.360
REMARK SMILES CCCCCCCCCCCC(=O)[O-]
REMARK SMILES IDX 7 1 8 2 9 3 10 4 11 5 12 6 13 7 14 8 6 9 5 10 4 11 3 12 2 13
REMARK SMILES IDX 1 14
REMARK H PARENT
REMARK Flexibility Score: inf
ROOT
ATOM      1  C   UNL     1      27.164   8.740  -0.696  1.00  0.00     0.000 C 
ENDROOT
BRANCH   1   2
ATOM      2  C   UNL     1      27.001   7.499  -1.597  1.00  0.00     0.000 C 
BRANCH   2   3
ATOM      3  C   UNL     1      27.202   6.143  -0.894  1.00  0.00     0.000 C 
BRANCH   3   4
ATOM      4  C   UNL     1      25.917   5.320  -0.676  1.00  0.00     0.006 C 
BRANCH   4   5
ATOM      5  C   UNL     1      25.820   4.065  -1.565  1.00  0.00     0.053 C 
BRANCH   5   6
ATOM      6  C   UNL     1      24.611   4.077  -2.450  1.00  0.00     0.041 C 
ATOM      7  O   UNL     1      24.192   5.159  -2.938  1.00  0.00    -0.550 OA
ATOM      8  O   UNL     1      23.924   2.897  -2.707  1.00  0.00    -0.550 OA
ENDBRANCH   5   6
ENDBRANCH   4   5
ENDBRANCH   3   4
ENDBRANCH   2   3
ENDBRANCH   1   2
BRANCH   1   9
ATOM      9  C   UNL     1      28.228   9.753  -1.156  1.00  0.00     0.000 C 
BRANCH   9  10
ATOM     10  C   UNL     1      29.017   9.274  -2.386  1.00  0.00    -0.000 C 
BRANCH  10  11
ATOM     11  C   UNL     1      28.406   9.754  -3.715  1.00  0.00    -0.000 C 
BRANCH  11  12
ATOM     12  C   UNL     1      27.954  11.226  -3.736  1.00  0.00    -0.000 C 
BRANCH  12  13
ATOM     13  C   UNL     1      29.124  12.214  -3.628  1.00  0.00    -0.003 C 
ATOM     14  C   UNL     1      28.626  13.657  -3.620  1.00  0.00     0.004 C 
ENDBRANCH  12  13
ENDBRANCH  11  12
ENDBRANCH  10  11
ENDBRANCH   9  10
ENDBRANCH   1   9
TORSDOF 10
ENDMDL
MODEL 3
REMARK VINA RESULT:    -2.454      4.186      7.714
REMARK INTER + INTRA:          -4.248
REMARK INTER:                  -3.944
REMARK INTRA:                  -0.304
REMARK UNBOUND:                -0.360
REMARK SMILES CCCCCCCCCCCC(=O)[O-]
REMARK SMILES IDX 7 1 8 2 9 3 10 4 11 5 12 6 13 7 14 8 6 9 5 10 4 11 3 12 2 13
REMARK SMILES IDX 1 14
REMARK H PARENT
REMARK Flexibility Score: inf
ROOT
ATOM      1  C   UNL     1      23.396  -0.847  -2.357  1.00  0.00     0.000 C 
ENDROOT
BRANCH   1   2
ATOM      2  C   UNL     1      24.350  -1.613  -3.298  1.00  0.00     0.000 C 
BRANCH   2   3
ATOM      3  C   UNL     1      25.439  -2.447  -2.596  1.00  0.00     0.000 C 
BRANCH   3   4
ATOM      4  C   UNL     1      26.130  -3.502  -3.482  1.00  0.00     0.006 C 
BRANCH   4   5
ATOM      5  C   UNL     1      26.221  -4.897  -2.836  1.00  0.00     0.053 C 
BRANCH   5   6
ATOM      6  C   UNL     1      27.485  -5.091  -2.055  1.00  0.00     0.041 C 
ATOM      7  O   UNL     1      28.444  -5.739  -2.550  1.00  0.00    -0.550 OA
ATOM      8  O   UNL     1      27.589  -4.588  -0.764  1.00  0.00    -0.550 OA
ENDBRANCH   5   6
ENDBRANCH   4   5
ENDBRANCH   3   4
ENDBRANCH   2   3
ENDBRANCH   1   2
BRANCH   1   9
ATOM      9  C   UNL     1      22.882   0.501  -2.895  1.00  0.00     0.000 C 
BRANCH   9  10
ATOM     10  C   UNL     1      23.965   1.592  -2.905  1.00  0.00    -0.000 C 
BRANCH  10  11
ATOM     11  C   UNL     1      23.430   2.971  -2.475  1.00  0.00    -0.000 C 
BRANCH  11  12
ATOM     12  C   UNL     1      24.453   4.120  -2.538  1.00  0.00    -0.000 C 
BRANCH  12  13
ATOM     13  C   UNL     1      25.601   3.956  -1.533  1.00  0.00    -0.003 C 
ATOM     14  C   UNL     1      26.156   5.312  -1.106  1.00  0.00     0.004 C 
ENDBRANCH  12  13
ENDBRANCH  11  12
ENDBRANCH  10  11
ENDBRANCH   9  10
ENDBRANCH   1   9
TORSDOF 10
ENDMDL
MODEL 4
REMARK VINA RESULT:    -2.150      5.960      8.704
REMARK INTER + INTRA:          -3.767
REMARK INTER:                  -3.530
REMARK INTRA:                  -0.237
REMARK UNBOUND:                -0.360
REMARK SMILES CCCCCCCCCCCC(=O)[O-]
REMARK SMILES IDX 7 1 8 2 9 3 10 4 11 5 12 6 13 7 14 8 6 9 5 10 4 11 3 12 2 13
REMARK SMILES IDX 1 14
REMARK H PARENT
REMARK Flexibility Score: inf
ROOT
ATOM      1  C   UNL     1      27.008   7.146  -1.117  1.00  0.00     0.000 C 
ENDROOT
BRANCH   1   2
ATOM      2  C   UNL     1      26.981   8.651  -0.778  1.00  0.00     0.000 C 
BRANCH   2   3
ATOM      3  C   UNL     1      28.295   9.223  -0.215  1.00  0.00     0.000 C 
BRANCH   3   4
ATOM      4  C   UNL     1      29.044  10.193  -1.150  1.00  0.00     0.006 C 
BRANCH   4   5
ATOM      5  C   UNL     1      28.973   9.805  -2.639  1.00  0.00     0.053 C 
BRANCH   5   6
ATOM      6  C   UNL     1      28.225  10.810  -3.462  1.00  0.00     0.041 C 
ATOM      7  O   UNL     1      27.214  10.462  -4.125  1.00  0.00    -0.550 OA
ATOM      8  O   UNL     1      28.670  12.125  -3.528  1.00  0.00    -0.550 OA
ENDBRANCH   5   6
ENDBRANCH   4   5
ENDBRANCH   3   4
ENDBRANCH   2   3
ENDBRANCH   1   2
BRANCH   1   9
ATOM      9  C   UNL     1      28.288   6.400  -0.701  1.00  0.00     0.000 C 
BRANCH   9  10
ATOM     10  C   UNL     1      28.005   5.006  -0.116  1.00  0.00    -0.000 C 
BRANCH  10  11
ATOM     11  C   UNL     1      27.152   4.126  -1.048  1.00  0.00    -0.000 C 
BRANCH  11  12
ATOM     12  C   UNL     1      25.642   4.427  -1.034  1.00  0.00    -0.000 C 
BRANCH  12  13
ATOM     13  C   UNL     1      24.890   3.776  -2.203  1.00  0.00    -0.003 C 
ATOM     14  C   UNL     1      23.884   4.746  -2.818  1.00  0.00     0.004 C 
ENDBRANCH  12  13
ENDBRANCH  11  12
ENDBRANCH  10  11
ENDBRANCH   9  10
ENDBRANCH   1   9
TORSDOF 10
ENDMDL
MODEL 5
REMARK VINA RESULT:    -2.090      4.211      9.240
REMARK INTER + INTRA:          -3.673
REMARK INTER:                  -3.472
REMARK INTRA:                  -0.201
REMARK UNBOUND:                -0.360
REMARK SMILES CCCCCCCCCCCC(=O)[O-]
REMARK SMILES IDX 7 1 8 2 9 3 10 4 11 5 12 6 13 7 14 8 6 9 5 10 4 11 3 12 2 13
REMARK SMILES IDX 1 14
REMARK H PARENT
REMARK Flexibility Score: inf
ROOT
ATOM      1  C   UNL     1      25.301   5.151  -1.957  1.00  0.00     0.000 C 
ENDROOT
BRANCH   1   2
ATOM      2  C   UNL     1      25.149   3.626  -1.782  1.00  0.00     0.000 C 
BRANCH   2   3
ATOM      3  C   UNL     1      23.918   3.003  -2.465  1.00  0.00     0.000 C 
BRANCH   3   4
ATOM      4  C   UNL     1      24.102   1.553  -2.955  1.00  0.00     0.006 C 
BRANCH   4   5
ATOM      5  C   UNL     1      22.841   0.680  -2.813  1.00  0.00     0.053 C 
BRANCH   5   6
ATOM      6  C   UNL     1      23.157  -0.729  -2.409  1.00  0.00     0.041 C 
ATOM      7  O   UNL     1      22.625  -1.230  -1.384  1.00  0.00    -0.550 OA
ATOM      8  O   UNL     1      24.069  -1.476  -3.144  1.00  0.00    -0.550 OA
ENDBRANCH   5   6
ENDBRANCH   4   5
ENDBRANCH   3   4
ENDBRANCH   2   3
ENDBRANCH   1   2
BRANCH   1   9
ATOM      9  C   UNL     1      26.430   5.800  -1.137  1.00  0.00     0.000 C 
BRANCH   9  10
ATOM     10  C   UNL     1      26.697   7.261  -1.537  1.00  0.00    -0.000 C 
BRANCH  10  11
ATOM     11  C   UNL     1      27.931   7.859  -0.836  1.00  0.00    -0.000 C 
BRANCH  11  12
ATOM     12  C   UNL     1      27.786   9.326  -0.391  1.00  0.00    -0.000 C 
BRANCH  12  13
ATOM     13  C   UNL     1      28.716  10.278  -1.155  1.00  0.00    -0.003 C 
ATOM     14  C   UNL     1      28.361  10.319  -2.639  1.00  0.00     0.004 C 
ENDBRANCH  12  13
ENDBRANCH  11  12
ENDBRANCH  10  11
ENDBRANCH   9  10
ENDBRANCH   1   9
TORSDOF 10
ENDMDL
MODEL 6
REMARK VINA RESULT:    -1.905      3.852      5.877
REMARK INTER + INTRA:          -3.378
REMARK INTER:                  -2.991
REMARK INTRA:                  -0.387
REMARK UNBOUND:                -0.360
REMARK SMILES CCCCCCCCCCCC(=O)[O-]
REMARK SMILES IDX 7 1 8 2 9 3 10 4 11 5 12 6 13 7 14 8 6 9 5 10 4 11 3 12 2 13
REMARK SMILES IDX 1 14
REMARK H PARENT
REMARK Flexibility Score: inf
ROOT
ATOM      1  C   UNL     1      24.887   5.154  -2.358  1.00  0.00     0.000 C 
ENDROOT
BRANCH   1   2
ATOM      2  C   UNL     1      25.920   4.765  -1.279  1.00  0.00     0.000 C 
BRANCH   2   3
ATOM      3  C   UNL     1      26.840   5.905  -0.806  1.00  0.00     0.000 C 
BRANCH   3   4
ATOM      4  C   UNL     1      26.565   7.280  -1.447  1.00  0.00     0.006 C 
BRANCH   4   5
ATOM      5  C   UNL     1      27.839   8.077  -1.787  1.00  0.00     0.053 C 
BRANCH   5   6
ATOM      6  C   UNL     1      27.889   9.407  -1.098  1.00  0.00     0.041 C 
ATOM      7  O   UNL     1      27.483   9.523   0.087  1.00  0.00    -0.550 OA
ATOM      8  O   UNL     1      28.350  10.527  -1.779  1.00  0.00    -0.550 OA
ENDBRANCH   5   6
ENDBRANCH   4   5
ENDBRANCH   3   4
ENDBRANCH   2   3
ENDBRANCH   1   2
BRANCH   1   9
ATOM      9  C   UNL     1      23.813   4.092  -2.654  1.00  0.00     0.000 C 
BRANCH   9  10
ATOM     10  C   UNL     1      24.320   2.655  -2.452  1.00  0.00    -0.000 C 
BRANCH  10  11
ATOM     11  C   UNL     1      23.351   1.593  -3.004  1.00  0.00    -0.000 C 
BRANCH  11  12
ATOM     12  C   UNL     1      23.879   0.147  -2.978  1.00  0.00    -0.000 C 
BRANCH  12  13
ATOM     13  C   UNL     1      22.784  -0.886  -2.676  1.00  0.00    -0.003 C 
ATOM     14  C   UNL     1      22.492  -0.955  -1.180  1.00  0.00     0.004 C 
ENDBRANCH  12  13
ENDBRANCH  11  12
ENDBRANCH  10  11
ENDBRANCH   9  10
ENDBRANCH   1   9
TORSDOF 10
ENDMDL
MODEL 7
REMARK VINA RESULT:    -1.895      1.549      2.981
REMARK INTER + INTRA:          -3.363
REMARK INTER:                  -3.076
REMARK INTRA:                  -0.287
REMARK UNBOUND:                -0.360
REMARK SMILES CCCCCCCCCCCC(=O)[O-]
REMARK SMILES IDX 7 1 8 2 9 3 10 4 11 5 12 6 13 7 14 8 6 9 5 10 4 11 3 12 2 13
REMARK SMILES IDX 1 14
REMARK H PARENT
REMARK Flexibility Score: inf
ROOT
ATOM      1  C   UNL     1      23.907   1.486  -3.005  1.00  0.00     0.000 C 
ENDROOT
BRANCH   1   2
ATOM      2  C   UNL     1      23.864   2.964  -2.565  1.00  0.00     0.000 C 
BRANCH   2   3
ATOM      3  C   UNL     1      25.194   3.534  -2.037  1.00  0.00     0.000 C 
BRANCH   3   4
ATOM      4  C   UNL     1      25.245   5.068  -1.904  1.00  0.00     0.006 C 
BRANCH   4   5
ATOM      5  C   UNL     1      26.367   5.579  -0.980  1.00  0.00     0.053 C 
BRANCH   5   6
ATOM      6  C   UNL     1      26.816   6.965  -1.329  1.00  0.00     0.041 C 
ATOM      7  O   UNL     1      26.169   7.651  -2.163  1.00  0.00    -0.550 OA
ATOM      8  O   UNL     1      27.973   7.486  -0.762  1.00  0.00    -0.550 OA
ENDBRANCH   5   6
ENDBRANCH   4   5
ENDBRANCH   3   4
ENDBRANCH   2   3
ENDBRANCH   1   2
BRANCH   1   9
ATOM      9  C   UNL     1      22.755   0.609  -2.481  1.00  0.00     0.000 C 
BRANCH   9  10
ATOM     10  C   UNL     1      22.933  -0.879  -2.822  1.00  0.00    -0.000 C 
BRANCH  10  11
ATOM     11  C   UNL     1      24.269  -1.455  -2.316  1.00  0.00    -0.000 C 
BRANCH  11  12
ATOM     12  C   UNL     1      25.103  -2.202  -3.373  1.00  0.00    -0.000 C 
BRANCH  12  13
ATOM     13  C   UNL     1      26.206  -3.075  -2.757  1.00  0.00    -0.003 C 
ATOM     14  C   UNL     1      26.151  -4.498  -3.306  1.00  0.00     0.004 C 
ENDBRANCH  12  13
ENDBRANCH  11  12
ENDBRANCH  10  11
ENDBRANCH   9  10
ENDBRANCH   1   9
TORSDOF 10
ENDMDL
MODEL 8
REMARK VINA RESULT:    -1.771      6.049     10.936
REMARK INTER + INTRA:          -3.167
REMARK INTER:                  -2.720
REMARK INTRA:                  -0.447
REMARK UNBOUND:                -0.360
REMARK SMILES CCCCCCCCCCCC(=O)[O-]
REMARK SMILES IDX 7 1 8 2 9 3 10 4 11 5 12 6 13 7 14 8 6 9 5 10 4 11 3 12 2 13
REMARK SMILES IDX 1 14
REMARK H PARENT
REMARK Flexibility Score: inf
ROOT
ATOM      1  C   UNL     1      27.577   8.529  -1.304  1.00  0.00     0.000 C 
ENDROOT
BRANCH   1   2
ATOM      2  C   UNL     1      27.179   7.062  -1.041  1.00  0.00     0.000 C 
BRANCH   2   3
ATOM      3  C   UNL     1      25.922   6.576  -1.788  1.00  0.00     0.000 C 
BRANCH   3   4
ATOM      4  C   UNL     1      25.694   5.051  -1.765  1.00  0.00     0.006 C 
BRANCH   4   5
ATOM      5  C   UNL     1      26.159   4.369  -0.465  1.00  0.00     0.053 C 
BRANCH   5   6
ATOM      6  C   UNL     1      27.455   3.634  -0.631  1.00  0.00     0.041 C 
ATOM      7  O   UNL     1      27.632   2.874  -1.619  1.00  0.00    -0.550 OA
ATOM      8  O   UNL     1      28.454   3.759   0.327  1.00  0.00    -0.550 OA
ENDBRANCH   5   6
ENDBRANCH   4   5
ENDBRANCH   3   4
ENDBRANCH   2   3
ENDBRANCH   1   2
BRANCH   1   9
ATOM      9  C   UNL     1      27.266   9.052  -2.719  1.00  0.00     0.000 C 
BRANCH   9  10
ATOM     10  C   UNL     1      28.441   8.872  -3.694  1.00  0.00    -0.000 C 
BRANCH  10  11
ATOM     11  C   UNL     1      29.124  10.202  -4.062  1.00  0.00    -0.000 C 
BRANCH  11  12
ATOM     12  C   UNL     1      28.305  11.468  -3.754  1.00  0.00    -0.000 C 
BRANCH  12  13
ATOM     13  C   UNL     1      29.122  12.551  -3.034  1.00  0.00    -0.003 C 
ATOM     14  C   UNL     1      28.743  13.944  -3.528  1.00  0.00     0.004 C 
ENDBRANCH  12  13
ENDBRANCH  11  12
ENDBRANCH  10  11
ENDBRANCH   9  10
ENDBRANCH   1   9
TORSDOF 10
ENDMDL
MODEL 9
REMARK VINA RESULT:    -1.600      3.904      7.525
REMARK INTER + INTRA:          -2.895
REMARK INTER:                  -2.598
REMARK INTRA:                  -0.297
REMARK UNBOUND:                -0.360
REMARK SMILES CCCCCCCCCCCC(=O)[O-]
REMARK SMILES IDX 7 1 8 2 9 3 10 4 11 5 12 6 13 7 14 8 6 9 5 10 4 11 3 12 2 13
REMARK SMILES IDX 1 14
REMARK H PARENT
REMARK Flexibility Score: inf
ROOT
ATOM      1  C   UNL     1      25.384  -2.432  -2.788  1.00  0.00     0.000 C 
ENDROOT
BRANCH   1   2
ATOM      2  C   UNL     1      25.850  -3.606  -3.674  1.00  0.00     0.000 C 
BRANCH   2   3
ATOM      3  C   UNL     1      27.367  -3.873  -3.672  1.00  0.00     0.000 C 
BRANCH   3   4
ATOM      4  C   UNL     1      27.788  -5.262  -3.154  1.00  0.00     0.006 C 
BRANCH   4   5
ATOM      5  C   UNL     1      27.135  -5.656  -1.816  1.00  0.00     0.053 C 
BRANCH   5   6
ATOM      6  C   UNL     1      27.612  -4.813  -0.671  1.00  0.00     0.041 C 
ATOM      7  O   UNL     1      26.986  -3.770  -0.347  1.00  0.00    -0.550 OA
ATOM      8  O   UNL     1      28.770  -5.160   0.014  1.00  0.00    -0.550 OA
ENDBRANCH   5   6
ENDBRANCH   4   5
ENDBRANCH   3   4
ENDBRANCH   2   3
ENDBRANCH   1   2
BRANCH   1   9
ATOM      9  C   UNL     1      24.317  -1.516  -3.416  1.00  0.00     0.000 C 
BRANCH   9  10
ATOM     10  C   UNL     1      23.286  -1.013  -2.393  1.00  0.00    -0.000 C 
BRANCH  10  11
ATOM     11  C   UNL     1      22.833   0.435  -2.660  1.00  0.00    -0.000 C 
BRANCH  11  12
ATOM     12  C   UNL     1      23.966   1.427  -2.982  1.00  0.00    -0.000 C 
BRANCH  12  13
ATOM     13  C   UNL     1      23.601   2.881  -2.650  1.00  0.00    -0.003 C 
ATOM     14  C   UNL     1      24.828   3.665  -2.193  1.00  0.00     0.004 C 
ENDBRANCH  12  13
ENDBRANCH  11  12
ENDBRANCH  10  11
ENDBRANCH   9  10
ENDBRANCH   1   9
TORSDOF 10
ENDMDL
