MODEL 1
REMARK VINA RESULT:    -6.493      0.000      0.000
REMARK INTER + INTRA:         -11.807
REMARK INTER:                  -9.909
REMARK INTRA:                  -1.899
REMARK UNBOUND:                -1.899
REMARK SMILES CC(=O)CCC=C(C)CCC=C(C)CCC=C(C)C
REMARK SMILES IDX 10 1 11 2 12 3 13 4 14 5 15 6 16 7 18 8 17 9 19 10 9 11 7 12
REMARK SMILES IDX 6 13 8 14 5 15 4 16 2 17 3 18 1 19
REMARK H PARENT
REMARK Flexibility Score: inf
ROOT
ATOM      1  C   UNL     1      -4.696 -10.113  28.911  1.00  0.00     0.032 C 
ENDROOT
BRANCH   1   2
ATOM      2  C   UNL     1      -4.601 -11.519  28.365  1.00  0.00    -0.028 C 
ATOM      3  C   UNL     1      -3.806 -11.856  27.326  1.00  0.00    -0.077 C 
ATOM      4  C   UNL     1      -2.943 -10.830  26.631  1.00  0.00     0.039 C 
BRANCH   3   5
ATOM      5  C   UNL     1      -3.777 -13.294  26.849  1.00  0.00     0.034 C 
BRANCH   5   6
ATOM      6  C   UNL     1      -4.092 -14.280  27.983  1.00  0.00     0.032 C 
BRANCH   6   7
ATOM      7  C   UNL     1      -5.519 -14.773  27.916  1.00  0.00    -0.028 C 
ATOM      8  C   UNL     1      -7.665 -15.619  28.760  1.00  0.00     0.039 C 
ATOM      9  C   UNL     1      -6.272 -15.094  28.991  1.00  0.00    -0.080 C 
ATOM     10  C   UNL     1      -5.765 -14.924  30.404  1.00  0.00     0.039 C 
ENDBRANCH   6   7
ENDBRANCH   5   6
ENDBRANCH   3   5
ENDBRANCH   1   2
BRANCH   1  11
ATOM     11  C   UNL     1      -4.535 -10.073  30.438  1.00  0.00     0.034 C 
BRANCH  11  12
ATOM     12  C   UNL     1      -3.301 -10.823  30.901  1.00  0.00    -0.077 C 
ATOM     13  C   UNL     1      -3.428 -12.104  31.319  1.00  0.00    -0.028 C 
ATOM     14  C   UNL     1      -1.961 -10.123  30.878  1.00  0.00     0.039 C 
BRANCH  13  15
ATOM     15  C   UNL     1      -2.282 -12.973  31.769  1.00  0.00     0.035 C 
BRANCH  15  16
ATOM     16  C   UNL     1      -1.746 -13.811  30.604  1.00  0.00     0.079 C 
BRANCH  16  17
ATOM     17  C   UNL     1      -0.393 -13.312  30.168  1.00  0.00     0.130 C 
ATOM     18  O   UNL     1       0.329 -12.745  30.975  1.00  0.00    -0.300 OA
ATOM     19  C   UNL     1       0.094 -13.505  28.762  1.00  0.00     0.087 C 
ENDBRANCH  16  17
ENDBRANCH  15  16
ENDBRANCH  13  15
ENDBRANCH  11  12
ENDBRANCH   1  11
TORSDOF 9
ENDMDL
MODEL 2
REMARK VINA RESULT:    -6.471      1.375      2.525
REMARK INTER + INTRA:         -11.774
REMARK INTER:                 -10.778
REMARK INTRA:                  -0.996
REMARK UNBOUND:                -1.899
REMARK SMILES CC(=O)CCC=C(C)CCC=C(C)CCC=C(C)C
REMARK SMILES IDX 10 1 11 2 12 3 13 4 14 5 15 6 16 7 18 8 17 9 19 10 9 11 7 12
REMARK SMILES IDX 6 13 8 14 5 15 4 16 2 17 3 18 1 19
REMARK H PARENT
REMARK Flexibility Score: inf
ROOT
ATOM      1  C   UNL     1      -4.136 -11.459  28.008  1.00  0.00     0.032 C 
ENDROOT
BRANCH   1   2
ATOM      2  C   UNL     1      -5.160 -12.505  28.384  1.00  0.00    -0.028 C 
ATOM      3  C   UNL     1      -5.314 -13.664  27.707  1.00  0.00    -0.077 C 
ATOM      4  C   UNL     1      -4.455 -13.997  26.510  1.00  0.00     0.039 C 
BRANCH   3   5
ATOM      5  C   UNL     1      -6.369 -14.653  28.160  1.00  0.00     0.034 C 
BRANCH   5   6
ATOM      6  C   UNL     1      -6.107 -15.158  29.587  1.00  0.00     0.032 C 
BRANCH   6   7
ATOM      7  C   UNL     1      -5.031 -14.352  30.276  1.00  0.00    -0.028 C 
ATOM      8  C   UNL     1      -3.715 -13.469  32.152  1.00  0.00     0.039 C 
ATOM      9  C   UNL     1      -4.794 -14.366  31.606  1.00  0.00    -0.080 C 
ATOM     10  C   UNL     1      -5.563 -15.265  32.547  1.00  0.00     0.039 C 
ENDBRANCH   6   7
ENDBRANCH   5   6
ENDBRANCH   3   5
ENDBRANCH   1   2
BRANCH   1  11
ATOM     11  C   UNL     1      -4.041 -10.341  29.056  1.00  0.00     0.034 C 
BRANCH  11  12
ATOM     12  C   UNL     1      -2.928 -10.590  30.057  1.00  0.00    -0.077 C 
ATOM     13  C   UNL     1      -1.926 -11.437  29.729  1.00  0.00    -0.028 C 
ATOM     14  C   UNL     1      -2.966  -9.880  31.392  1.00  0.00     0.039 C 
BRANCH  13  15
ATOM     15  C   UNL     1      -0.744 -11.744  30.613  1.00  0.00     0.035 C 
BRANCH  15  16
ATOM     16  C   UNL     1      -0.394 -13.234  30.552  1.00  0.00     0.079 C 
BRANCH  16  17
ATOM     17  C   UNL     1      -0.397 -13.724  29.128  1.00  0.00     0.130 C 
ATOM     18  O   UNL     1       0.602 -13.579  28.440  1.00  0.00    -0.300 OA
ATOM     19  C   UNL     1      -1.601 -14.396  28.536  1.00  0.00     0.087 C 
ENDBRANCH  16  17
ENDBRANCH  15  16
ENDBRANCH  13  15
ENDBRANCH  11  12
ENDBRANCH   1  11
TORSDOF 9
ENDMDL
MODEL 3
REMARK VINA RESULT:    -6.468      1.304      3.886
REMARK INTER + INTRA:         -11.769
REMARK INTER:                 -10.569
REMARK INTRA:                  -1.200
REMARK UNBOUND:                -1.899
REMARK SMILES CC(=O)CCC=C(C)CCC=C(C)CCC=C(C)C
REMARK SMILES IDX 10 1 11 2 12 3 13 4 14 5 15 6 16 7 18 8 17 9 19 10 9 11 7 12
REMARK SMILES IDX 6 13 8 14 5 15 4 16 2 17 3 18 1 19
REMARK H PARENT
REMARK Flexibility Score: inf
ROOT
ATOM      1  C   UNL     1      -5.249 -14.933  31.675  1.00  0.00     0.032 C 
ENDROOT
BRANCH   1   2
ATOM      2  C   UNL     1      -5.330 -14.373  30.273  1.00  0.00    -0.028 C 
ATOM      3  C   UNL     1      -6.089 -14.924  29.301  1.00  0.00    -0.077 C 
ATOM      4  C   UNL     1      -6.925 -16.155  29.557  1.00  0.00     0.039 C 
BRANCH   3   5
ATOM      5  C   UNL     1      -6.105 -14.291  27.924  1.00  0.00     0.034 C 
BRANCH   5   6
ATOM      6  C   UNL     1      -4.730 -13.727  27.536  1.00  0.00     0.032 C 
BRANCH   6   7
ATOM      7  C   UNL     1      -4.453 -12.409  28.222  1.00  0.00    -0.028 C 
ATOM      8  C   UNL     1      -3.424 -10.205  28.560  1.00  0.00     0.039 C 
ATOM      9  C   UNL     1      -3.640 -11.446  27.735  1.00  0.00    -0.080 C 
ATOM     10  C   UNL     1      -2.966 -11.573  26.388  1.00  0.00     0.039 C 
ENDBRANCH   6   7
ENDBRANCH   5   6
ENDBRANCH   3   5
ENDBRANCH   1   2
BRANCH   1  11
ATOM     11  C   UNL     1      -4.658 -13.921  32.668  1.00  0.00     0.034 C 
BRANCH  11  12
ATOM     12  C   UNL     1      -3.718 -12.941  31.993  1.00  0.00    -0.077 C 
ATOM     13  C   UNL     1      -2.538 -13.389  31.508  1.00  0.00    -0.028 C 
ATOM     14  C   UNL     1      -4.128 -11.490  31.874  1.00  0.00     0.039 C 
BRANCH  13  15
ATOM     15  C   UNL     1      -1.531 -12.531  30.784  1.00  0.00     0.035 C 
BRANCH  15  16
ATOM     16  C   UNL     1      -0.256 -13.327  30.485  1.00  0.00     0.079 C 
BRANCH  16  17
ATOM     17  C   UNL     1      -0.243 -13.792  29.053  1.00  0.00     0.130 C 
ATOM     18  O   UNL     1       0.773 -13.662  28.387  1.00  0.00    -0.300 OA
ATOM     19  C   UNL     1      -1.452 -14.422  28.425  1.00  0.00     0.087 C 
ENDBRANCH  16  17
ENDBRANCH  15  16
ENDBRANCH  13  15
ENDBRANCH  11  12
ENDBRANCH   1  11
TORSDOF 9
ENDMDL
MODEL 4
REMARK VINA RESULT:    -6.373      1.340      4.477
REMARK INTER + INTRA:         -11.625
REMARK INTER:                  -9.816
REMARK INTRA:                  -1.808
REMARK UNBOUND:                -1.899
REMARK SMILES CC(=O)CCC=C(C)CCC=C(C)CCC=C(C)C
REMARK SMILES IDX 10 1 11 2 12 3 13 4 14 5 15 6 16 7 18 8 17 9 19 10 9 11 7 12
REMARK SMILES IDX 6 13 8 14 5 15 4 16 2 17 3 18 1 19
REMARK H PARENT
REMARK Flexibility Score: inf
ROOT
ATOM      1  C   UNL     1      -5.659 -14.257  27.373  1.00  0.00     0.032 C 
ENDROOT
BRANCH   1   2
ATOM      2  C   UNL     1      -5.229 -14.053  28.808  1.00  0.00    -0.028 C 
ATOM      3  C   UNL     1      -5.710 -14.788  29.834  1.00  0.00    -0.077 C 
ATOM      4  C   UNL     1      -6.725 -15.884  29.609  1.00  0.00     0.039 C 
BRANCH   3   5
ATOM      5  C   UNL     1      -5.219 -14.511  31.240  1.00  0.00     0.034 C 
BRANCH   5   6
ATOM      6  C   UNL     1      -3.931 -13.675  31.243  1.00  0.00     0.032 C 
BRANCH   6   7
ATOM      7  C   UNL     1      -4.113 -12.367  31.976  1.00  0.00    -0.028 C 
ATOM      8  C   UNL     1      -4.302  -9.934  32.253  1.00  0.00     0.039 C 
ATOM      9  C   UNL     1      -4.165 -11.155  31.382  1.00  0.00    -0.080 C 
ATOM     10  C   UNL     1      -4.109 -10.996  29.880  1.00  0.00     0.039 C 
ENDBRANCH   6   7
ENDBRANCH   5   6
ENDBRANCH   3   5
ENDBRANCH   1   2
BRANCH   1  11
ATOM     11  C   UNL     1      -4.474 -14.179  26.398  1.00  0.00     0.034 C 
BRANCH  11  12
ATOM     12  C   UNL     1      -3.394 -13.233  26.887  1.00  0.00    -0.077 C 
ATOM     13  C   UNL     1      -2.467 -13.688  27.759  1.00  0.00    -0.028 C 
ATOM     14  C   UNL     1      -3.380 -11.809  26.380  1.00  0.00     0.039 C 
BRANCH  13  15
ATOM     15  C   UNL     1      -1.321 -12.866  28.294  1.00  0.00     0.035 C 
BRANCH  15  16
ATOM     16  C   UNL     1      -0.782 -13.468  29.595  1.00  0.00     0.079 C 
BRANCH  16  17
ATOM     17  C   UNL     1      -0.626 -12.404  30.650  1.00  0.00     0.130 C 
ATOM     18  O   UNL     1      -0.797 -11.231  30.352  1.00  0.00    -0.300 OA
ATOM     19  C   UNL     1      -0.272 -12.754  32.065  1.00  0.00     0.087 C 
ENDBRANCH  16  17
ENDBRANCH  15  16
ENDBRANCH  13  15
ENDBRANCH  11  12
ENDBRANCH   1  11
TORSDOF 9
ENDMDL
MODEL 5
REMARK VINA RESULT:    -6.202      2.467      5.322
REMARK INTER + INTRA:         -11.364
REMARK INTER:                  -9.193
REMARK INTRA:                  -2.171
REMARK UNBOUND:                -1.899
REMARK SMILES CC(=O)CCC=C(C)CCC=C(C)CCC=C(C)C
REMARK SMILES IDX 10 1 11 2 12 3 13 4 14 5 15 6 16 7 18 8 17 9 19 10 9 11 7 12
REMARK SMILES IDX 6 13 8 14 5 15 4 16 2 17 3 18 1 19
REMARK H PARENT
REMARK Flexibility Score: inf
ROOT
ATOM      1  C   UNL     1      -2.232 -11.497  27.725  1.00  0.00     0.032 C 
ENDROOT
BRANCH   1   2
ATOM      2  C   UNL     1      -1.515 -11.870  29.002  1.00  0.00    -0.028 C 
ATOM      3  C   UNL     1      -1.030 -13.108  29.242  1.00  0.00    -0.077 C 
ATOM      4  C   UNL     1      -1.172 -14.219  28.229  1.00  0.00     0.039 C 
BRANCH   3   5
ATOM      5  C   UNL     1      -0.325 -13.388  30.554  1.00  0.00     0.034 C 
BRANCH   5   6
ATOM      6  C   UNL     1      -1.155 -12.924  31.761  1.00  0.00     0.032 C 
BRANCH   6   7
ATOM      7  C   UNL     1      -2.378 -13.786  31.963  1.00  0.00    -0.028 C 
ATOM      8  C   UNL     1      -4.766 -14.308  32.204  1.00  0.00     0.039 C 
ATOM      9  C   UNL     1      -3.651 -13.333  31.936  1.00  0.00    -0.080 C 
ATOM     10  C   UNL     1      -3.981 -11.891  31.625  1.00  0.00     0.039 C 
ENDBRANCH   6   7
ENDBRANCH   5   6
ENDBRANCH   3   5
ENDBRANCH   1   2
BRANCH   1  11
ATOM     11  C   UNL     1      -3.752 -11.401  27.922  1.00  0.00     0.034 C 
BRANCH  11  12
ATOM     12  C   UNL     1      -4.465 -12.670  27.496  1.00  0.00    -0.077 C 
ATOM     13  C   UNL     1      -5.404 -13.202  28.310  1.00  0.00    -0.028 C 
ATOM     14  C   UNL     1      -4.111 -13.303  26.169  1.00  0.00     0.039 C 
BRANCH  13  15
ATOM     15  C   UNL     1      -6.211 -14.436  27.993  1.00  0.00     0.035 C 
BRANCH  15  16
ATOM     16  C   UNL     1      -6.164 -15.430  29.158  1.00  0.00     0.079 C 
BRANCH  16  17
ATOM     17  C   UNL     1      -7.374 -16.327  29.140  1.00  0.00     0.130 C 
ATOM     18  O   UNL     1      -7.263 -17.495  29.480  1.00  0.00    -0.300 OA
ATOM     19  C   UNL     1      -8.720 -15.813  28.721  1.00  0.00     0.087 C 
ENDBRANCH  16  17
ENDBRANCH  15  16
ENDBRANCH  13  15
ENDBRANCH  11  12
ENDBRANCH   1  11
TORSDOF 9
ENDMDL
MODEL 6
REMARK VINA RESULT:    -6.108      1.413      3.186
REMARK INTER + INTRA:         -11.220
REMARK INTER:                  -9.552
REMARK INTRA:                  -1.667
REMARK UNBOUND:                -1.899
REMARK SMILES CC(=O)CCC=C(C)CCC=C(C)CCC=C(C)C
REMARK SMILES IDX 10 1 11 2 12 3 13 4 14 5 15 6 16 7 18 8 17 9 19 10 9 11 7 12
REMARK SMILES IDX 6 13 8 14 5 15 4 16 2 17 3 18 1 19
REMARK H PARENT
REMARK Flexibility Score: inf
ROOT
ATOM      1  C   UNL     1      -1.023 -13.297  28.216  1.00  0.00     0.032 C 
ENDROOT
BRANCH   1   2
ATOM      2  C   UNL     1      -2.286 -14.047  27.861  1.00  0.00    -0.028 C 
ATOM      3  C   UNL     1      -3.252 -13.533  27.070  1.00  0.00    -0.077 C 
ATOM      4  C   UNL     1      -3.129 -12.150  26.473  1.00  0.00     0.039 C 
BRANCH   3   5
ATOM      5  C   UNL     1      -4.486 -14.361  26.769  1.00  0.00     0.034 C 
BRANCH   5   6
ATOM      6  C   UNL     1      -5.678 -13.951  27.646  1.00  0.00     0.032 C 
BRANCH   6   7
ATOM      7  C   UNL     1      -5.384 -14.144  29.116  1.00  0.00    -0.028 C 
ATOM      8  C   UNL     1      -5.634 -15.085  31.371  1.00  0.00     0.039 C 
ATOM      9  C   UNL     1      -6.002 -15.045  29.911  1.00  0.00    -0.080 C 
ATOM     10  C   UNL     1      -7.028 -16.016  29.374  1.00  0.00     0.039 C 
ENDBRANCH   6   7
ENDBRANCH   5   6
ENDBRANCH   3   5
ENDBRANCH   1   2
BRANCH   1  11
ATOM     11  C   UNL     1      -0.386 -13.819  29.512  1.00  0.00     0.034 C 
BRANCH  11  12
ATOM     12  C   UNL     1      -1.011 -13.196  30.746  1.00  0.00    -0.077 C 
ATOM     13  C   UNL     1      -2.353 -13.253  30.904  1.00  0.00    -0.028 C 
ATOM     14  C   UNL     1      -0.117 -12.535  31.771  1.00  0.00     0.039 C 
BRANCH  13  15
ATOM     15  C   UNL     1      -3.097 -12.709  32.097  1.00  0.00     0.035 C 
BRANCH  15  16
ATOM     16  C   UNL     1      -4.146 -11.682  31.659  1.00  0.00     0.079 C 
BRANCH  16  17
ATOM     17  C   UNL     1      -3.508 -10.576  30.861  1.00  0.00     0.130 C 
ATOM     18  O   UNL     1      -2.622  -9.903  31.365  1.00  0.00    -0.300 OA
ATOM     19  C   UNL     1      -3.933 -10.287  29.451  1.00  0.00     0.087 C 
ENDBRANCH  16  17
ENDBRANCH  15  16
ENDBRANCH  13  15
ENDBRANCH  11  12
ENDBRANCH   1  11
TORSDOF 9
ENDMDL
MODEL 7
REMARK VINA RESULT:    -6.076      1.628      4.345
REMARK INTER + INTRA:         -11.172
REMARK INTER:                  -9.836
REMARK INTRA:                  -1.335
REMARK UNBOUND:                -1.899
REMARK SMILES CC(=O)CCC=C(C)CCC=C(C)CCC=C(C)C
REMARK SMILES IDX 10 1 11 2 12 3 13 4 14 5 15 6 16 7 18 8 17 9 19 10 9 11 7 12
REMARK SMILES IDX 6 13 8 14 5 15 4 16 2 17 3 18 1 19
REMARK H PARENT
REMARK Flexibility Score: inf
ROOT
ATOM      1  C   UNL     1      -1.405 -12.657  31.628  1.00  0.00     0.032 C 
ENDROOT
BRANCH   1   2
ATOM      2  C   UNL     1      -2.597 -13.507  32.003  1.00  0.00    -0.028 C 
ATOM      3  C   UNL     1      -3.835 -13.001  32.190  1.00  0.00    -0.077 C 
ATOM      4  C   UNL     1      -4.115 -11.526  32.029  1.00  0.00     0.039 C 
BRANCH   3   5
ATOM      5  C   UNL     1      -4.969 -13.934  32.565  1.00  0.00     0.034 C 
BRANCH   5   6
ATOM      6  C   UNL     1      -5.223 -14.992  31.481  1.00  0.00     0.032 C 
BRANCH   6   7
ATOM      7  C   UNL     1      -5.225 -14.386  30.097  1.00  0.00    -0.028 C 
ATOM      8  C   UNL     1      -5.844 -14.143  27.732  1.00  0.00     0.039 C 
ATOM      9  C   UNL     1      -5.989 -14.819  29.070  1.00  0.00    -0.080 C 
ATOM     10  C   UNL     1      -6.989 -15.940  29.234  1.00  0.00     0.039 C 
ENDBRANCH   6   7
ENDBRANCH   5   6
ENDBRANCH   3   5
ENDBRANCH   1   2
BRANCH   1  11
ATOM     11  C   UNL     1      -0.408 -13.418  30.741  1.00  0.00     0.034 C 
BRANCH  11  12
ATOM     12  C   UNL     1      -0.867 -13.488  29.297  1.00  0.00    -0.077 C 
ATOM     13  C   UNL     1      -1.966 -12.795  28.922  1.00  0.00    -0.028 C 
ATOM     14  C   UNL     1      -0.080 -14.324  28.314  1.00  0.00     0.039 C 
BRANCH  13  15
ATOM     15  C   UNL     1      -2.507 -12.748  27.516  1.00  0.00     0.035 C 
BRANCH  15  16
ATOM     16  C   UNL     1      -2.986 -11.335  27.166  1.00  0.00     0.079 C 
BRANCH  16  17
ATOM     17  C   UNL     1      -3.558 -10.651  28.380  1.00  0.00     0.130 C 
ATOM     18  O   UNL     1      -2.838  -9.942  29.067  1.00  0.00    -0.300 OA
ATOM     19  C   UNL     1      -5.000 -10.815  28.761  1.00  0.00     0.087 C 
ENDBRANCH  16  17
ENDBRANCH  15  16
ENDBRANCH  13  15
ENDBRANCH  11  12
ENDBRANCH   1  11
TORSDOF 9
ENDMDL
MODEL 8
REMARK VINA RESULT:    -6.015      1.073      2.190
REMARK INTER + INTRA:         -11.078
REMARK INTER:                  -9.302
REMARK INTRA:                  -1.776
REMARK UNBOUND:                -1.899
REMARK SMILES CC(=O)CCC=C(C)CCC=C(C)CCC=C(C)C
REMARK SMILES IDX 10 1 11 2 12 3 13 4 14 5 15 6 16 7 18 8 17 9 19 10 9 11 7 12
REMARK SMILES IDX 6 13 8 14 5 15 4 16 2 17 3 18 1 19
REMARK H PARENT
REMARK Flexibility Score: inf
ROOT
ATOM      1  C   UNL     1      -2.618 -11.204  26.811  1.00  0.00     0.032 C 
ENDROOT
BRANCH   1   2
ATOM      2  C   UNL     1      -3.722 -12.199  26.540  1.00  0.00    -0.028 C 
ATOM      3  C   UNL     1      -3.660 -13.493  26.921  1.00  0.00    -0.077 C 
ATOM      4  C   UNL     1      -2.460 -14.039  27.659  1.00  0.00     0.039 C 
BRANCH   3   5
ATOM      5  C   UNL     1      -4.819 -14.417  26.605  1.00  0.00     0.034 C 
BRANCH   5   6
ATOM      6  C   UNL     1      -5.993 -14.216  27.574  1.00  0.00     0.032 C 
BRANCH   6   7
ATOM      7  C   UNL     1      -5.542 -14.262  29.016  1.00  0.00    -0.028 C 
ATOM      8  C   UNL     1      -5.511 -15.007  31.356  1.00  0.00     0.039 C 
ATOM      9  C   UNL     1      -6.026 -15.116  29.945  1.00  0.00    -0.080 C 
ATOM     10  C   UNL     1      -7.045 -16.178  29.603  1.00  0.00     0.039 C 
ENDBRANCH   6   7
ENDBRANCH   5   6
ENDBRANCH   3   5
ENDBRANCH   1   2
BRANCH   1  11
ATOM     11  C   UNL     1      -3.036 -10.140  27.836  1.00  0.00     0.034 C 
BRANCH  11  12
ATOM     12  C   UNL     1      -3.644 -10.756  29.082  1.00  0.00    -0.077 C 
ATOM     13  C   UNL     1      -2.842 -11.418  29.947  1.00  0.00    -0.028 C 
ATOM     14  C   UNL     1      -5.128 -10.608  29.328  1.00  0.00     0.039 C 
BRANCH  13  15
ATOM     15  C   UNL     1      -3.308 -12.044  31.237  1.00  0.00     0.035 C 
BRANCH  15  16
ATOM     16  C   UNL     1      -2.406 -13.218  31.628  1.00  0.00     0.079 C 
BRANCH  16  17
ATOM     17  C   UNL     1      -0.962 -12.897  31.344  1.00  0.00     0.130 C 
ATOM     18  O   UNL     1      -0.365 -12.116  32.069  1.00  0.00    -0.300 OA
ATOM     19  C   UNL     1      -0.235 -13.525  30.191  1.00  0.00     0.087 C 
ENDBRANCH  16  17
ENDBRANCH  15  16
ENDBRANCH  13  15
ENDBRANCH  11  12
ENDBRANCH   1  11
TORSDOF 9
ENDMDL
MODEL 9
REMARK VINA RESULT:    -5.961      1.470      5.342
REMARK INTER + INTRA:         -10.995
REMARK INTER:                 -10.207
REMARK INTRA:                  -0.788
REMARK UNBOUND:                -1.899
REMARK SMILES CC(=O)CCC=C(C)CCC=C(C)CCC=C(C)C
REMARK SMILES IDX 10 1 11 2 12 3 13 4 14 5 15 6 16 7 18 8 17 9 19 10 9 11 7 12
REMARK SMILES IDX 6 13 8 14 5 15 4 16 2 17 3 18 1 19
REMARK H PARENT
REMARK Flexibility Score: inf
ROOT
ATOM      1  C   UNL     1      -6.059 -15.192  29.526  1.00  0.00     0.032 C 
ENDROOT
BRANCH   1   2
ATOM      2  C   UNL     1      -5.207 -14.246  30.340  1.00  0.00    -0.028 C 
ATOM      3  C   UNL     1      -4.997 -14.396  31.666  1.00  0.00    -0.077 C 
ATOM      4  C   UNL     1      -5.608 -15.544  32.434  1.00  0.00     0.039 C 
BRANCH   3   5
ATOM      5  C   UNL     1      -4.126 -13.395  32.398  1.00  0.00     0.034 C 
BRANCH   5   6
ATOM      6  C   UNL     1      -2.632 -13.636  32.136  1.00  0.00     0.032 C 
BRANCH   6   7
ATOM      7  C   UNL     1      -2.299 -13.536  30.665  1.00  0.00    -0.028 C 
ATOM      8  C   UNL     1      -0.945 -13.032  28.679  1.00  0.00     0.039 C 
ATOM      9  C   UNL     1      -1.110 -13.126  30.173  1.00  0.00    -0.080 C 
ATOM     10  C   UNL     1       0.054 -12.781  31.074  1.00  0.00     0.039 C 
ENDBRANCH   6   7
ENDBRANCH   5   6
ENDBRANCH   3   5
ENDBRANCH   1   2
BRANCH   1  11
ATOM     11  C   UNL     1      -6.214 -14.724  28.071  1.00  0.00     0.034 C 
BRANCH  11  12
ATOM     12  C   UNL     1      -5.202 -13.656  27.704  1.00  0.00    -0.077 C 
ATOM     13  C   UNL     1      -5.178 -12.502  28.408  1.00  0.00    -0.028 C 
ATOM     14  C   UNL     1      -4.241 -13.913  26.566  1.00  0.00     0.039 C 
BRANCH  13  15
ATOM     15  C   UNL     1      -4.202 -11.377  28.173  1.00  0.00     0.035 C 
BRANCH  15  16
ATOM     16  C   UNL     1      -4.557 -10.161  29.035  1.00  0.00     0.079 C 
BRANCH  16  17
ATOM     17  C   UNL     1      -3.583 -10.014  30.174  1.00  0.00     0.130 C 
ATOM     18  O   UNL     1      -2.388  -9.919  29.937  1.00  0.00    -0.300 OA
ATOM     19  C   UNL     1      -4.050  -9.972  31.600  1.00  0.00     0.087 C 
ENDBRANCH  16  17
ENDBRANCH  15  16
ENDBRANCH  13  15
ENDBRANCH  11  12
ENDBRANCH   1  11
TORSDOF 9
ENDMDL
