MODEL 1
REMARK VINA RESULT:    -7.114      0.000      0.000
REMARK INTER + INTRA:          -7.778
REMARK INTER:                  -7.737
REMARK INTRA:                  -0.040
REMARK UNBOUND:                -0.040
REMARK SMILES CC1(C)[C@@H]2CC=C(CO)[C@H]1C2
REMARK SMILES IDX 8 1 7 2 1 3 2 4 4 5 3 6 10 7 5 8 11 9 6 10 9 11
REMARK H PARENT 9 12
REMARK Flexibility Score: inf
ROOT
ATOM      1  C   UNL     1      26.341  33.044  13.326  1.00  0.00     0.187 C 
ENDROOT
BRANCH   1   2
ATOM      2  C   UNL     1      25.355  34.142  13.610  1.00  0.00    -0.045 C 
ATOM      3  C   UNL     1      24.659  37.434  11.639  1.00  0.00     0.012 C 
ATOM      4  C   UNL     1      24.912  36.503  12.850  1.00  0.00    -0.026 C 
ATOM      5  C   UNL     1      23.632  36.283  13.702  1.00  0.00    -0.000 C 
ATOM      6  C   UNL     1      26.212  36.974  13.563  1.00  0.00     0.012 C 
ATOM      7  C   UNL     1      24.781  35.002  12.476  1.00  0.00     0.023 C 
ATOM      8  C   UNL     1      23.999  35.643  15.085  1.00  0.00     0.031 C 
ATOM      9  C   UNL     1      23.273  35.103  12.777  1.00  0.00     0.013 C 
ATOM     10  C   UNL     1      24.956  34.451  14.878  1.00  0.00    -0.025 C 
ENDBRANCH   1   2
BRANCH   1  11
ATOM     11  O   UNL     1      25.842  32.198  12.326  1.00  0.00    -0.392 OA
ATOM     12  H   UNL     1      24.902  31.994  12.572  1.00  0.00     0.211 HD
ENDBRANCH   1  11
TORSDOF 2
ENDMDL
MODEL 2
REMARK VINA RESULT:    -6.843      2.721      4.205
REMARK INTER + INTRA:          -7.484
REMARK INTER:                  -7.458
REMARK INTRA:                  -0.026
REMARK UNBOUND:                -0.040
REMARK SMILES CC1(C)[C@@H]2CC=C(CO)[C@H]1C2
REMARK SMILES IDX 8 1 7 2 1 3 2 4 4 5 3 6 10 7 5 8 11 9 6 10 9 11
REMARK H PARENT 9 12
REMARK Flexibility Score: inf
ROOT
ATOM      1  C   UNL     1      22.601  38.728  13.680  1.00  0.00     0.187 C 
ENDROOT
BRANCH   1   2
ATOM      2  C   UNL     1      23.337  37.541  13.124  1.00  0.00    -0.045 C 
ATOM      3  C   UNL     1      24.821  34.443  14.969  1.00  0.00     0.012 C 
ATOM      4  C   UNL     1      24.744  35.639  13.988  1.00  0.00    -0.026 C 
ATOM      5  C   UNL     1      24.604  35.179  12.510  1.00  0.00    -0.000 C 
ATOM      6  C   UNL     1      25.875  36.643  14.353  1.00  0.00     0.012 C 
ATOM      7  C   UNL     1      23.298  36.182  13.834  1.00  0.00     0.023 C 
ATOM      8  C   UNL     1      24.884  36.376  11.537  1.00  0.00     0.031 C 
ATOM      9  C   UNL     1      23.076  35.152  12.710  1.00  0.00     0.013 C 
ATOM     10  C   UNL     1      24.100  37.623  11.995  1.00  0.00    -0.025 C 
ENDBRANCH   1   2
BRANCH   1  11
ATOM     11  O   UNL     1      23.268  39.911  13.334  1.00  0.00    -0.392 OA
ATOM     12  H   UNL     1      24.067  39.643  12.809  1.00  0.00     0.211 HD
ENDBRANCH   1  11
TORSDOF 2
ENDMDL
MODEL 3
REMARK VINA RESULT:    -6.794      2.339      3.787
REMARK INTER + INTRA:          -7.430
REMARK INTER:                  -7.406
REMARK INTRA:                  -0.024
REMARK UNBOUND:                -0.040
REMARK SMILES CC1(C)[C@@H]2CC=C(CO)[C@H]1C2
REMARK SMILES IDX 8 1 7 2 1 3 2 4 4 5 3 6 10 7 5 8 11 9 6 10 9 11
REMARK H PARENT 9 12
REMARK Flexibility Score: inf
ROOT
ATOM      1  C   UNL     1      26.999  37.924  13.675  1.00  0.00     0.187 C 
ENDROOT
BRANCH   1   2
ATOM      2  C   UNL     1      25.802  37.067  13.370  1.00  0.00    -0.045 C 
ATOM      3  C   UNL     1      24.388  33.987  15.298  1.00  0.00     0.012 C 
ATOM      4  C   UNL     1      24.851  34.852  14.100  1.00  0.00    -0.026 C 
ATOM      5  C   UNL     1      23.658  35.350  13.239  1.00  0.00    -0.000 C 
ATOM      6  C   UNL     1      26.026  34.117  13.394  1.00  0.00     0.012 C 
ATOM      7  C   UNL     1      25.042  36.342  14.489  1.00  0.00     0.023 C 
ATOM      8  C   UNL     1      24.171  35.907  11.866  1.00  0.00     0.031 C 
ATOM      9  C   UNL     1      23.552  36.572  14.172  1.00  0.00     0.013 C 
ATOM     10  C   UNL     1      25.360  36.863  12.095  1.00  0.00    -0.025 C 
ENDBRANCH   1   2
BRANCH   1  11
ATOM     11  O   UNL     1      26.764  39.241  13.258  1.00  0.00    -0.392 OA
ATOM     12  H   UNL     1      26.105  39.626  13.891  1.00  0.00     0.211 HD
ENDBRANCH   1  11
TORSDOF 2
ENDMDL
MODEL 4
REMARK VINA RESULT:    -6.037      1.187      2.113
REMARK INTER + INTRA:          -6.607
REMARK INTER:                  -6.538
REMARK INTRA:                  -0.069
REMARK UNBOUND:                -0.040
REMARK SMILES CC1(C)[C@@H]2CC=C(CO)[C@H]1C2
REMARK SMILES IDX 8 1 7 2 1 3 2 4 4 5 3 6 10 7 5 8 11 9 6 10 9 11
REMARK H PARENT 9 12
REMARK Flexibility Score: inf
ROOT
ATOM      1  C   UNL     1      24.723  33.495  11.903  1.00  0.00     0.187 C 
ENDROOT
BRANCH   1   2
ATOM      2  C   UNL     1      24.406  34.907  12.310  1.00  0.00    -0.045 C 
ATOM      3  C   UNL     1      26.732  37.643  13.828  1.00  0.00     0.012 C 
ATOM      4  C   UNL     1      25.476  36.755  13.644  1.00  0.00    -0.026 C 
ATOM      5  C   UNL     1      24.275  37.549  13.060  1.00  0.00    -0.000 C 
ATOM      6  C   UNL     1      25.265  35.934  14.948  1.00  0.00     0.012 C 
ATOM      7  C   UNL     1      25.485  35.997  12.290  1.00  0.00     0.023 C 
ATOM      8  C   UNL     1      22.949  36.728  13.220  1.00  0.00     0.031 C 
ATOM      9  C   UNL     1      24.802  37.221  11.649  1.00  0.00     0.013 C 
ATOM     10  C   UNL     1      23.167  35.276  12.749  1.00  0.00    -0.025 C 
ENDBRANCH   1   2
BRANCH   1  11
ATOM     11  O   UNL     1      25.630  32.927  12.809  1.00  0.00    -0.392 OA
ATOM     12  H   UNL     1      25.770  31.989  12.518  1.00  0.00     0.211 HD
ENDBRANCH   1  11
TORSDOF 2
ENDMDL
MODEL 5
REMARK VINA RESULT:    -5.359     15.204     16.562
REMARK INTER + INTRA:          -5.870
REMARK INTER:                  -5.848
REMARK INTRA:                  -0.022
REMARK UNBOUND:                -0.040
REMARK SMILES CC1(C)[C@@H]2CC=C(CO)[C@H]1C2
REMARK SMILES IDX 8 1 7 2 1 3 2 4 4 5 3 6 10 7 5 8 11 9 6 10 9 11
REMARK H PARENT 9 12
REMARK Flexibility Score: inf
ROOT
ATOM      1  C   UNL     1      12.803  44.667  10.654  1.00  0.00     0.187 C 
ENDROOT
BRANCH   1   2
ATOM      2  C   UNL     1      11.828  44.514  11.787  1.00  0.00    -0.045 C 
ATOM      3  C   UNL     1      12.017  45.877  15.436  1.00  0.00     0.012 C 
ATOM      4  C   UNL     1      11.784  44.872  14.280  1.00  0.00    -0.026 C 
ATOM      5  C   UNL     1      10.277  44.570  14.057  1.00  0.00    -0.000 C 
ATOM      6  C   UNL     1      12.765  43.680  14.467  1.00  0.00     0.012 C 
ATOM      7  C   UNL     1      11.730  45.571  12.895  1.00  0.00     0.023 C 
ATOM      8  C   UNL     1      10.103  43.309  13.143  1.00  0.00     0.031 C 
ATOM      9  C   UNL     1      10.219  45.784  13.110  1.00  0.00     0.013 C 
ATOM     10  C   UNL     1      11.018  43.421  11.908  1.00  0.00    -0.025 C 
ENDBRANCH   1   2
BRANCH   1  11
ATOM     11  O   UNL     1      12.350  43.957   9.533  1.00  0.00    -0.392 OA
ATOM     12  H   UNL     1      11.563  43.430   9.830  1.00  0.00     0.211 HD
ENDBRANCH   1  11
TORSDOF 2
ENDMDL
MODEL 6
REMARK VINA RESULT:    -5.327      7.982      9.340
REMARK INTER + INTRA:          -5.834
REMARK INTER:                  -5.793
REMARK INTRA:                  -0.041
REMARK UNBOUND:                -0.040
REMARK SMILES CC1(C)[C@@H]2CC=C(CO)[C@H]1C2
REMARK SMILES IDX 8 1 7 2 1 3 2 4 4 5 3 6 10 7 5 8 11 9 6 10 9 11
REMARK H PARENT 9 12
REMARK Flexibility Score: inf
ROOT
ATOM      1  C   UNL     1      26.251  43.215  12.967  1.00  0.00     0.187 C 
ENDROOT
BRANCH   1   2
ATOM      2  C   UNL     1      27.638  42.982  13.497  1.00  0.00    -0.045 C 
ATOM      3  C   UNL     1      29.179  43.934  16.951  1.00  0.00     0.012 C 
ATOM      4  C   UNL     1      29.068  43.773  15.414  1.00  0.00    -0.026 C 
ATOM      5  C   UNL     1      29.997  42.653  14.871  1.00  0.00    -0.000 C 
ATOM      6  C   UNL     1      29.147  45.187  14.769  1.00  0.00     0.012 C 
ATOM      7  C   UNL     1      27.897  42.841  15.003  1.00  0.00     0.023 C 
ATOM      8  C   UNL     1      30.125  42.757  13.313  1.00  0.00     0.031 C 
ATOM      9  C   UNL     1      28.860  41.645  15.131  1.00  0.00     0.013 C 
ATOM     10  C   UNL     1      28.729  42.923  12.678  1.00  0.00    -0.025 C 
ENDBRANCH   1   2
BRANCH   1  11
ATOM     11  O   UNL     1      25.338  42.388  13.635  1.00  0.00    -0.392 OA
ATOM     12  H   UNL     1      24.942  41.791  12.947  1.00  0.00     0.211 HD
ENDBRANCH   1  11
TORSDOF 2
ENDMDL
MODEL 7
REMARK VINA RESULT:    -5.262     14.535     15.779
REMARK INTER + INTRA:          -5.764
REMARK INTER:                  -5.742
REMARK INTRA:                  -0.022
REMARK UNBOUND:                -0.040
REMARK SMILES CC1(C)[C@@H]2CC=C(CO)[C@H]1C2
REMARK SMILES IDX 8 1 7 2 1 3 2 4 4 5 3 6 10 7 5 8 11 9 6 10 9 11
REMARK H PARENT 9 12
REMARK Flexibility Score: inf
ROOT
ATOM      1  C   UNL     1      13.681  43.132  16.381  1.00  0.00     0.187 C 
ENDROOT
BRANCH   1   2
ATOM      2  C   UNL     1      12.498  43.511  15.534  1.00  0.00    -0.045 C 
ATOM      3  C   UNL     1      12.379  44.765  11.843  1.00  0.00     0.012 C 
ATOM      4  C   UNL     1      12.060  44.702  13.358  1.00  0.00    -0.026 C 
ATOM      5  C   UNL     1      10.625  44.177  13.635  1.00  0.00    -0.000 C 
ATOM      6  C   UNL     1      12.503  46.045  14.006  1.00  0.00     0.012 C 
ATOM      7  C   UNL     1      12.544  43.377  14.006  1.00  0.00     0.023 C 
ATOM      8  C   UNL     1      10.218  44.459  15.122  1.00  0.00     0.031 C 
ATOM      9  C   UNL     1      11.193  42.745  13.621  1.00  0.00     0.013 C 
ATOM     10  C   UNL     1      11.353  44.025  16.072  1.00  0.00    -0.025 C 
ENDBRANCH   1   2
BRANCH   1  11
ATOM     11  O   UNL     1      13.252  42.760  17.663  1.00  0.00    -0.392 OA
ATOM     12  H   UNL     1      12.878  41.844  17.581  1.00  0.00     0.211 HD
ENDBRANCH   1  11
TORSDOF 2
ENDMDL
MODEL 8
REMARK VINA RESULT:    -5.232     14.272     15.483
REMARK INTER + INTRA:          -5.732
REMARK INTER:                  -5.708
REMARK INTRA:                  -0.023
REMARK UNBOUND:                -0.040
REMARK SMILES CC1(C)[C@@H]2CC=C(CO)[C@H]1C2
REMARK SMILES IDX 8 1 7 2 1 3 2 4 4 5 3 6 10 7 5 8 11 9 6 10 9 11
REMARK H PARENT 9 12
REMARK Flexibility Score: inf
ROOT
ATOM      1  C   UNL     1      12.504  40.466  14.429  1.00  0.00     0.187 C 
ENDROOT
BRANCH   1   2
ATOM      2  C   UNL     1      11.689  41.710  14.644  1.00  0.00    -0.045 C 
ATOM      3  C   UNL     1      12.373  45.368  13.479  1.00  0.00     0.012 C 
ATOM      4  C   UNL     1      11.982  44.201  14.420  1.00  0.00    -0.026 C 
ATOM      5  C   UNL     1      10.456  44.166  14.711  1.00  0.00    -0.000 C 
ATOM      6  C   UNL     1      12.971  44.191  15.620  1.00  0.00     0.012 C 
ATOM      7  C   UNL     1      11.747  42.876  13.648  1.00  0.00     0.023 C 
ATOM      8  C   UNL     1      10.153  43.218  15.921  1.00  0.00     0.031 C 
ATOM      9  C   UNL     1      10.280  43.302  13.447  1.00  0.00     0.013 C 
ATOM     10  C   UNL     1      10.896  41.878  15.742  1.00  0.00    -0.025 C 
ENDBRANCH   1   2
BRANCH   1  11
ATOM     11  O   UNL     1      11.667  39.342  14.401  1.00  0.00    -0.392 OA
ATOM     12  H   UNL     1      10.798  39.646  14.029  1.00  0.00     0.211 HD
ENDBRANCH   1  11
TORSDOF 2
ENDMDL
MODEL 9
REMARK VINA RESULT:    -5.195      1.482      2.754
REMARK INTER + INTRA:          -5.690
REMARK INTER:                  -5.668
REMARK INTRA:                  -0.022
REMARK UNBOUND:                -0.040
REMARK SMILES CC1(C)[C@@H]2CC=C(CO)[C@H]1C2
REMARK SMILES IDX 8 1 7 2 1 3 2 4 4 5 3 6 10 7 5 8 11 9 6 10 9 11
REMARK H PARENT 9 12
REMARK Flexibility Score: inf
ROOT
ATOM      1  C   UNL     1      24.540  34.348  15.458  1.00  0.00     0.187 C 
ENDROOT
BRANCH   1   2
ATOM      2  C   UNL     1      24.626  35.148  14.188  1.00  0.00    -0.045 C 
ATOM      3  C   UNL     1      23.011  38.582  13.293  1.00  0.00     0.012 C 
ATOM      4  C   UNL     1      23.452  37.107  13.126  1.00  0.00    -0.026 C 
ATOM      5  C   UNL     1      24.620  36.953  12.114  1.00  0.00    -0.000 C 
ATOM      6  C   UNL     1      22.178  36.236  12.933  1.00  0.00     0.012 C 
ATOM      7  C   UNL     1      24.482  36.675  14.204  1.00  0.00     0.023 C 
ATOM      8  C   UNL     1      24.797  35.449  11.709  1.00  0.00     0.031 C 
ATOM      9  C   UNL     1      25.602  37.190  13.279  1.00  0.00     0.013 C 
ATOM     10  C   UNL     1      24.796  34.559  12.968  1.00  0.00    -0.025 C 
ENDBRANCH   1   2
BRANCH   1  11
ATOM     11  O   UNL     1      24.888  33.013  15.209  1.00  0.00    -0.392 OA
ATOM     12  H   UNL     1      25.868  32.945  15.353  1.00  0.00     0.211 HD
ENDBRANCH   1  11
TORSDOF 2
ENDMDL
