MODEL 1
REMARK VINA RESULT:    -2.545      0.000      0.000
REMARK INTER + INTRA:          -5.685
REMARK INTER:                  -4.628
REMARK INTRA:                  -1.057
REMARK UNBOUND:                -1.057
REMARK SMILES CCCCCCCCCCCCCCCC(=O)[O-]
REMARK SMILES IDX 9 1 10 2 11 3 12 4 13 5 14 6 15 7 16 8 17 9 18 10 8 11 7 12
REMARK SMILES IDX 6 13 5 14 4 15 3 16 2 17 1 18
REMARK H PARENT
REMARK Flexibility Score: inf
ROOT
ATOM      1  C   UNL     1       0.636 -15.868 -18.375  1.00  0.00     0.000 C 
ENDROOT
BRANCH   1   2
ATOM      2  C   UNL     1       1.584 -14.732 -17.935  1.00  0.00     0.000 C 
BRANCH   2   3
ATOM      3  C   UNL     1       1.614 -13.577 -18.947  1.00  0.00     0.000 C 
BRANCH   3   4
ATOM      4  C   UNL     1       2.889 -12.740 -18.790  1.00  0.00     0.000 C 
BRANCH   4   5
ATOM      5  C   UNL     1       2.562 -11.240 -18.737  1.00  0.00     0.000 C 
BRANCH   5   6
ATOM      6  C   UNL     1       3.814 -10.347 -18.796  1.00  0.00     0.006 C 
BRANCH   6   7
ATOM      7  C   UNL     1       4.745 -10.652 -19.983  1.00  0.00     0.053 C 
BRANCH   7   8
ATOM      8  C   UNL     1       6.118 -11.067 -19.551  1.00  0.00     0.041 C 
ATOM      9  O   UNL     1       7.124 -10.750 -20.238  1.00  0.00    -0.550 OA
ATOM     10  O   UNL     1       6.290 -11.777 -18.369  1.00  0.00    -0.550 OA
ENDBRANCH   7   8
ENDBRANCH   6   7
ENDBRANCH   5   6
ENDBRANCH   4   5
ENDBRANCH   3   4
ENDBRANCH   2   3
ENDBRANCH   1   2
BRANCH   1  11
ATOM     11  C   UNL     1      -0.849 -15.469 -18.372  1.00  0.00     0.000 C 
BRANCH  11  12
ATOM     12  C   UNL     1      -1.630 -16.066 -19.555  1.00  0.00    -0.000 C 
BRANCH  12  13
ATOM     13  C   UNL     1      -1.297 -17.547 -19.795  1.00  0.00    -0.000 C 
BRANCH  13  14
ATOM     14  C   UNL     1      -1.849 -18.464 -18.693  1.00  0.00    -0.000 C 
BRANCH  14  15
ATOM     15  C   UNL     1      -1.018 -19.752 -18.581  1.00  0.00    -0.000 C 
BRANCH  15  16
ATOM     16  C   UNL     1       0.499 -19.476 -18.638  1.00  0.00    -0.000 C 
BRANCH  16  17
ATOM     17  C   UNL     1       1.175 -19.469 -17.256  1.00  0.00    -0.003 C 
ATOM     18  C   UNL     1       0.324 -20.125 -16.171  1.00  0.00     0.004 C 
ENDBRANCH  16  17
ENDBRANCH  15  16
ENDBRANCH  14  15
ENDBRANCH  13  14
ENDBRANCH  12  13
ENDBRANCH  11  12
ENDBRANCH   1  11
TORSDOF 14
ENDMDL
MODEL 2
REMARK VINA RESULT:    -1.945      3.361      8.242
REMARK INTER + INTRA:          -4.594
REMARK INTER:                  -3.565
REMARK INTRA:                  -1.028
REMARK UNBOUND:                -1.057
REMARK SMILES CCCCCCCCCCCCCCCC(=O)[O-]
REMARK SMILES IDX 9 1 10 2 11 3 12 4 13 5 14 6 15 7 16 8 17 9 18 10 8 11 7 12
REMARK SMILES IDX 6 13 5 14 4 15 3 16 2 17 1 18
REMARK H PARENT
REMARK Flexibility Score: inf
ROOT
ATOM      1  C   UNL     1      -0.793 -15.697 -18.364  1.00  0.00     0.000 C 
ENDROOT
BRANCH   1   2
ATOM      2  C   UNL     1      -1.489 -15.306 -19.686  1.00  0.00     0.000 C 
BRANCH   2   3
ATOM      3  C   UNL     1      -2.125 -16.516 -20.386  1.00  0.00     0.000 C 
BRANCH   3   4
ATOM      4  C   UNL     1      -2.107 -17.751 -19.477  1.00  0.00     0.000 C 
BRANCH   4   5
ATOM      5  C   UNL     1      -1.561 -18.978 -20.223  1.00  0.00     0.000 C 
BRANCH   5   6
ATOM      6  C   UNL     1      -0.310 -19.580 -19.560  1.00  0.00     0.006 C 
BRANCH   6   7
ATOM      7  C   UNL     1      -0.549 -20.101 -18.131  1.00  0.00     0.053 C 
BRANCH   7   8
ATOM      8  C   UNL     1       0.556 -19.733 -17.189  1.00  0.00     0.041 C 
ATOM      9  O   UNL     1       1.579 -19.132 -17.611  1.00  0.00    -0.550 OA
ATOM     10  O   UNL     1       0.442 -20.025 -15.835  1.00  0.00    -0.550 OA
ENDBRANCH   7   8
ENDBRANCH   6   7
ENDBRANCH   5   6
ENDBRANCH   4   5
ENDBRANCH   3   4
ENDBRANCH   2   3
ENDBRANCH   1   2
BRANCH   1  11
ATOM     11  C   UNL     1       0.733 -15.846 -18.491  1.00  0.00     0.000 C 
BRANCH  11  12
ATOM     12  C   UNL     1       1.504 -14.710 -17.797  1.00  0.00    -0.000 C 
BRANCH  12  13
ATOM     13  C   UNL     1       2.048 -13.673 -18.793  1.00  0.00    -0.000 C 
BRANCH  13  14
ATOM     14  C   UNL     1       2.954 -12.628 -18.123  1.00  0.00    -0.000 C 
BRANCH  14  15
ATOM     15  C   UNL     1       3.763 -11.849 -19.172  1.00  0.00    -0.000 C 
BRANCH  15  16
ATOM     16  C   UNL     1       3.459 -10.336 -19.140  1.00  0.00    -0.000 C 
BRANCH  16  17
ATOM     17  C   UNL     1       2.364  -9.950 -18.131  1.00  0.00    -0.003 C 
ATOM     18  C   UNL     1       2.888  -9.099 -16.977  1.00  0.00     0.004 C 
ENDBRANCH  16  17
ENDBRANCH  15  16
ENDBRANCH  14  15
ENDBRANCH  13  14
ENDBRANCH  12  13
ENDBRANCH  11  12
ENDBRANCH   1  11
TORSDOF 14
ENDMDL
MODEL 3
REMARK VINA RESULT:    -1.813      1.971      2.330
REMARK INTER + INTRA:          -4.354
REMARK INTER:                  -3.568
REMARK INTRA:                  -0.785
REMARK UNBOUND:                -1.057
REMARK SMILES CCCCCCCCCCCCCCCC(=O)[O-]
REMARK SMILES IDX 9 1 10 2 11 3 12 4 13 5 14 6 15 7 16 8 17 9 18 10 8 11 7 12
REMARK SMILES IDX 6 13 5 14 4 15 3 16 2 17 1 18
REMARK H PARENT
REMARK Flexibility Score: inf
ROOT
ATOM      1  C   UNL     1       0.310 -15.882 -18.323  1.00  0.00     0.000 C 
ENDROOT
BRANCH   1   2
ATOM      2  C   UNL     1       0.963 -14.568 -17.842  1.00  0.00     0.000 C 
BRANCH   2   3
ATOM      3  C   UNL     1       2.157 -14.159 -18.718  1.00  0.00     0.000 C 
BRANCH   3   4
ATOM      4  C   UNL     1       2.410 -12.649 -18.632  1.00  0.00     0.000 C 
BRANCH   4   5
ATOM      5  C   UNL     1       3.850 -12.307 -19.043  1.00  0.00     0.000 C 
BRANCH   5   6
ATOM      6  C   UNL     1       4.330 -10.953 -18.491  1.00  0.00     0.006 C 
BRANCH   6   7
ATOM      7  C   UNL     1       3.404  -9.773 -18.837  1.00  0.00     0.053 C 
BRANCH   7   8
ATOM      8  C   UNL     1       2.554  -9.346 -17.681  1.00  0.00     0.041 C 
ATOM      9  O   UNL     1       1.299  -9.334 -17.784  1.00  0.00    -0.550 OA
ATOM     10  O   UNL     1       3.146  -8.990 -16.475  1.00  0.00    -0.550 OA
ENDBRANCH   7   8
ENDBRANCH   6   7
ENDBRANCH   5   6
ENDBRANCH   4   5
ENDBRANCH   3   4
ENDBRANCH   2   3
ENDBRANCH   1   2
BRANCH   1  11
ATOM     11  C   UNL     1      -1.195 -15.755 -18.608  1.00  0.00     0.000 C 
BRANCH  11  12
ATOM     12  C   UNL     1      -1.916 -17.114 -18.627  1.00  0.00    -0.000 C 
BRANCH  12  13
ATOM     13  C   UNL     1      -2.069 -17.680 -20.048  1.00  0.00    -0.000 C 
BRANCH  13  14
ATOM     14  C   UNL     1      -1.986 -19.214 -20.086  1.00  0.00    -0.000 C 
BRANCH  14  15
ATOM     15  C   UNL     1      -1.178 -19.750 -18.894  1.00  0.00    -0.000 C 
BRANCH  15  16
ATOM     16  C   UNL     1       0.342 -19.559 -19.084  1.00  0.00    -0.000 C 
BRANCH  16  17
ATOM     17  C   UNL     1       1.094 -19.272 -17.773  1.00  0.00    -0.003 C 
ATOM     18  C   UNL     1       0.441 -19.920 -16.555  1.00  0.00     0.004 C 
ENDBRANCH  16  17
ENDBRANCH  15  16
ENDBRANCH  14  15
ENDBRANCH  13  14
ENDBRANCH  12  13
ENDBRANCH  11  12
ENDBRANCH   1  11
TORSDOF 14
ENDMDL
MODEL 4
REMARK VINA RESULT:    -1.777      3.526      8.966
REMARK INTER + INTRA:          -4.287
REMARK INTER:                  -3.813
REMARK INTRA:                  -0.474
REMARK UNBOUND:                -1.057
REMARK SMILES CCCCCCCCCCCCCCCC(=O)[O-]
REMARK SMILES IDX 9 1 10 2 11 3 12 4 13 5 14 6 15 7 16 8 17 9 18 10 8 11 7 12
REMARK SMILES IDX 6 13 5 14 4 15 3 16 2 17 1 18
REMARK H PARENT
REMARK Flexibility Score: inf
ROOT
ATOM      1  C   UNL     1       1.844 -14.549 -18.043  1.00  0.00     0.000 C 
ENDROOT
BRANCH   1   2
ATOM      2  C   UNL     1       0.447 -15.203 -17.964  1.00  0.00     0.000 C 
BRANCH   2   3
ATOM      3  C   UNL     1       0.411 -16.579 -18.647  1.00  0.00     0.000 C 
BRANCH   3   4
ATOM      4  C   UNL     1      -0.971 -16.859 -19.247  1.00  0.00     0.000 C 
BRANCH   4   5
ATOM      5  C   UNL     1      -1.222 -18.370 -19.372  1.00  0.00     0.000 C 
BRANCH   5   6
ATOM      6  C   UNL     1      -0.087 -19.221 -18.776  1.00  0.00     0.006 C 
BRANCH   6   7
ATOM      7  C   UNL     1      -0.527 -20.119 -17.606  1.00  0.00     0.053 C 
BRANCH   7   8
ATOM      8  C   UNL     1       0.314 -19.929 -16.381  1.00  0.00     0.041 C 
ATOM      9  O   UNL     1      -0.217 -19.928 -15.239  1.00  0.00    -0.550 OA
ATOM     10  O   UNL     1       1.691 -19.786 -16.498  1.00  0.00    -0.550 OA
ENDBRANCH   7   8
ENDBRANCH   6   7
ENDBRANCH   5   6
ENDBRANCH   4   5
ENDBRANCH   3   4
ENDBRANCH   2   3
ENDBRANCH   1   2
BRANCH   1  11
ATOM     11  C   UNL     1       1.923 -13.381 -19.039  1.00  0.00     0.000 C 
BRANCH  11  12
ATOM     12  C   UNL     1       3.063 -12.399 -18.719  1.00  0.00    -0.000 C 
BRANCH  12  13
ATOM     13  C   UNL     1       2.594 -10.935 -18.702  1.00  0.00    -0.000 C 
BRANCH  13  14
ATOM     14  C   UNL     1       3.744  -9.942 -18.934  1.00  0.00    -0.000 C 
BRANCH  14  15
ATOM     15  C   UNL     1       4.540 -10.309 -20.196  1.00  0.00    -0.000 C 
BRANCH  15  16
ATOM     16  C   UNL     1       5.886 -10.987 -19.862  1.00  0.00    -0.000 C 
BRANCH  16  17
ATOM     17  C   UNL     1       6.983 -10.723 -20.907  1.00  0.00    -0.003 C 
ATOM     18  C   UNL     1       8.212 -10.031 -20.322  1.00  0.00     0.004 C 
ENDBRANCH  16  17
ENDBRANCH  15  16
ENDBRANCH  14  15
ENDBRANCH  13  14
ENDBRANCH  12  13
ENDBRANCH  11  12
ENDBRANCH   1  11
TORSDOF 14
ENDMDL
MODEL 5
REMARK VINA RESULT:    -1.632      3.965      8.928
REMARK INTER + INTRA:          -4.024
REMARK INTER:                  -3.324
REMARK INTRA:                  -0.701
REMARK UNBOUND:                -1.057
REMARK SMILES CCCCCCCCCCCCCCCC(=O)[O-]
REMARK SMILES IDX 9 1 10 2 11 3 12 4 13 5 14 6 15 7 16 8 17 9 18 10 8 11 7 12
REMARK SMILES IDX 6 13 5 14 4 15 3 16 2 17 1 18
REMARK H PARENT
REMARK Flexibility Score: inf
ROOT
ATOM      1  C   UNL     1       2.364 -14.041 -18.622  1.00  0.00     0.000 C 
ENDROOT
BRANCH   1   2
ATOM      2  C   UNL     1       1.164 -14.518 -17.776  1.00  0.00     0.000 C 
BRANCH   2   3
ATOM      3  C   UNL     1       0.552 -15.818 -18.319  1.00  0.00     0.000 C 
BRANCH   3   4
ATOM      4  C   UNL     1      -0.932 -15.628 -18.657  1.00  0.00     0.000 C 
BRANCH   4   5
ATOM      5  C   UNL     1      -1.676 -16.972 -18.647  1.00  0.00     0.000 C 
BRANCH   5   6
ATOM      6  C   UNL     1      -1.185 -17.942 -19.736  1.00  0.00     0.006 C 
BRANCH   6   7
ATOM      7  C   UNL     1      -1.016 -19.393 -19.251  1.00  0.00     0.053 C 
BRANCH   7   8
ATOM      8  C   UNL     1      -0.221 -19.492 -17.985  1.00  0.00     0.041 C 
ATOM      9  O   UNL     1      -0.765 -19.893 -16.922  1.00  0.00    -0.550 OA
ATOM     10  O   UNL     1       1.130 -19.172 -17.985  1.00  0.00    -0.550 OA
ENDBRANCH   7   8
ENDBRANCH   6   7
ENDBRANCH   5   6
ENDBRANCH   4   5
ENDBRANCH   3   4
ENDBRANCH   2   3
ENDBRANCH   1   2
BRANCH   1  11
ATOM     11  C   UNL     1       2.319 -12.543 -18.969  1.00  0.00     0.000 C 
BRANCH  11  12
ATOM     12  C   UNL     1       3.671 -11.841 -18.762  1.00  0.00    -0.000 C 
BRANCH  12  13
ATOM     13  C   UNL     1       3.545 -10.308 -18.759  1.00  0.00    -0.000 C 
BRANCH  13  14
ATOM     14  C   UNL     1       2.318  -9.816 -17.978  1.00  0.00    -0.000 C 
BRANCH  14  15
ATOM     15  C   UNL     1       2.682  -8.629 -17.072  1.00  0.00    -0.000 C 
BRANCH  15  16
ATOM     16  C   UNL     1       3.267  -9.084 -15.718  1.00  0.00    -0.000 C 
BRANCH  16  17
ATOM     17  C   UNL     1       3.426  -7.941 -14.702  1.00  0.00    -0.003 C 
ATOM     18  C   UNL     1       3.989  -8.408 -13.361  1.00  0.00     0.004 C 
ENDBRANCH  16  17
ENDBRANCH  15  16
ENDBRANCH  14  15
ENDBRANCH  13  14
ENDBRANCH  12  13
ENDBRANCH  11  12
ENDBRANCH   1  11
TORSDOF 14
ENDMDL
MODEL 6
REMARK VINA RESULT:    -1.620      3.188      4.294
REMARK INTER + INTRA:          -4.003
REMARK INTER:                  -3.296
REMARK INTRA:                  -0.707
REMARK UNBOUND:                -1.057
REMARK SMILES CCCCCCCCCCCCCCCC(=O)[O-]
REMARK SMILES IDX 9 1 10 2 11 3 12 4 13 5 14 6 15 7 16 8 17 9 18 10 8 11 7 12
REMARK SMILES IDX 6 13 5 14 4 15 3 16 2 17 1 18
REMARK H PARENT
REMARK Flexibility Score: inf
ROOT
ATOM      1  C   UNL     1       2.454 -12.633 -19.058  1.00  0.00     0.000 C 
ENDROOT
BRANCH   1   2
ATOM      2  C   UNL     1       3.803 -11.901 -18.887  1.00  0.00     0.000 C 
BRANCH   2   3
ATOM      3  C   UNL     1       3.629 -10.377 -18.803  1.00  0.00     0.000 C 
BRANCH   3   4
ATOM      4  C   UNL     1       2.366 -10.010 -18.014  1.00  0.00     0.000 C 
BRANCH   4   5
ATOM      5  C   UNL     1       2.583  -8.731 -17.191  1.00  0.00     0.000 C 
BRANCH   5   6
ATOM      6  C   UNL     1       3.087  -9.010 -15.764  1.00  0.00     0.006 C 
BRANCH   6   7
ATOM      7  C   UNL     1       3.412  -7.742 -14.956  1.00  0.00     0.053 C 
BRANCH   7   8
ATOM      8  C   UNL     1       3.741  -8.036 -13.524  1.00  0.00     0.041 C 
ATOM      9  O   UNL     1       3.626  -9.205 -13.072  1.00  0.00    -0.550 OA
ATOM     10  O   UNL     1       4.207  -7.023 -12.695  1.00  0.00    -0.550 OA
ENDBRANCH   7   8
ENDBRANCH   6   7
ENDBRANCH   5   6
ENDBRANCH   4   5
ENDBRANCH   3   4
ENDBRANCH   2   3
ENDBRANCH   1   2
BRANCH   1  11
ATOM     11  C   UNL     1       2.449 -14.060 -18.485  1.00  0.00     0.000 C 
BRANCH  11  12
ATOM     12  C   UNL     1       1.067 -14.492 -17.967  1.00  0.00    -0.000 C 
BRANCH  12  13
ATOM     13  C   UNL     1       0.739 -15.954 -18.309  1.00  0.00    -0.000 C 
BRANCH  13  14
ATOM     14  C   UNL     1      -0.743 -16.164 -18.653  1.00  0.00    -0.000 C 
BRANCH  14  15
ATOM     15  C   UNL     1      -1.062 -17.657 -18.826  1.00  0.00    -0.000 C 
BRANCH  15  16
ATOM     16  C   UNL     1       0.210 -18.507 -19.031  1.00  0.00    -0.000 C 
BRANCH  16  17
ATOM     17  C   UNL     1       0.181 -19.849 -18.280  1.00  0.00    -0.003 C 
ATOM     18  C   UNL     1       0.741 -19.752 -16.863  1.00  0.00     0.004 C 
ENDBRANCH  16  17
ENDBRANCH  15  16
ENDBRANCH  14  15
ENDBRANCH  13  14
ENDBRANCH  12  13
ENDBRANCH  11  12
ENDBRANCH   1  11
TORSDOF 14
ENDMDL
MODEL 7
REMARK VINA RESULT:    -1.472      2.916      3.850
REMARK INTER + INTRA:          -3.733
REMARK INTER:                  -2.947
REMARK INTRA:                  -0.786
REMARK UNBOUND:                -1.057
REMARK SMILES CCCCCCCCCCCCCCCC(=O)[O-]
REMARK SMILES IDX 9 1 10 2 11 3 12 4 13 5 14 6 15 7 16 8 17 9 18 10 8 11 7 12
REMARK SMILES IDX 6 13 5 14 4 15 3 16 2 17 1 18
REMARK H PARENT
REMARK Flexibility Score: inf
ROOT
ATOM      1  C   UNL     1       2.397 -13.679 -18.805  1.00  0.00     0.000 C 
ENDROOT
BRANCH   1   2
ATOM      2  C   UNL     1       2.273 -12.140 -18.815  1.00  0.00     0.000 C 
BRANCH   2   3
ATOM      3  C   UNL     1       3.645 -11.449 -18.800  1.00  0.00     0.000 C 
BRANCH   3   4
ATOM      4  C   UNL     1       3.492  -9.923 -18.792  1.00  0.00     0.000 C 
BRANCH   4   5
ATOM      5  C   UNL     1       2.637  -9.460 -17.602  1.00  0.00     0.000 C 
BRANCH   5   6
ATOM      6  C   UNL     1       3.457  -9.245 -16.318  1.00  0.00     0.006 C 
BRANCH   6   7
ATOM      7  C   UNL     1       3.054  -7.991 -15.522  1.00  0.00     0.053 C 
BRANCH   7   8
ATOM      8  C   UNL     1       3.522  -8.033 -14.099  1.00  0.00     0.041 C 
ATOM      9  O   UNL     1       3.862  -6.974 -13.510  1.00  0.00    -0.550 OA
ATOM     10  O   UNL     1       3.554  -9.241 -13.413  1.00  0.00    -0.550 OA
ENDBRANCH   7   8
ENDBRANCH   6   7
ENDBRANCH   5   6
ENDBRANCH   4   5
ENDBRANCH   3   4
ENDBRANCH   2   3
ENDBRANCH   1   2
BRANCH   1  11
ATOM     11  C   UNL     1       1.407 -14.372 -17.853  1.00  0.00     0.000 C 
BRANCH  11  12
ATOM     12  C   UNL     1       0.830 -15.673 -18.434  1.00  0.00    -0.000 C 
BRANCH  12  13
ATOM     13  C   UNL     1      -0.708 -15.685 -18.441  1.00  0.00    -0.000 C 
BRANCH  13  14
ATOM     14  C   UNL     1      -1.288 -16.580 -19.548  1.00  0.00    -0.000 C 
BRANCH  14  15
ATOM     15  C   UNL     1      -0.716 -18.003 -19.460  1.00  0.00    -0.000 C 
BRANCH  15  16
ATOM     16  C   UNL     1      -1.258 -18.778 -18.240  1.00  0.00    -0.000 C 
BRANCH  16  17
ATOM     17  C   UNL     1      -0.252 -19.782 -17.652  1.00  0.00    -0.003 C 
ATOM     18  C   UNL     1       1.163 -19.218 -17.548  1.00  0.00     0.004 C 
ENDBRANCH  16  17
ENDBRANCH  15  16
ENDBRANCH  14  15
ENDBRANCH  13  14
ENDBRANCH  12  13
ENDBRANCH  11  12
ENDBRANCH   1  11
TORSDOF 14
ENDMDL
MODEL 8
REMARK VINA RESULT:    -1.217      4.249      9.225
REMARK INTER + INTRA:          -3.270
REMARK INTER:                  -2.677
REMARK INTRA:                  -0.593
REMARK UNBOUND:                -1.057
REMARK SMILES CCCCCCCCCCCCCCCC(=O)[O-]
REMARK SMILES IDX 9 1 10 2 11 3 12 4 13 5 14 6 15 7 16 8 17 9 18 10 8 11 7 12
REMARK SMILES IDX 6 13 5 14 4 15 3 16 2 17 1 18
REMARK H PARENT
REMARK Flexibility Score: inf
ROOT
ATOM      1  C   UNL     1       2.251 -12.429 -18.755  1.00  0.00     0.000 C 
ENDROOT
BRANCH   1   2
ATOM      2  C   UNL     1       2.267 -13.971 -18.680  1.00  0.00     0.000 C 
BRANCH   2   3
ATOM      3  C   UNL     1       1.024 -14.530 -17.971  1.00  0.00     0.000 C 
BRANCH   3   4
ATOM      4  C   UNL     1       0.758 -15.980 -18.390  1.00  0.00     0.000 C 
BRANCH   4   5
ATOM      5  C   UNL     1      -0.741 -16.218 -18.631  1.00  0.00     0.000 C 
BRANCH   5   6
ATOM      6  C   UNL     1      -1.018 -17.355 -19.630  1.00  0.00     0.006 C 
BRANCH   6   7
ATOM      7  C   UNL     1      -1.278 -18.720 -18.968  1.00  0.00     0.053 C 
BRANCH   7   8
ATOM      8  C   UNL     1      -0.073 -19.610 -18.982  1.00  0.00     0.041 C 
ATOM      9  O   UNL     1       0.502 -19.919 -17.905  1.00  0.00    -0.550 OA
ATOM     10  O   UNL     1       0.397 -20.125 -20.183  1.00  0.00    -0.550 OA
ENDBRANCH   7   8
ENDBRANCH   6   7
ENDBRANCH   5   6
ENDBRANCH   4   5
ENDBRANCH   3   4
ENDBRANCH   2   3
ENDBRANCH   1   2
BRANCH   1  11
ATOM     11  C   UNL     1       3.610 -11.815 -19.133  1.00  0.00     0.000 C 
BRANCH  11  12
ATOM     12  C   UNL     1       4.039 -10.683 -18.184  1.00  0.00    -0.000 C 
BRANCH  12  13
ATOM     13  C   UNL     1       3.084  -9.479 -18.232  1.00  0.00    -0.000 C 
BRANCH  13  14
ATOM     14  C   UNL     1       2.361  -9.244 -16.897  1.00  0.00    -0.000 C 
BRANCH  14  15
ATOM     15  C   UNL     1       3.106  -8.207 -16.042  1.00  0.00    -0.000 C 
BRANCH  15  16
ATOM     16  C   UNL     1       3.788  -8.844 -14.813  1.00  0.00    -0.000 C 
BRANCH  16  17
ATOM     17  C   UNL     1       3.802  -7.930 -13.576  1.00  0.00    -0.003 C 
ATOM     18  C   UNL     1       3.072  -6.607 -13.801  1.00  0.00     0.004 C 
ENDBRANCH  16  17
ENDBRANCH  15  16
ENDBRANCH  14  15
ENDBRANCH  13  14
ENDBRANCH  12  13
ENDBRANCH  11  12
ENDBRANCH   1  11
TORSDOF 14
ENDMDL
MODEL 9
REMARK VINA RESULT:    -0.184      3.322      8.487
REMARK INTER + INTRA:          -1.391
REMARK INTER:                  -0.470
REMARK INTRA:                  -0.921
REMARK UNBOUND:                -1.057
REMARK SMILES CCCCCCCCCCCCCCCC(=O)[O-]
REMARK SMILES IDX 9 1 10 2 11 3 12 4 13 5 14 6 15 7 16 8 17 9 18 10 8 11 7 12
REMARK SMILES IDX 6 13 5 14 4 15 3 16 2 17 1 18
REMARK H PARENT
REMARK Flexibility Score: inf
ROOT
ATOM      1  C   UNL     1       0.050 -16.141 -18.347  1.00  0.00     0.000 C 
ENDROOT
BRANCH   1   2
ATOM      2  C   UNL     1      -1.399 -15.813 -18.769  1.00  0.00     0.000 C 
BRANCH   2   3
ATOM      3  C   UNL     1      -1.894 -16.726 -19.901  1.00  0.00     0.000 C 
BRANCH   3   4
ATOM      4  C   UNL     1      -1.991 -18.182 -19.431  1.00  0.00     0.000 C 
BRANCH   4   5
ATOM      5  C   UNL     1      -1.084 -19.094 -20.272  1.00  0.00     0.000 C 
BRANCH   5   6
ATOM      6  C   UNL     1      -0.139 -19.957 -19.418  1.00  0.00     0.006 C 
BRANCH   6   7
ATOM      7  C   UNL     1      -0.593 -20.125 -17.957  1.00  0.00     0.053 C 
BRANCH   7   8
ATOM      8  C   UNL     1       0.480 -19.772 -16.972  1.00  0.00     0.041 C 
ATOM      9  O   UNL     1       0.363 -20.094 -15.761  1.00  0.00    -0.550 OA
ATOM     10  O   UNL     1       1.626 -19.112 -17.399  1.00  0.00    -0.550 OA
ENDBRANCH   7   8
ENDBRANCH   6   7
ENDBRANCH   5   6
ENDBRANCH   4   5
ENDBRANCH   3   4
ENDBRANCH   2   3
ENDBRANCH   1   2
BRANCH   1  11
ATOM     11  C   UNL     1       0.814 -14.935 -17.775  1.00  0.00     0.000 C 
BRANCH  11  12
ATOM     12  C   UNL     1       2.010 -14.516 -18.647  1.00  0.00    -0.000 C 
BRANCH  12  13
ATOM     13  C   UNL     1       1.953 -13.035 -19.054  1.00  0.00    -0.000 C 
BRANCH  13  14
ATOM     14  C   UNL     1       3.241 -12.275 -18.702  1.00  0.00    -0.000 C 
BRANCH  14  15
ATOM     15  C   UNL     1       2.996 -10.758 -18.677  1.00  0.00    -0.000 C 
BRANCH  15  16
ATOM     16  C   UNL     1       4.224  -9.958 -19.161  1.00  0.00    -0.000 C 
BRANCH  16  17
ATOM     17  C   UNL     1       5.023 -10.669 -20.266  1.00  0.00    -0.003 C 
ATOM     18  C   UNL     1       6.497 -10.854 -19.913  1.00  0.00     0.004 C 
ENDBRANCH  16  17
ENDBRANCH  15  16
ENDBRANCH  14  15
ENDBRANCH  13  14
ENDBRANCH  12  13
ENDBRANCH  11  12
ENDBRANCH   1  11
TORSDOF 14
ENDMDL
