MODEL 1
REMARK VINA RESULT:    -6.568      0.000      0.000
REMARK INTER + INTRA:          -7.781
REMARK INTER:                  -7.720
REMARK INTRA:                  -0.061
REMARK UNBOUND:                -0.061
REMARK SMILES O=c1c(O)c(-c2ccc(O)c(O)c2)oc2cc(O)ccc12
REMARK SMILES IDX 5 1 3 2 2 3 1 4 21 5 15 6 14 7 16 8 17 9 19 10 20 11 6 12
REMARK SMILES IDX 7 13 8 14 9 15 13 16 11 17 10 18 12 20 4 22 18 24
REMARK H PARENT 10 19 12 21 4 23 18 25
REMARK Flexibility Score: inf
ROOT
ATOM      1  C   UNL     1       2.101 -11.745 -32.607  1.00  0.00     0.180 A 
ATOM      2  C   UNL     1       0.870 -11.056 -32.637  1.00  0.00     0.208 A 
ATOM      3  C   UNL     1       0.102 -10.990 -31.464  1.00  0.00     0.235 A 
ATOM      4  O   UNL     1      -1.007 -10.388 -31.470  1.00  0.00    -0.285 OA
ATOM      5  C   UNL     1       0.584 -11.588 -30.289  1.00  0.00     0.069 A 
ATOM      6  C   UNL     1       1.835 -12.238 -30.334  1.00  0.00     0.142 A 
ATOM      7  O   UNL     1       2.527 -12.286 -31.468  1.00  0.00    -0.452 OA
ATOM      8  C   UNL     1       2.355 -12.839 -29.182  1.00  0.00     0.094 A 
ATOM      9  C   UNL     1       1.637 -12.801 -27.982  1.00  0.00     0.119 A 
ATOM     10  C   UNL     1       0.391 -12.157 -27.934  1.00  0.00     0.047 A 
ATOM     11  C   UNL     1      -0.135 -11.553 -29.080  1.00  0.00     0.020 A 
ENDROOT
BRANCH   1  12
ATOM     12  C   UNL     1       2.959 -11.875 -33.806  1.00  0.00     0.025 A 
ATOM     13  C   UNL     1       4.274 -11.384 -33.822  1.00  0.00     0.016 A 
ATOM     14  C   UNL     1       5.055 -11.497 -34.973  1.00  0.00     0.051 A 
ATOM     15  C   UNL     1       4.539 -12.087 -36.131  1.00  0.00     0.157 A 
ATOM     16  C   UNL     1       2.431 -12.447 -34.974  1.00  0.00     0.062 A 
ATOM     17  C   UNL     1       3.207 -12.565 -36.133  1.00  0.00     0.158 A 
BRANCH  15  18
ATOM     18  O   UNL     1       5.373 -12.173 -37.248  1.00  0.00    -0.504 OA
ATOM     19  H   UNL     1       6.376 -12.279 -37.196  1.00  0.00     0.293 HD
ENDBRANCH  15  18
BRANCH  17  20
ATOM     20  O   UNL     1       2.619 -13.156 -37.254  1.00  0.00    -0.504 OA
ATOM     21  H   UNL     1       1.623 -13.216 -37.403  1.00  0.00     0.293 HD
ENDBRANCH  17  20
ENDBRANCH   1  12
BRANCH   2  22
ATOM     22  O   UNL     1       0.440 -10.428 -33.809  1.00  0.00    -0.502 OA
ATOM     23  H   UNL     1       1.071  -9.909 -34.408  1.00  0.00     0.293 HD
ENDBRANCH   2  22
BRANCH   9  24
ATOM     24  O   UNL     1       2.167 -13.404 -26.845  1.00  0.00    -0.508 OA
ATOM     25  H   UNL     1       3.063 -13.122 -26.464  1.00  0.00     0.293 HD
ENDBRANCH   9  24
TORSDOF 5
ENDMDL
MODEL 2
REMARK VINA RESULT:    -6.479      4.425      6.196
REMARK INTER + INTRA:          -7.676
REMARK INTER:                  -7.396
REMARK INTRA:                  -0.280
REMARK UNBOUND:                -0.061
REMARK SMILES O=c1c(O)c(-c2ccc(O)c(O)c2)oc2cc(O)ccc12
REMARK SMILES IDX 5 1 3 2 2 3 1 4 21 5 15 6 14 7 16 8 17 9 19 10 20 11 6 12
REMARK SMILES IDX 7 13 8 14 9 15 13 16 11 17 10 18 12 20 4 22 18 24
REMARK H PARENT 10 19 12 21 4 23 18 25
REMARK Flexibility Score: inf
ROOT
ATOM      1  C   UNL     1       5.505  -8.825 -35.423  1.00  0.00     0.180 A 
ATOM      2  C   UNL     1       5.054 -10.085 -35.870  1.00  0.00     0.208 A 
ATOM      3  C   UNL     1       4.806 -11.090 -34.922  1.00  0.00     0.235 A 
ATOM      4  O   UNL     1       4.412 -12.228 -35.298  1.00  0.00    -0.285 OA
ATOM      5  C   UNL     1       4.990 -10.813 -33.558  1.00  0.00     0.069 A 
ATOM      6  C   UNL     1       5.420  -9.521 -33.190  1.00  0.00     0.142 A 
ATOM      7  O   UNL     1       5.653  -8.600 -34.119  1.00  0.00    -0.452 OA
ATOM      8  C   UNL     1       5.606  -9.202 -31.840  1.00  0.00     0.094 A 
ATOM      9  C   UNL     1       5.370 -10.161 -30.850  1.00  0.00     0.119 A 
ATOM     10  C   UNL     1       4.944 -11.448 -31.212  1.00  0.00     0.047 A 
ATOM     11  C   UNL     1       4.754 -11.775 -32.558  1.00  0.00     0.020 A 
ENDROOT
BRANCH   1  12
ATOM     12  C   UNL     1       5.806  -7.720 -36.361  1.00  0.00     0.025 A 
ATOM     13  C   UNL     1       6.986  -7.709 -37.122  1.00  0.00     0.016 A 
ATOM     14  C   UNL     1       7.260  -6.643 -37.982  1.00  0.00     0.051 A 
ATOM     15  C   UNL     1       6.373  -5.567 -38.091  1.00  0.00     0.157 A 
ATOM     16  C   UNL     1       4.926  -6.631 -36.452  1.00  0.00     0.062 A 
ATOM     17  C   UNL     1       5.192  -5.559 -37.312  1.00  0.00     0.158 A 
BRANCH  15  18
ATOM     18  O   UNL     1       6.704  -4.536 -38.972  1.00  0.00    -0.504 OA
ATOM     19  H   UNL     1       6.692  -3.557 -38.726  1.00  0.00     0.293 HD
ENDBRANCH  15  18
BRANCH  17  20
ATOM     20  O   UNL     1       4.265  -4.516 -37.359  1.00  0.00    -0.504 OA
ATOM     21  H   UNL     1       3.608  -4.378 -38.113  1.00  0.00     0.293 HD
ENDBRANCH  17  20
ENDBRANCH   1  12
BRANCH   2  22
ATOM     22  O   UNL     1       4.832 -10.316 -37.229  1.00  0.00    -0.502 OA
ATOM     23  H   UNL     1       3.949 -10.102 -37.678  1.00  0.00     0.293 HD
ENDBRANCH   2  22
BRANCH   9  24
ATOM     24  O   UNL     1       5.560  -9.828 -29.512  1.00  0.00    -0.508 OA
ATOM     25  H   UNL     1       5.525 -10.530 -28.781  1.00  0.00     0.293 HD
ENDBRANCH   9  24
TORSDOF 5
ENDMDL
MODEL 3
REMARK VINA RESULT:    -6.265      1.545      6.932
REMARK INTER + INTRA:          -7.424
REMARK INTER:                  -7.140
REMARK INTRA:                  -0.284
REMARK UNBOUND:                -0.061
REMARK SMILES O=c1c(O)c(-c2ccc(O)c(O)c2)oc2cc(O)ccc12
REMARK SMILES IDX 5 1 3 2 2 3 1 4 21 5 15 6 14 7 16 8 17 9 19 10 20 11 6 12
REMARK SMILES IDX 7 13 8 14 9 15 13 16 11 17 10 18 12 20 4 22 18 24
REMARK H PARENT 10 19 12 21 4 23 18 25
REMARK Flexibility Score: inf
ROOT
ATOM      1  C   UNL     1       2.695 -11.652 -31.499  1.00  0.00     0.180 A 
ATOM      2  C   UNL     1       3.826 -10.809 -31.527  1.00  0.00     0.208 A 
ATOM      3  C   UNL     1       4.507 -10.631 -32.742  1.00  0.00     0.235 A 
ATOM      4  O   UNL     1       5.528  -9.890 -32.789  1.00  0.00    -0.285 OA
ATOM      5  C   UNL     1       4.038 -11.275 -33.897  1.00  0.00     0.069 A 
ATOM      6  C   UNL     1       2.886 -12.083 -33.791  1.00  0.00     0.142 A 
ATOM      7  O   UNL     1       2.276 -12.233 -32.620  1.00  0.00    -0.452 OA
ATOM      8  C   UNL     1       2.381 -12.735 -34.922  1.00  0.00     0.094 A 
ATOM      9  C   UNL     1       3.015 -12.592 -36.160  1.00  0.00     0.119 A 
ATOM     10  C   UNL     1       4.161 -11.791 -36.269  1.00  0.00     0.047 A 
ATOM     11  C   UNL     1       4.672 -11.135 -35.145  1.00  0.00     0.020 A 
ENDROOT
BRANCH   1  12
ATOM     12  C   UNL     1       1.935 -11.905 -30.254  1.00  0.00     0.025 A 
ATOM     13  C   UNL     1       2.417 -12.779 -29.267  1.00  0.00     0.016 A 
ATOM     14  C   UNL     1       1.670 -13.020 -28.112  1.00  0.00     0.051 A 
ATOM     15  C   UNL     1       0.427 -12.407 -27.925  1.00  0.00     0.157 A 
ATOM     16  C   UNL     1       0.678 -11.307 -30.079  1.00  0.00     0.062 A 
ATOM     17  C   UNL     1      -0.078 -11.542 -28.924  1.00  0.00     0.158 A 
BRANCH  15  18
ATOM     18  O   UNL     1      -0.268 -12.688 -26.747  1.00  0.00    -0.504 OA
ATOM     19  H   UNL     1      -0.777 -11.998 -26.213  1.00  0.00     0.293 HD
ENDBRANCH  15  18
BRANCH  17  20
ATOM     20  O   UNL     1      -1.315 -10.902 -28.813  1.00  0.00    -0.504 OA
ATOM     21  H   UNL     1      -1.892 -10.930 -27.985  1.00  0.00     0.293 HD
ENDBRANCH  17  20
ENDBRANCH   1  12
BRANCH   2  22
ATOM     22  O   UNL     1       4.240 -10.141 -30.372  1.00  0.00    -0.502 OA
ATOM     23  H   UNL     1       3.974 -10.449 -29.444  1.00  0.00     0.293 HD
ENDBRANCH   2  22
BRANCH   9  24
ATOM     24  O   UNL     1       2.500 -13.248 -37.275  1.00  0.00    -0.508 OA
ATOM     25  H   UNL     1       2.914 -13.137 -38.193  1.00  0.00     0.293 HD
ENDBRANCH   9  24
TORSDOF 5
ENDMDL
MODEL 4
REMARK VINA RESULT:    -6.073      2.483      3.455
REMARK INTER + INTRA:          -7.199
REMARK INTER:                  -7.136
REMARK INTRA:                  -0.063
REMARK UNBOUND:                -0.061
REMARK SMILES O=c1c(O)c(-c2ccc(O)c(O)c2)oc2cc(O)ccc12
REMARK SMILES IDX 5 1 3 2 2 3 1 4 21 5 15 6 14 7 16 8 17 9 19 10 20 11 6 12
REMARK SMILES IDX 7 13 8 14 9 15 13 16 11 17 10 18 12 20 4 22 18 24
REMARK H PARENT 10 19 12 21 4 23 18 25
REMARK Flexibility Score: inf
ROOT
ATOM      1  C   UNL     1       2.893 -11.657 -31.395  1.00  0.00     0.180 A 
ATOM      2  C   UNL     1       2.505 -12.677 -30.500  1.00  0.00     0.208 A 
ATOM      3  C   UNL     1       2.447 -12.386 -29.128  1.00  0.00     0.235 A 
ATOM      4  O   UNL     1       2.112 -13.284 -28.307  1.00  0.00    -0.285 OA
ATOM      5  C   UNL     1       2.753 -11.090 -28.683  1.00  0.00     0.069 A 
ATOM      6  C   UNL     1       3.110 -10.120 -29.644  1.00  0.00     0.142 A 
ATOM      7  O   UNL     1       3.162 -10.439 -30.933  1.00  0.00    -0.452 OA
ATOM      8  C   UNL     1       3.413  -8.814 -29.241  1.00  0.00     0.094 A 
ATOM      9  C   UNL     1       3.367  -8.465 -27.888  1.00  0.00     0.119 A 
ATOM     10  C   UNL     1       3.015  -9.427 -26.931  1.00  0.00     0.047 A 
ATOM     11  C   UNL     1       2.709 -10.734 -27.323  1.00  0.00     0.020 A 
ENDROOT
BRANCH   1  12
ATOM     12  C   UNL     1       2.997 -11.890 -32.854  1.00  0.00     0.025 A 
ATOM     13  C   UNL     1       1.909 -12.376 -33.596  1.00  0.00     0.016 A 
ATOM     14  C   UNL     1       2.039 -12.610 -34.966  1.00  0.00     0.051 A 
ATOM     15  C   UNL     1       3.255 -12.378 -35.618  1.00  0.00     0.157 A 
ATOM     16  C   UNL     1       4.224 -11.678 -33.501  1.00  0.00     0.062 A 
ATOM     17  C   UNL     1       4.364 -11.909 -34.875  1.00  0.00     0.158 A 
BRANCH  15  18
ATOM     18  O   UNL     1       3.317 -12.629 -36.991  1.00  0.00    -0.504 OA
ATOM     19  H   UNL     1       3.540 -13.528 -37.391  1.00  0.00     0.293 HD
ENDBRANCH  15  18
BRANCH  17  20
ATOM     20  O   UNL     1       5.610 -11.665 -35.454  1.00  0.00    -0.504 OA
ATOM     21  H   UNL     1       5.891 -10.772 -35.833  1.00  0.00     0.293 HD
ENDBRANCH  17  20
ENDBRANCH   1  12
BRANCH   2  22
ATOM     22  O   UNL     1       2.158 -13.943 -30.977  1.00  0.00    -0.502 OA
ATOM     23  H   UNL     1       1.642 -14.074 -31.839  1.00  0.00     0.293 HD
ENDBRANCH   2  22
BRANCH   9  24
ATOM     24  O   UNL     1       3.673  -7.162 -27.505  1.00  0.00    -0.508 OA
ATOM     25  H   UNL     1       3.610  -6.866 -26.537  1.00  0.00     0.293 HD
ENDBRANCH   9  24
TORSDOF 5
ENDMDL
MODEL 5
REMARK VINA RESULT:    -6.017      3.328      5.121
REMARK INTER + INTRA:          -7.133
REMARK INTER:                  -6.818
REMARK INTRA:                  -0.314
REMARK UNBOUND:                -0.061
REMARK SMILES O=c1c(O)c(-c2ccc(O)c(O)c2)oc2cc(O)ccc12
REMARK SMILES IDX 5 1 3 2 2 3 1 4 21 5 15 6 14 7 16 8 17 9 19 10 20 11 6 12
REMARK SMILES IDX 7 13 8 14 9 15 13 16 11 17 10 18 12 20 4 22 18 24
REMARK H PARENT 10 19 12 21 4 23 18 25
REMARK Flexibility Score: inf
ROOT
ATOM      1  C   UNL     1       4.625  -9.931 -35.205  1.00  0.00     0.180 A 
ATOM      2  C   UNL     1       3.967 -10.901 -35.989  1.00  0.00     0.208 A 
ATOM      3  C   UNL     1       3.296 -11.952 -35.343  1.00  0.00     0.235 A 
ATOM      4  O   UNL     1       2.709 -12.837 -36.024  1.00  0.00    -0.285 OA
ATOM      5  C   UNL     1       3.279 -12.001 -33.940  1.00  0.00     0.069 A 
ATOM      6  C   UNL     1       3.942 -10.979 -33.228  1.00  0.00     0.142 A 
ATOM      7  O   UNL     1       4.573 -10.007 -33.877  1.00  0.00    -0.452 OA
ATOM      8  C   UNL     1       3.941 -10.988 -31.828  1.00  0.00     0.094 A 
ATOM      9  C   UNL     1       3.285 -12.007 -31.130  1.00  0.00     0.119 A 
ATOM     10  C   UNL     1       2.627 -13.025 -31.836  1.00  0.00     0.047 A 
ATOM     11  C   UNL     1       2.622 -13.024 -33.233  1.00  0.00     0.020 A 
ENDROOT
BRANCH   1  12
ATOM     12  C   UNL     1       5.369  -8.803 -35.811  1.00  0.00     0.025 A 
ATOM     13  C   UNL     1       4.724  -7.608 -36.168  1.00  0.00     0.016 A 
ATOM     14  C   UNL     1       5.443  -6.569 -36.760  1.00  0.00     0.051 A 
ATOM     15  C   UNL     1       6.810  -6.703 -37.019  1.00  0.00     0.157 A 
ATOM     16  C   UNL     1       6.736  -8.948 -36.090  1.00  0.00     0.062 A 
ATOM     17  C   UNL     1       7.466  -7.911 -36.684  1.00  0.00     0.158 A 
BRANCH  15  18
ATOM     18  O   UNL     1       7.471  -5.624 -37.610  1.00  0.00    -0.504 OA
ATOM     19  H   UNL     1       7.910  -5.659 -38.519  1.00  0.00     0.293 HD
ENDBRANCH  15  18
BRANCH  17  20
ATOM     20  O   UNL     1       8.826  -8.122 -36.921  1.00  0.00    -0.504 OA
ATOM     21  H   UNL     1       9.342  -7.684 -37.670  1.00  0.00     0.293 HD
ENDBRANCH  17  20
ENDBRANCH   1  12
BRANCH   2  22
ATOM     22  O   UNL     1       3.959 -10.798 -37.382  1.00  0.00    -0.502 OA
ATOM     23  H   UNL     1       4.474 -10.078 -37.875  1.00  0.00     0.293 HD
ENDBRANCH   2  22
BRANCH   9  24
ATOM     24  O   UNL     1       3.293 -12.001 -29.738  1.00  0.00    -0.508 OA
ATOM     25  H   UNL     1       4.112 -11.713 -29.213  1.00  0.00     0.293 HD
ENDBRANCH   9  24
TORSDOF 5
ENDMDL
MODEL 6
REMARK VINA RESULT:    -5.955      1.232      3.005
REMARK INTER + INTRA:          -7.061
REMARK INTER:                  -6.782
REMARK INTRA:                  -0.279
REMARK UNBOUND:                -0.061
REMARK SMILES O=c1c(O)c(-c2ccc(O)c(O)c2)oc2cc(O)ccc12
REMARK SMILES IDX 5 1 3 2 2 3 1 4 21 5 15 6 14 7 16 8 17 9 19 10 20 11 6 12
REMARK SMILES IDX 7 13 8 14 9 15 13 16 11 17 10 18 12 20 4 22 18 24
REMARK H PARENT 10 19 12 21 4 23 18 25
REMARK Flexibility Score: inf
ROOT
ATOM      1  C   UNL     1       2.173 -11.706 -32.613  1.00  0.00     0.180 A 
ATOM      2  C   UNL     1       2.334 -12.537 -31.483  1.00  0.00     0.208 A 
ATOM      3  C   UNL     1       1.506 -12.331 -30.369  1.00  0.00     0.235 A 
ATOM      4  O   UNL     1       1.639 -13.055 -29.343  1.00  0.00    -0.285 OA
ATOM      5  C   UNL     1       0.529 -11.324 -30.411  1.00  0.00     0.069 A 
ATOM      6  C   UNL     1       0.416 -10.551 -31.586  1.00  0.00     0.142 A 
ATOM      7  O   UNL     1       1.225 -10.772 -32.616  1.00  0.00    -0.452 OA
ATOM      8  C   UNL     1      -0.552  -9.543 -31.671  1.00  0.00     0.094 A 
ATOM      9  C   UNL     1      -1.408  -9.296 -30.593  1.00  0.00     0.119 A 
ATOM     10  C   UNL     1      -1.296 -10.061 -29.423  1.00  0.00     0.047 A 
ATOM     11  C   UNL     1      -0.334 -11.070 -29.329  1.00  0.00     0.020 A 
ENDROOT
BRANCH   1  12
ATOM     12  C   UNL     1       3.019 -11.848 -33.820  1.00  0.00     0.025 A 
ATOM     13  C   UNL     1       4.343 -11.383 -33.843  1.00  0.00     0.016 A 
ATOM     14  C   UNL     1       5.113 -11.506 -35.001  1.00  0.00     0.051 A 
ATOM     15  C   UNL     1       4.577 -12.081 -36.158  1.00  0.00     0.157 A 
ATOM     16  C   UNL     1       2.471 -12.405 -34.985  1.00  0.00     0.062 A 
ATOM     17  C   UNL     1       3.236 -12.533 -36.151  1.00  0.00     0.158 A 
BRANCH  15  18
ATOM     18  O   UNL     1       5.401 -12.178 -37.281  1.00  0.00    -0.504 OA
ATOM     19  H   UNL     1       5.860 -13.029 -37.573  1.00  0.00     0.293 HD
ENDBRANCH  15  18
BRANCH  17  20
ATOM     20  O   UNL     1       2.628 -13.108 -37.269  1.00  0.00    -0.504 OA
ATOM     21  H   UNL     1       3.132 -13.422 -38.086  1.00  0.00     0.293 HD
ENDBRANCH  17  20
ENDBRANCH   1  12
BRANCH   2  22
ATOM     22  O   UNL     1       3.282 -13.563 -31.490  1.00  0.00    -0.502 OA
ATOM     23  H   UNL     1       3.033 -14.529 -31.671  1.00  0.00     0.293 HD
ENDBRANCH   2  22
BRANCH   9  24
ATOM     24  O   UNL     1      -2.365  -8.290 -30.694  1.00  0.00    -0.508 OA
ATOM     25  H   UNL     1      -2.901  -7.985 -29.889  1.00  0.00     0.293 HD
ENDBRANCH   9  24
TORSDOF 5
ENDMDL
MODEL 7
REMARK VINA RESULT:    -5.950      5.781      9.345
REMARK INTER + INTRA:          -7.055
REMARK INTER:                  -6.767
REMARK INTRA:                  -0.288
REMARK UNBOUND:                -0.061
REMARK SMILES O=c1c(O)c(-c2ccc(O)c(O)c2)oc2cc(O)ccc12
REMARK SMILES IDX 5 1 3 2 2 3 1 4 21 5 15 6 14 7 16 8 17 9 19 10 20 11 6 12
REMARK SMILES IDX 7 13 8 14 9 15 13 16 11 17 10 18 12 20 4 22 18 24
REMARK H PARENT 10 19 12 21 4 23 18 25
REMARK Flexibility Score: inf
ROOT
ATOM      1  C   UNL     1       6.060  -7.554 -35.911  1.00  0.00     0.180 A 
ATOM      2  C   UNL     1       6.931  -7.150 -34.877  1.00  0.00     0.208 A 
ATOM      3  C   UNL     1       7.630  -5.941 -35.015  1.00  0.00     0.235 A 
ATOM      4  O   UNL     1       8.422  -5.564 -34.108  1.00  0.00    -0.285 OA
ATOM      5  C   UNL     1       7.432  -5.156 -36.162  1.00  0.00     0.069 A 
ATOM      6  C   UNL     1       6.526  -5.618 -37.140  1.00  0.00     0.142 A 
ATOM      7  O   UNL     1       5.891  -6.773 -36.975  1.00  0.00    -0.452 OA
ATOM      8  C   UNL     1       6.294  -4.860 -38.294  1.00  0.00     0.094 A 
ATOM      9  C   UNL     1       6.959  -3.644 -38.484  1.00  0.00     0.119 A 
ATOM     10  C   UNL     1       7.862  -3.183 -37.514  1.00  0.00     0.047 A 
ATOM     11  C   UNL     1       8.099  -3.933 -36.358  1.00  0.00     0.020 A 
ENDROOT
BRANCH   1  12
ATOM     12  C   UNL     1       5.301  -8.824 -35.848  1.00  0.00     0.025 A 
ATOM     13  C   UNL     1       4.123  -8.935 -35.093  1.00  0.00     0.016 A 
ATOM     14  C   UNL     1       3.438 -10.150 -35.030  1.00  0.00     0.051 A 
ATOM     15  C   UNL     1       3.920 -11.277 -35.705  1.00  0.00     0.157 A 
ATOM     16  C   UNL     1       5.798  -9.958 -36.507  1.00  0.00     0.062 A 
ATOM     17  C   UNL     1       5.119 -11.181 -36.450  1.00  0.00     0.158 A 
BRANCH  15  18
ATOM     18  O   UNL     1       3.186 -12.461 -35.604  1.00  0.00    -0.504 OA
ATOM     19  H   UNL     1       3.597 -13.369 -35.447  1.00  0.00     0.293 HD
ENDBRANCH  15  18
BRANCH  17  20
ATOM     20  O   UNL     1       5.666 -12.264 -37.141  1.00  0.00    -0.504 OA
ATOM     21  H   UNL     1       6.539 -12.229 -37.646  1.00  0.00     0.293 HD
ENDBRANCH  17  20
ENDBRANCH   1  12
BRANCH   2  22
ATOM     22  O   UNL     1       7.069  -7.927 -33.725  1.00  0.00    -0.502 OA
ATOM     23  H   UNL     1       7.939  -7.979 -33.207  1.00  0.00     0.293 HD
ENDBRANCH   2  22
BRANCH   9  24
ATOM     24  O   UNL     1       6.717  -2.903 -39.637  1.00  0.00    -0.508 OA
ATOM     25  H   UNL     1       5.928  -2.271 -39.706  1.00  0.00     0.293 HD
ENDBRANCH   9  24
TORSDOF 5
ENDMDL
MODEL 8
REMARK VINA RESULT:    -5.931      1.675      6.721
REMARK INTER + INTRA:          -7.032
REMARK INTER:                  -6.825
REMARK INTRA:                  -0.207
REMARK UNBOUND:                -0.061
REMARK SMILES O=c1c(O)c(-c2ccc(O)c(O)c2)oc2cc(O)ccc12
REMARK SMILES IDX 5 1 3 2 2 3 1 4 21 5 15 6 14 7 16 8 17 9 19 10 20 11 6 12
REMARK SMILES IDX 7 13 8 14 9 15 13 16 11 17 10 18 12 20 4 22 18 24
REMARK H PARENT 10 19 12 21 4 23 18 25
REMARK Flexibility Score: inf
ROOT
ATOM      1  C   UNL     1       2.504 -11.767 -32.090  1.00  0.00     0.180 A 
ATOM      2  C   UNL     1       1.511 -12.341 -32.912  1.00  0.00     0.208 A 
ATOM      3  C   UNL     1       1.759 -12.463 -34.288  1.00  0.00     0.235 A 
ATOM      4  O   UNL     1       0.883 -12.964 -35.045  1.00  0.00    -0.285 OA
ATOM      5  C   UNL     1       2.990 -12.031 -34.808  1.00  0.00     0.069 A 
ATOM      6  C   UNL     1       3.939 -11.489 -33.917  1.00  0.00     0.142 A 
ATOM      7  O   UNL     1       3.662 -11.383 -32.622  1.00  0.00    -0.452 OA
ATOM      8  C   UNL     1       5.181 -11.056 -34.395  1.00  0.00     0.094 A 
ATOM      9  C   UNL     1       5.487 -11.156 -35.756  1.00  0.00     0.119 A 
ATOM     10  C   UNL     1       4.544 -11.693 -36.645  1.00  0.00     0.047 A 
ATOM     11  C   UNL     1       3.301 -12.129 -36.177  1.00  0.00     0.020 A 
ENDROOT
BRANCH   1  12
ATOM     12  C   UNL     1       2.310 -11.587 -30.633  1.00  0.00     0.025 A 
ATOM     13  C   UNL     1       2.186 -10.310 -30.064  1.00  0.00     0.016 A 
ATOM     14  C   UNL     1       2.029 -10.166 -28.684  1.00  0.00     0.051 A 
ATOM     15  C   UNL     1       2.006 -11.286 -27.847  1.00  0.00     0.157 A 
ATOM     16  C   UNL     1       2.311 -12.711 -29.793  1.00  0.00     0.062 A 
ATOM     17  C   UNL     1       2.153 -12.576 -28.408  1.00  0.00     0.158 A 
BRANCH  15  18
ATOM     18  O   UNL     1       1.842 -11.073 -26.476  1.00  0.00    -0.504 OA
ATOM     19  H   UNL     1       1.030 -11.365 -25.952  1.00  0.00     0.293 HD
ENDBRANCH  15  18
BRANCH  17  20
ATOM     20  O   UNL     1       2.151 -13.739 -27.636  1.00  0.00    -0.504 OA
ATOM     21  H   UNL     1       1.332 -14.110 -27.175  1.00  0.00     0.293 HD
ENDBRANCH  17  20
ENDBRANCH   1  12
BRANCH   2  22
ATOM     22  O   UNL     1       0.317 -12.807 -32.358  1.00  0.00    -0.502 OA
ATOM     23  H   UNL     1       0.273 -13.649 -31.794  1.00  0.00     0.293 HD
ENDBRANCH   2  22
BRANCH   9  24
ATOM     24  O   UNL     1       6.727 -10.720 -36.216  1.00  0.00    -0.508 OA
ATOM     25  H   UNL     1       6.812  -9.922 -36.835  1.00  0.00     0.293 HD
ENDBRANCH   9  24
TORSDOF 5
ENDMDL
MODEL 9
REMARK VINA RESULT:    -5.871      2.353      2.787
REMARK INTER + INTRA:          -6.961
REMARK INTER:                  -6.650
REMARK INTRA:                  -0.311
REMARK UNBOUND:                -0.061
REMARK SMILES O=c1c(O)c(-c2ccc(O)c(O)c2)oc2cc(O)ccc12
REMARK SMILES IDX 5 1 3 2 2 3 1 4 21 5 15 6 14 7 16 8 17 9 19 10 20 11 6 12
REMARK SMILES IDX 7 13 8 14 9 15 13 16 11 17 10 18 12 20 4 22 18 24
REMARK H PARENT 10 19 12 21 4 23 18 25
REMARK Flexibility Score: inf
ROOT
ATOM      1  C   UNL     1       3.378 -11.111 -32.690  1.00  0.00     0.180 A 
ATOM      2  C   UNL     1       2.599 -12.285 -32.762  1.00  0.00     0.208 A 
ATOM      3  C   UNL     1       2.090 -12.833 -31.575  1.00  0.00     0.235 A 
ATOM      4  O   UNL     1       1.399 -13.889 -31.613  1.00  0.00    -0.285 OA
ATOM      5  C   UNL     1       2.348 -12.192 -30.353  1.00  0.00     0.069 A 
ATOM      6  C   UNL     1       3.116 -11.009 -30.367  1.00  0.00     0.142 A 
ATOM      7  O   UNL     1       3.587 -10.528 -31.512  1.00  0.00    -0.452 OA
ATOM      8  C   UNL     1       3.387 -10.336 -29.170  1.00  0.00     0.094 A 
ATOM      9  C   UNL     1       2.902 -10.832 -27.956  1.00  0.00     0.119 A 
ATOM     10  C   UNL     1       2.140 -12.009 -27.938  1.00  0.00     0.047 A 
ATOM     11  C   UNL     1       1.863 -12.688 -29.128  1.00  0.00     0.020 A 
ENDROOT
BRANCH   1  12
ATOM     12  C   UNL     1       3.966 -10.482 -33.895  1.00  0.00     0.025 A 
ATOM     13  C   UNL     1       5.291 -10.738 -34.281  1.00  0.00     0.016 A 
ATOM     14  C   UNL     1       5.830 -10.114 -35.408  1.00  0.00     0.051 A 
ATOM     15  C   UNL     1       5.067  -9.217 -36.161  1.00  0.00     0.157 A 
ATOM     16  C   UNL     1       3.205  -9.565 -34.636  1.00  0.00     0.062 A 
ATOM     17  C   UNL     1       3.737  -8.935 -35.768  1.00  0.00     0.158 A 
BRANCH  15  18
ATOM     18  O   UNL     1       5.665  -8.630 -37.279  1.00  0.00    -0.504 OA
ATOM     19  H   UNL     1       5.160  -8.349 -38.107  1.00  0.00     0.293 HD
ENDBRANCH  15  18
BRANCH  17  20
ATOM     20  O   UNL     1       2.918  -8.043 -36.463  1.00  0.00    -0.504 OA
ATOM     21  H   UNL     1       2.461  -7.249 -36.040  1.00  0.00     0.293 HD
ENDBRANCH  17  20
ENDBRANCH   1  12
BRANCH   2  22
ATOM     22  O   UNL     1       2.318 -12.872 -33.998  1.00  0.00    -0.502 OA
ATOM     23  H   UNL     1       1.421 -13.297 -34.204  1.00  0.00     0.293 HD
ENDBRANCH   2  22
BRANCH   9  24
ATOM     24  O   UNL     1       3.182 -10.150 -26.775  1.00  0.00    -0.508 OA
ATOM     25  H   UNL     1       2.505  -9.527 -26.350  1.00  0.00     0.293 HD
ENDBRANCH   9  24
TORSDOF 5
ENDMDL
