MODEL 1
REMARK VINA RESULT:    -6.799      0.000      0.000
REMARK INTER + INTRA:          -8.478
REMARK INTER:                  -8.190
REMARK INTRA:                  -0.288
REMARK UNBOUND:                -0.288
REMARK SMILES O=c1c(O)c(-c2ccc(O)c(O)c2)oc2cc(O)cc(O)c12
REMARK SMILES IDX 5 1 3 2 2 3 1 4 22 5 20 6 19 7 17 8 16 9 15 10 14 11 6 12
REMARK SMILES IDX 7 13 8 14 9 15 13 16 11 17 10 18 12 20 4 22 21 24 18 26
REMARK H PARENT 10 19 12 21 4 23 21 25 18 27
REMARK Flexibility Score: inf
ROOT
ATOM      1  C   UNL     1       6.592   6.638  -5.564  1.00  0.00     0.180 A 
ATOM      2  C   UNL     1       7.690   7.361  -5.064  1.00  0.00     0.208 A 
ATOM      3  C   UNL     1       8.539   6.748  -4.127  1.00  0.00     0.238 A 
ATOM      4  O   UNL     1       9.551   7.380  -3.725  1.00  0.00    -0.285 OA
ATOM      5  C   UNL     1       8.272   5.428  -3.693  1.00  0.00     0.111 A 
ATOM      6  C   UNL     1       9.042   4.723  -2.718  1.00  0.00     0.134 A 
ATOM      7  C   UNL     1       8.763   3.376  -2.461  1.00  0.00     0.093 A 
ATOM      8  C   UNL     1       7.703   2.726  -3.090  1.00  0.00     0.123 A 
ATOM      9  C   UNL     1       6.906   3.422  -4.000  1.00  0.00     0.094 A 
ATOM     10  C   UNL     1       7.181   4.757  -4.306  1.00  0.00     0.146 A 
ATOM     11  O   UNL     1       6.406   5.379  -5.185  1.00  0.00    -0.452 OA
ENDROOT
BRANCH   1  12
ATOM     12  C   UNL     1       5.639   7.226  -6.532  1.00  0.00     0.025 A 
ATOM     13  C   UNL     1       5.673   6.812  -7.871  1.00  0.00     0.016 A 
ATOM     14  C   UNL     1       4.770   7.338  -8.797  1.00  0.00     0.051 A 
ATOM     15  C   UNL     1       3.808   8.273  -8.404  1.00  0.00     0.157 A 
ATOM     16  C   UNL     1       4.659   8.149  -6.128  1.00  0.00     0.062 A 
ATOM     17  C   UNL     1       3.747   8.680  -7.050  1.00  0.00     0.158 A 
BRANCH  15  18
ATOM     18  O   UNL     1       2.940   8.766  -9.380  1.00  0.00    -0.504 OA
ATOM     19  H   UNL     1       2.625   9.725  -9.423  1.00  0.00     0.293 HD
ENDBRANCH  15  18
BRANCH  17  20
ATOM     20  O   UNL     1       2.803   9.594  -6.578  1.00  0.00    -0.504 OA
ATOM     21  H   UNL     1       1.859   9.664  -6.933  1.00  0.00     0.293 HD
ENDBRANCH  17  20
ENDBRANCH   1  12
BRANCH   2  22
ATOM     22  O   UNL     1       7.948   8.655  -5.524  1.00  0.00    -0.502 OA
ATOM     23  H   UNL     1       8.600   9.277  -5.060  1.00  0.00     0.293 HD
ENDBRANCH   2  22
BRANCH   6  24
ATOM     24  O   UNL     1      10.065   5.305  -1.963  1.00  0.00    -0.507 OA
ATOM     25  H   UNL     1      10.592   6.119  -2.242  1.00  0.00     0.293 HD
ENDBRANCH   6  24
BRANCH   8  26
ATOM     26  O   UNL     1       7.445   1.388  -2.797  1.00  0.00    -0.508 OA
ATOM     27  H   UNL     1       6.502   1.016  -2.808  1.00  0.00     0.293 HD
ENDBRANCH   8  26
TORSDOF 6
ENDMDL
MODEL 2
REMARK VINA RESULT:    -6.660     14.815     16.052
REMARK INTER + INTRA:          -8.311
REMARK INTER:                  -8.317
REMARK INTRA:                   0.007
REMARK UNBOUND:                -0.288
REMARK SMILES O=c1c(O)c(-c2ccc(O)c(O)c2)oc2cc(O)cc(O)c12
REMARK SMILES IDX 5 1 3 2 2 3 1 4 22 5 20 6 19 7 17 8 16 9 15 10 14 11 6 12
REMARK SMILES IDX 7 13 8 14 9 15 13 16 11 17 10 18 12 20 4 22 21 24 18 26
REMARK H PARENT 10 19 12 21 4 23 21 25 18 27
REMARK Flexibility Score: inf
ROOT
ATOM      1  C   UNL     1       3.102   1.804   9.277  1.00  0.00     0.180 A 
ATOM      2  C   UNL     1       3.260   3.166   8.963  1.00  0.00     0.208 A 
ATOM      3  C   UNL     1       4.553   3.717   8.957  1.00  0.00     0.238 A 
ATOM      4  O   UNL     1       4.693   4.922   8.622  1.00  0.00    -0.285 OA
ATOM      5  C   UNL     1       5.666   2.905   9.280  1.00  0.00     0.111 A 
ATOM      6  C   UNL     1       7.015   3.368   9.344  1.00  0.00     0.134 A 
ATOM      7  C   UNL     1       8.051   2.449   9.545  1.00  0.00     0.093 A 
ATOM      8  C   UNL     1       7.785   1.095   9.751  1.00  0.00     0.123 A 
ATOM      9  C   UNL     1       6.465   0.642   9.750  1.00  0.00     0.094 A 
ATOM     10  C   UNL     1       5.412   1.529   9.515  1.00  0.00     0.146 A 
ATOM     11  O   UNL     1       4.172   1.055   9.512  1.00  0.00    -0.452 OA
ENDROOT
BRANCH   1  12
ATOM     12  C   UNL     1       1.770   1.159   9.329  1.00  0.00     0.025 A 
ATOM     13  C   UNL     1       0.745   1.752  10.079  1.00  0.00     0.016 A 
ATOM     14  C   UNL     1      -0.524   1.171  10.124  1.00  0.00     0.051 A 
ATOM     15  C   UNL     1      -0.799  -0.000   9.413  1.00  0.00     0.157 A 
ATOM     16  C   UNL     1       1.492  -0.006   8.594  1.00  0.00     0.062 A 
ATOM     17  C   UNL     1       0.221  -0.594   8.631  1.00  0.00     0.158 A 
BRANCH  15  18
ATOM     18  O   UNL     1      -2.085  -0.535   9.507  1.00  0.00    -0.504 OA
ATOM     19  H   UNL     1      -2.520  -1.089   8.784  1.00  0.00     0.293 HD
ENDBRANCH  15  18
BRANCH  17  20
ATOM     20  O   UNL     1       0.017  -1.752   7.878  1.00  0.00    -0.504 OA
ATOM     21  H   UNL     1      -0.217  -2.651   8.276  1.00  0.00     0.293 HD
ENDBRANCH  17  20
ENDBRANCH   1  12
BRANCH   2  22
ATOM     22  O   UNL     1       2.149   3.944   8.625  1.00  0.00    -0.502 OA
ATOM     23  H   UNL     1       2.212   4.943   8.473  1.00  0.00     0.293 HD
ENDBRANCH   2  22
BRANCH   6  24
ATOM     24  O   UNL     1       7.384   4.713   9.244  1.00  0.00    -0.507 OA
ATOM     25  H   UNL     1       8.331   5.055   9.307  1.00  0.00     0.293 HD
ENDBRANCH   6  24
BRANCH   8  26
ATOM     26  O   UNL     1       8.841   0.211   9.964  1.00  0.00    -0.508 OA
ATOM     27  H   UNL     1       9.763   0.541  10.227  1.00  0.00     0.293 HD
ENDBRANCH   8  26
TORSDOF 6
ENDMDL
MODEL 3
REMARK VINA RESULT:    -6.652     12.593     14.089
REMARK INTER + INTRA:          -8.301
REMARK INTER:                  -8.119
REMARK INTRA:                  -0.181
REMARK UNBOUND:                -0.288
REMARK SMILES O=c1c(O)c(-c2ccc(O)c(O)c2)oc2cc(O)cc(O)c12
REMARK SMILES IDX 5 1 3 2 2 3 1 4 22 5 20 6 19 7 17 8 16 9 15 10 14 11 6 12
REMARK SMILES IDX 7 13 8 14 9 15 13 16 11 17 10 18 12 20 4 22 21 24 18 26
REMARK H PARENT 10 19 12 21 4 23 21 25 18 27
REMARK Flexibility Score: inf
ROOT
ATOM      1  C   UNL     1       5.590  -6.985  -4.331  1.00  0.00     0.180 A 
ATOM      2  C   UNL     1       6.898  -7.105  -3.830  1.00  0.00     0.208 A 
ATOM      3  C   UNL     1       7.981  -6.804  -4.674  1.00  0.00     0.238 A 
ATOM      4  O   UNL     1       9.147  -6.860  -4.203  1.00  0.00    -0.285 OA
ATOM      5  C   UNL     1       7.741  -6.402  -6.010  1.00  0.00     0.111 A 
ATOM      6  C   UNL     1       8.763  -6.112  -6.964  1.00  0.00     0.134 A 
ATOM      7  C   UNL     1       8.410  -5.598  -8.217  1.00  0.00     0.093 A 
ATOM      8  C   UNL     1       7.074  -5.427  -8.577  1.00  0.00     0.123 A 
ATOM      9  C   UNL     1       6.065  -5.765  -7.673  1.00  0.00     0.094 A 
ATOM     10  C   UNL     1       6.386  -6.245  -6.401  1.00  0.00     0.146 A 
ATOM     11  O   UNL     1       5.397  -6.544  -5.568  1.00  0.00    -0.452 OA
ENDROOT
BRANCH   1  12
ATOM     12  C   UNL     1       4.401  -7.309  -3.510  1.00  0.00     0.025 A 
ATOM     13  C   UNL     1       4.185  -8.632  -3.100  1.00  0.00     0.016 A 
ATOM     14  C   UNL     1       3.082  -8.957  -2.309  1.00  0.00     0.051 A 
ATOM     15  C   UNL     1       2.182  -7.968  -1.899  1.00  0.00     0.157 A 
ATOM     16  C   UNL     1       3.511  -6.309  -3.082  1.00  0.00     0.062 A 
ATOM     17  C   UNL     1       2.403  -6.624  -2.285  1.00  0.00     0.158 A 
BRANCH  15  18
ATOM     18  O   UNL     1       1.095  -8.359  -1.115  1.00  0.00    -0.504 OA
ATOM     19  H   UNL     1       0.480  -9.126  -1.345  1.00  0.00     0.293 HD
ENDBRANCH  15  18
BRANCH  17  20
ATOM     20  O   UNL     1       1.561  -5.580  -1.899  1.00  0.00    -0.504 OA
ATOM     21  H   UNL     1       0.807  -5.222  -2.469  1.00  0.00     0.293 HD
ENDBRANCH  17  20
ENDBRANCH   1  12
BRANCH   2  22
ATOM     22  O   UNL     1       7.111  -7.481  -2.500  1.00  0.00    -0.502 OA
ATOM     23  H   UNL     1       7.033  -6.827  -1.732  1.00  0.00     0.293 HD
ENDBRANCH   2  22
BRANCH   6  24
ATOM     24  O   UNL     1      10.125  -6.334  -6.740  1.00  0.00    -0.507 OA
ATOM     25  H   UNL     1      10.821  -6.414  -7.466  1.00  0.00     0.293 HD
ENDBRANCH   6  24
BRANCH   8  26
ATOM     26  O   UNL     1       6.759  -4.929  -9.839  1.00  0.00    -0.508 OA
ATOM     27  H   UNL     1       5.805  -4.704 -10.098  1.00  0.00     0.293 HD
ENDBRANCH   8  26
TORSDOF 6
ENDMDL
MODEL 4
REMARK VINA RESULT:    -6.582     14.437     16.140
REMARK INTER + INTRA:          -8.216
REMARK INTER:                  -8.442
REMARK INTRA:                   0.226
REMARK UNBOUND:                -0.288
REMARK SMILES O=c1c(O)c(-c2ccc(O)c(O)c2)oc2cc(O)cc(O)c12
REMARK SMILES IDX 5 1 3 2 2 3 1 4 22 5 20 6 19 7 17 8 16 9 15 10 14 11 6 12
REMARK SMILES IDX 7 13 8 14 9 15 13 16 11 17 10 18 12 20 4 22 21 24 18 26
REMARK H PARENT 10 19 12 21 4 23 21 25 18 27
REMARK Flexibility Score: inf
ROOT
ATOM      1  C   UNL     1       2.792   1.864   9.118  1.00  0.00     0.180 A 
ATOM      2  C   UNL     1       4.006   1.195   8.884  1.00  0.00     0.208 A 
ATOM      3  C   UNL     1       5.185   1.949   8.760  1.00  0.00     0.238 A 
ATOM      4  O   UNL     1       6.277   1.341   8.606  1.00  0.00    -0.285 OA
ATOM      5  C   UNL     1       5.132   3.360   8.857  1.00  0.00     0.111 A 
ATOM      6  C   UNL     1       6.258   4.226   8.707  1.00  0.00     0.134 A 
ATOM      7  C   UNL     1       6.112   5.596   8.952  1.00  0.00     0.093 A 
ATOM      8  C   UNL     1       4.871   6.143   9.275  1.00  0.00     0.123 A 
ATOM      9  C   UNL     1       3.752   5.314   9.365  1.00  0.00     0.094 A 
ATOM     10  C   UNL     1       3.872   3.937   9.162  1.00  0.00     0.146 A 
ATOM     11  O   UNL     1       2.785   3.183   9.268  1.00  0.00    -0.452 OA
ENDROOT
BRANCH   1  12
ATOM     12  C   UNL     1       1.505   1.140   9.234  1.00  0.00     0.025 A 
ATOM     13  C   UNL     1       0.478   1.681  10.018  1.00  0.00     0.016 A 
ATOM     14  C   UNL     1      -0.751   1.026  10.125  1.00  0.00     0.051 A 
ATOM     15  C   UNL     1      -0.983  -0.171   9.441  1.00  0.00     0.157 A 
ATOM     16  C   UNL     1       1.269  -0.051   8.527  1.00  0.00     0.062 A 
ATOM     17  C   UNL     1       0.038  -0.714   8.625  1.00  0.00     0.158 A 
BRANCH  15  18
ATOM     18  O   UNL     1      -2.229  -0.781   9.596  1.00  0.00    -0.504 OA
ATOM     19  H   UNL     1      -2.391  -1.771   9.485  1.00  0.00     0.293 HD
ENDBRANCH  15  18
BRANCH  17  20
ATOM     20  O   UNL     1      -0.126  -1.894   7.897  1.00  0.00    -0.504 OA
ATOM     21  H   UNL     1      -0.103  -1.943   6.888  1.00  0.00     0.293 HD
ENDBRANCH  17  20
ENDBRANCH   1  12
BRANCH   2  22
ATOM     22  O   UNL     1       4.039  -0.200   8.815  1.00  0.00    -0.502 OA
ATOM     23  H   UNL     1       3.630  -0.716   8.045  1.00  0.00     0.293 HD
ENDBRANCH   2  22
BRANCH   6  24
ATOM     24  O   UNL     1       7.524   3.795   8.297  1.00  0.00    -0.507 OA
ATOM     25  H   UNL     1       7.704   3.244   7.472  1.00  0.00     0.293 HD
ENDBRANCH   6  24
BRANCH   8  26
ATOM     26  O   UNL     1       4.760   7.514   9.496  1.00  0.00    -0.508 OA
ATOM     27  H   UNL     1       5.537   8.143   9.325  1.00  0.00     0.293 HD
ENDBRANCH   8  26
TORSDOF 6
ENDMDL
MODEL 5
REMARK VINA RESULT:    -6.468     12.162     14.756
REMARK INTER + INTRA:          -8.079
REMARK INTER:                  -7.756
REMARK INTRA:                  -0.323
REMARK UNBOUND:                -0.288
REMARK SMILES O=c1c(O)c(-c2ccc(O)c(O)c2)oc2cc(O)cc(O)c12
REMARK SMILES IDX 5 1 3 2 2 3 1 4 22 5 20 6 19 7 17 8 16 9 15 10 14 11 6 12
REMARK SMILES IDX 7 13 8 14 9 15 13 16 11 17 10 18 12 20 4 22 21 24 18 26
REMARK H PARENT 10 19 12 21 4 23 21 25 18 27
REMARK Flexibility Score: inf
ROOT
ATOM      1  C   UNL     1       5.262  -7.551  -4.786  1.00  0.00     0.180 A 
ATOM      2  C   UNL     1       6.116  -8.104  -3.815  1.00  0.00     0.208 A 
ATOM      3  C   UNL     1       5.555  -8.673  -2.660  1.00  0.00     0.238 A 
ATOM      4  O   UNL     1       6.321  -9.215  -1.821  1.00  0.00    -0.285 OA
ATOM      5  C   UNL     1       4.151  -8.668  -2.483  1.00  0.00     0.111 A 
ATOM      6  C   UNL     1       3.477  -9.180  -1.333  1.00  0.00     0.134 A 
ATOM      7  C   UNL     1       2.079  -9.242  -1.323  1.00  0.00     0.093 A 
ATOM      8  C   UNL     1       1.327  -8.750  -2.390  1.00  0.00     0.123 A 
ATOM      9  C   UNL     1       1.974  -8.191  -3.493  1.00  0.00     0.094 A 
ATOM     10  C   UNL     1       3.370  -8.149  -3.548  1.00  0.00     0.146 A 
ATOM     11  O   UNL     1       3.946  -7.620  -4.620  1.00  0.00    -0.452 OA
ENDROOT
BRANCH   1  12
ATOM     12  C   UNL     1       5.779  -6.911  -6.017  1.00  0.00     0.025 A 
ATOM     13  C   UNL     1       6.097  -5.546  -6.003  1.00  0.00     0.016 A 
ATOM     14  C   UNL     1       6.606  -4.927  -7.146  1.00  0.00     0.051 A 
ATOM     15  C   UNL     1       6.822  -5.659  -8.318  1.00  0.00     0.157 A 
ATOM     16  C   UNL     1       6.016  -7.655  -7.185  1.00  0.00     0.062 A 
ATOM     17  C   UNL     1       6.530  -7.043  -8.336  1.00  0.00     0.158 A 
BRANCH  15  18
ATOM     18  O   UNL     1       7.326  -4.979  -9.429  1.00  0.00    -0.504 OA
ATOM     19  H   UNL     1       7.495  -5.411 -10.326  1.00  0.00     0.293 HD
ENDBRANCH  15  18
BRANCH  17  20
ATOM     20  O   UNL     1       6.737  -7.844  -9.461  1.00  0.00    -0.504 OA
ATOM     21  H   UNL     1       7.053  -8.803  -9.421  1.00  0.00     0.293 HD
ENDBRANCH  17  20
ENDBRANCH   1  12
BRANCH   2  22
ATOM     22  O   UNL     1       7.498  -8.118  -4.021  1.00  0.00    -0.502 OA
ATOM     23  H   UNL     1       7.943  -7.591  -4.763  1.00  0.00     0.293 HD
ENDBRANCH   2  22
BRANCH   6  24
ATOM     24  O   UNL     1       4.129  -9.613  -0.175  1.00  0.00    -0.507 OA
ATOM     25  H   UNL     1       5.051  -9.318   0.109  1.00  0.00     0.293 HD
ENDBRANCH   6  24
BRANCH   8  26
ATOM     26  O   UNL     1      -0.064  -8.812  -2.338  1.00  0.00    -0.508 OA
ATOM     27  H   UNL     1      -0.607  -8.121  -1.833  1.00  0.00     0.293 HD
ENDBRANCH   8  26
TORSDOF 6
ENDMDL
MODEL 6
REMARK VINA RESULT:    -6.443     12.606     14.335
REMARK INTER + INTRA:          -8.049
REMARK INTER:                  -7.838
REMARK INTRA:                  -0.211
REMARK UNBOUND:                -0.288
REMARK SMILES O=c1c(O)c(-c2ccc(O)c(O)c2)oc2cc(O)cc(O)c12
REMARK SMILES IDX 5 1 3 2 2 3 1 4 22 5 20 6 19 7 17 8 16 9 15 10 14 11 6 12
REMARK SMILES IDX 7 13 8 14 9 15 13 16 11 17 10 18 12 20 4 22 21 24 18 26
REMARK H PARENT 10 19 12 21 4 23 21 25 18 27
REMARK Flexibility Score: inf
ROOT
ATOM      1  C   UNL     1       5.477  -7.006  -4.102  1.00  0.00     0.180 A 
ATOM      2  C   UNL     1       6.749  -7.289  -3.573  1.00  0.00     0.208 A 
ATOM      3  C   UNL     1       7.882  -7.085  -4.379  1.00  0.00     0.238 A 
ATOM      4  O   UNL     1       9.021  -7.288  -3.881  1.00  0.00    -0.285 OA
ATOM      5  C   UNL     1       7.728  -6.616  -5.705  1.00  0.00     0.111 A 
ATOM      6  C   UNL     1       8.803  -6.413  -6.623  1.00  0.00     0.134 A 
ATOM      7  C   UNL     1       8.547  -5.822  -7.865  1.00  0.00     0.093 A 
ATOM      8  C   UNL     1       7.249  -5.489  -8.252  1.00  0.00     0.123 A 
ATOM      9  C   UNL     1       6.184  -5.739  -7.387  1.00  0.00     0.094 A 
ATOM     10  C   UNL     1       6.411  -6.294  -6.125  1.00  0.00     0.146 A 
ATOM     11  O   UNL     1       5.371  -6.506  -5.328  1.00  0.00    -0.452 OA
ENDROOT
BRANCH   1  12
ATOM     12  C   UNL     1       4.236  -7.219  -3.324  1.00  0.00     0.025 A 
ATOM     13  C   UNL     1       3.429  -6.121  -2.998  1.00  0.00     0.016 A 
ATOM     14  C   UNL     1       2.243  -6.302  -2.283  1.00  0.00     0.051 A 
ATOM     15  C   UNL     1       1.834  -7.581  -1.892  1.00  0.00     0.157 A 
ATOM     16  C   UNL     1       3.817  -8.508  -2.952  1.00  0.00     0.062 A 
ATOM     17  C   UNL     1       2.628  -8.700  -2.237  1.00  0.00     0.158 A 
BRANCH  15  18
ATOM     18  O   UNL     1       0.643  -7.693  -1.172  1.00  0.00    -0.504 OA
ATOM     19  H   UNL     1       0.195  -8.572  -0.956  1.00  0.00     0.293 HD
ENDBRANCH  15  18
BRANCH  17  20
ATOM     20  O   UNL     1       2.275 -10.008  -1.899  1.00  0.00    -0.504 OA
ATOM     21  H   UNL     1       2.035 -10.721  -2.575  1.00  0.00     0.293 HD
ENDBRANCH  17  20
ENDBRANCH   1  12
BRANCH   2  22
ATOM     22  O   UNL     1       6.880  -7.730  -2.253  1.00  0.00    -0.502 OA
ATOM     23  H   UNL     1       7.269  -8.635  -2.019  1.00  0.00     0.293 HD
ENDBRANCH   2  22
BRANCH   6  24
ATOM     24  O   UNL     1      10.125  -6.795  -6.373  1.00  0.00    -0.507 OA
ATOM     25  H   UNL     1      10.569  -6.769  -5.467  1.00  0.00     0.293 HD
ENDBRANCH   6  24
BRANCH   8  26
ATOM     26  O   UNL     1       7.030  -4.917  -9.504  1.00  0.00    -0.508 OA
ATOM     27  H   UNL     1       6.163  -5.065 -10.009  1.00  0.00     0.293 HD
ENDBRANCH   8  26
TORSDOF 6
ENDMDL
MODEL 7
REMARK VINA RESULT:    -6.278     12.538     15.153
REMARK INTER + INTRA:          -7.850
REMARK INTER:                  -7.622
REMARK INTRA:                  -0.229
REMARK UNBOUND:                -0.288
REMARK SMILES O=c1c(O)c(-c2ccc(O)c(O)c2)oc2cc(O)cc(O)c12
REMARK SMILES IDX 5 1 3 2 2 3 1 4 22 5 20 6 19 7 17 8 16 9 15 10 14 11 6 12
REMARK SMILES IDX 7 13 8 14 9 15 13 16 11 17 10 18 12 20 4 22 21 24 18 26
REMARK H PARENT 10 19 12 21 4 23 21 25 18 27
REMARK Flexibility Score: inf
ROOT
ATOM      1  C   UNL     1       4.899   2.354   8.768  1.00  0.00     0.180 A 
ATOM      2  C   UNL     1       6.002   1.604   9.212  1.00  0.00     0.208 A 
ATOM      3  C   UNL     1       7.299   2.069   8.934  1.00  0.00     0.238 A 
ATOM      4  O   UNL     1       8.281   1.422   9.382  1.00  0.00    -0.285 OA
ATOM      5  C   UNL     1       7.475   3.268   8.203  1.00  0.00     0.111 A 
ATOM      6  C   UNL     1       8.741   3.811   7.829  1.00  0.00     0.134 A 
ATOM      7  C   UNL     1       8.800   5.069   7.220  1.00  0.00     0.093 A 
ATOM      8  C   UNL     1       7.638   5.775   6.910  1.00  0.00     0.123 A 
ATOM      9  C   UNL     1       6.392   5.227   7.216  1.00  0.00     0.094 A 
ATOM     10  C   UNL     1       6.302   3.989   7.857  1.00  0.00     0.146 A 
ATOM     11  O   UNL     1       5.098   3.508   8.141  1.00  0.00    -0.452 OA
ENDROOT
BRANCH   1  12
ATOM     12  C   UNL     1       3.505   1.915   9.000  1.00  0.00     0.025 A 
ATOM     13  C   UNL     1       2.672   2.676   9.832  1.00  0.00     0.016 A 
ATOM     14  C   UNL     1       1.347   2.292  10.049  1.00  0.00     0.051 A 
ATOM     15  C   UNL     1       0.824   1.153   9.430  1.00  0.00     0.157 A 
ATOM     16  C   UNL     1       2.976   0.782   8.359  1.00  0.00     0.062 A 
ATOM     17  C   UNL     1       1.647   0.391   8.568  1.00  0.00     0.158 A 
BRANCH  15  18
ATOM     18  O   UNL     1      -0.506   0.818   9.695  1.00  0.00    -0.504 OA
ATOM     19  H   UNL     1      -1.078   0.255   9.083  1.00  0.00     0.293 HD
ENDBRANCH  15  18
BRANCH  17  20
ATOM     20  O   UNL     1       1.191  -0.747   7.899  1.00  0.00    -0.504 OA
ATOM     21  H   UNL     1       1.719  -1.235   7.189  1.00  0.00     0.293 HD
ENDBRANCH  17  20
ENDBRANCH   1  12
BRANCH   2  22
ATOM     22  O   UNL     1       5.806   0.435   9.953  1.00  0.00    -0.502 OA
ATOM     23  H   UNL     1       6.575  -0.131  10.290  1.00  0.00     0.293 HD
ENDBRANCH   2  22
BRANCH   6  24
ATOM     24  O   UNL     1       9.958   3.147   8.010  1.00  0.00    -0.507 OA
ATOM     25  H   UNL     1      10.357   2.490   7.357  1.00  0.00     0.293 HD
ENDBRANCH   6  24
BRANCH   8  26
ATOM     26  O   UNL     1       7.734   7.019   6.288  1.00  0.00    -0.508 OA
ATOM     27  H   UNL     1       7.929   7.862   6.816  1.00  0.00     0.293 HD
ENDBRANCH   8  26
TORSDOF 6
ENDMDL
MODEL 8
REMARK VINA RESULT:    -6.250      3.532      7.047
REMARK INTER + INTRA:          -7.817
REMARK INTER:                  -7.489
REMARK INTRA:                  -0.328
REMARK UNBOUND:                -0.288
REMARK SMILES O=c1c(O)c(-c2ccc(O)c(O)c2)oc2cc(O)cc(O)c12
REMARK SMILES IDX 5 1 3 2 2 3 1 4 22 5 20 6 19 7 17 8 16 9 15 10 14 11 6 12
REMARK SMILES IDX 7 13 8 14 9 15 13 16 11 17 10 18 12 20 4 22 21 24 18 26
REMARK H PARENT 10 19 12 21 4 23 21 25 18 27
REMARK Flexibility Score: inf
ROOT
ATOM      1  C   UNL     1       7.934   6.759  -1.774  1.00  0.00     0.180 A 
ATOM      2  C   UNL     1       8.719   5.695  -2.252  1.00  0.00     0.208 A 
ATOM      3  C   UNL     1       8.411   5.129  -3.501  1.00  0.00     0.238 A 
ATOM      4  O   UNL     1       9.151   4.214  -3.948  1.00  0.00    -0.285 OA
ATOM      5  C   UNL     1       7.315   5.624  -4.247  1.00  0.00     0.111 A 
ATOM      6  C   UNL     1       6.888   5.100  -5.504  1.00  0.00     0.134 A 
ATOM      7  C   UNL     1       5.872   5.751  -6.214  1.00  0.00     0.093 A 
ATOM      8  C   UNL     1       5.222   6.865  -5.685  1.00  0.00     0.123 A 
ATOM      9  C   UNL     1       5.591   7.349  -4.429  1.00  0.00     0.094 A 
ATOM     10  C   UNL     1       6.626   6.744  -3.712  1.00  0.00     0.146 A 
ATOM     11  O   UNL     1       6.953   7.242  -2.527  1.00  0.00    -0.452 OA
ENDROOT
BRANCH   1  12
ATOM     12  C   UNL     1       8.181   7.389  -0.457  1.00  0.00     0.025 A 
ATOM     13  C   UNL     1       9.044   8.489  -0.370  1.00  0.00     0.016 A 
ATOM     14  C   UNL     1       9.275   9.112   0.859  1.00  0.00     0.051 A 
ATOM     15  C   UNL     1       8.640   8.658   2.019  1.00  0.00     0.157 A 
ATOM     16  C   UNL     1       7.523   6.944   0.703  1.00  0.00     0.062 A 
ATOM     17  C   UNL     1       7.746   7.564   1.939  1.00  0.00     0.158 A 
BRANCH  15  18
ATOM     18  O   UNL     1       8.920   9.318   3.217  1.00  0.00    -0.504 OA
ATOM     19  H   UNL     1       9.843   9.389   3.621  1.00  0.00     0.293 HD
ENDBRANCH  15  18
BRANCH  17  20
ATOM     20  O   UNL     1       7.061   7.068   3.050  1.00  0.00    -0.504 OA
ATOM     21  H   UNL     1       6.088   7.261   3.245  1.00  0.00     0.293 HD
ENDBRANCH  17  20
ENDBRANCH   1  12
BRANCH   2  22
ATOM     22  O   UNL     1       9.811   5.237  -1.509  1.00  0.00    -0.502 OA
ATOM     23  H   UNL     1      10.025   4.252  -1.408  1.00  0.00     0.293 HD
ENDBRANCH   2  22
BRANCH   6  24
ATOM     24  O   UNL     1       7.407   3.937  -6.082  1.00  0.00    -0.507 OA
ATOM     25  H   UNL     1       8.228   3.904  -6.667  1.00  0.00     0.293 HD
ENDBRANCH   6  24
BRANCH   8  26
ATOM     26  O   UNL     1       4.204   7.478  -6.412  1.00  0.00    -0.508 OA
ATOM     27  H   UNL     1       3.499   6.935  -6.898  1.00  0.00     0.293 HD
ENDBRANCH   8  26
TORSDOF 6
ENDMDL
MODEL 9
REMARK VINA RESULT:    -6.231     12.613     15.375
REMARK INTER + INTRA:          -7.794
REMARK INTER:                  -7.540
REMARK INTRA:                  -0.254
REMARK UNBOUND:                -0.288
REMARK SMILES O=c1c(O)c(-c2ccc(O)c(O)c2)oc2cc(O)cc(O)c12
REMARK SMILES IDX 5 1 3 2 2 3 1 4 22 5 20 6 19 7 17 8 16 9 15 10 14 11 6 12
REMARK SMILES IDX 7 13 8 14 9 15 13 16 11 17 10 18 12 20 4 22 21 24 18 26
REMARK H PARENT 10 19 12 21 4 23 21 25 18 27
REMARK Flexibility Score: inf
ROOT
ATOM      1  C   UNL     1       4.918  -7.911  -4.591  1.00  0.00     0.180 A 
ATOM      2  C   UNL     1       5.004  -6.536  -4.872  1.00  0.00     0.208 A 
ATOM      3  C   UNL     1       5.747  -6.114  -5.988  1.00  0.00     0.238 A 
ATOM      4  O   UNL     1       5.774  -4.887  -6.265  1.00  0.00    -0.285 OA
ATOM      5  C   UNL     1       6.406  -7.070  -6.797  1.00  0.00     0.111 A 
ATOM      6  C   UNL     1       7.218  -6.753  -7.927  1.00  0.00     0.134 A 
ATOM      7  C   UNL     1       7.715  -7.785  -8.732  1.00  0.00     0.093 A 
ATOM      8  C   UNL     1       7.485  -9.123  -8.412  1.00  0.00     0.123 A 
ATOM      9  C   UNL     1       6.743  -9.445  -7.275  1.00  0.00     0.094 A 
ATOM     10  C   UNL     1       6.203  -8.437  -6.472  1.00  0.00     0.146 A 
ATOM     11  O   UNL     1       5.494  -8.787  -5.407  1.00  0.00    -0.452 OA
ENDROOT
BRANCH   1  12
ATOM     12  C   UNL     1       4.176  -8.429  -3.419  1.00  0.00     0.025 A 
ATOM     13  C   UNL     1       4.883  -8.845  -2.283  1.00  0.00     0.016 A 
ATOM     14  C   UNL     1       4.202  -9.318  -1.160  1.00  0.00     0.051 A 
ATOM     15  C   UNL     1       2.805  -9.371  -1.142  1.00  0.00     0.157 A 
ATOM     16  C   UNL     1       2.771  -8.460  -3.398  1.00  0.00     0.062 A 
ATOM     17  C   UNL     1       2.078  -8.930  -2.274  1.00  0.00     0.158 A 
BRANCH  15  18
ATOM     18  O   UNL     1       2.184  -9.862   0.009  1.00  0.00    -0.504 OA
ATOM     19  H   UNL     1       2.397  -9.545   0.943  1.00  0.00     0.293 HD
ENDBRANCH  15  18
BRANCH  17  20
ATOM     20  O   UNL     1       0.683  -8.934  -2.323  1.00  0.00    -0.504 OA
ATOM     21  H   UNL     1       0.118  -8.099  -2.402  1.00  0.00     0.293 HD
ENDBRANCH  17  20
ENDBRANCH   1  12
BRANCH   2  22
ATOM     22  O   UNL     1       4.327  -5.611  -4.072  1.00  0.00    -0.502 OA
ATOM     23  H   UNL     1       4.166  -4.655  -4.365  1.00  0.00     0.293 HD
ENDBRANCH   2  22
BRANCH   6  24
ATOM     24  O   UNL     1       7.586  -5.452  -8.283  1.00  0.00    -0.507 OA
ATOM     25  H   UNL     1       6.951  -4.753  -8.639  1.00  0.00     0.293 HD
ENDBRANCH   6  24
BRANCH   8  26
ATOM     26  O   UNL     1       8.009 -10.125  -9.227  1.00  0.00    -0.508 OA
ATOM     27  H   UNL     1       8.494  -9.906 -10.090  1.00  0.00     0.293 HD
ENDBRANCH   8  26
TORSDOF 6
ENDMDL
