MODEL 1
REMARK VINA RESULT:    -2.871      0.000      0.000
REMARK INTER + INTRA:          -4.619
REMARK INTER:                  -3.879
REMARK INTRA:                  -0.741
REMARK UNBOUND:                -0.741
REMARK SMILES CCCCCCC=CC(=O)[O-]
REMARK SMILES IDX 5 1 6 2 7 3 8 4 9 5 10 6 11 7 4 8 3 9 2 10 1 11
REMARK H PARENT
REMARK Flexibility Score: inf
ROOT
ATOM      1  C   UNL     1      30.493   0.362   0.416  1.00  0.00     0.004 C 
ENDROOT
BRANCH   1   2
ATOM      2  C   UNL     1      30.048   0.339  -1.052  1.00  0.00     0.027 C 
BRANCH   2   3
ATOM      3  C   UNL     1      28.563   0.141  -1.167  1.00  0.00    -0.025 C 
ATOM      4  C   UNL     1      27.763   0.214  -0.098  1.00  0.00     0.020 C 
BRANCH   4   5
ATOM      5  C   UNL     1      26.311   0.011  -0.194  1.00  0.00     0.064 C 
ATOM      6  O   UNL     1      25.688  -0.486   0.780  1.00  0.00    -0.545 OA
ATOM      7  O   UNL     1      25.614   0.357  -1.345  1.00  0.00    -0.545 OA
ENDBRANCH   4   5
ENDBRANCH   2   3
ENDBRANCH   1   2
BRANCH   1   8
ATOM      8  C   UNL     1      31.657  -0.612   0.651  1.00  0.00     0.000 C 
BRANCH   8   9
ATOM      9  C   UNL     1      31.193  -2.070   0.824  1.00  0.00    -0.000 C 
BRANCH   9  10
ATOM     10  C   UNL     1      29.944  -2.251   1.706  1.00  0.00    -0.003 C 
ATOM     11  C   UNL     1      28.855  -3.088   1.036  1.00  0.00     0.004 C 
ENDBRANCH   9  10
ENDBRANCH   8   9
ENDBRANCH   1   8
TORSDOF 6
ENDMDL
MODEL 2
REMARK VINA RESULT:    -2.850      1.117      2.602
REMARK INTER + INTRA:          -4.591
REMARK INTER:                  -3.971
REMARK INTRA:                  -0.619
REMARK UNBOUND:                -0.741
REMARK SMILES CCCCCCC=CC(=O)[O-]
REMARK SMILES IDX 5 1 6 2 7 3 8 4 9 5 10 6 11 7 4 8 3 9 2 10 1 11
REMARK H PARENT
REMARK Flexibility Score: inf
ROOT
ATOM      1  C   UNL     1      29.520  -2.255   1.783  1.00  0.00     0.004 C 
ENDROOT
BRANCH   1   2
ATOM      2  C   UNL     1      28.474  -2.611   0.719  1.00  0.00     0.027 C 
BRANCH   2   3
ATOM      3  C   UNL     1      27.411  -1.553   0.626  1.00  0.00    -0.025 C 
ATOM      4  C   UNL     1      27.594  -0.439  -0.090  1.00  0.00     0.020 C 
BRANCH   4   5
ATOM      5  C   UNL     1      26.569   0.610  -0.179  1.00  0.00     0.064 C 
ATOM      6  O   UNL     1      26.678   1.647   0.524  1.00  0.00    -0.545 OA
ATOM      7  O   UNL     1      25.477   0.473  -1.029  1.00  0.00    -0.545 OA
ENDBRANCH   4   5
ENDBRANCH   2   3
ENDBRANCH   1   2
BRANCH   1   8
ATOM      8  C   UNL     1      30.942  -2.487   1.253  1.00  0.00     0.000 C 
BRANCH   8   9
ATOM      9  C   UNL     1      31.351  -1.472   0.170  1.00  0.00    -0.000 C 
BRANCH   9  10
ATOM     10  C   UNL     1      31.521  -0.026   0.670  1.00  0.00    -0.003 C 
ATOM     11  C   UNL     1      30.919   1.010  -0.279  1.00  0.00     0.004 C 
ENDBRANCH   9  10
ENDBRANCH   8   9
ENDBRANCH   1   8
TORSDOF 6
ENDMDL
MODEL 3
REMARK VINA RESULT:    -2.849      3.545      4.884
REMARK INTER + INTRA:          -4.589
REMARK INTER:                  -3.864
REMARK INTRA:                  -0.725
REMARK UNBOUND:                -0.741
REMARK SMILES CCCCCCC=CC(=O)[O-]
REMARK SMILES IDX 5 1 6 2 7 3 8 4 9 5 10 6 11 7 4 8 3 9 2 10 1 11
REMARK H PARENT
REMARK Flexibility Score: inf
ROOT
ATOM      1  C   UNL     1      28.907  -0.988  -0.443  1.00  0.00     0.004 C 
ENDROOT
BRANCH   1   2
ATOM      2  C   UNL     1      28.152  -1.748   0.654  1.00  0.00     0.027 C 
BRANCH   2   3
ATOM      3  C   UNL     1      29.082  -2.612   1.456  1.00  0.00    -0.025 C 
ATOM      4  C   UNL     1      30.001  -3.385   0.867  1.00  0.00     0.020 C 
BRANCH   4   5
ATOM      5  C   UNL     1      30.909  -4.245   1.639  1.00  0.00     0.064 C 
ATOM      6  O   UNL     1      32.080  -3.854   1.880  1.00  0.00    -0.545 OA
ATOM      7  O   UNL     1      30.494  -5.487   2.106  1.00  0.00    -0.545 OA
ENDBRANCH   4   5
ENDBRANCH   2   3
ENDBRANCH   1   2
BRANCH   1   8
ATOM      8  C   UNL     1      29.301   0.417   0.035  1.00  0.00     0.000 C 
BRANCH   8   9
ATOM      9  C   UNL     1      30.783   0.746  -0.228  1.00  0.00    -0.000 C 
BRANCH   9  10
ATOM     10  C   UNL     1      31.782  -0.013   0.664  1.00  0.00    -0.003 C 
ATOM     11  C   UNL     1      32.744  -0.895  -0.130  1.00  0.00     0.004 C 
ENDBRANCH   9  10
ENDBRANCH   8   9
ENDBRANCH   1   8
TORSDOF 6
ENDMDL
MODEL 4
REMARK VINA RESULT:    -2.840      1.309      3.025
REMARK INTER + INTRA:          -4.577
REMARK INTER:                  -3.982
REMARK INTRA:                  -0.595
REMARK UNBOUND:                -0.741
REMARK SMILES CCCCCCC=CC(=O)[O-]
REMARK SMILES IDX 5 1 6 2 7 3 8 4 9 5 10 6 11 7 4 8 3 9 2 10 1 11
REMARK H PARENT
REMARK Flexibility Score: inf
ROOT
ATOM      1  C   UNL     1      30.685  -3.543   0.578  1.00  0.00     0.004 C 
ENDROOT
BRANCH   1   2
ATOM      2  C   UNL     1      29.478  -3.471   1.522  1.00  0.00     0.027 C 
BRANCH   2   3
ATOM      3  C   UNL     1      28.672  -2.227   1.279  1.00  0.00    -0.025 C 
ATOM      4  C   UNL     1      27.652  -2.212   0.415  1.00  0.00     0.020 C 
BRANCH   4   5
ATOM      5  C   UNL     1      26.863  -0.999   0.159  1.00  0.00     0.064 C 
ATOM      6  O   UNL     1      27.242  -0.186  -0.724  1.00  0.00    -0.545 OA
ATOM      7  O   UNL     1      25.703  -0.733   0.878  1.00  0.00    -0.545 OA
ENDBRANCH   4   5
ENDBRANCH   2   3
ENDBRANCH   1   2
BRANCH   1   8
ATOM      8  C   UNL     1      31.813  -2.618   1.060  1.00  0.00     0.000 C 
BRANCH   8   9
ATOM      9  C   UNL     1      32.150  -1.507   0.048  1.00  0.00    -0.000 C 
BRANCH   9  10
ATOM     10  C   UNL     1      31.985  -0.073   0.583  1.00  0.00    -0.003 C 
ATOM     11  C   UNL     1      30.672   0.580   0.153  1.00  0.00     0.004 C 
ENDBRANCH   9  10
ENDBRANCH   8   9
ENDBRANCH   1   8
TORSDOF 6
ENDMDL
MODEL 5
REMARK VINA RESULT:    -2.835      3.254      4.694
REMARK INTER + INTRA:          -4.571
REMARK INTER:                  -4.058
REMARK INTRA:                  -0.512
REMARK UNBOUND:                -0.741
REMARK SMILES CCCCCCC=CC(=O)[O-]
REMARK SMILES IDX 5 1 6 2 7 3 8 4 9 5 10 6 11 7 4 8 3 9 2 10 1 11
REMARK H PARENT
REMARK Flexibility Score: inf
ROOT
ATOM      1  C   UNL     1      30.575  -4.497   1.196  1.00  0.00     0.004 C 
ENDROOT
BRANCH   1   2
ATOM      2  C   UNL     1      29.422  -3.738   1.865  1.00  0.00     0.027 C 
BRANCH   2   3
ATOM      3  C   UNL     1      29.582  -2.253   1.702  1.00  0.00    -0.025 C 
ATOM      4  C   UNL     1      30.454  -1.735   0.831  1.00  0.00     0.020 C 
BRANCH   4   5
ATOM      5  C   UNL     1      30.630  -0.285   0.671  1.00  0.00     0.064 C 
ATOM      6  O   UNL     1      31.762   0.229   0.869  1.00  0.00    -0.545 OA
ATOM      7  O   UNL     1      29.565   0.530   0.304  1.00  0.00    -0.545 OA
ENDBRANCH   4   5
ENDBRANCH   2   3
ENDBRANCH   1   2
BRANCH   1   8
ATOM      8  C   UNL     1      30.999  -5.706   2.042  1.00  0.00     0.000 C 
BRANCH   8   9
ATOM      9  C   UNL     1      32.347  -5.494   2.756  1.00  0.00    -0.000 C 
BRANCH   9  10
ATOM     10  C   UNL     1      33.057  -4.170   2.418  1.00  0.00    -0.003 C 
ATOM     11  C   UNL     1      34.295  -4.361   1.544  1.00  0.00     0.004 C 
ENDBRANCH   9  10
ENDBRANCH   8   9
ENDBRANCH   1   8
TORSDOF 6
ENDMDL
MODEL 6
REMARK VINA RESULT:    -2.813      3.765      5.043
REMARK INTER + INTRA:          -4.541
REMARK INTER:                  -3.863
REMARK INTRA:                  -0.678
REMARK UNBOUND:                -0.741
REMARK SMILES CCCCCCC=CC(=O)[O-]
REMARK SMILES IDX 5 1 6 2 7 3 8 4 9 5 10 6 11 7 4 8 3 9 2 10 1 11
REMARK H PARENT
REMARK Flexibility Score: inf
ROOT
ATOM      1  C   UNL     1      29.451  -0.949  -0.047  1.00  0.00     0.004 C 
ENDROOT
BRANCH   1   2
ATOM      2  C   UNL     1      28.709  -1.732   1.044  1.00  0.00     0.027 C 
BRANCH   2   3
ATOM      3  C   UNL     1      29.616  -2.726   1.712  1.00  0.00    -0.025 C 
ATOM      4  C   UNL     1      30.112  -3.776   1.050  1.00  0.00     0.020 C 
BRANCH   4   5
ATOM      5  C   UNL     1      30.989  -4.763   1.695  1.00  0.00     0.064 C 
ATOM      6  O   UNL     1      30.603  -5.955   1.811  1.00  0.00    -0.545 OA
ATOM      7  O   UNL     1      32.241  -4.400   2.179  1.00  0.00    -0.545 OA
ENDBRANCH   4   5
ENDBRANCH   2   3
ENDBRANCH   1   2
BRANCH   1   8
ATOM      8  C   UNL     1      30.190   0.257   0.552  1.00  0.00     0.000 C 
BRANCH   8   9
ATOM      9  C   UNL     1      31.715   0.051   0.621  1.00  0.00    -0.000 C 
BRANCH   9  10
ATOM     10  C   UNL     1      32.321  -0.708  -0.574  1.00  0.00    -0.003 C 
ATOM     11  C   UNL     1      33.278  -1.821  -0.153  1.00  0.00     0.004 C 
ENDBRANCH   9  10
ENDBRANCH   8   9
ENDBRANCH   1   8
TORSDOF 6
ENDMDL
MODEL 7
REMARK VINA RESULT:    -2.799      4.713      6.529
REMARK INTER + INTRA:          -4.522
REMARK INTER:                  -3.987
REMARK INTRA:                  -0.535
REMARK UNBOUND:                -0.741
REMARK SMILES CCCCCCC=CC(=O)[O-]
REMARK SMILES IDX 5 1 6 2 7 3 8 4 9 5 10 6 11 7 4 8 3 9 2 10 1 11
REMARK H PARENT
REMARK Flexibility Score: inf
ROOT
ATOM      1  C   UNL     1      29.549  -3.775   1.734  1.00  0.00     0.004 C 
ENDROOT
BRANCH   1   2
ATOM      2  C   UNL     1      30.603  -4.181   0.697  1.00  0.00     0.027 C 
BRANCH   2   3
ATOM      3  C   UNL     1      31.994  -3.934   1.209  1.00  0.00    -0.025 C 
ATOM      4  C   UNL     1      32.489  -4.617   2.245  1.00  0.00     0.020 C 
BRANCH   4   5
ATOM      5  C   UNL     1      33.843  -4.376   2.765  1.00  0.00     0.064 C 
ATOM      6  O   UNL     1      34.821  -4.375   1.973  1.00  0.00    -0.545 OA
ATOM      7  O   UNL     1      34.060  -4.149   4.119  1.00  0.00    -0.545 OA
ENDBRANCH   4   5
ENDBRANCH   2   3
ENDBRANCH   1   2
BRANCH   1   8
ATOM      8  C   UNL     1      29.541  -2.253   1.941  1.00  0.00     0.000 C 
BRANCH   8   9
ATOM      9  C   UNL     1      29.338  -1.472   0.630  1.00  0.00    -0.000 C 
BRANCH   9  10
ATOM     10  C   UNL     1      30.118  -0.148   0.537  1.00  0.00    -0.003 C 
ATOM     11  C   UNL     1      31.633  -0.340   0.609  1.00  0.00     0.004 C 
ENDBRANCH   9  10
ENDBRANCH   8   9
ENDBRANCH   1   8
TORSDOF 6
ENDMDL
MODEL 8
REMARK VINA RESULT:    -2.751      2.456      3.281
REMARK INTER + INTRA:          -4.457
REMARK INTER:                  -4.136
REMARK INTRA:                  -0.321
REMARK UNBOUND:                -0.741
REMARK SMILES CCCCCCC=CC(=O)[O-]
REMARK SMILES IDX 5 1 6 2 7 3 8 4 9 5 10 6 11 7 4 8 3 9 2 10 1 11
REMARK H PARENT
REMARK Flexibility Score: inf
ROOT
ATOM      1  C   UNL     1      31.116  -2.839   1.346  1.00  0.00     0.004 C 
ENDROOT
BRANCH   1   2
ATOM      2  C   UNL     1      29.656  -2.860   1.818  1.00  0.00     0.027 C 
BRANCH   2   3
ATOM      3  C   UNL     1      28.854  -1.777   1.153  1.00  0.00    -0.025 C 
ATOM      4  C   UNL     1      27.628  -2.009   0.674  1.00  0.00     0.020 C 
BRANCH   4   5
ATOM      5  C   UNL     1      26.838  -0.963   0.010  1.00  0.00     0.064 C 
ATOM      6  O   UNL     1      26.129  -0.187   0.702  1.00  0.00    -0.545 OA
ATOM      7  O   UNL     1      26.860  -0.818  -1.373  1.00  0.00    -0.545 OA
ENDBRANCH   4   5
ENDBRANCH   2   3
ENDBRANCH   1   2
BRANCH   1   8
ATOM      8  C   UNL     1      31.829  -4.148   1.714  1.00  0.00     0.000 C 
BRANCH   8   9
ATOM      9  C   UNL     1      31.027  -5.400   1.313  1.00  0.00    -0.000 C 
BRANCH   9  10
ATOM     10  C   UNL     1      30.707  -6.363   2.470  1.00  0.00    -0.003 C 
ATOM     11  C   UNL     1      31.807  -6.413   3.529  1.00  0.00     0.004 C 
ENDBRANCH   9  10
ENDBRANCH   8   9
ENDBRANCH   1   8
TORSDOF 6
ENDMDL
MODEL 9
REMARK VINA RESULT:    -2.693      1.309      1.557
REMARK INTER + INTRA:          -4.378
REMARK INTER:                  -3.612
REMARK INTRA:                  -0.766
REMARK UNBOUND:                -0.741
REMARK SMILES CCCCCCC=CC(=O)[O-]
REMARK SMILES IDX 5 1 6 2 7 3 8 4 9 5 10 6 11 7 4 8 3 9 2 10 1 11
REMARK H PARENT
REMARK Flexibility Score: inf
ROOT
ATOM      1  C   UNL     1      31.265  -0.345   0.610  1.00  0.00     0.004 C 
ENDROOT
BRANCH   1   2
ATOM      2  C   UNL     1      30.492   0.200  -0.597  1.00  0.00     0.027 C 
BRANCH   2   3
ATOM      3  C   UNL     1      29.147  -0.457  -0.724  1.00  0.00    -0.025 C 
ATOM      4  C   UNL     1      28.277  -0.470   0.291  1.00  0.00     0.020 C 
BRANCH   4   5
ATOM      5  C   UNL     1      26.963  -1.120   0.185  1.00  0.00     0.064 C 
ATOM      6  O   UNL     1      26.874  -2.258  -0.344  1.00  0.00    -0.545 OA
ATOM      7  O   UNL     1      25.815  -0.497   0.661  1.00  0.00    -0.545 OA
ENDBRANCH   4   5
ENDBRANCH   2   3
ENDBRANCH   1   2
BRANCH   1   8
ATOM      8  C   UNL     1      31.677  -1.807   0.383  1.00  0.00     0.000 C 
BRANCH   8   9
ATOM      9  C   UNL     1      31.063  -2.770   1.415  1.00  0.00    -0.000 C 
BRANCH   9  10
ATOM     10  C   UNL     1      30.022  -3.751   0.846  1.00  0.00    -0.003 C 
ATOM     11  C   UNL     1      30.208  -4.022  -0.646  1.00  0.00     0.004 C 
ENDBRANCH   9  10
ENDBRANCH   8   9
ENDBRANCH   1   8
TORSDOF 6
ENDMDL
