MODEL 1
REMARK VINA RESULT:    -3.879      0.000      0.000
REMARK INTER + INTRA:          -6.346
REMARK INTER:                  -5.920
REMARK INTRA:                  -0.426
REMARK UNBOUND:                -0.426
REMARK SMILES CC1=CCC[C@@H](C)C(=O)C[C@@H](C(C)C)C(=O)C1
REMARK SMILES IDX 8 1 9 2 6 3 7 4 5 5 4 6 3 7 2 8 1 9 10 11 11 12 15 13 16 14
REMARK SMILES IDX 17 15 12 17 13 18 14 19
REMARK H PARENT
REMARK Flexibility Score: 70.00
ROOT
ATOM      1  C   UNL     1      14.009 110.888  21.059  1.00  0.00     0.136 C 
ATOM      2  O   UNL     1      14.839 110.792  21.951  1.00  0.00    -0.299 OA
ENDROOT
BRANCH   1   3
ATOM      3  C   UNL     1      13.154 109.680  20.724  1.00  0.00     0.053 C 
ATOM      4  C   UNL     1      12.159 109.385  21.853  1.00  0.00     0.016 C 
BRANCH   3   5
ATOM      5  C   UNL     1      14.018 108.444  20.408  1.00  0.00     0.015 C 
BRANCH   5   6
ATOM      6  C   UNL     1      14.432 108.393  18.926  1.00  0.00     0.028 C 
BRANCH   6   7
ATOM      7  C   UNL     1      15.843 108.892  18.749  1.00  0.00    -0.028 C 
ATOM      8  C   UNL     1      16.187 109.977  18.017  1.00  0.00    -0.070 CG0
ATOM      9  C   UNL     1      17.640 110.380  17.992  1.00  0.00     0.039 C 
ATOM     10  G   UNL     1      15.181 110.788  17.215  1.00  0.00     0.000 G0
ENDBRANCH   6   7
ENDBRANCH   5   6
ENDBRANCH   3   5
ENDBRANCH   1   3
BRANCH   1  11
ATOM     11  C   UNL     1      13.895 112.198  20.310  1.00  0.00     0.087 C 
BRANCH  11  12
ATOM     12  C   UNL     1      13.500 111.992  18.822  1.00  0.00     0.066 C 
BRANCH  12  13
ATOM     13  C   UNL     1      14.723 112.025  17.916  1.00  0.00     0.140 C 
ATOM     14  O   UNL     1      15.306 113.082  17.720  1.00  0.00    -0.299 OA
BRANCH  13  15
ATOM     15  C   UNL     1      15.185 110.788  17.185  1.00  0.00     0.106 CG0
ATOM     16  G   UNL     1      16.192 109.985  17.994  1.00  0.00     0.000 G0
ENDBRANCH  13  15
ENDBRANCH  12  13
BRANCH  12  17
ATOM     17  C   UNL     1      12.419 113.001  18.319  1.00  0.00    -0.006 C 
ATOM     18  C   UNL     1      11.451 113.483  19.416  1.00  0.00     0.008 C 
ATOM     19  C   UNL     1      11.623 112.432  17.132  1.00  0.00     0.008 C 
ENDBRANCH  12  17
ENDBRANCH  11  12
ENDBRANCH   1  11
TORSDOF 1
ENDMDL
MODEL 2
REMARK VINA RESULT:    -3.749      5.761      8.908
REMARK INTER + INTRA:          -6.148
REMARK INTER:                  -6.030
REMARK INTRA:                  -0.118
REMARK UNBOUND:                -0.426
REMARK SMILES CC1=CCC[C@@H](C)C(=O)C[C@@H](C(C)C)C(=O)C1
REMARK SMILES IDX 8 1 9 2 6 3 7 4 5 5 4 6 3 7 2 8 1 9 10 11 11 12 15 13 16 14
REMARK SMILES IDX 17 15 12 17 13 18 14 19
REMARK H PARENT
REMARK Flexibility Score: 70.00
ROOT
ATOM      1  C   UNL     1       9.394 117.885  18.840  1.00  0.00     0.136 C 
ATOM      2  O   UNL     1       9.755 119.051  18.902  1.00  0.00    -0.299 OA
ENDROOT
BRANCH   1   3
ATOM      3  C   UNL     1       7.968 117.542  19.229  1.00  0.00     0.053 C 
ATOM      4  C   UNL     1       7.020 117.709  18.035  1.00  0.00     0.016 C 
BRANCH   3   5
ATOM      5  C   UNL     1       7.493 118.374  20.436  1.00  0.00     0.015 C 
BRANCH   5   6
ATOM      6  C   UNL     1       7.905 117.736  21.775  1.00  0.00     0.028 C 
BRANCH   6   7
ATOM      7  C   UNL     1       9.008 118.528  22.426  1.00  0.00    -0.028 C 
ATOM      8  C   UNL     1      10.287 118.103  22.551  1.00  0.00    -0.070 CG0
ATOM      9  C   UNL     1      11.287 119.044  23.175  1.00  0.00     0.039 C 
ATOM     10  G   UNL     1      10.748 116.723  22.107  1.00  0.00     0.000 G0
ENDBRANCH   6   7
ENDBRANCH   5   6
ENDBRANCH   3   5
ENDBRANCH   1   3
BRANCH   1  11
ATOM     11  C   UNL     1      10.395 116.836  18.408  1.00  0.00     0.087 C 
BRANCH  11  12
ATOM     12  C   UNL     1      10.835 115.923  19.586  1.00  0.00     0.066 C 
BRANCH  12  13
ATOM     13  C   UNL     1      11.400 116.743  20.737  1.00  0.00     0.140 C 
ATOM     14  O   UNL     1      12.427 117.388  20.577  1.00  0.00    -0.299 OA
BRANCH  13  15
ATOM     15  C   UNL     1      10.762 116.712  22.105  1.00  0.00     0.106 CG0
ATOM     16  G   UNL     1      10.287 118.087  22.549  1.00  0.00     0.000 G0
ENDBRANCH  13  15
ENDBRANCH  12  13
BRANCH  12  17
ATOM     17  C   UNL     1      11.840 114.804  19.166  1.00  0.00    -0.006 C 
ATOM     18  C   UNL     1      12.338 114.921  17.713  1.00  0.00     0.008 C 
ATOM     19  C   UNL     1      11.257 113.401  19.407  1.00  0.00     0.008 C 
ENDBRANCH  12  17
ENDBRANCH  11  12
ENDBRANCH   1  11
TORSDOF 1
ENDMDL
MODEL 3
REMARK VINA RESULT:    -3.497     13.249     15.243
REMARK INTER + INTRA:          -5.763
REMARK INTER:                  -5.483
REMARK INTRA:                  -0.280
REMARK UNBOUND:                -0.426
REMARK SMILES CC1=CCC[C@@H](C)C(=O)C[C@@H](C(C)C)C(=O)C1
REMARK SMILES IDX 8 1 9 2 6 3 7 4 5 5 4 6 3 7 2 8 1 9 10 11 11 12 15 13 16 14
REMARK SMILES IDX 17 15 12 17 13 18 14 19
REMARK H PARENT
REMARK Flexibility Score: 70.00
ROOT
ATOM      1  C   UNL     1      18.947 124.150  15.892  1.00  0.00     0.136 C 
ATOM      2  O   UNL     1      20.092 123.823  16.167  1.00  0.00    -0.299 OA
ENDROOT
BRANCH   1   3
ATOM      3  C   UNL     1      18.707 125.515  15.273  1.00  0.00     0.053 C 
ATOM      4  C   UNL     1      19.504 125.674  13.973  1.00  0.00     0.016 C 
BRANCH   3   5
ATOM      5  C   UNL     1      19.027 126.651  16.263  1.00  0.00     0.015 C 
BRANCH   5   6
ATOM      6  C   UNL     1      17.754 127.358  16.762  1.00  0.00     0.028 C 
BRANCH   6   7
ATOM      7  C   UNL     1      17.617 127.220  18.256  1.00  0.00    -0.028 C 
ATOM      8  C   UNL     1      16.704 126.434  18.874  1.00  0.00    -0.070 CG0
ATOM      9  C   UNL     1      16.740 126.359  20.379  1.00  0.00     0.039 C 
ATOM     10  G   UNL     1      15.646 125.643  18.119  1.00  0.00     0.000 G0
ENDBRANCH   6   7
ENDBRANCH   5   6
ENDBRANCH   3   5
ENDBRANCH   1   3
BRANCH   1  11
ATOM     11  C   UNL     1      17.820 123.191  16.210  1.00  0.00     0.087 C 
BRANCH  11  12
ATOM     12  C   UNL     1      16.446 123.910  16.301  1.00  0.00     0.066 C 
BRANCH  12  13
ATOM     13  C   UNL     1      16.096 124.251  17.742  1.00  0.00     0.140 C 
ATOM     14  O   UNL     1      16.125 123.378  18.598  1.00  0.00    -0.299 OA
BRANCH  13  15
ATOM     15  C   UNL     1      15.633 125.636  18.125  1.00  0.00     0.106 CG0
ATOM     16  G   UNL     1      16.704 126.412  18.876  1.00  0.00     0.000 G0
ENDBRANCH  13  15
ENDBRANCH  12  13
BRANCH  12  17
ATOM     17  C   UNL     1      15.281 123.114  15.629  1.00  0.00    -0.006 C 
ATOM     18  C   UNL     1      15.486 121.587  15.622  1.00  0.00     0.008 C 
ATOM     19  C   UNL     1      15.008 123.611  14.199  1.00  0.00     0.008 C 
ENDBRANCH  12  17
ENDBRANCH  11  12
ENDBRANCH   1  11
TORSDOF 1
ENDMDL
MODEL 4
REMARK VINA RESULT:    -3.467      2.763      5.538
REMARK INTER + INTRA:          -5.718
REMARK INTER:                  -5.667
REMARK INTRA:                  -0.051
REMARK UNBOUND:                -0.426
REMARK SMILES CC1=CCC[C@@H](C)C(=O)C[C@@H](C(C)C)C(=O)C1
REMARK SMILES IDX 8 1 9 2 6 3 7 4 5 5 4 6 3 7 2 8 1 9 10 11 11 12 15 13 16 14
REMARK SMILES IDX 17 15 12 17 13 18 14 19
REMARK H PARENT
REMARK Flexibility Score: 70.00
ROOT
ATOM      1  C   UNL     1      13.316 111.940  18.053  1.00  0.00     0.136 C 
ATOM      2  O   UNL     1      14.038 111.907  17.067  1.00  0.00    -0.299 OA
ENDROOT
BRANCH   1   3
ATOM      3  C   UNL     1      11.902 112.472  17.904  1.00  0.00     0.053 C 
ATOM      4  C   UNL     1      11.273 111.993  16.590  1.00  0.00     0.016 C 
BRANCH   3   5
ATOM      5  C   UNL     1      11.860 114.009  18.011  1.00  0.00     0.015 C 
BRANCH   5   6
ATOM      6  C   UNL     1      11.149 114.478  19.293  1.00  0.00     0.028 C 
BRANCH   6   7
ATOM      7  C   UNL     1      12.108 115.201  20.202  1.00  0.00    -0.028 C 
ATOM      8  C   UNL     1      12.567 114.712  21.378  1.00  0.00    -0.070 CG0
ATOM      9  C   UNL     1      13.574 115.535  22.141  1.00  0.00     0.039 C 
ATOM     10  G   UNL     1      12.102 113.386  21.962  1.00  0.00     0.000 G0
ENDBRANCH   6   7
ENDBRANCH   5   6
ENDBRANCH   3   5
ENDBRANCH   1   3
BRANCH   1  11
ATOM     11  C   UNL     1      13.875 111.477  19.380  1.00  0.00     0.087 C 
BRANCH  11  12
ATOM     12  C   UNL     1      12.772 111.337  20.466  1.00  0.00     0.066 C 
BRANCH  12  13
ATOM     13  C   UNL     1      13.050 112.247  21.654  1.00  0.00     0.140 C 
ATOM     14  O   UNL     1      14.000 112.016  22.388  1.00  0.00    -0.299 OA
BRANCH  13  15
ATOM     15  C   UNL     1      12.123 113.389  21.995  1.00  0.00     0.106 CG0
ATOM     16  G   UNL     1      12.569 114.699  21.365  1.00  0.00     0.000 G0
ENDBRANCH  13  15
ENDBRANCH  12  13
BRANCH  12  17
ATOM     17  C   UNL     1      12.551 109.866  20.942  1.00  0.00    -0.006 C 
ATOM     18  C   UNL     1      11.832 109.747  22.300  1.00  0.00     0.008 C 
ATOM     19  C   UNL     1      13.872 109.079  20.979  1.00  0.00     0.008 C 
ENDBRANCH  12  17
ENDBRANCH  11  12
ENDBRANCH   1  11
TORSDOF 1
ENDMDL
MODEL 5
REMARK VINA RESULT:    -3.391      2.290      4.346
REMARK INTER + INTRA:          -5.601
REMARK INTER:                  -5.230
REMARK INTRA:                  -0.371
REMARK UNBOUND:                -0.426
REMARK SMILES CC1=CCC[C@@H](C)C(=O)C[C@@H](C(C)C)C(=O)C1
REMARK SMILES IDX 8 1 9 2 6 3 7 4 5 5 4 6 3 7 2 8 1 9 10 11 11 12 15 13 16 14
REMARK SMILES IDX 17 15 12 17 13 18 14 19
REMARK H PARENT
REMARK Flexibility Score: 70.00
ROOT
ATOM      1  C   UNL     1      14.999 110.485  20.341  1.00  0.00     0.136 C 
ATOM      2  O   UNL     1      16.074 110.030  20.701  1.00  0.00    -0.299 OA
ENDROOT
BRANCH   1   3
ATOM      3  C   UNL     1      14.416 110.021  19.019  1.00  0.00     0.053 C 
ATOM      4  C   UNL     1      14.934 108.624  18.654  1.00  0.00     0.016 C 
BRANCH   3   5
ATOM      5  C   UNL     1      14.698 111.030  17.889  1.00  0.00     0.015 C 
BRANCH   5   6
ATOM      6  C   UNL     1      13.434 111.808  17.481  1.00  0.00     0.028 C 
BRANCH   6   7
ATOM      7  C   UNL     1      13.597 113.278  17.766  1.00  0.00    -0.028 C 
ATOM      8  C   UNL     1      12.878 113.966  18.684  1.00  0.00    -0.070 CG0
ATOM      9  C   UNL     1      13.207 115.423  18.892  1.00  0.00     0.039 C 
ATOM     10  G   UNL     1      11.753 113.340  19.493  1.00  0.00     0.000 G0
ENDBRANCH   6   7
ENDBRANCH   5   6
ENDBRANCH   3   5
ENDBRANCH   1   3
BRANCH   1  11
ATOM     11  C   UNL     1      14.314 111.513  21.215  1.00  0.00     0.087 C 
BRANCH  11  12
ATOM     12  C   UNL     1      12.769 111.486  21.054  1.00  0.00     0.066 C 
BRANCH  12  13
ATOM     13  C   UNL     1      12.211 112.888  20.855  1.00  0.00     0.140 C 
ATOM     14  O   UNL     1      12.075 113.630  21.817  1.00  0.00    -0.299 OA
BRANCH  13  15
ATOM     15  C   UNL     1      11.741 113.355  19.499  1.00  0.00     0.106 CG0
ATOM     16  G   UNL     1      12.869 113.965  18.680  1.00  0.00     0.000 G0
ENDBRANCH  13  15
ENDBRANCH  12  13
BRANCH  12  17
ATOM     17  C   UNL     1      12.033 110.765  22.228  1.00  0.00    -0.006 C 
ATOM     18  C   UNL     1      12.819 110.758  23.553  1.00  0.00     0.008 C 
ATOM     19  C   UNL     1      11.635 109.328  21.848  1.00  0.00     0.008 C 
ENDBRANCH  12  17
ENDBRANCH  11  12
ENDBRANCH   1  11
TORSDOF 1
ENDMDL
MODEL 6
REMARK VINA RESULT:    -3.367     12.976     14.328
REMARK INTER + INTRA:          -5.565
REMARK INTER:                  -5.481
REMARK INTRA:                  -0.085
REMARK UNBOUND:                -0.426
REMARK SMILES CC1=CCC[C@@H](C)C(=O)C[C@@H](C(C)C)C(=O)C1
REMARK SMILES IDX 8 1 9 2 6 3 7 4 5 5 4 6 3 7 2 8 1 9 10 11 11 12 15 13 16 14
REMARK SMILES IDX 17 15 12 17 13 18 14 19
REMARK H PARENT
REMARK Flexibility Score: 70.00
ROOT
ATOM      1  C   UNL     1      15.593 123.370  15.925  1.00  0.00     0.136 C 
ATOM      2  O   UNL     1      15.471 122.202  16.264  1.00  0.00    -0.299 OA
ENDROOT
BRANCH   1   3
ATOM      3  C   UNL     1      15.683 123.695  14.445  1.00  0.00     0.053 C 
ATOM      4  C   UNL     1      14.314 123.552  13.770  1.00  0.00     0.016 C 
BRANCH   3   5
ATOM      5  C   UNL     1      16.744 122.830  13.738  1.00  0.00     0.015 C 
BRANCH   5   6
ATOM      6  C   UNL     1      18.156 123.430  13.866  1.00  0.00     0.028 C 
BRANCH   6   7
ATOM      7  C   UNL     1      18.988 122.636  14.838  1.00  0.00    -0.028 C 
ATOM      8  C   UNL     1      19.498 123.128  15.992  1.00  0.00    -0.070 CG0
ATOM      9  C   UNL     1      20.259 122.183  16.888  1.00  0.00     0.039 C 
ATOM     10  G   UNL     1      19.350 124.584  16.408  1.00  0.00     0.000 G0
ENDBRANCH   6   7
ENDBRANCH   5   6
ENDBRANCH   3   5
ENDBRANCH   1   3
BRANCH   1  11
ATOM     11  C   UNL     1      15.680 124.433  16.998  1.00  0.00     0.087 C 
BRANCH  11  12
ATOM     12  C   UNL     1      16.868 125.407  16.766  1.00  0.00     0.066 C 
BRANCH  12  13
ATOM     13  C   UNL     1      18.168 124.831  17.311  1.00  0.00     0.140 C 
ATOM     14  O   UNL     1      18.284 124.621  18.510  1.00  0.00    -0.299 OA
BRANCH  13  15
ATOM     15  C   UNL     1      19.354 124.592  16.408  1.00  0.00     0.106 CG0
ATOM     16  G   UNL     1      19.472 123.134  15.991  1.00  0.00     0.000 G0
ENDBRANCH  13  15
ENDBRANCH  12  13
BRANCH  12  17
ATOM     17  C   UNL     1      16.621 126.839  17.338  1.00  0.00    -0.006 C 
ATOM     18  C   UNL     1      17.900 127.683  17.493  1.00  0.00     0.008 C 
ATOM     19  C   UNL     1      15.861 126.789  18.675  1.00  0.00     0.008 C 
ENDBRANCH  12  17
ENDBRANCH  11  12
ENDBRANCH   1  11
TORSDOF 1
ENDMDL
MODEL 7
REMARK VINA RESULT:    -3.317      5.732      8.640
REMARK INTER + INTRA:          -5.488
REMARK INTER:                  -5.222
REMARK INTRA:                  -0.266
REMARK UNBOUND:                -0.426
REMARK SMILES CC1=CCC[C@@H](C)C(=O)C[C@@H](C(C)C)C(=O)C1
REMARK SMILES IDX 8 1 9 2 6 3 7 4 5 5 4 6 3 7 2 8 1 9 10 11 11 12 15 13 16 14
REMARK SMILES IDX 17 15 12 17 13 18 14 19
REMARK H PARENT
REMARK Flexibility Score: 70.00
ROOT
ATOM      1  C   UNL     1       8.352 118.138  19.829  1.00  0.00     0.136 C 
ATOM      2  O   UNL     1       7.329 117.915  19.198  1.00  0.00    -0.299 OA
ENDROOT
BRANCH   1   3
ATOM      3  C   UNL     1       9.438 118.980  19.184  1.00  0.00     0.053 C 
ATOM      4  C   UNL     1       8.931 120.398  18.897  1.00  0.00     0.016 C 
BRANCH   3   5
ATOM      5  C   UNL     1       9.986 118.317  17.906  1.00  0.00     0.015 C 
BRANCH   5   6
ATOM      6  C   UNL     1      11.367 117.676  18.135  1.00  0.00     0.028 C 
BRANCH   6   7
ATOM      7  C   UNL     1      11.245 116.181  18.275  1.00  0.00    -0.028 C 
ATOM      8  C   UNL     1      11.422 115.501  19.433  1.00  0.00    -0.070 CG0
ATOM      9  C   UNL     1      11.202 114.010  19.417  1.00  0.00     0.039 C 
ATOM     10  G   UNL     1      11.843 116.173  20.731  1.00  0.00     0.000 G0
ENDBRANCH   6   7
ENDBRANCH   5   6
ENDBRANCH   3   5
ENDBRANCH   1   3
BRANCH   1  11
ATOM     11  C   UNL     1       8.499 117.538  21.210  1.00  0.00     0.087 C 
BRANCH  11  12
ATOM     12  C   UNL     1       9.946 117.679  21.760  1.00  0.00     0.066 C 
BRANCH  12  13
ATOM     13  C   UNL     1      10.693 116.354  21.691  1.00  0.00     0.140 C 
ATOM     14  O   UNL     1      10.404 115.453  22.466  1.00  0.00    -0.299 OA
BRANCH  13  15
ATOM     15  C   UNL     1      11.845 116.157  20.736  1.00  0.00     0.106 CG0
ATOM     16  G   UNL     1      11.411 115.482  19.444  1.00  0.00     0.000 G0
ENDBRANCH  13  15
ENDBRANCH  12  13
BRANCH  12  17
ATOM     17  C   UNL     1      10.008 118.268  23.205  1.00  0.00    -0.006 C 
ATOM     18  C   UNL     1       8.913 117.735  24.149  1.00  0.00     0.008 C 
ATOM     19  C   UNL     1       9.981 119.806  23.190  1.00  0.00     0.008 C 
ENDBRANCH  12  17
ENDBRANCH  11  12
ENDBRANCH   1  11
TORSDOF 1
ENDMDL
MODEL 8
REMARK VINA RESULT:    -3.274      2.789      5.066
REMARK INTER + INTRA:          -5.422
REMARK INTER:                  -5.105
REMARK INTRA:                  -0.317
REMARK UNBOUND:                -0.426
REMARK SMILES CC1=CCC[C@@H](C)C(=O)C[C@@H](C(C)C)C(=O)C1
REMARK SMILES IDX 8 1 9 2 6 3 7 4 5 5 4 6 3 7 2 8 1 9 10 11 11 12 15 13 16 14
REMARK SMILES IDX 17 15 12 17 13 18 14 19
REMARK H PARENT
REMARK Flexibility Score: 70.00
ROOT
ATOM      1  C   UNL     1      13.090 114.563  19.888  1.00  0.00     0.136 C 
ATOM      2  O   UNL     1      13.695 115.553  19.505  1.00  0.00    -0.299 OA
ENDROOT
BRANCH   1   3
ATOM      3  C   UNL     1      11.701 114.739  20.475  1.00  0.00     0.053 C 
ATOM      4  C   UNL     1      10.989 115.941  19.844  1.00  0.00     0.016 C 
BRANCH   3   5
ATOM      5  C   UNL     1      11.746 114.864  22.010  1.00  0.00     0.015 C 
BRANCH   5   6
ATOM      6  C   UNL     1      11.318 113.560  22.708  1.00  0.00     0.028 C 
BRANCH   6   7
ATOM      7  C   UNL     1      12.517 112.823  23.245  1.00  0.00    -0.028 C 
ATOM      8  C   UNL     1      12.951 111.626  22.786  1.00  0.00    -0.070 CG0
ATOM      9  C   UNL     1      14.206 111.050  23.390  1.00  0.00     0.039 C 
ATOM     10  G   UNL     1      12.222 110.840  21.706  1.00  0.00     0.000 G0
ENDBRANCH   6   7
ENDBRANCH   5   6
ENDBRANCH   3   5
ENDBRANCH   1   3
BRANCH   1  11
ATOM     11  C   UNL     1      13.765 113.213  19.787  1.00  0.00     0.087 C 
BRANCH  11  12
ATOM     12  C   UNL     1      12.763 112.080  19.433  1.00  0.00     0.066 C 
BRANCH  12  13
ATOM     13  C   UNL     1      12.923 110.890  20.368  1.00  0.00     0.140 C 
ATOM     14  O   UNL     1      13.582 109.922  20.014  1.00  0.00    -0.299 OA
BRANCH  13  15
ATOM     15  C   UNL     1      12.214 110.844  21.700  1.00  0.00     0.106 CG0
ATOM     16  G   UNL     1      12.951 111.634  22.771  1.00  0.00     0.000 G0
ENDBRANCH  13  15
ENDBRANCH  12  13
BRANCH  12  17
ATOM     17  C   UNL     1      12.845 111.619  17.942  1.00  0.00    -0.006 C 
ATOM     18  C   UNL     1      14.195 111.920  17.265  1.00  0.00     0.008 C 
ATOM     19  C   UNL     1      11.696 112.209  17.105  1.00  0.00     0.008 C 
ENDBRANCH  12  17
ENDBRANCH  11  12
ENDBRANCH   1  11
TORSDOF 1
ENDMDL
MODEL 9
REMARK VINA RESULT:    -3.236      8.612     10.733
REMARK INTER + INTRA:          -5.364
REMARK INTER:                  -5.123
REMARK INTRA:                  -0.241
REMARK UNBOUND:                -0.426
REMARK SMILES CC1=CCC[C@@H](C)C(=O)C[C@@H](C(C)C)C(=O)C1
REMARK SMILES IDX 8 1 9 2 6 3 7 4 5 5 4 6 3 7 2 8 1 9 10 11 11 12 15 13 16 14
REMARK SMILES IDX 17 15 12 17 13 18 14 19
REMARK H PARENT
REMARK Flexibility Score: 70.00
ROOT
ATOM      1  C   UNL     1       8.709 120.858  21.278  1.00  0.00     0.136 C 
ATOM      2  O   UNL     1       8.719 122.022  20.904  1.00  0.00    -0.299 OA
ENDROOT
BRANCH   1   3
ATOM      3  C   UNL     1       7.909 120.496  22.516  1.00  0.00     0.053 C 
ATOM      4  C   UNL     1       6.437 120.894  22.351  1.00  0.00     0.016 C 
BRANCH   3   5
ATOM      5  C   UNL     1       8.515 121.125  23.786  1.00  0.00     0.015 C 
BRANCH   5   6
ATOM      6  C   UNL     1       9.604 120.232  24.408  1.00  0.00     0.028 C 
BRANCH   6   7
ATOM      7  C   UNL     1       9.104 118.821  24.579  1.00  0.00    -0.028 C 
ATOM      8  C   UNL     1       9.534 117.762  23.853  1.00  0.00    -0.070 CG0
ATOM      9  C   UNL     1       8.978 116.402  24.191  1.00  0.00     0.039 C 
ATOM     10  G   UNL     1      10.532 117.890  22.713  1.00  0.00     0.000 G0
ENDBRANCH   6   7
ENDBRANCH   5   6
ENDBRANCH   3   5
ENDBRANCH   1   3
BRANCH   1  11
ATOM     11  C   UNL     1       9.519 119.840  20.506  1.00  0.00     0.087 C 
BRANCH  11  12
ATOM     12  C   UNL     1       8.956 118.400  20.663  1.00  0.00     0.066 C 
BRANCH  12  13
ATOM     13  C   UNL     1       9.952 117.492  21.371  1.00  0.00     0.140 C 
ATOM     14  O   UNL     1      10.231 116.404  20.889  1.00  0.00    -0.299 OA
BRANCH  13  15
ATOM     15  C   UNL     1      10.544 117.875  22.706  1.00  0.00     0.106 CG0
ATOM     16  G   UNL     1       9.531 117.768  23.835  1.00  0.00     0.000 G0
ENDBRANCH  13  15
ENDBRANCH  12  13
BRANCH  12  17
ATOM     17  C   UNL     1       8.495 117.761  19.314  1.00  0.00    -0.006 C 
ATOM     18  C   UNL     1       9.408 118.092  18.119  1.00  0.00     0.008 C 
ATOM     19  C   UNL     1       7.040 118.133  18.981  1.00  0.00     0.008 C 
ENDBRANCH  12  17
ENDBRANCH  11  12
ENDBRANCH   1  11
TORSDOF 1
ENDMDL
