MODEL 1
REMARK VINA RESULT:    -5.007      0.000      0.000
REMARK INTER + INTRA:          -5.153
REMARK INTER:                  -5.153
REMARK INTRA:                   0.000
REMARK UNBOUND:                 0.000
REMARK SMILES O=c1ccc2ccc(O)cc2o1
REMARK SMILES IDX 6 1 7 2 8 3 10 4 11 5 5 6 4 7 3 8 2 9 1 10 12 11 9 12
REMARK H PARENT 9 13
REMARK Flexibility Score: inf
ROOT
ATOM      1  C   UNL     1     -98.199  81.931 206.466  1.00  0.00     0.016 A 
ATOM      2  C   UNL     1     -98.727  80.636 206.463  1.00  0.00     0.047 A 
ATOM      3  C   UNL     1     -98.479  79.769 207.537  1.00  0.00     0.119 A 
ATOM      4  C   UNL     1     -97.700  80.199 208.617  1.00  0.00     0.094 A 
ATOM      5  C   UNL     1     -97.168  81.493 208.629  1.00  0.00     0.142 A 
ATOM      6  C   UNL     1     -97.420  82.365 207.547  1.00  0.00     0.018 A 
ATOM      7  C   UNL     1     -96.874  83.653 207.587  1.00  0.00     0.019 A 
ATOM      8  C   UNL     1     -96.105  84.035 208.686  1.00  0.00     0.094 A 
ATOM      9  C   UNL     1     -95.898  83.118 209.722  1.00  0.00     0.336 A 
ATOM     10  O   UNL     1     -95.207  83.446 210.721  1.00  0.00    -0.246 OA
ATOM     11  O   UNL     1     -96.429  81.899 209.658  1.00  0.00    -0.423 OA
ENDROOT
BRANCH   3  12
ATOM     12  O   UNL     1     -99.002  78.477 207.540  1.00  0.00    -0.508 OA
ATOM     13  H   UNL     1     -98.468  77.690 207.889  1.00  0.00     0.293 HD
ENDBRANCH   3  12
TORSDOF 1
ENDMDL
MODEL 2
REMARK VINA RESULT:    -4.951      0.941      4.213
REMARK INTER + INTRA:          -5.096
REMARK INTER:                  -5.096
REMARK INTRA:                   0.000
REMARK UNBOUND:                 0.000
REMARK SMILES O=c1ccc2ccc(O)cc2o1
REMARK SMILES IDX 6 1 7 2 8 3 10 4 11 5 5 6 4 7 3 8 2 9 1 10 12 11 9 12
REMARK H PARENT 9 13
REMARK Flexibility Score: inf
ROOT
ATOM      1  C   UNL     1     -96.779  83.587 207.828  1.00  0.00     0.016 A 
ATOM      2  C   UNL     1     -96.168  83.939 209.036  1.00  0.00     0.047 A 
ATOM      3  C   UNL     1     -95.943  82.968 210.023  1.00  0.00     0.119 A 
ATOM      4  C   UNL     1     -96.331  81.642 209.801  1.00  0.00     0.094 A 
ATOM      5  C   UNL     1     -96.943  81.281 208.595  1.00  0.00     0.142 A 
ATOM      6  C   UNL     1     -97.167  82.259 207.601  1.00  0.00     0.018 A 
ATOM      7  C   UNL     1     -97.781  81.869 206.407  1.00  0.00     0.019 A 
ATOM      8  C   UNL     1     -98.149  80.535 206.232  1.00  0.00     0.094 A 
ATOM      9  C   UNL     1     -97.895  79.620 207.259  1.00  0.00     0.336 A 
ATOM     10  O   UNL     1     -98.220  78.412 207.119  1.00  0.00    -0.246 OA
ATOM     11  O   UNL     1     -97.309  80.019 208.387  1.00  0.00    -0.423 OA
ENDROOT
BRANCH   3  12
ATOM     12  O   UNL     1     -95.335  83.312 211.229  1.00  0.00    -0.508 OA
ATOM     13  H   UNL     1     -94.556  83.960 211.264  1.00  0.00     0.293 HD
ENDBRANCH   3  12
TORSDOF 1
ENDMDL
MODEL 3
REMARK VINA RESULT:    -4.872      2.135      2.809
REMARK INTER + INTRA:          -5.014
REMARK INTER:                  -5.014
REMARK INTRA:                   0.000
REMARK UNBOUND:                 0.000
REMARK SMILES O=c1ccc2ccc(O)cc2o1
REMARK SMILES IDX 6 1 7 2 8 3 10 4 11 5 5 6 4 7 3 8 2 9 1 10 12 11 9 12
REMARK H PARENT 9 13
REMARK Flexibility Score: inf
ROOT
ATOM      1  C   UNL     1     -98.894  84.904 206.687  1.00  0.00     0.016 A 
ATOM      2  C   UNL     1     -99.061  83.631 206.132  1.00  0.00     0.047 A 
ATOM      3  C   UNL     1     -98.204  82.582 206.498  1.00  0.00     0.119 A 
ATOM      4  C   UNL     1     -97.177  82.808 207.422  1.00  0.00     0.094 A 
ATOM      5  C   UNL     1     -97.003  84.079 207.983  1.00  0.00     0.142 A 
ATOM      6  C   UNL     1     -97.868  85.133 207.614  1.00  0.00     0.018 A 
ATOM      7  C   UNL     1     -97.669  86.392 208.191  1.00  0.00     0.019 A 
ATOM      8  C   UNL     1     -96.632  86.567 209.107  1.00  0.00     0.094 A 
ATOM      9  C   UNL     1     -95.816  85.477 209.426  1.00  0.00     0.336 A 
ATOM     10  O   UNL     1     -94.875  85.617 210.251  1.00  0.00    -0.246 OA
ATOM     11  O   UNL     1     -96.027  84.290 208.862  1.00  0.00    -0.423 OA
ENDROOT
BRANCH   3  12
ATOM     12  O   UNL     1     -98.365  81.312 205.948  1.00  0.00    -0.508 OA
ATOM     13  H   UNL     1     -99.126  81.102 205.314  1.00  0.00     0.293 HD
ENDBRANCH   3  12
TORSDOF 1
ENDMDL
MODEL 4
REMARK VINA RESULT:    -4.850      2.565      5.020
REMARK INTER + INTRA:          -4.991
REMARK INTER:                  -4.991
REMARK INTRA:                   0.000
REMARK UNBOUND:                 0.000
REMARK SMILES O=c1ccc2ccc(O)cc2o1
REMARK SMILES IDX 6 1 7 2 8 3 10 4 11 5 5 6 4 7 3 8 2 9 1 10 12 11 9 12
REMARK H PARENT 9 13
REMARK Flexibility Score: inf
ROOT
ATOM      1  C   UNL     1     -98.159  85.781 207.132  1.00  0.00     0.016 A 
ATOM      2  C   UNL     1     -98.018  87.086 207.616  1.00  0.00     0.047 A 
ATOM      3  C   UNL     1     -97.124  87.360 208.661  1.00  0.00     0.119 A 
ATOM      4  C   UNL     1     -96.368  86.324 209.224  1.00  0.00     0.094 A 
ATOM      5  C   UNL     1     -96.503  85.016 208.747  1.00  0.00     0.142 A 
ATOM      6  C   UNL     1     -97.403  84.742 207.693  1.00  0.00     0.018 A 
ATOM      7  C   UNL     1     -97.517  83.425 207.237  1.00  0.00     0.019 A 
ATOM      8  C   UNL     1     -96.743  82.428 207.830  1.00  0.00     0.094 A 
ATOM      9  C   UNL     1     -95.871  82.772 208.868  1.00  0.00     0.336 A 
ATOM     10  O   UNL     1     -95.164  81.885 209.415  1.00  0.00    -0.246 OA
ATOM     11  O   UNL     1     -95.783  84.034 209.283  1.00  0.00    -0.423 OA
ENDROOT
BRANCH   3  12
ATOM     12  O   UNL     1     -96.978  88.658 209.148  1.00  0.00    -0.508 OA
ATOM     13  H   UNL     1     -96.637  89.408 208.559  1.00  0.00     0.293 HD
ENDBRANCH   3  12
TORSDOF 1
ENDMDL
MODEL 5
REMARK VINA RESULT:    -4.823      2.405      2.860
REMARK INTER + INTRA:          -4.964
REMARK INTER:                  -4.964
REMARK INTRA:                   0.000
REMARK UNBOUND:                 0.000
REMARK SMILES O=c1ccc2ccc(O)cc2o1
REMARK SMILES IDX 6 1 7 2 8 3 10 4 11 5 5 6 4 7 3 8 2 9 1 10 12 11 9 12
REMARK H PARENT 9 13
REMARK Flexibility Score: inf
ROOT
ATOM      1  C   UNL     1     -95.831  80.660 207.180  1.00  0.00     0.016 A 
ATOM      2  C   UNL     1     -96.337  79.599 206.422  1.00  0.00     0.047 A 
ATOM      3  C   UNL     1     -97.535  79.748 205.707  1.00  0.00     0.119 A 
ATOM      4  C   UNL     1     -98.227  80.964 205.750  1.00  0.00     0.094 A 
ATOM      5  C   UNL     1     -97.728  82.032 206.505  1.00  0.00     0.142 A 
ATOM      6  C   UNL     1     -96.522  81.879 207.224  1.00  0.00     0.018 A 
ATOM      7  C   UNL     1     -96.048  82.963 207.969  1.00  0.00     0.019 A 
ATOM      8  C   UNL     1     -96.773  84.154 207.981  1.00  0.00     0.094 A 
ATOM      9  C   UNL     1     -97.960  84.233 207.244  1.00  0.00     0.336 A 
ATOM     10  O   UNL     1     -98.628  85.300 207.243  1.00  0.00    -0.246 OA
ATOM     11  O   UNL     1     -98.389  83.186 206.543  1.00  0.00    -0.423 OA
ENDROOT
BRANCH   3  12
ATOM     12  O   UNL     1     -98.045  78.695 204.950  1.00  0.00    -0.508 OA
ATOM     13  H   UNL     1     -97.684  77.753 205.044  1.00  0.00     0.293 HD
ENDBRANCH   3  12
TORSDOF 1
ENDMDL
MODEL 6
REMARK VINA RESULT:    -4.809      3.287      3.997
REMARK INTER + INTRA:          -4.950
REMARK INTER:                  -4.950
REMARK INTRA:                   0.000
REMARK UNBOUND:                 0.000
REMARK SMILES O=c1ccc2ccc(O)cc2o1
REMARK SMILES IDX 6 1 7 2 8 3 10 4 11 5 5 6 4 7 3 8 2 9 1 10 12 11 9 12
REMARK H PARENT 9 13
REMARK Flexibility Score: inf
ROOT
ATOM      1  C   UNL     1     -98.314  83.198 206.496  1.00  0.00     0.016 A 
ATOM      2  C   UNL     1     -99.445  83.781 205.917  1.00  0.00     0.047 A 
ATOM      3  C   UNL     1     -99.788  85.109 206.213  1.00  0.00     0.119 A 
ATOM      4  C   UNL     1     -98.995  85.856 207.092  1.00  0.00     0.094 A 
ATOM      5  C   UNL     1     -97.860  85.281 207.677  1.00  0.00     0.142 A 
ATOM      6  C   UNL     1     -97.517  83.944 207.377  1.00  0.00     0.018 A 
ATOM      7  C   UNL     1     -96.378  83.397 207.976  1.00  0.00     0.019 A 
ATOM      8  C   UNL     1     -95.620  84.181 208.845  1.00  0.00     0.094 A 
ATOM      9  C   UNL     1     -96.020  85.497 209.096  1.00  0.00     0.336 A 
ATOM     10  O   UNL     1     -95.348  86.220 209.877  1.00  0.00    -0.246 OA
ATOM     11  O   UNL     1     -97.108  85.994 208.512  1.00  0.00    -0.423 OA
ENDROOT
BRANCH   3  12
ATOM     12  O   UNL     1    -100.914  85.695 205.639  1.00  0.00    -0.508 OA
ATOM     13  H   UNL     1    -101.078  86.694 205.696  1.00  0.00     0.293 HD
ENDBRANCH   3  12
TORSDOF 1
ENDMDL
MODEL 7
REMARK VINA RESULT:    -4.800      2.784      5.485
REMARK INTER + INTRA:          -4.940
REMARK INTER:                  -4.940
REMARK INTRA:                   0.000
REMARK UNBOUND:                 0.000
REMARK SMILES O=c1ccc2ccc(O)cc2o1
REMARK SMILES IDX 6 1 7 2 8 3 10 4 11 5 5 6 4 7 3 8 2 9 1 10 12 11 9 12
REMARK H PARENT 9 13
REMARK Flexibility Score: inf
ROOT
ATOM      1  C   UNL     1     -95.315  85.276 209.127  1.00  0.00     0.016 A 
ATOM      2  C   UNL     1     -95.759  86.548 209.501  1.00  0.00     0.047 A 
ATOM      3  C   UNL     1     -97.022  87.004 209.097  1.00  0.00     0.119 A 
ATOM      4  C   UNL     1     -97.844  86.183 208.315  1.00  0.00     0.094 A 
ATOM      5  C   UNL     1     -97.408  84.909 207.936  1.00  0.00     0.142 A 
ATOM      6  C   UNL     1     -96.136  84.451 208.346  1.00  0.00     0.018 A 
ATOM      7  C   UNL     1     -95.728  83.173 207.951  1.00  0.00     0.019 A 
ATOM      8  C   UNL     1     -96.582  82.393 207.173  1.00  0.00     0.094 A 
ATOM      9  C   UNL     1     -97.829  82.911 206.805  1.00  0.00     0.336 A 
ATOM     10  O   UNL     1     -98.613  82.221 206.103  1.00  0.00    -0.246 OA
ATOM     11  O   UNL     1     -98.192  84.131 207.194  1.00  0.00    -0.423 OA
ENDROOT
BRANCH   3  12
ATOM     12  O   UNL     1     -97.471  88.271 209.466  1.00  0.00    -0.508 OA
ATOM     13  H   UNL     1     -96.941  88.854 210.104  1.00  0.00     0.293 HD
ENDBRANCH   3  12
TORSDOF 1
ENDMDL
MODEL 8
REMARK VINA RESULT:    -4.783      3.273      5.571
REMARK INTER + INTRA:          -4.922
REMARK INTER:                  -4.922
REMARK INTRA:                   0.000
REMARK UNBOUND:                 0.000
REMARK SMILES O=c1ccc2ccc(O)cc2o1
REMARK SMILES IDX 6 1 7 2 8 3 10 4 11 5 5 6 4 7 3 8 2 9 1 10 12 11 9 12
REMARK H PARENT 9 13
REMARK Flexibility Score: inf
ROOT
ATOM      1  C   UNL     1     -96.500  83.637 208.073  1.00  0.00     0.016 A 
ATOM      2  C   UNL     1     -95.943  84.652 208.857  1.00  0.00     0.047 A 
ATOM      3  C   UNL     1     -96.541  85.920 208.904  1.00  0.00     0.119 A 
ATOM      4  C   UNL     1     -97.701  86.173 208.162  1.00  0.00     0.094 A 
ATOM      5  C   UNL     1     -98.266  85.163 207.374  1.00  0.00     0.142 A 
ATOM      6  C   UNL     1     -97.662  83.887 207.330  1.00  0.00     0.018 A 
ATOM      7  C   UNL     1     -98.249  82.899 206.533  1.00  0.00     0.019 A 
ATOM      8  C   UNL     1     -99.405  83.199 205.812  1.00  0.00     0.094 A 
ATOM      9  C   UNL     1     -99.948  84.485 205.905  1.00  0.00     0.336 A 
ATOM     10  O   UNL     1    -100.991  84.774 205.262  1.00  0.00    -0.246 OA
ATOM     11  O   UNL     1     -99.369  85.407 206.671  1.00  0.00    -0.423 OA
ENDROOT
BRANCH   3  12
ATOM     12  O   UNL     1     -95.990  86.935 209.684  1.00  0.00    -0.508 OA
ATOM     13  H   UNL     1     -96.144  87.912 209.465  1.00  0.00     0.293 HD
ENDBRANCH   3  12
TORSDOF 1
ENDMDL
MODEL 9
REMARK VINA RESULT:    -4.751      3.072      5.034
REMARK INTER + INTRA:          -4.890
REMARK INTER:                  -4.890
REMARK INTRA:                   0.000
REMARK UNBOUND:                 0.000
REMARK SMILES O=c1ccc2ccc(O)cc2o1
REMARK SMILES IDX 6 1 7 2 8 3 10 4 11 5 5 6 4 7 3 8 2 9 1 10 12 11 9 12
REMARK H PARENT 9 13
REMARK Flexibility Score: inf
ROOT
ATOM      1  C   UNL     1     -97.145  85.183 207.818  1.00  0.00     0.016 A 
ATOM      2  C   UNL     1     -97.916  86.285 207.435  1.00  0.00     0.047 A 
ATOM      3  C   UNL     1     -99.031  86.113 206.600  1.00  0.00     0.119 A 
ATOM      4  C   UNL     1     -99.375  84.834 206.148  1.00  0.00     0.094 A 
ATOM      5  C   UNL     1     -98.609  83.725 206.526  1.00  0.00     0.142 A 
ATOM      6  C   UNL     1     -97.488  83.900 207.367  1.00  0.00     0.018 A 
ATOM      7  C   UNL     1     -96.741  82.774 207.728  1.00  0.00     0.019 A 
ATOM      8  C   UNL     1     -97.124  81.520 207.251  1.00  0.00     0.094 A 
ATOM      9  C   UNL     1     -98.246  81.422 206.423  1.00  0.00     0.336 A 
ATOM     10  O   UNL     1     -98.606  80.298 205.983  1.00  0.00    -0.246 OA
ATOM     11  O   UNL     1     -98.938  82.510 206.095  1.00  0.00    -0.423 OA
ENDROOT
BRANCH   3  12
ATOM     12  O   UNL     1     -99.804  87.207 206.215  1.00  0.00    -0.508 OA
ATOM     13  H   UNL     1    -100.666  87.089 205.697  1.00  0.00     0.293 HD
ENDBRANCH   3  12
TORSDOF 1
ENDMDL
