MODEL 1
REMARK VINA RESULT:    -2.240      0.000      0.000
REMARK INTER + INTRA:          -2.240
REMARK INTER:                  -2.240
REMARK INTRA:                   0.000
REMARK UNBOUND:                 0.000
REMARK SMILES CC(=O)[O-]
REMARK SMILES IDX 1 1 2 2 3 3 4 4
REMARK H PARENT
REMARK Flexibility Score: inf
ROOT
ATOM      1  C   UNL     1      -5.037  34.477  98.407  1.00  0.00     0.063 C 
ATOM      2  C   UNL     1      -3.744  34.629  99.132  1.00  0.00     0.038 C 
ATOM      3  O   UNL     1      -3.690  34.445 100.376  1.00  0.00    -0.550 OA
ATOM      4  O   UNL     1      -2.582  34.922  98.429  1.00  0.00    -0.550 OA
ENDROOT
TORSDOF 0
ENDMDL
MODEL 2
REMARK VINA RESULT:    -2.206      0.346      1.637
REMARK INTER + INTRA:          -2.206
REMARK INTER:                  -2.206
REMARK INTRA:                   0.000
REMARK UNBOUND:                 0.000
REMARK SMILES CC(=O)[O-]
REMARK SMILES IDX 1 1 2 2 3 3 4 4
REMARK H PARENT
REMARK Flexibility Score: inf
ROOT
ATOM      1  C   UNL     1      -4.838  34.487  98.602  1.00  0.00     0.063 C 
ATOM      2  C   UNL     1      -3.485  34.743  99.173  1.00  0.00     0.038 C 
ATOM      3  O   UNL     1      -2.504  34.942  98.410  1.00  0.00    -0.550 OA
ATOM      4  O   UNL     1      -3.312  34.817 100.550  1.00  0.00    -0.550 OA
ENDROOT
TORSDOF 0
ENDMDL
MODEL 3
REMARK VINA RESULT:    -2.196      2.531      3.043
REMARK INTER + INTRA:          -2.196
REMARK INTER:                  -2.196
REMARK INTRA:                   0.000
REMARK UNBOUND:                 0.000
REMARK SMILES CC(=O)[O-]
REMARK SMILES IDX 1 1 2 2 3 3 4 4
REMARK H PARENT
REMARK Flexibility Score: inf
ROOT
ATOM      1  C   UNL     1      -2.861  35.180  98.498  1.00  0.00     0.063 C 
ATOM      2  C   UNL     1      -3.229  36.515  97.949  1.00  0.00     0.038 C 
ATOM      3  O   UNL     1      -3.346  36.679  96.706  1.00  0.00    -0.550 OA
ATOM      4  O   UNL     1      -3.497  37.572  98.810  1.00  0.00    -0.550 OA
ENDROOT
TORSDOF 0
ENDMDL
MODEL 4
REMARK VINA RESULT:    -2.171      1.413      1.769
REMARK INTER + INTRA:          -2.171
REMARK INTER:                  -2.171
REMARK INTRA:                   0.000
REMARK UNBOUND:                 0.000
REMARK SMILES CC(=O)[O-]
REMARK SMILES IDX 1 1 2 2 3 3 4 4
REMARK H PARENT
REMARK Flexibility Score: inf
ROOT
ATOM      1  C   UNL     1      -2.758  35.131  98.461  1.00  0.00     0.063 C 
ATOM      2  C   UNL     1      -3.939  34.479  99.093  1.00  0.00     0.038 C 
ATOM      3  O   UNL     1      -3.938  34.225 100.325  1.00  0.00    -0.550 OA
ATOM      4  O   UNL     1      -5.068  34.198  98.333  1.00  0.00    -0.550 OA
ENDROOT
TORSDOF 0
ENDMDL
MODEL 5
REMARK VINA RESULT:    -2.145      2.385      2.539
REMARK INTER + INTRA:          -2.145
REMARK INTER:                  -2.145
REMARK INTRA:                   0.000
REMARK UNBOUND:                 0.000
REMARK SMILES CC(=O)[O-]
REMARK SMILES IDX 1 1 2 2 3 3 4 4
REMARK H PARENT
REMARK Flexibility Score: inf
ROOT
ATOM      1  C   UNL     1      -3.820  34.487 100.102  1.00  0.00     0.063 C 
ATOM      2  C   UNL     1      -5.093  35.261 100.122  1.00  0.00     0.038 C 
ATOM      3  O   UNL     1      -5.298  36.119 101.019  1.00  0.00    -0.550 OA
ATOM      4  O   UNL     1      -6.035  35.077  99.117  1.00  0.00    -0.550 OA
ENDROOT
TORSDOF 0
ENDMDL
MODEL 6
REMARK VINA RESULT:    -2.101      1.978      2.037
REMARK INTER + INTRA:          -2.101
REMARK INTER:                  -2.101
REMARK INTRA:                   0.000
REMARK UNBOUND:                 0.000
REMARK SMILES CC(=O)[O-]
REMARK SMILES IDX 1 1 2 2 3 3 4 4
REMARK H PARENT
REMARK Flexibility Score: inf
ROOT
ATOM      1  C   UNL     1      -3.359  36.751  97.127  1.00  0.00     0.063 C 
ATOM      2  C   UNL     1      -3.381  35.944  98.379  1.00  0.00     0.038 C 
ATOM      3  O   UNL     1      -4.259  36.158  99.255  1.00  0.00    -0.550 OA
ATOM      4  O   UNL     1      -2.465  34.915  98.561  1.00  0.00    -0.550 OA
ENDROOT
TORSDOF 0
ENDMDL
MODEL 7
REMARK VINA RESULT:    -2.047      3.239      3.418
REMARK INTER + INTRA:          -2.047
REMARK INTER:                  -2.047
REMARK INTRA:                   0.000
REMARK UNBOUND:                 0.000
REMARK SMILES CC(=O)[O-]
REMARK SMILES IDX 1 1 2 2 3 3 4 4
REMARK H PARENT
REMARK Flexibility Score: inf
ROOT
ATOM      1  C   UNL     1      -3.371  36.693  97.251  1.00  0.00     0.063 C 
ATOM      2  C   UNL     1      -4.854  36.549  97.215  1.00  0.00     0.038 C 
ATOM      3  O   UNL     1      -5.464  36.045  98.194  1.00  0.00    -0.550 OA
ATOM      4  O   UNL     1      -5.573  37.019  96.124  1.00  0.00    -0.550 OA
ENDROOT
TORSDOF 0
ENDMDL
MODEL 8
REMARK VINA RESULT:    -1.991      3.327      3.430
REMARK INTER + INTRA:          -1.991
REMARK INTER:                  -1.991
REMARK INTRA:                   0.000
REMARK UNBOUND:                 0.000
REMARK SMILES CC(=O)[O-]
REMARK SMILES IDX 1 1 2 2 3 3 4 4
REMARK H PARENT
REMARK Flexibility Score: inf
ROOT
ATOM      1  C   UNL     1      -3.259  36.754  97.471  1.00  0.00     0.063 C 
ATOM      2  C   UNL     1      -3.634  37.684  98.574  1.00  0.00     0.038 C 
ATOM      3  O   UNL     1      -3.243  37.461  99.750  1.00  0.00    -0.550 OA
ATOM      4  O   UNL     1      -4.370  38.829  98.300  1.00  0.00    -0.550 OA
ENDROOT
TORSDOF 0
ENDMDL
MODEL 9
REMARK VINA RESULT:    -1.968     15.768     16.099
REMARK INTER + INTRA:          -1.968
REMARK INTER:                  -1.968
REMARK INTRA:                   0.000
REMARK UNBOUND:                 0.000
REMARK SMILES CC(=O)[O-]
REMARK SMILES IDX 1 1 2 2 3 3 4 4
REMARK H PARENT
REMARK Flexibility Score: inf
ROOT
ATOM      1  C   UNL     1     -11.887  45.004 109.064  1.00  0.00     0.063 C 
ATOM      2  C   UNL     1     -12.527  44.841 107.729  1.00  0.00     0.038 C 
ATOM      3  O   UNL     1     -13.754  44.572 107.644  1.00  0.00    -0.550 OA
ATOM      4  O   UNL     1     -11.784  45.040 106.572  1.00  0.00    -0.550 OA
ENDROOT
TORSDOF 0
ENDMDL
