MODEL 1
REMARK VINA RESULT:     2.997      0.000      0.000
REMARK INTER + INTRA:           3.592
REMARK INTER:                   4.924
REMARK INTRA:                  -1.331
REMARK UNBOUND:                -1.331
REMARK SMILES COc1ccc([C@@H]2CC(=O)c3c(O)cc(O[C@H]4O[C@@H](CO[C@H]5O[C@H](C)[C@@H](O)[C@@H](O)[C@@H]5O)[C@H](O)[C@@H](O)[C@@H]4O)cc3O2)cc1O
REMARK SMILES IDX 19 1 32 2 34 3 36 4 17 5 18 6 20 7 21 8 22 9 25 10 24 11
REMARK SMILES IDX 26 12 23 13 28 14 30 15 27 16 29 18 31 20 33 22 35 24 16 26
REMARK SMILES IDX 15 27 14 28 38 29 12 30 39 31 11 32 40 33 9 34 7 35 10 36
REMARK SMILES IDX 8 37 13 38 6 40 41 41 5 42 42 43 4 44 3 45 43 46 2 48 1 49
REMARK SMILES IDX 37 50
REMARK H PARENT 27 17 29 19 31 21 33 23 35 25 13 39 43 47 37 51
REMARK Flexibility Score: inf
ROOT
ATOM      1  C   UNL     1      21.300  89.288   5.443  1.00  0.00     0.180 C 
ATOM      2  C   UNL     1      22.596  88.727   6.080  1.00  0.00     0.177 C 
ATOM      3  C   UNL     1      22.493  87.207   6.330  1.00  0.00     0.180 C 
ATOM      4  C   UNL     1      22.011  86.469   5.069  1.00  0.00     0.214 C 
ATOM      5  C   UNL     1      20.754  87.140   4.441  1.00  0.00     0.339 C 
ATOM      6  O   UNL     1      20.819  88.546   4.331  1.00  0.00    -0.332 OA
ENDROOT
BRANCH   1   7
ATOM      7  C   UNL     1      20.181  89.608   6.483  1.00  0.00     0.198 C 
BRANCH   7   8
ATOM      8  O   UNL     1      19.997  91.006   6.589  1.00  0.00    -0.347 OA
BRANCH   8   9
ATOM      9  C   UNL     1      20.847  91.637   7.541  1.00  0.00     0.281 C 
ATOM     10  C   UNL     1      23.864  92.770   7.222  1.00  0.00     0.041 C 
ATOM     11  C   UNL     1      22.537  93.268   7.809  1.00  0.00     0.150 C 
ATOM     12  C   UNL     1      22.455  92.906   9.324  1.00  0.00     0.174 C 
ATOM     13  O   UNL     1      21.452  92.802   6.995  1.00  0.00    -0.344 OA
ATOM     14  C   UNL     1      20.986  92.851   9.808  1.00  0.00     0.179 C 
ATOM     15  C   UNL     1      20.118  91.982   8.874  1.00  0.00     0.202 C 
BRANCH  12  16
ATOM     16  O   UNL     1      23.230  93.767  10.119  1.00  0.00    -0.388 OA
ATOM     17  H   UNL     1      23.986  93.247  10.472  1.00  0.00     0.211 HD
ENDBRANCH  12  16
BRANCH  14  18
ATOM     18  O   UNL     1      20.457  94.156   9.860  1.00  0.00    -0.387 OA
ATOM     19  H   UNL     1      20.646  94.579   8.973  1.00  0.00     0.211 HD
ENDBRANCH  14  18
BRANCH  15  20
ATOM     20  O   UNL     1      19.762  90.778   9.518  1.00  0.00    -0.385 OA
ATOM     21  H   UNL     1      18.844  90.911   9.873  1.00  0.00     0.211 HD
ENDBRANCH  15  20
ENDBRANCH   8   9
ENDBRANCH   7   8
ENDBRANCH   1   7
BRANCH   2  22
ATOM     22  O   UNL     1      23.728  89.026   5.296  1.00  0.00    -0.387 OA
ATOM     23  H   UNL     1      24.531  89.014   5.869  1.00  0.00     0.211 HD
ENDBRANCH   2  22
BRANCH   3  24
ATOM     24  O   UNL     1      21.569  86.937   7.357  1.00  0.00    -0.387 OA
ATOM     25  H   UNL     1      21.553  87.713   7.979  1.00  0.00     0.211 HD
ENDBRANCH   3  24
BRANCH   5  26
ATOM     26  O   UNL     1      19.572  86.721   5.133  1.00  0.00    -0.462 OA
BRANCH  26  27
ATOM     27  C   UNL     1      19.141  85.380   5.243  1.00  0.00     0.130 A 
ATOM     28  C   UNL     1      18.778  84.612   4.124  1.00  0.00     0.093 A 
ATOM     29  C   UNL     1      19.113  84.783   6.501  1.00  0.00     0.094 A 
ATOM     30  C   UNL     1      18.442  83.251   4.259  1.00  0.00     0.133 A 
ATOM     31  C   UNL     1      18.740  83.449   6.664  1.00  0.00     0.138 A 
ATOM     32  C   UNL     1      18.430  82.646   5.548  1.00  0.00     0.102 A 
ATOM     33  O   UNL     1      18.745  82.877   7.944  1.00  0.00    -0.484 OA
ATOM     34  C   UNL     1      18.122  81.207   5.794  1.00  0.00     0.174 C 
ATOM     35  C   UNL     1      18.036  81.681   8.270  1.00  0.00     0.211 C 
ATOM     36  O   UNL     1      17.882  80.415   4.856  1.00  0.00    -0.294 OA
ATOM     37  C   UNL     1      18.259  80.624   7.159  1.00  0.00     0.131 C 
BRANCH  30  38
ATOM     38  O   UNL     1      18.109  82.593   3.067  1.00  0.00    -0.507 OA
ATOM     39  H   UNL     1      17.557  82.979   2.320  1.00  0.00     0.293 HD
ENDBRANCH  30  38
BRANCH  35  40
ATOM     40  C   UNL     1      18.471  81.142   9.622  1.00  0.00    -0.003 A 
ATOM     41  C   UNL     1      18.708  82.019  10.705  1.00  0.00     0.057 A 
ATOM     42  C   UNL     1      18.549  79.755   9.868  1.00  0.00     0.011 A 
ATOM     43  C   UNL     1      19.120  81.524  11.952  1.00  0.00     0.158 A 
ATOM     44  C   UNL     1      18.967  79.264  11.098  1.00  0.00     0.051 A 
ATOM     45  C   UNL     1      19.279  80.143  12.149  1.00  0.00     0.160 A 
BRANCH  43  46
ATOM     46  O   UNL     1      19.370  82.429  12.987  1.00  0.00    -0.504 OA
ATOM     47  H   UNL     1      19.682  83.382  12.825  1.00  0.00     0.293 HD
ENDBRANCH  43  46
BRANCH  45  48
ATOM     48  O   UNL     1      19.745  79.669  13.394  1.00  0.00    -0.493 OA
ATOM     49  C   UNL     1      18.984  78.875  14.290  1.00  0.00     0.278 C 
ENDBRANCH  45  48
ENDBRANCH  35  40
ENDBRANCH  26  27
ENDBRANCH   5  26
BRANCH   4  50
ATOM     50  O   UNL     1      23.001  86.266   4.086  1.00  0.00    -0.384 OA
ATOM     51  H   UNL     1      23.718  86.935   4.183  1.00  0.00     0.211 HD
ENDBRANCH   4  50
TORSDOF 15
ENDMDL
MODEL 2
REMARK VINA RESULT:     5.287      0.851      1.606
REMARK INTER + INTRA:           7.356
REMARK INTER:                   8.619
REMARK INTRA:                  -1.263
REMARK UNBOUND:                -1.331
REMARK SMILES COc1ccc([C@@H]2CC(=O)c3c(O)cc(O[C@H]4O[C@@H](CO[C@H]5O[C@H](C)[C@@H](O)[C@@H](O)[C@@H]5O)[C@H](O)[C@@H](O)[C@@H]4O)cc3O2)cc1O
REMARK SMILES IDX 19 1 32 2 34 3 36 4 17 5 18 6 20 7 21 8 22 9 25 10 24 11
REMARK SMILES IDX 26 12 23 13 28 14 30 15 27 16 29 18 31 20 33 22 35 24 16 26
REMARK SMILES IDX 15 27 14 28 38 29 12 30 39 31 11 32 40 33 9 34 7 35 10 36
REMARK SMILES IDX 8 37 13 38 6 40 41 41 5 42 42 43 4 44 3 45 43 46 2 48 1 49
REMARK SMILES IDX 37 50
REMARK H PARENT 27 17 29 19 31 21 33 23 35 25 13 39 43 47 37 51
REMARK Flexibility Score: inf
ROOT
ATOM      1  C   UNL     1      21.087  89.558   5.378  1.00  0.00     0.180 C 
ATOM      2  C   UNL     1      22.618  89.341   5.290  1.00  0.00     0.177 C 
ATOM      3  C   UNL     1      22.993  87.856   5.486  1.00  0.00     0.180 C 
ATOM      4  C   UNL     1      22.151  86.947   4.575  1.00  0.00     0.214 C 
ATOM      5  C   UNL     1      20.631  87.280   4.658  1.00  0.00     0.339 C 
ATOM      6  O   UNL     1      20.317  88.655   4.598  1.00  0.00    -0.332 OA
ENDROOT
BRANCH   1   7
ATOM      7  C   UNL     1      20.559  89.692   6.841  1.00  0.00     0.198 C 
BRANCH   7   8
ATOM      8  O   UNL     1      19.742  90.840   6.963  1.00  0.00    -0.347 OA
BRANCH   8   9
ATOM      9  C   UNL     1      20.294  91.865   7.783  1.00  0.00     0.281 C 
ATOM     10  C   UNL     1      19.506  92.788  10.786  1.00  0.00     0.041 C 
ATOM     11  C   UNL     1      20.792  92.464  10.015  1.00  0.00     0.150 C 
ATOM     12  C   UNL     1      21.382  93.765   9.390  1.00  0.00     0.174 C 
ATOM     13  O   UNL     1      20.541  91.388   9.100  1.00  0.00    -0.344 OA
ATOM     14  C   UNL     1      22.291  93.443   8.179  1.00  0.00     0.179 C 
ATOM     15  C   UNL     1      21.589  92.492   7.186  1.00  0.00     0.202 C 
BRANCH  12  16
ATOM     16  O   UNL     1      22.047  94.557  10.340  1.00  0.00    -0.388 OA
ATOM     17  H   UNL     1      22.973  94.676  10.034  1.00  0.00     0.211 HD
ENDBRANCH  12  16
BRANCH  14  18
ATOM     18  O   UNL     1      23.486  92.850   8.631  1.00  0.00    -0.387 OA
ATOM     19  H   UNL     1      23.810  92.256   7.895  1.00  0.00     0.211 HD
ENDBRANCH  14  18
BRANCH  15  20
ATOM     20  O   UNL     1      21.251  93.184   6.004  1.00  0.00    -0.385 OA
ATOM     21  H   UNL     1      20.777  94.010   6.288  1.00  0.00     0.211 HD
ENDBRANCH  15  20
ENDBRANCH   8   9
ENDBRANCH   7   8
ENDBRANCH   1   7
BRANCH   2  22
ATOM     22  O   UNL     1      23.140  89.829   4.075  1.00  0.00    -0.387 OA
ATOM     23  H   UNL     1      22.512  90.486   3.694  1.00  0.00     0.211 HD
ENDBRANCH   2  22
BRANCH   3  24
ATOM     24  O   UNL     1      22.758  87.458   6.815  1.00  0.00    -0.387 OA
ATOM     25  H   UNL     1      22.150  88.121   7.240  1.00  0.00     0.211 HD
ENDBRANCH   3  24
BRANCH   5  26
ATOM     26  O   UNL     1      20.051  86.658   5.809  1.00  0.00    -0.462 OA
BRANCH  26  27
ATOM     27  C   UNL     1      19.518  85.349   5.831  1.00  0.00     0.130 A 
ATOM     28  C   UNL     1      19.086  84.693   4.665  1.00  0.00     0.093 A 
ATOM     29  C   UNL     1      19.456  84.667   7.044  1.00  0.00     0.094 A 
ATOM     30  C   UNL     1      18.648  83.356   4.709  1.00  0.00     0.133 A 
ATOM     31  C   UNL     1      18.983  83.357   7.117  1.00  0.00     0.138 A 
ATOM     32  C   UNL     1      18.601  82.662   5.951  1.00  0.00     0.102 A 
ATOM     33  O   UNL     1      18.956  82.696   8.353  1.00  0.00    -0.484 OA
ATOM     34  C   UNL     1      18.185  81.237   6.100  1.00  0.00     0.174 C 
ATOM     35  C   UNL     1      18.160  81.537   8.604  1.00  0.00     0.211 C 
ATOM     36  O   UNL     1      17.875  80.535   5.111  1.00  0.00    -0.294 OA
ATOM     37  C   UNL     1      18.289  80.548   7.418  1.00  0.00     0.131 C 
BRANCH  30  38
ATOM     38  O   UNL     1      18.254  82.812   3.478  1.00  0.00    -0.507 OA
ATOM     39  H   UNL     1      18.417  83.227   2.577  1.00  0.00     0.293 HD
ENDBRANCH  30  38
BRANCH  35  40
ATOM     40  C   UNL     1      18.564  80.870   9.907  1.00  0.00    -0.003 A 
ATOM     41  C   UNL     1      19.038  81.641  10.994  1.00  0.00     0.057 A 
ATOM     42  C   UNL     1      18.383  79.486  10.111  1.00  0.00     0.011 A 
ATOM     43  C   UNL     1      19.422  81.026  12.196  1.00  0.00     0.158 A 
ATOM     44  C   UNL     1      18.773  78.875  11.296  1.00  0.00     0.051 A 
ATOM     45  C   UNL     1      19.318  79.635  12.345  1.00  0.00     0.160 A 
BRANCH  43  46
ATOM     46  O   UNL     1      19.911  81.824  13.234  1.00  0.00    -0.504 OA
ATOM     47  H   UNL     1      19.331  82.145  14.004  1.00  0.00     0.293 HD
ENDBRANCH  43  46
BRANCH  45  48
ATOM     48  O   UNL     1      19.759  79.030  13.541  1.00  0.00    -0.493 OA
ATOM     49  C   UNL     1      18.988  78.933  14.727  1.00  0.00     0.278 C 
ENDBRANCH  45  48
ENDBRANCH  35  40
ENDBRANCH  26  27
ENDBRANCH   5  26
BRANCH   4  50
ATOM     50  O   UNL     1      22.569  86.902   3.230  1.00  0.00    -0.384 OA
ATOM     51  H   UNL     1      22.930  86.009   3.016  1.00  0.00     0.211 HD
ENDBRANCH   4  50
TORSDOF 15
ENDMDL
