MODEL 1
REMARK VINA RESULT:    -3.136      0.000      0.000
REMARK INTER + INTRA:          -4.316
REMARK INTER:                  -4.053
REMARK INTRA:                  -0.264
REMARK UNBOUND:                -0.264
REMARK SMILES CCCCCCC(=O)[O-]
REMARK SMILES IDX 5 1 6 2 7 3 8 4 9 5 4 6 3 7 2 8 1 9
REMARK H PARENT
REMARK Flexibility Score: inf
ROOT
ATOM      1  C   UNL     1      -0.824 -10.670  40.046  1.00  0.00     0.006 C 
ENDROOT
BRANCH   1   2
ATOM      2  C   UNL     1      -1.652 -10.646  41.341  1.00  0.00     0.053 C 
BRANCH   2   3
ATOM      3  C   UNL     1      -1.431 -11.872  42.173  1.00  0.00     0.041 C 
ATOM      4  O   UNL     1      -0.477 -11.916  42.994  1.00  0.00    -0.550 OA
ATOM      5  O   UNL     1      -2.298 -12.951  42.067  1.00  0.00    -0.550 OA
ENDBRANCH   2   3
ENDBRANCH   1   2
BRANCH   1   6
ATOM      6  C   UNL     1      -0.451  -9.275  39.508  1.00  0.00     0.000 C 
BRANCH   6   7
ATOM      7  C   UNL     1      -1.397  -8.172  40.007  1.00  0.00    -0.000 C 
BRANCH   7   8
ATOM      8  C   UNL     1      -2.431  -7.810  38.933  1.00  0.00    -0.003 C 
ATOM      9  C   UNL     1      -3.818  -8.320  39.308  1.00  0.00     0.004 C 
ENDBRANCH   7   8
ENDBRANCH   6   7
ENDBRANCH   1   6
TORSDOF 5
ENDMDL
MODEL 2
REMARK VINA RESULT:    -3.094      0.202      1.082
REMARK INTER + INTRA:          -4.263
REMARK INTER:                  -4.001
REMARK INTRA:                  -0.262
REMARK UNBOUND:                -0.264
REMARK SMILES CCCCCCC(=O)[O-]
REMARK SMILES IDX 5 1 6 2 7 3 8 4 9 5 4 6 3 7 2 8 1 9
REMARK H PARENT
REMARK Flexibility Score: inf
ROOT
ATOM      1  C   UNL     1      -0.879 -10.661  40.123  1.00  0.00     0.006 C 
ENDROOT
BRANCH   1   2
ATOM      2  C   UNL     1      -1.725 -10.552  41.402  1.00  0.00     0.053 C 
BRANCH   2   3
ATOM      3  C   UNL     1      -1.643 -11.793  42.238  1.00  0.00     0.041 C 
ATOM      4  O   UNL     1      -2.595 -12.616  42.244  1.00  0.00    -0.550 OA
ATOM      5  O   UNL     1      -0.500 -12.055  42.982  1.00  0.00    -0.550 OA
ENDBRANCH   2   3
ENDBRANCH   1   2
BRANCH   1   6
ATOM      6  C   UNL     1      -0.548  -9.307  39.466  1.00  0.00     0.000 C 
BRANCH   6   7
ATOM      7  C   UNL     1      -1.456  -8.170  39.957  1.00  0.00    -0.000 C 
BRANCH   7   8
ATOM      8  C   UNL     1      -2.480  -7.783  38.883  1.00  0.00    -0.003 C 
ATOM      9  C   UNL     1      -3.870  -8.305  39.231  1.00  0.00     0.004 C 
ENDBRANCH   7   8
ENDBRANCH   6   7
ENDBRANCH   1   6
TORSDOF 5
ENDMDL
MODEL 3
REMARK VINA RESULT:    -2.972      1.359      2.291
REMARK INTER + INTRA:          -4.105
REMARK INTER:                  -3.776
REMARK INTRA:                  -0.329
REMARK UNBOUND:                -0.264
REMARK SMILES CCCCCCC(=O)[O-]
REMARK SMILES IDX 5 1 6 2 7 3 8 4 9 5 4 6 3 7 2 8 1 9
REMARK H PARENT
REMARK Flexibility Score: inf
ROOT
ATOM      1  C   UNL     1      -3.153  -9.685  41.510  1.00  0.00     0.006 C 
ENDROOT
BRANCH   1   2
ATOM      2  C   UNL     1      -2.832 -11.150  41.850  1.00  0.00     0.053 C 
BRANCH   2   3
ATOM      3  C   UNL     1      -1.367 -11.445  41.739  1.00  0.00     0.041 C 
ATOM      4  O   UNL     1      -0.723 -11.080  40.721  1.00  0.00    -0.550 OA
ATOM      5  O   UNL     1      -0.708 -12.093  42.776  1.00  0.00    -0.550 OA
ENDBRANCH   2   3
ENDBRANCH   1   2
BRANCH   1   6
ATOM      6  C   UNL     1      -3.978  -9.502  40.222  1.00  0.00     0.000 C 
BRANCH   6   7
ATOM      7  C   UNL     1      -3.455  -8.360  39.337  1.00  0.00    -0.000 C 
BRANCH   7   8
ATOM      8  C   UNL     1      -2.012  -7.996  39.708  1.00  0.00    -0.003 C 
ATOM      9  C   UNL     1      -1.066  -8.227  38.535  1.00  0.00     0.004 C 
ENDBRANCH   7   8
ENDBRANCH   6   7
ENDBRANCH   1   6
TORSDOF 5
ENDMDL
MODEL 4
REMARK VINA RESULT:    -2.928      3.415      6.195
REMARK INTER + INTRA:          -4.047
REMARK INTER:                  -3.840
REMARK INTRA:                  -0.208
REMARK UNBOUND:                -0.264
REMARK SMILES CCCCCCC(=O)[O-]
REMARK SMILES IDX 5 1 6 2 7 3 8 4 9 5 4 6 3 7 2 8 1 9
REMARK H PARENT
REMARK Flexibility Score: inf
ROOT
ATOM      1  C   UNL     1      -3.086 -13.623  41.775  1.00  0.00     0.006 C 
ENDROOT
BRANCH   1   2
ATOM      2  C   UNL     1      -2.838 -12.142  42.105  1.00  0.00     0.053 C 
BRANCH   2   3
ATOM      3  C   UNL     1      -1.388 -11.780  42.012  1.00  0.00     0.041 C 
ATOM      4  O   UNL     1      -0.600 -12.076  42.948  1.00  0.00    -0.550 OA
ATOM      5  O   UNL     1      -0.901 -11.147  40.876  1.00  0.00    -0.550 OA
ENDBRANCH   2   3
ENDBRANCH   1   2
BRANCH   1   6
ATOM      6  C   UNL     1      -3.362 -14.508  43.006  1.00  0.00     0.000 C 
BRANCH   6   7
ATOM      7  C   UNL     1      -2.173 -15.412  43.367  1.00  0.00    -0.000 C 
BRANCH   7   8
ATOM      8  C   UNL     1      -2.644 -16.659  44.125  1.00  0.00    -0.003 C 
ATOM      9  C   UNL     1      -3.596 -17.495  43.276  1.00  0.00     0.004 C 
ENDBRANCH   7   8
ENDBRANCH   6   7
ENDBRANCH   1   6
TORSDOF 5
ENDMDL
MODEL 5
REMARK VINA RESULT:    -2.908      3.229      5.984
REMARK INTER + INTRA:          -4.022
REMARK INTER:                  -3.907
REMARK INTRA:                  -0.115
REMARK UNBOUND:                -0.264
REMARK SMILES CCCCCCC(=O)[O-]
REMARK SMILES IDX 5 1 6 2 7 3 8 4 9 5 4 6 3 7 2 8 1 9
REMARK H PARENT
REMARK Flexibility Score: inf
ROOT
ATOM      1  C   UNL     1      -2.578 -12.720  42.252  1.00  0.00     0.006 C 
ENDROOT
BRANCH   1   2
ATOM      2  C   UNL     1      -1.300 -11.866  42.250  1.00  0.00     0.053 C 
BRANCH   2   3
ATOM      3  C   UNL     1      -1.372 -10.746  41.257  1.00  0.00     0.041 C 
ATOM      4  O   UNL     1      -0.627 -10.751  40.243  1.00  0.00    -0.550 OA
ATOM      5  O   UNL     1      -2.287  -9.717  41.435  1.00  0.00    -0.550 OA
ENDBRANCH   2   3
ENDBRANCH   1   2
BRANCH   1   6
ATOM      6  C   UNL     1      -2.351 -14.197  42.625  1.00  0.00     0.000 C 
BRANCH   6   7
ATOM      7  C   UNL     1      -3.634 -14.894  43.103  1.00  0.00    -0.000 C 
BRANCH   7   8
ATOM      8  C   UNL     1      -3.313 -15.992  44.125  1.00  0.00    -0.003 C 
ATOM      9  C   UNL     1      -2.040 -16.742  43.747  1.00  0.00     0.004 C 
ENDBRANCH   7   8
ENDBRANCH   6   7
ENDBRANCH   1   6
TORSDOF 5
ENDMDL
MODEL 6
REMARK VINA RESULT:    -2.846      4.029      6.866
REMARK INTER + INTRA:          -3.942
REMARK INTER:                  -3.780
REMARK INTRA:                  -0.162
REMARK UNBOUND:                -0.264
REMARK SMILES CCCCCCC(=O)[O-]
REMARK SMILES IDX 5 1 6 2 7 3 8 4 9 5 4 6 3 7 2 8 1 9
REMARK H PARENT
REMARK Flexibility Score: inf
ROOT
ATOM      1  C   UNL     1      -2.095 -14.550  42.976  1.00  0.00     0.006 C 
ENDROOT
BRANCH   1   2
ATOM      2  C   UNL     1      -2.578 -13.338  42.163  1.00  0.00     0.053 C 
BRANCH   2   3
ATOM      3  C   UNL     1      -1.574 -12.225  42.161  1.00  0.00     0.041 C 
ATOM      4  O   UNL     1      -0.567 -12.281  42.914  1.00  0.00    -0.550 OA
ATOM      5  O   UNL     1      -1.734 -11.146  41.303  1.00  0.00    -0.550 OA
ENDBRANCH   2   3
ENDBRANCH   1   2
BRANCH   1   6
ATOM      6  C   UNL     1      -3.219 -15.311  43.704  1.00  0.00     0.000 C 
BRANCH   6   7
ATOM      7  C   UNL     1      -2.802 -16.729  44.125  1.00  0.00    -0.000 C 
BRANCH   7   8
ATOM      8  C   UNL     1      -3.361 -17.775  43.153  1.00  0.00    -0.003 C 
ATOM      9  C   UNL     1      -2.245 -18.432  42.347  1.00  0.00     0.004 C 
ENDBRANCH   7   8
ENDBRANCH   6   7
ENDBRANCH   1   6
TORSDOF 5
ENDMDL
MODEL 7
REMARK VINA RESULT:    -2.835      2.343      3.278
REMARK INTER + INTRA:          -3.927
REMARK INTER:                  -3.531
REMARK INTRA:                  -0.396
REMARK UNBOUND:                -0.264
REMARK SMILES CCCCCCC(=O)[O-]
REMARK SMILES IDX 5 1 6 2 7 3 8 4 9 5 4 6 3 7 2 8 1 9
REMARK H PARENT
REMARK Flexibility Score: inf
ROOT
ATOM      1  C   UNL     1      -2.336  -9.733  41.507  1.00  0.00     0.006 C 
ENDROOT
BRANCH   1   2
ATOM      2  C   UNL     1      -1.516 -10.976  41.130  1.00  0.00     0.053 C 
BRANCH   2   3
ATOM      3  C   UNL     1      -1.340 -11.908  42.290  1.00  0.00     0.041 C 
ATOM      4  O   UNL     1      -0.546 -11.614  43.223  1.00  0.00    -0.550 OA
ATOM      5  O   UNL     1      -2.078 -13.082  42.358  1.00  0.00    -0.550 OA
ENDBRANCH   2   3
ENDBRANCH   1   2
BRANCH   1   6
ATOM      6  C   UNL     1      -3.828  -9.823  41.136  1.00  0.00     0.000 C 
BRANCH   6   7
ATOM      7  C   UNL     1      -4.754  -9.696  42.356  1.00  0.00    -0.000 C 
BRANCH   7   8
ATOM      8  C   UNL     1      -5.024 -11.069  42.984  1.00  0.00    -0.003 C 
ATOM      9  C   UNL     1      -5.460 -12.082  41.930  1.00  0.00     0.004 C 
ENDBRANCH   7   8
ENDBRANCH   6   7
ENDBRANCH   1   6
TORSDOF 5
ENDMDL
MODEL 8
REMARK VINA RESULT:    -2.808      2.090      2.479
REMARK INTER + INTRA:          -3.893
REMARK INTER:                  -3.549
REMARK INTRA:                  -0.345
REMARK UNBOUND:                -0.264
REMARK SMILES CCCCCCC(=O)[O-]
REMARK SMILES IDX 5 1 6 2 7 3 8 4 9 5 4 6 3 7 2 8 1 9
REMARK H PARENT
REMARK Flexibility Score: inf
ROOT
ATOM      1  C   UNL     1      -1.356 -10.765  40.561  1.00  0.00     0.006 C 
ENDROOT
BRANCH   1   2
ATOM      2  C   UNL     1      -2.002  -9.746  41.514  1.00  0.00     0.053 C 
BRANCH   2   3
ATOM      3  C   UNL     1      -3.498  -9.815  41.482  1.00  0.00     0.041 C 
ATOM      4  O   UNL     1      -4.140  -9.213  40.581  1.00  0.00    -0.550 OA
ATOM      5  O   UNL     1      -4.180 -10.572  42.425  1.00  0.00    -0.550 OA
ENDBRANCH   2   3
ENDBRANCH   1   2
BRANCH   1   6
ATOM      6  C   UNL     1      -0.455 -10.137  39.480  1.00  0.00     0.000 C 
BRANCH   6   7
ATOM      7  C   UNL     1      -0.608  -8.611  39.390  1.00  0.00    -0.000 C 
BRANCH   7   8
ATOM      8  C   UNL     1      -1.128  -8.194  38.009  1.00  0.00    -0.003 C 
ATOM      9  C   UNL     1      -2.408  -7.374  38.126  1.00  0.00     0.004 C 
ENDBRANCH   7   8
ENDBRANCH   6   7
ENDBRANCH   1   6
TORSDOF 5
ENDMDL
MODEL 9
REMARK VINA RESULT:    -2.776      2.928      5.139
REMARK INTER + INTRA:          -3.851
REMARK INTER:                  -3.782
REMARK INTRA:                  -0.069
REMARK UNBOUND:                -0.264
REMARK SMILES CCCCCCC(=O)[O-]
REMARK SMILES IDX 5 1 6 2 7 3 8 4 9 5 4 6 3 7 2 8 1 9
REMARK H PARENT
REMARK Flexibility Score: inf
ROOT
ATOM      1  C   UNL     1      -1.384 -11.117  41.182  1.00  0.00     0.006 C 
ENDROOT
BRANCH   1   2
ATOM      2  C   UNL     1      -2.025  -9.763  41.526  1.00  0.00     0.053 C 
BRANCH   2   3
ATOM      3  C   UNL     1      -2.063  -8.842  40.344  1.00  0.00     0.041 C 
ATOM      4  O   UNL     1      -1.072  -8.112  40.079  1.00  0.00    -0.550 OA
ATOM      5  O   UNL     1      -3.178  -8.817  39.518  1.00  0.00    -0.550 OA
ENDBRANCH   2   3
ENDBRANCH   1   2
BRANCH   1   6
ATOM      6  C   UNL     1      -1.366 -12.123  42.349  1.00  0.00     0.000 C 
BRANCH   6   7
ATOM      7  C   UNL     1      -2.466 -13.189  42.233  1.00  0.00    -0.000 C 
BRANCH   7   8
ATOM      8  C   UNL     1      -2.069 -14.469  42.978  1.00  0.00    -0.003 C 
ATOM      9  C   UNL     1      -3.300 -15.261  43.407  1.00  0.00     0.004 C 
ENDBRANCH   7   8
ENDBRANCH   6   7
ENDBRANCH   1   6
TORSDOF 5
ENDMDL
