MODEL 1
REMARK VINA RESULT:    -4.051      0.000      0.000
REMARK INTER + INTRA:          -5.390
REMARK INTER:                  -4.998
REMARK INTRA:                  -0.391
REMARK UNBOUND:                -0.391
REMARK SMILES COC(=O)c1ccccc1C(=O)OC
REMARK SMILES IDX 5 1 6 2 7 3 8 4 9 5 10 6 3 7 4 8 2 9 1 10 11 11 12 12 13 13
REMARK SMILES IDX 14 14
REMARK H PARENT
REMARK Flexibility Score: inf
ROOT
ATOM      1  C   UNL     1     -19.377  22.490  40.866  1.00  0.00     0.074 A 
ATOM      2  C   UNL     1     -18.104  21.920  41.060  1.00  0.00     0.016 A 
ATOM      3  C   UNL     1     -17.965  20.672  41.668  1.00  0.00     0.001 A 
ATOM      4  C   UNL     1     -19.092  19.973  42.094  1.00  0.00     0.001 A 
ATOM      5  C   UNL     1     -20.365  20.508  41.892  1.00  0.00     0.016 A 
ATOM      6  C   UNL     1     -20.530  21.754  41.260  1.00  0.00     0.074 A 
ENDROOT
BRANCH   1   7
ATOM      7  C   UNL     1     -19.443  23.864  40.319  1.00  0.00     0.338 C 
ATOM      8  O   UNL     1     -19.354  24.059  39.076  1.00  0.00    -0.246 OA
BRANCH   7   9
ATOM      9  O   UNL     1     -19.662  24.941  41.184  1.00  0.00    -0.465 OA
ATOM     10  C   UNL     1     -20.553  26.005  40.874  1.00  0.00     0.282 C 
ENDBRANCH   7   9
ENDBRANCH   1   7
BRANCH   6  11
ATOM     11  C   UNL     1     -21.911  22.208  40.977  1.00  0.00     0.338 C 
ATOM     12  O   UNL     1     -22.469  23.058  41.724  1.00  0.00    -0.246 OA
BRANCH  11  13
ATOM     13  O   UNL     1     -22.575  21.731  39.841  1.00  0.00    -0.465 OA
ATOM     14  C   UNL     1     -22.011  21.801  38.537  1.00  0.00     0.282 C 
ENDBRANCH  11  13
ENDBRANCH   6  11
TORSDOF 4
ENDMDL
MODEL 2
REMARK VINA RESULT:    -4.040      0.089      3.483
REMARK INTER + INTRA:          -5.376
REMARK INTER:                  -4.981
REMARK INTRA:                  -0.396
REMARK UNBOUND:                -0.391
REMARK SMILES COC(=O)c1ccccc1C(=O)OC
REMARK SMILES IDX 5 1 6 2 7 3 8 4 9 5 10 6 3 7 4 8 2 9 1 10 11 11 12 12 13 13
REMARK SMILES IDX 14 14
REMARK H PARENT
REMARK Flexibility Score: inf
ROOT
ATOM      1  C   UNL     1     -20.591  21.778  41.199  1.00  0.00     0.074 A 
ATOM      2  C   UNL     1     -20.434  20.534  41.839  1.00  0.00     0.016 A 
ATOM      3  C   UNL     1     -19.164  20.005  42.067  1.00  0.00     0.001 A 
ATOM      4  C   UNL     1     -18.031  20.706  41.660  1.00  0.00     0.001 A 
ATOM      5  C   UNL     1     -18.162  21.951  41.044  1.00  0.00     0.016 A 
ATOM      6  C   UNL     1     -19.432  22.515  40.824  1.00  0.00     0.074 A 
ENDROOT
BRANCH   1   7
ATOM      7  C   UNL     1     -21.968  22.226  40.887  1.00  0.00     0.338 C 
ATOM      8  O   UNL     1     -22.539  23.084  41.616  1.00  0.00    -0.246 OA
BRANCH   7   9
ATOM      9  O   UNL     1     -22.612  21.734  39.748  1.00  0.00    -0.465 OA
ATOM     10  C   UNL     1     -22.020  21.772  38.455  1.00  0.00     0.282 C 
ENDBRANCH   7   9
ENDBRANCH   1   7
BRANCH   6  11
ATOM     11  C   UNL     1     -19.493  23.887  40.270  1.00  0.00     0.338 C 
ATOM     12  O   UNL     1     -19.438  24.074  39.023  1.00  0.00    -0.246 OA
BRANCH  11  13
ATOM     13  O   UNL     1     -19.670  24.973  41.135  1.00  0.00    -0.465 OA
ATOM     14  C   UNL     1     -20.633  25.992  40.899  1.00  0.00     0.282 C 
ENDBRANCH  11  13
ENDBRANCH   6  11
TORSDOF 4
ENDMDL
MODEL 3
REMARK VINA RESULT:    -3.850     16.536     18.309
REMARK INTER + INTRA:          -5.142
REMARK INTER:                  -4.836
REMARK INTRA:                  -0.306
REMARK UNBOUND:                -0.391
REMARK SMILES COC(=O)c1ccccc1C(=O)OC
REMARK SMILES IDX 5 1 6 2 7 3 8 4 9 5 10 6 3 7 4 8 2 9 1 10 11 11 12 12 13 13
REMARK SMILES IDX 14 14
REMARK H PARENT
REMARK Flexibility Score: inf
ROOT
ATOM      1  C   UNL     1      -6.432  32.219  47.188  1.00  0.00     0.074 A 
ATOM      2  C   UNL     1      -6.633  33.437  47.865  1.00  0.00     0.016 A 
ATOM      3  C   UNL     1      -5.558  34.128  48.424  1.00  0.00     0.001 A 
ATOM      4  C   UNL     1      -4.267  33.616  48.319  1.00  0.00     0.001 A 
ATOM      5  C   UNL     1      -4.041  32.422  47.634  1.00  0.00     0.016 A 
ATOM      6  C   UNL     1      -5.107  31.720  47.042  1.00  0.00     0.074 A 
ENDROOT
BRANCH   1   7
ATOM      7  C   UNL     1      -7.628  31.484  46.719  1.00  0.00     0.338 C 
ATOM      8  O   UNL     1      -7.986  30.417  47.292  1.00  0.00    -0.246 OA
BRANCH   7   9
ATOM      9  O   UNL     1      -8.394  32.009  45.674  1.00  0.00    -0.465 OA
ATOM     10  C   UNL     1      -8.782  31.237  44.544  1.00  0.00     0.282 C 
ENDBRANCH   7   9
ENDBRANCH   1   7
BRANCH   6  11
ATOM     11  C   UNL     1      -4.781  30.522  46.234  1.00  0.00     0.338 C 
ATOM     12  O   UNL     1      -4.656  30.613  44.981  1.00  0.00    -0.246 OA
BRANCH  11  13
ATOM     13  O   UNL     1      -4.556  29.299  46.874  1.00  0.00    -0.465 OA
ATOM     14  C   UNL     1      -5.293  28.123  46.563  1.00  0.00     0.282 C 
ENDBRANCH  11  13
ENDBRANCH   6  11
TORSDOF 4
ENDMDL
MODEL 4
REMARK VINA RESULT:    -3.844     14.723     16.487
REMARK INTER + INTRA:          -5.134
REMARK INTER:                  -4.643
REMARK INTRA:                  -0.491
REMARK UNBOUND:                -0.391
REMARK SMILES COC(=O)c1ccccc1C(=O)OC
REMARK SMILES IDX 5 1 6 2 7 3 8 4 9 5 10 6 3 7 4 8 2 9 1 10 11 11 12 12 13 13
REMARK SMILES IDX 14 14
REMARK H PARENT
REMARK Flexibility Score: inf
ROOT
ATOM      1  C   UNL     1      -7.192  28.910  45.602  1.00  0.00     0.074 A 
ATOM      2  C   UNL     1      -7.606  27.579  45.405  1.00  0.00     0.016 A 
ATOM      3  C   UNL     1      -6.795  26.514  45.796  1.00  0.00     0.001 A 
ATOM      4  C   UNL     1      -5.557  26.758  46.387  1.00  0.00     0.001 A 
ATOM      5  C   UNL     1      -5.135  28.069  46.611  1.00  0.00     0.016 A 
ATOM      6  C   UNL     1      -5.948  29.158  46.247  1.00  0.00     0.074 A 
ENDROOT
BRANCH   1   7
ATOM      7  C   UNL     1      -8.051  29.988  45.062  1.00  0.00     0.338 C 
ATOM      8  O   UNL     1      -9.076  30.364  45.695  1.00  0.00    -0.246 OA
BRANCH   7   9
ATOM      9  O   UNL     1      -7.689  30.628  43.872  1.00  0.00    -0.465 OA
ATOM     10  C   UNL     1      -7.417  32.022  43.802  1.00  0.00     0.282 C 
ENDBRANCH   7   9
ENDBRANCH   1   7
BRANCH   6  11
ATOM     11  C   UNL     1      -5.489  30.517  46.619  1.00  0.00     0.338 C 
ATOM     12  O   UNL     1      -4.619  31.109  45.921  1.00  0.00    -0.246 OA
BRANCH  11  13
ATOM     13  O   UNL     1      -6.067  31.164  47.715  1.00  0.00    -0.465 OA
ATOM     14  C   UNL     1      -6.686  32.441  47.614  1.00  0.00     0.282 C 
ENDBRANCH  11  13
ENDBRANCH   6  11
TORSDOF 4
ENDMDL
MODEL 5
REMARK VINA RESULT:    -3.841     16.582     18.233
REMARK INTER + INTRA:          -5.131
REMARK INTER:                  -4.809
REMARK INTRA:                  -0.322
REMARK UNBOUND:                -0.391
REMARK SMILES COC(=O)c1ccccc1C(=O)OC
REMARK SMILES IDX 5 1 6 2 7 3 8 4 9 5 10 6 3 7 4 8 2 9 1 10 11 11 12 12 13 13
REMARK SMILES IDX 14 14
REMARK H PARENT
REMARK Flexibility Score: inf
ROOT
ATOM      1  C   UNL     1      -5.063  31.737  47.041  1.00  0.00     0.074 A 
ATOM      2  C   UNL     1      -3.983  32.416  47.637  1.00  0.00     0.016 A 
ATOM      3  C   UNL     1      -4.190  33.595  48.355  1.00  0.00     0.001 A 
ATOM      4  C   UNL     1      -5.475  34.115  48.488  1.00  0.00     0.001 A 
ATOM      5  C   UNL     1      -6.563  33.447  47.924  1.00  0.00     0.016 A 
ATOM      6  C   UNL     1      -6.380  32.245  47.216  1.00  0.00     0.074 A 
ENDROOT
BRANCH   1   7
ATOM      7  C   UNL     1      -4.757  30.558  46.200  1.00  0.00     0.338 C 
ATOM      8  O   UNL     1      -4.645  30.679  44.949  1.00  0.00    -0.246 OA
BRANCH   7   9
ATOM      9  O   UNL     1      -4.535  29.317  46.806  1.00  0.00    -0.465 OA
ATOM     10  C   UNL     1      -5.348  28.179  46.547  1.00  0.00     0.282 C 
ENDBRANCH   7   9
ENDBRANCH   1   7
BRANCH   6  11
ATOM     11  C   UNL     1      -7.589  31.532  46.743  1.00  0.00     0.338 C 
ATOM     12  O   UNL     1      -7.970  30.474  47.316  1.00  0.00    -0.246 OA
BRANCH  11  13
ATOM     13  O   UNL     1      -8.342  32.070  45.693  1.00  0.00    -0.465 OA
ATOM     14  C   UNL     1      -8.766  31.296  44.578  1.00  0.00     0.282 C 
ENDBRANCH  11  13
ENDBRANCH   6  11
TORSDOF 4
ENDMDL
MODEL 6
REMARK VINA RESULT:    -3.826     17.002     18.717
REMARK INTER + INTRA:          -5.112
REMARK INTER:                  -4.712
REMARK INTRA:                  -0.400
REMARK UNBOUND:                -0.391
REMARK SMILES COC(=O)c1ccccc1C(=O)OC
REMARK SMILES IDX 5 1 6 2 7 3 8 4 9 5 10 6 3 7 4 8 2 9 1 10 11 11 12 12 13 13
REMARK SMILES IDX 14 14
REMARK H PARENT
REMARK Flexibility Score: inf
ROOT
ATOM      1  C   UNL     1      -6.193  32.351  47.628  1.00  0.00     0.074 A 
ATOM      2  C   UNL     1      -6.116  30.945  47.631  1.00  0.00     0.016 A 
ATOM      3  C   UNL     1      -6.972  30.182  46.836  1.00  0.00     0.001 A 
ATOM      4  C   UNL     1      -7.919  30.807  46.028  1.00  0.00     0.001 A 
ATOM      5  C   UNL     1      -7.998  32.200  45.992  1.00  0.00     0.016 A 
ATOM      6  C   UNL     1      -7.129  32.990  46.767  1.00  0.00     0.074 A 
ENDROOT
BRANCH   1   7
ATOM      7  C   UNL     1      -5.333  33.092  48.579  1.00  0.00     0.338 C 
ATOM      8  O   UNL     1      -4.232  33.577  48.197  1.00  0.00    -0.246 OA
BRANCH   7   9
ATOM      9  O   UNL     1      -5.774  33.300  49.889  1.00  0.00    -0.465 OA
ATOM     10  C   UNL     1      -6.623  34.383  50.251  1.00  0.00     0.282 C 
ENDBRANCH   7   9
ENDBRANCH   1   7
BRANCH   6  11
ATOM     11  C   UNL     1      -7.192  34.460  46.594  1.00  0.00     0.338 C 
ATOM     12  O   UNL     1      -8.162  35.116  47.065  1.00  0.00    -0.246 OA
BRANCH  11  13
ATOM     13  O   UNL     1      -6.141  35.125  45.954  1.00  0.00    -0.465 OA
ATOM     14  C   UNL     1      -5.711  34.795  44.639  1.00  0.00     0.282 C 
ENDBRANCH  11  13
ENDBRANCH   6  11
TORSDOF 4
ENDMDL
MODEL 7
REMARK VINA RESULT:    -3.822     14.711     16.244
REMARK INTER + INTRA:          -5.108
REMARK INTER:                  -4.614
REMARK INTRA:                  -0.494
REMARK UNBOUND:                -0.391
REMARK SMILES COC(=O)c1ccccc1C(=O)OC
REMARK SMILES IDX 5 1 6 2 7 3 8 4 9 5 10 6 3 7 4 8 2 9 1 10 11 11 12 12 13 13
REMARK SMILES IDX 14 14
REMARK H PARENT
REMARK Flexibility Score: inf
ROOT
ATOM      1  C   UNL     1      -5.932  29.145  46.232  1.00  0.00     0.074 A 
ATOM      2  C   UNL     1      -5.101  28.069  46.594  1.00  0.00     0.016 A 
ATOM      3  C   UNL     1      -5.511  26.751  46.390  1.00  0.00     0.001 A 
ATOM      4  C   UNL     1      -6.756  26.485  45.824  1.00  0.00     0.001 A 
ATOM      5  C   UNL     1      -7.587  27.538  45.437  1.00  0.00     0.016 A 
ATOM      6  C   UNL     1      -7.184  28.874  45.612  1.00  0.00     0.074 A 
ENDROOT
BRANCH   1   7
ATOM      7  C   UNL     1      -5.482  30.512  46.580  1.00  0.00     0.338 C 
ATOM      8  O   UNL     1      -4.642  31.111  45.854  1.00  0.00    -0.246 OA
BRANCH   7   9
ATOM      9  O   UNL     1      -6.038  31.159  47.688  1.00  0.00    -0.465 OA
ATOM     10  C   UNL     1      -6.705  32.412  47.592  1.00  0.00     0.282 C 
ENDBRANCH   7   9
ENDBRANCH   1   7
BRANCH   6  11
ATOM     11  C   UNL     1      -8.065  29.937  45.075  1.00  0.00     0.338 C 
ATOM     12  O   UNL     1      -9.046  30.353  45.750  1.00  0.00    -0.246 OA
BRANCH  11  13
ATOM     13  O   UNL     1      -7.769  30.518  43.837  1.00  0.00    -0.465 OA
ATOM     14  C   UNL     1      -7.402  31.885  43.700  1.00  0.00     0.282 C 
ENDBRANCH  11  13
ENDBRANCH   6  11
TORSDOF 4
ENDMDL
MODEL 8
REMARK VINA RESULT:    -3.822      1.119      1.995
REMARK INTER + INTRA:          -5.108
REMARK INTER:                  -4.760
REMARK INTRA:                  -0.348
REMARK UNBOUND:                -0.391
REMARK SMILES COC(=O)c1ccccc1C(=O)OC
REMARK SMILES IDX 5 1 6 2 7 3 8 4 9 5 10 6 3 7 4 8 2 9 1 10 11 11 12 12 13 13
REMARK SMILES IDX 14 14
REMARK H PARENT
REMARK Flexibility Score: inf
ROOT
ATOM      1  C   UNL     1     -19.666  22.561  40.643  1.00  0.00     0.074 A 
ATOM      2  C   UNL     1     -18.411  21.975  40.894  1.00  0.00     0.016 A 
ATOM      3  C   UNL     1     -18.309  20.800  41.640  1.00  0.00     0.001 A 
ATOM      4  C   UNL     1     -19.454  20.193  42.148  1.00  0.00     0.001 A 
ATOM      5  C   UNL     1     -20.711  20.745  41.893  1.00  0.00     0.016 A 
ATOM      6  C   UNL     1     -20.839  21.915  41.124  1.00  0.00     0.074 A 
ENDROOT
BRANCH   1   7
ATOM      7  C   UNL     1     -19.691  23.866  39.943  1.00  0.00     0.338 C 
ATOM      8  O   UNL     1     -19.355  24.921  40.549  1.00  0.00    -0.246 OA
BRANCH   7   9
ATOM      9  O   UNL     1     -20.035  23.915  38.588  1.00  0.00    -0.465 OA
ATOM     10  C   UNL     1     -19.413  24.806  37.670  1.00  0.00     0.282 C 
ENDBRANCH   7   9
ENDBRANCH   1   7
BRANCH   6  11
ATOM     11  C   UNL     1     -22.207  22.380  40.797  1.00  0.00     0.338 C 
ATOM     12  O   UNL     1     -22.747  22.054  39.704  1.00  0.00    -0.246 OA
BRANCH  11  13
ATOM     13  O   UNL     1     -22.921  23.136  41.733  1.00  0.00    -0.465 OA
ATOM     14  C   UNL     1     -22.604  24.491  42.027  1.00  0.00     0.282 C 
ENDBRANCH  11  13
ENDBRANCH   6  11
TORSDOF 4
ENDMDL
