MODEL 1
REMARK VINA RESULT:    -3.423      0.000      0.000
REMARK INTER + INTRA:          -4.801
REMARK INTER:                  -4.424
REMARK INTRA:                  -0.378
REMARK UNBOUND:                -0.378
REMARK SMILES CCCCCCC(=O)[O-]
REMARK SMILES IDX 5 1 6 2 7 3 8 4 9 5 4 6 3 7 2 8 1 9
REMARK H PARENT
REMARK Flexibility Score: inf
ROOT
ATOM      1  C   UNL     1     160.005 161.709 182.185  1.00  0.00     0.006 C 
ENDROOT
BRANCH   1   2
ATOM      2  C   UNL     1     160.101 160.370 181.440  1.00  0.00     0.053 C 
BRANCH   2   3
ATOM      3  C   UNL     1     160.693 160.535 180.074  1.00  0.00     0.041 C 
ATOM      4  O   UNL     1     160.017 161.059 179.150  1.00  0.00    -0.550 OA
ATOM      5  O   UNL     1     161.980 160.080 179.813  1.00  0.00    -0.550 OA
ENDBRANCH   2   3
ENDBRANCH   1   2
BRANCH   1   6
ATOM      6  C   UNL     1     160.774 161.692 183.514  1.00  0.00     0.000 C 
BRANCH   6   7
ATOM      7  C   UNL     1     161.956 162.672 183.475  1.00  0.00    -0.000 C 
BRANCH   7   8
ATOM      8  C   UNL     1     163.119 162.162 182.610  1.00  0.00    -0.003 C 
ATOM      9  C   UNL     1     163.580 160.759 183.006  1.00  0.00     0.004 C 
ENDBRANCH   7   8
ENDBRANCH   6   7
ENDBRANCH   1   6
TORSDOF 5
ENDMDL
MODEL 2
REMARK VINA RESULT:    -3.386      1.611      3.456
REMARK INTER + INTRA:          -4.753
REMARK INTER:                  -4.442
REMARK INTRA:                  -0.312
REMARK UNBOUND:                -0.378
REMARK SMILES CCCCCCC(=O)[O-]
REMARK SMILES IDX 5 1 6 2 7 3 8 4 9 5 4 6 3 7 2 8 1 9
REMARK H PARENT
REMARK Flexibility Score: inf
ROOT
ATOM      1  C   UNL     1     162.550 162.285 183.052  1.00  0.00     0.006 C 
ENDROOT
BRANCH   1   2
ATOM      2  C   UNL     1     163.251 160.922 182.972  1.00  0.00     0.053 C 
BRANCH   2   3
ATOM      3  C   UNL     1     164.061 160.786 181.720  1.00  0.00     0.041 C 
ATOM      4  O   UNL     1     165.289 161.064 181.726  1.00  0.00    -0.550 OA
ATOM      5  O   UNL     1     163.453 160.385 180.537  1.00  0.00    -0.550 OA
ENDBRANCH   2   3
ENDBRANCH   1   2
BRANCH   1   6
ATOM      6  C   UNL     1     161.160 162.188 183.699  1.00  0.00     0.000 C 
BRANCH   6   7
ATOM      7  C   UNL     1     160.299 161.132 182.992  1.00  0.00    -0.000 C 
BRANCH   7   8
ATOM      8  C   UNL     1     160.035 161.474 181.518  1.00  0.00    -0.003 C 
ATOM      9  C   UNL     1     159.953 160.235 180.629  1.00  0.00     0.004 C 
ENDBRANCH   7   8
ENDBRANCH   6   7
ENDBRANCH   1   6
TORSDOF 5
ENDMDL
MODEL 3
REMARK VINA RESULT:    -3.376      3.113      4.144
REMARK INTER + INTRA:          -4.741
REMARK INTER:                  -4.495
REMARK INTRA:                  -0.246
REMARK UNBOUND:                -0.378
REMARK SMILES CCCCCCC(=O)[O-]
REMARK SMILES IDX 5 1 6 2 7 3 8 4 9 5 4 6 3 7 2 8 1 9
REMARK H PARENT
REMARK Flexibility Score: inf
ROOT
ATOM      1  C   UNL     1     161.179 163.501 182.688  1.00  0.00     0.006 C 
ENDROOT
BRANCH   1   2
ATOM      2  C   UNL     1     159.938 164.148 182.057  1.00  0.00     0.053 C 
BRANCH   2   3
ATOM      3  C   UNL     1     160.241 165.506 181.502  1.00  0.00     0.041 C 
ATOM      4  O   UNL     1     160.016 166.537 182.190  1.00  0.00    -0.550 OA
ATOM      5  O   UNL     1     160.741 165.636 180.212  1.00  0.00    -0.550 OA
ENDBRANCH   2   3
ENDBRANCH   1   2
BRANCH   1   6
ATOM      6  C   UNL     1     160.818 162.326 183.609  1.00  0.00     0.000 C 
BRANCH   6   7
ATOM      7  C   UNL     1     161.118 160.983 182.928  1.00  0.00    -0.000 C 
BRANCH   7   8
ATOM      8  C   UNL     1     159.884 160.381 182.239  1.00  0.00    -0.003 C 
ATOM      9  C   UNL     1     160.000 160.379 180.715  1.00  0.00     0.004 C 
ENDBRANCH   7   8
ENDBRANCH   6   7
ENDBRANCH   1   6
TORSDOF 5
ENDMDL
MODEL 4
REMARK VINA RESULT:    -3.343      1.405      1.754
REMARK INTER + INTRA:          -4.697
REMARK INTER:                  -4.316
REMARK INTRA:                  -0.382
REMARK UNBOUND:                -0.378
REMARK SMILES CCCCCCC(=O)[O-]
REMARK SMILES IDX 5 1 6 2 7 3 8 4 9 5 4 6 3 7 2 8 1 9
REMARK H PARENT
REMARK Flexibility Score: inf
ROOT
ATOM      1  C   UNL     1     160.174 161.301 181.249  1.00  0.00     0.006 C 
ENDROOT
BRANCH   1   2
ATOM      2  C   UNL     1     160.794 160.320 180.243  1.00  0.00     0.053 C 
BRANCH   2   3
ATOM      3  C   UNL     1     162.198 160.703 179.887  1.00  0.00     0.041 C 
ATOM      4  O   UNL     1     162.447 161.235 178.773  1.00  0.00    -0.550 OA
ATOM      5  O   UNL     1     163.237 160.442 180.772  1.00  0.00    -0.550 OA
ENDBRANCH   2   3
ENDBRANCH   1   2
BRANCH   1   6
ATOM      6  C   UNL     1     160.111 160.716 182.667  1.00  0.00     0.000 C 
BRANCH   6   7
ATOM      7  C   UNL     1     160.737 161.679 183.686  1.00  0.00    -0.000 C 
BRANCH   7   8
ATOM      8  C   UNL     1     161.389 162.901 183.021  1.00  0.00    -0.003 C 
ATOM      9  C   UNL     1     162.902 162.953 183.234  1.00  0.00     0.004 C 
ENDBRANCH   7   8
ENDBRANCH   6   7
ENDBRANCH   1   6
TORSDOF 5
ENDMDL
MODEL 5
REMARK VINA RESULT:    -3.305      2.020      2.757
REMARK INTER + INTRA:          -4.648
REMARK INTER:                  -4.281
REMARK INTRA:                  -0.368
REMARK UNBOUND:                -0.378
REMARK SMILES CCCCCCC(=O)[O-]
REMARK SMILES IDX 5 1 6 2 7 3 8 4 9 5 4 6 3 7 2 8 1 9
REMARK H PARENT
REMARK Flexibility Score: inf
ROOT
ATOM      1  C   UNL     1     160.596 160.312 180.395  1.00  0.00     0.006 C 
ENDROOT
BRANCH   1   2
ATOM      2  C   UNL     1     161.673 161.103 179.639  1.00  0.00     0.053 C 
BRANCH   2   3
ATOM      3  C   UNL     1     163.048 160.581 179.923  1.00  0.00     0.041 C 
ATOM      4  O   UNL     1     163.486 160.559 181.104  1.00  0.00    -0.550 OA
ATOM      5  O   UNL     1     163.858 160.150 178.881  1.00  0.00    -0.550 OA
ENDBRANCH   2   3
ENDBRANCH   1   2
BRANCH   1   6
ATOM      6  C   UNL     1     159.903 161.157 181.474  1.00  0.00     0.000 C 
BRANCH   6   7
ATOM      7  C   UNL     1     160.278 160.666 182.880  1.00  0.00    -0.000 C 
BRANCH   7   8
ATOM      8  C   UNL     1     160.934 161.762 183.734  1.00  0.00    -0.003 C 
ATOM      9  C   UNL     1     161.032 163.101 183.004  1.00  0.00     0.004 C 
ENDBRANCH   7   8
ENDBRANCH   6   7
ENDBRANCH   1   6
TORSDOF 5
ENDMDL
MODEL 6
REMARK VINA RESULT:    -3.298      1.636      2.418
REMARK INTER + INTRA:          -4.640
REMARK INTER:                  -4.256
REMARK INTRA:                  -0.384
REMARK UNBOUND:                -0.378
REMARK SMILES CCCCCCC(=O)[O-]
REMARK SMILES IDX 5 1 6 2 7 3 8 4 9 5 4 6 3 7 2 8 1 9
REMARK H PARENT
REMARK Flexibility Score: inf
ROOT
ATOM      1  C   UNL     1     159.918 160.127 180.716  1.00  0.00     0.006 C 
ENDROOT
BRANCH   1   2
ATOM      2  C   UNL     1     161.018 160.795 179.878  1.00  0.00     0.053 C 
BRANCH   2   3
ATOM      3  C   UNL     1     160.470 161.887 179.011  1.00  0.00     0.041 C 
ATOM      4  O   UNL     1     160.357 163.057 179.461  1.00  0.00    -0.550 OA
ATOM      5  O   UNL     1     160.054 161.605 177.716  1.00  0.00    -0.550 OA
ENDBRANCH   2   3
ENDBRANCH   1   2
BRANCH   1   6
ATOM      6  C   UNL     1     159.976 160.548 182.192  1.00  0.00     0.000 C 
BRANCH   6   7
ATOM      7  C   UNL     1     161.419 160.855 182.619  1.00  0.00    -0.000 C 
BRANCH   7   8
ATOM      8  C   UNL     1     161.545 162.202 183.347  1.00  0.00    -0.003 C 
ATOM      9  C   UNL     1     160.417 163.172 182.997  1.00  0.00     0.004 C 
ENDBRANCH   7   8
ENDBRANCH   6   7
ENDBRANCH   1   6
TORSDOF 5
ENDMDL
MODEL 7
REMARK VINA RESULT:    -3.275      1.350      2.102
REMARK INTER + INTRA:          -4.610
REMARK INTER:                  -4.231
REMARK INTRA:                  -0.379
REMARK UNBOUND:                -0.378
REMARK SMILES CCCCCCC(=O)[O-]
REMARK SMILES IDX 5 1 6 2 7 3 8 4 9 5 4 6 3 7 2 8 1 9
REMARK H PARENT
REMARK Flexibility Score: inf
ROOT
ATOM      1  C   UNL     1     160.761 160.902 182.919  1.00  0.00     0.006 C 
ENDROOT
BRANCH   1   2
ATOM      2  C   UNL     1     159.878 160.510 181.726  1.00  0.00     0.053 C 
BRANCH   2   3
ATOM      3  C   UNL     1     160.554 160.788 180.419  1.00  0.00     0.041 C 
ATOM      4  O   UNL     1     159.879 161.156 179.422  1.00  0.00    -0.550 OA
ATOM      5  O   UNL     1     161.926 160.607 180.292  1.00  0.00    -0.550 OA
ENDBRANCH   2   3
ENDBRANCH   1   2
BRANCH   1   6
ATOM      6  C   UNL     1     160.615 162.385 183.289  1.00  0.00     0.000 C 
BRANCH   6   7
ATOM      7  C   UNL     1     161.877 163.173 182.906  1.00  0.00    -0.000 C 
BRANCH   7   8
ATOM      8  C   UNL     1     161.557 164.462 182.133  1.00  0.00    -0.003 C 
ATOM      9  C   UNL     1     160.114 164.509 181.634  1.00  0.00     0.004 C 
ENDBRANCH   7   8
ENDBRANCH   6   7
ENDBRANCH   1   6
TORSDOF 5
ENDMDL
MODEL 8
REMARK VINA RESULT:    -3.184      1.987      2.571
REMARK INTER + INTRA:          -4.493
REMARK INTER:                  -4.150
REMARK INTRA:                  -0.342
REMARK UNBOUND:                -0.378
REMARK SMILES CCCCCCC(=O)[O-]
REMARK SMILES IDX 5 1 6 2 7 3 8 4 9 5 4 6 3 7 2 8 1 9
REMARK H PARENT
REMARK Flexibility Score: inf
ROOT
ATOM      1  C   UNL     1     161.206 163.467 182.849  1.00  0.00     0.006 C 
ENDROOT
BRANCH   1   2
ATOM      2  C   UNL     1     160.077 163.948 181.927  1.00  0.00     0.053 C 
BRANCH   2   3
ATOM      3  C   UNL     1     160.442 163.810 180.481  1.00  0.00     0.041 C 
ATOM      4  O   UNL     1     160.900 164.796 179.846  1.00  0.00    -0.550 OA
ATOM      5  O   UNL     1     160.247 162.601 179.826  1.00  0.00    -0.550 OA
ENDBRANCH   2   3
ENDBRANCH   1   2
BRANCH   1   6
ATOM      6  C   UNL     1     160.828 162.191 183.616  1.00  0.00     0.000 C 
BRANCH   6   7
ATOM      7  C   UNL     1     161.236 160.937 182.829  1.00  0.00    -0.000 C 
BRANCH   7   8
ATOM      8  C   UNL     1     162.572 161.111 182.091  1.00  0.00    -0.003 C 
ATOM      9  C   UNL     1     163.772 160.672 182.929  1.00  0.00     0.004 C 
ENDBRANCH   7   8
ENDBRANCH   6   7
ENDBRANCH   1   6
TORSDOF 5
ENDMDL
MODEL 9
REMARK VINA RESULT:    -3.119      1.344      2.467
REMARK INTER + INTRA:          -4.409
REMARK INTER:                  -3.941
REMARK INTRA:                  -0.468
REMARK UNBOUND:                -0.378
REMARK SMILES CCCCCCC(=O)[O-]
REMARK SMILES IDX 5 1 6 2 7 3 8 4 9 5 4 6 3 7 2 8 1 9
REMARK H PARENT
REMARK Flexibility Score: inf
ROOT
ATOM      1  C   UNL     1     163.318 161.319 181.046  1.00  0.00     0.006 C 
ENDROOT
BRANCH   1   2
ATOM      2  C   UNL     1     162.381 160.783 179.954  1.00  0.00     0.053 C 
BRANCH   2   3
ATOM      3  C   UNL     1     161.128 161.597 179.849  1.00  0.00     0.041 C 
ATOM      4  O   UNL     1     161.191 162.852 179.774  1.00  0.00    -0.550 OA
ATOM      5  O   UNL     1     159.888 160.971 179.869  1.00  0.00    -0.550 OA
ENDBRANCH   2   3
ENDBRANCH   1   2
BRANCH   1   6
ATOM      6  C   UNL     1     162.807 160.999 182.459  1.00  0.00     0.000 C 
BRANCH   6   7
ATOM      7  C   UNL     1     162.467 162.286 183.224  1.00  0.00    -0.000 C 
BRANCH   7   8
ATOM      8  C   UNL     1     160.971 162.401 183.553  1.00  0.00    -0.003 C 
ATOM      9  C   UNL     1     160.232 161.071 183.415  1.00  0.00     0.004 C 
ENDBRANCH   7   8
ENDBRANCH   6   7
ENDBRANCH   1   6
TORSDOF 5
ENDMDL
