MODEL 1
REMARK VINA RESULT:    -4.586      0.000      0.000
REMARK INTER + INTRA:          -6.604
REMARK INTER:                  -6.195
REMARK INTRA:                  -0.410
REMARK UNBOUND:                -0.410
REMARK SMILES CCCCCCCC(=O)[O-]
REMARK SMILES IDX 5 1 6 2 7 3 8 4 9 5 10 6 4 7 3 8 2 9 1 10
REMARK H PARENT
REMARK Flexibility Score: inf
ROOT
ATOM      1  C   UNL     1     -15.590   1.911 -12.032  1.00  0.00     0.000 C 
ENDROOT
BRANCH   1   2
ATOM      2  C   UNL     1     -15.322   2.967 -13.125  1.00  0.00     0.006 C 
BRANCH   2   3
ATOM      3  C   UNL     1     -14.610   2.427 -14.374  1.00  0.00     0.053 C 
BRANCH   3   4
ATOM      4  C   UNL     1     -15.531   2.340 -15.552  1.00  0.00     0.041 C 
ATOM      5  O   UNL     1     -16.325   1.370 -15.666  1.00  0.00    -0.550 OA
ATOM      6  O   UNL     1     -15.489   3.314 -16.542  1.00  0.00    -0.550 OA
ENDBRANCH   3   4
ENDBRANCH   2   3
ENDBRANCH   1   2
BRANCH   1   7
ATOM      7  C   UNL     1     -16.937   2.053 -11.299  1.00  0.00     0.000 C 
BRANCH   7   8
ATOM      8  C   UNL     1     -17.833   0.811 -11.449  1.00  0.00    -0.000 C 
BRANCH   8   9
ATOM      9  C   UNL     1     -17.397  -0.090 -12.616  1.00  0.00    -0.003 C 
ATOM     10  C   UNL     1     -18.541  -0.408 -13.579  1.00  0.00     0.004 C 
ENDBRANCH   8   9
ENDBRANCH   7   8
ENDBRANCH   1   7
TORSDOF 6
ENDMDL
MODEL 2
REMARK VINA RESULT:    -4.582      4.951      6.901
REMARK INTER + INTRA:          -6.599
REMARK INTER:                  -6.371
REMARK INTRA:                  -0.227
REMARK UNBOUND:                -0.410
REMARK SMILES CCCCCCCC(=O)[O-]
REMARK SMILES IDX 5 1 6 2 7 3 8 4 9 5 10 6 4 7 3 8 2 9 1 10
REMARK H PARENT
REMARK Flexibility Score: inf
ROOT
ATOM      1  C   UNL     1     -15.629   0.228 -19.947  1.00  0.00     0.000 C 
ENDROOT
BRANCH   1   2
ATOM      2  C   UNL     1     -16.956   0.015 -19.191  1.00  0.00     0.006 C 
BRANCH   2   3
ATOM      3  C   UNL     1     -17.294  -1.455 -18.896  1.00  0.00     0.053 C 
BRANCH   3   4
ATOM      4  C   UNL     1     -17.007  -1.822 -17.473  1.00  0.00     0.041 C 
ATOM      5  O   UNL     1     -17.544  -2.839 -16.960  1.00  0.00    -0.550 OA
ATOM      6  O   UNL     1     -16.173  -1.022 -16.701  1.00  0.00    -0.550 OA
ENDBRANCH   3   4
ENDBRANCH   2   3
ENDBRANCH   1   2
BRANCH   1   7
ATOM      7  C   UNL     1     -14.865   1.514 -19.580  1.00  0.00     0.000 C 
BRANCH   7   8
ATOM      8  C   UNL     1     -13.739   1.270 -18.560  1.00  0.00    -0.000 C 
BRANCH   8   9
ATOM      9  C   UNL     1     -13.566   2.446 -17.585  1.00  0.00    -0.003 C 
ATOM     10  C   UNL     1     -12.906   3.662 -18.233  1.00  0.00     0.004 C 
ENDBRANCH   8   9
ENDBRANCH   7   8
ENDBRANCH   1   7
TORSDOF 6
ENDMDL
MODEL 3
REMARK VINA RESULT:    -4.575      2.033      3.168
REMARK INTER + INTRA:          -6.589
REMARK INTER:                  -6.410
REMARK INTRA:                  -0.180
REMARK UNBOUND:                -0.410
REMARK SMILES CCCCCCCC(=O)[O-]
REMARK SMILES IDX 5 1 6 2 7 3 8 4 9 5 10 6 4 7 3 8 2 9 1 10
REMARK H PARENT
REMARK Flexibility Score: inf
ROOT
ATOM      1  C   UNL     1     -14.995   2.638 -14.920  1.00  0.00     0.000 C 
ENDROOT
BRANCH   1   2
ATOM      2  C   UNL     1     -13.521   2.636 -15.375  1.00  0.00     0.006 C 
BRANCH   2   3
ATOM      3  C   UNL     1     -13.265   3.345 -16.713  1.00  0.00     0.053 C 
BRANCH   3   4
ATOM      4  C   UNL     1     -13.626   2.482 -17.884  1.00  0.00     0.041 C 
ATOM      5  O   UNL     1     -14.006   3.005 -18.963  1.00  0.00    -0.550 OA
ATOM      6  O   UNL     1     -13.576   1.098 -17.770  1.00  0.00    -0.550 OA
ENDBRANCH   3   4
ENDBRANCH   2   3
ENDBRANCH   1   2
BRANCH   1   7
ATOM      7  C   UNL     1     -15.215   2.851 -13.410  1.00  0.00     0.000 C 
BRANCH   7   8
ATOM      8  C   UNL     1     -15.137   1.542 -12.605  1.00  0.00    -0.000 C 
BRANCH   8   9
ATOM      9  C   UNL     1     -15.819   1.657 -11.231  1.00  0.00    -0.003 C 
ATOM     10  C   UNL     1     -17.324   1.901 -11.335  1.00  0.00     0.004 C 
ENDBRANCH   8   9
ENDBRANCH   7   8
ENDBRANCH   1   7
TORSDOF 6
ENDMDL
MODEL 4
REMARK VINA RESULT:    -4.553      2.784      5.281
REMARK INTER + INTRA:          -6.559
REMARK INTER:                  -6.430
REMARK INTRA:                  -0.129
REMARK UNBOUND:                -0.410
REMARK SMILES CCCCCCCC(=O)[O-]
REMARK SMILES IDX 5 1 6 2 7 3 8 4 9 5 10 6 4 7 3 8 2 9 1 10
REMARK H PARENT
REMARK Flexibility Score: inf
ROOT
ATOM      1  C   UNL     1     -15.153   2.776 -13.512  1.00  0.00     0.000 C 
ENDROOT
BRANCH   1   2
ATOM      2  C   UNL     1     -15.273   1.549 -12.584  1.00  0.00     0.006 C 
BRANCH   2   3
ATOM      3  C   UNL     1     -15.962   1.830 -11.240  1.00  0.00     0.053 C 
BRANCH   3   4
ATOM      4  C   UNL     1     -17.208   1.016 -11.067  1.00  0.00     0.041 C 
ATOM      5  O   UNL     1     -17.855   0.627 -12.074  1.00  0.00    -0.550 OA
ATOM      6  O   UNL     1     -17.673   0.718  -9.792  1.00  0.00    -0.550 OA
ENDBRANCH   3   4
ENDBRANCH   2   3
ENDBRANCH   1   2
BRANCH   1   7
ATOM      7  C   UNL     1     -15.070   2.455 -15.016  1.00  0.00     0.000 C 
BRANCH   7   8
ATOM      8  C   UNL     1     -13.659   2.663 -15.594  1.00  0.00    -0.000 C 
BRANCH   8   9
ATOM      9  C   UNL     1     -13.639   2.600 -17.130  1.00  0.00    -0.003 C 
ATOM     10  C   UNL     1     -12.931   3.798 -17.763  1.00  0.00     0.004 C 
ENDBRANCH   8   9
ENDBRANCH   7   8
ENDBRANCH   1   7
TORSDOF 6
ENDMDL
MODEL 5
REMARK VINA RESULT:    -4.551     13.390     14.578
REMARK INTER + INTRA:          -6.557
REMARK INTER:                  -6.040
REMARK INTRA:                  -0.517
REMARK UNBOUND:                -0.410
REMARK SMILES CCCCCCCC(=O)[O-]
REMARK SMILES IDX 5 1 6 2 7 3 8 4 9 5 10 6 4 7 3 8 2 9 1 10
REMARK H PARENT
REMARK Flexibility Score: inf
ROOT
ATOM      1  C   UNL     1     -27.118  -1.467  -7.241  1.00  0.00     0.000 C 
ENDROOT
BRANCH   1   2
ATOM      2  C   UNL     1     -27.870  -0.145  -7.497  1.00  0.00     0.006 C 
BRANCH   2   3
ATOM      3  C   UNL     1     -28.362   0.042  -8.940  1.00  0.00     0.053 C 
BRANCH   3   4
ATOM      4  C   UNL     1     -29.856  -0.024  -9.037  1.00  0.00     0.041 C 
ATOM      5  O   UNL     1     -30.403  -0.595 -10.016  1.00  0.00    -0.550 OA
ATOM      6  O   UNL     1     -30.644   0.576  -8.062  1.00  0.00    -0.550 OA
ENDBRANCH   3   4
ENDBRANCH   2   3
ENDBRANCH   1   2
BRANCH   1   7
ATOM      7  C   UNL     1     -27.599  -2.269  -6.017  1.00  0.00     0.000 C 
BRANCH   7   8
ATOM      8  C   UNL     1     -29.116  -2.160  -5.790  1.00  0.00    -0.000 C 
BRANCH   8   9
ATOM      9  C   UNL     1     -29.881  -3.377  -6.336  1.00  0.00    -0.003 C 
ATOM     10  C   UNL     1     -31.066  -2.986  -7.217  1.00  0.00     0.004 C 
ENDBRANCH   8   9
ENDBRANCH   7   8
ENDBRANCH   1   7
TORSDOF 6
ENDMDL
MODEL 6
REMARK VINA RESULT:    -4.549      4.607      6.806
REMARK INTER + INTRA:          -6.554
REMARK INTER:                  -6.205
REMARK INTRA:                  -0.349
REMARK UNBOUND:                -0.410
REMARK SMILES CCCCCCCC(=O)[O-]
REMARK SMILES IDX 5 1 6 2 7 3 8 4 9 5 10 6 4 7 3 8 2 9 1 10
REMARK H PARENT
REMARK Flexibility Score: inf
ROOT
ATOM      1  C   UNL     1     -15.505   0.387 -20.387  1.00  0.00     0.000 C 
ENDROOT
BRANCH   1   2
ATOM      2  C   UNL     1     -16.107  -0.098 -19.052  1.00  0.00     0.006 C 
BRANCH   2   3
ATOM      3  C   UNL     1     -17.562   0.332 -18.814  1.00  0.00     0.053 C 
BRANCH   3   4
ATOM      4  C   UNL     1     -17.740   0.999 -17.484  1.00  0.00     0.041 C 
ATOM      5  O   UNL     1     -16.845   1.759 -17.032  1.00  0.00    -0.550 OA
ATOM      6  O   UNL     1     -18.880   0.753 -16.729  1.00  0.00    -0.550 OA
ENDBRANCH   3   4
ENDBRANCH   2   3
ENDBRANCH   1   2
BRANCH   1   7
ATOM      7  C   UNL     1     -14.747   1.726 -20.316  1.00  0.00     0.000 C 
BRANCH   7   8
ATOM      8  C   UNL     1     -14.014   1.928 -18.978  1.00  0.00    -0.000 C 
BRANCH   8   9
ATOM      9  C   UNL     1     -13.984   3.402 -18.542  1.00  0.00    -0.003 C 
ATOM     10  C   UNL     1     -12.876   3.699 -17.532  1.00  0.00     0.004 C 
ENDBRANCH   8   9
ENDBRANCH   7   8
ENDBRANCH   1   7
TORSDOF 6
ENDMDL
MODEL 7
REMARK VINA RESULT:    -4.486      2.486      3.953
REMARK INTER + INTRA:          -6.469
REMARK INTER:                  -6.251
REMARK INTRA:                  -0.217
REMARK UNBOUND:                -0.410
REMARK SMILES CCCCCCCC(=O)[O-]
REMARK SMILES IDX 5 1 6 2 7 3 8 4 9 5 10 6 4 7 3 8 2 9 1 10
REMARK H PARENT
REMARK Flexibility Score: inf
ROOT
ATOM      1  C   UNL     1     -15.247   2.999 -16.322  1.00  0.00     0.000 C 
ENDROOT
BRANCH   1   2
ATOM      2  C   UNL     1     -14.381   3.745 -17.357  1.00  0.00     0.006 C 
BRANCH   2   3
ATOM      3  C   UNL     1     -13.327   2.872 -18.056  1.00  0.00     0.053 C 
BRANCH   3   4
ATOM      4  C   UNL     1     -13.937   1.673 -18.714  1.00  0.00     0.041 C 
ATOM      5  O   UNL     1     -13.666   0.516 -18.299  1.00  0.00    -0.550 OA
ATOM      6  O   UNL     1     -14.780   1.832 -19.808  1.00  0.00    -0.550 OA
ENDBRANCH   3   4
ENDBRANCH   2   3
ENDBRANCH   1   2
BRANCH   1   7
ATOM      7  C   UNL     1     -14.515   2.582 -15.033  1.00  0.00     0.000 C 
BRANCH   7   8
ATOM      8  C   UNL     1     -15.382   2.745 -13.773  1.00  0.00    -0.000 C 
BRANCH   8   9
ATOM      9  C   UNL     1     -15.117   1.646 -12.731  1.00  0.00    -0.003 C 
ATOM     10  C   UNL     1     -15.849   1.891 -11.411  1.00  0.00     0.004 C 
ENDBRANCH   8   9
ENDBRANCH   7   8
ENDBRANCH   1   7
TORSDOF 6
ENDMDL
MODEL 8
REMARK VINA RESULT:    -4.452      1.988      3.529
REMARK INTER + INTRA:          -6.423
REMARK INTER:                  -5.922
REMARK INTRA:                  -0.501
REMARK UNBOUND:                -0.410
REMARK SMILES CCCCCCCC(=O)[O-]
REMARK SMILES IDX 5 1 6 2 7 3 8 4 9 5 10 6 4 7 3 8 2 9 1 10
REMARK H PARENT
REMARK Flexibility Score: inf
ROOT
ATOM      1  C   UNL     1     -15.540   2.126 -15.012  1.00  0.00     0.000 C 
ENDROOT
BRANCH   1   2
ATOM      2  C   UNL     1     -16.124   0.813 -15.573  1.00  0.00     0.006 C 
BRANCH   2   3
ATOM      3  C   UNL     1     -16.559  -0.200 -14.504  1.00  0.00     0.053 C 
BRANCH   3   4
ATOM      4  C   UNL     1     -18.050  -0.291 -14.390  1.00  0.00     0.041 C 
ATOM      5  O   UNL     1     -18.581  -0.692 -13.322  1.00  0.00    -0.550 OA
ATOM      6  O   UNL     1     -18.853   0.036 -15.476  1.00  0.00    -0.550 OA
ENDBRANCH   3   4
ENDBRANCH   2   3
ENDBRANCH   1   2
BRANCH   1   7
ATOM      7  C   UNL     1     -14.764   1.987 -13.689  1.00  0.00     0.000 C 
BRANCH   7   8
ATOM      8  C   UNL     1     -15.417   2.757 -12.528  1.00  0.00    -0.000 C 
BRANCH   8   9
ATOM      9  C   UNL     1     -15.883   1.828 -11.396  1.00  0.00    -0.003 C 
ATOM     10  C   UNL     1     -17.394   1.875 -11.174  1.00  0.00     0.004 C 
ENDBRANCH   8   9
ENDBRANCH   7   8
ENDBRANCH   1   7
TORSDOF 6
ENDMDL
MODEL 9
REMARK VINA RESULT:    -4.439     13.786     15.671
REMARK INTER + INTRA:          -6.405
REMARK INTER:                  -5.876
REMARK INTRA:                  -0.529
REMARK UNBOUND:                -0.410
REMARK SMILES CCCCCCCC(=O)[O-]
REMARK SMILES IDX 5 1 6 2 7 3 8 4 9 5 10 6 4 7 3 8 2 9 1 10
REMARK H PARENT
REMARK Flexibility Score: inf
ROOT
ATOM      1  C   UNL     1     -29.742  -3.320  -6.183  1.00  0.00     0.000 C 
ENDROOT
BRANCH   1   2
ATOM      2  C   UNL     1     -30.832  -2.988  -7.223  1.00  0.00     0.006 C 
BRANCH   2   3
ATOM      3  C   UNL     1     -31.431  -1.580  -7.093  1.00  0.00     0.053 C 
BRANCH   3   4
ATOM      4  C   UNL     1     -31.714  -0.964  -8.429  1.00  0.00     0.041 C 
ATOM      5  O   UNL     1     -30.878  -1.067  -9.364  1.00  0.00    -0.550 OA
ATOM      6  O   UNL     1     -32.887  -0.247  -8.632  1.00  0.00    -0.550 OA
ENDBRANCH   3   4
ENDBRANCH   2   3
ENDBRANCH   1   2
BRANCH   1   7
ATOM      7  C   UNL     1     -28.918  -2.116  -5.689  1.00  0.00     0.000 C 
BRANCH   7   8
ATOM      8  C   UNL     1     -27.437  -2.197  -6.098  1.00  0.00    -0.000 C 
BRANCH   8   9
ATOM      9  C   UNL     1     -27.143  -1.426  -7.395  1.00  0.00    -0.003 C 
ATOM     10  C   UNL     1     -27.975  -0.151  -7.529  1.00  0.00     0.004 C 
ENDBRANCH   8   9
ENDBRANCH   7   8
ENDBRANCH   1   7
TORSDOF 6
ENDMDL
