MODEL 1
REMARK VINA RESULT:    -1.896      0.000      0.000
REMARK INTER + INTRA:          -2.042
REMARK INTER:                  -2.395
REMARK INTRA:                   0.353
REMARK UNBOUND:                 0.353
REMARK SMILES COc1cc(-c2[o+]c3cc(O)cc(O)c3cc2O)cc(O)c1O
REMARK SMILES IDX 6 1 7 2 8 3 9 4 10 5 12 6 13 7 15 8 16 9 17 10 5 11 3 12
REMARK SMILES IDX 4 13 22 14 20 15 19 16 2 17 1 18 23 19 21 21 18 23 11 25
REMARK SMILES IDX 14 27
REMARK H PARENT 23 20 21 22 18 24 11 26 14 28
REMARK Flexibility Score: inf
ROOT
ATOM      1  C   UNL     1       6.352   2.526  12.613  1.00  0.00     0.402 A 
ATOM      2  O   UNL     1       6.590   3.133  13.773  1.00  0.00    -0.202 OA
ATOM      3  C   UNL     1       6.712   4.451  13.894  1.00  0.00     0.368 A 
ATOM      4  C   UNL     1       6.965   4.995  15.156  1.00  0.00     0.162 A 
ATOM      5  C   UNL     1       7.100   6.378  15.313  1.00  0.00     0.128 A 
ATOM      6  C   UNL     1       6.984   7.219  14.203  1.00  0.00     0.093 A 
ATOM      7  C   UNL     1       6.731   6.697  12.929  1.00  0.00     0.136 A 
ATOM      8  C   UNL     1       6.590   5.295  12.765  1.00  0.00     0.125 A 
ATOM      9  C   UNL     1       6.323   4.685  11.528  1.00  0.00     0.078 A 
ATOM     10  C   UNL     1       6.191   3.296  11.446  1.00  0.00     0.223 A 
ENDROOT
BRANCH   1  11
ATOM     11  C   UNL     1       6.246   1.049  12.604  1.00  0.00     0.091 A 
ATOM     12  C   UNL     1       6.098  -1.037  11.337  1.00  0.00     0.165 A 
ATOM     13  C   UNL     1       6.218   0.367  11.379  1.00  0.00     0.069 A 
ATOM     14  C   UNL     1       5.991  -1.755  12.543  1.00  0.00     0.200 A 
ATOM     15  C   UNL     1       5.997  -1.072  13.771  1.00  0.00     0.162 A 
ATOM     16  C   UNL     1       6.118   0.320  13.797  1.00  0.00     0.068 A 
BRANCH  12  17
ATOM     17  O   UNL     1       6.081  -1.744  10.125  1.00  0.00    -0.493 OA
ATOM     18  C   UNL     1       6.026  -1.140   8.836  1.00  0.00     0.278 C 
ENDBRANCH  12  17
BRANCH  14  19
ATOM     19  O   UNL     1       5.875  -3.145  12.533  1.00  0.00    -0.502 OA
ATOM     20  H   UNL     1       6.202  -3.723  13.299  1.00  0.00     0.293 HD
ENDBRANCH  14  19
BRANCH  15  21
ATOM     21  O   UNL     1       5.878  -1.760  14.978  1.00  0.00    -0.504 OA
ATOM     22  H   UNL     1       6.601  -2.383  15.318  1.00  0.00     0.293 HD
ENDBRANCH  15  21
ENDBRANCH   1  11
BRANCH  10  23
ATOM     23  O   UNL     1       5.877   2.693  10.227  1.00  0.00    -0.500 OA
ATOM     24  H   UNL     1       5.782   3.234   9.374  1.00  0.00     0.294 HD
ENDBRANCH  10  23
BRANCH   5  25
ATOM     25  O   UNL     1       7.352   6.928  16.567  1.00  0.00    -0.507 OA
ATOM     26  H   UNL     1       8.284   7.219  16.841  1.00  0.00     0.293 HD
ENDBRANCH   5  25
BRANCH   7  27
ATOM     27  O   UNL     1       6.631   7.605  11.870  1.00  0.00    -0.507 OA
ATOM     28  H   UNL     1       5.776   8.065  11.593  1.00  0.00     0.293 HD
ENDBRANCH   7  27
TORSDOF 7
ENDMDL
