MODEL 1
REMARK VINA RESULT:    -2.504      0.000      0.000
REMARK INTER + INTRA:          -3.043
REMARK INTER:                  -2.943
REMARK INTRA:                  -0.100
REMARK UNBOUND:                -0.100
REMARK SMILES O=C([O-])CCC(=O)[O-]
REMARK SMILES IDX 4 1 2 2 1 3 3 4 5 5 6 6 7 7 8 8
REMARK H PARENT
REMARK Flexibility Score: inf
ROOT
ATOM      1  C   UNL     1     148.047 154.693 160.132  1.00  0.00     0.059 C 
ENDROOT
BRANCH   1   2
ATOM      2  C   UNL     1     147.090 153.765 159.451  1.00  0.00     0.042 C 
ATOM      3  O   UNL     1     145.975 153.505 159.976  1.00  0.00    -0.550 OA
ATOM      4  O   UNL     1     147.445 153.155 158.254  1.00  0.00    -0.550 OA
ENDBRANCH   1   2
BRANCH   1   5
ATOM      5  C   UNL     1     148.534 155.796 159.186  1.00  0.00     0.059 C 
BRANCH   5   6
ATOM      6  C   UNL     1     147.717 157.043 159.327  1.00  0.00     0.042 C 
ATOM      7  O   UNL     1     146.971 157.204 160.328  1.00  0.00    -0.550 OA
ATOM      8  O   UNL     1     147.749 158.010 158.330  1.00  0.00    -0.550 OA
ENDBRANCH   5   6
ENDBRANCH   1   5
TORSDOF 3
ENDMDL
MODEL 2
REMARK VINA RESULT:    -2.489      0.688      1.316
REMARK INTER + INTRA:          -3.026
REMARK INTER:                  -2.888
REMARK INTRA:                  -0.137
REMARK UNBOUND:                -0.100
REMARK SMILES O=C([O-])CCC(=O)[O-]
REMARK SMILES IDX 4 1 2 2 1 3 3 4 5 5 6 6 7 7 8 8
REMARK H PARENT
REMARK Flexibility Score: inf
ROOT
ATOM      1  C   UNL     1     148.025 154.682 160.197  1.00  0.00     0.059 C 
ENDROOT
BRANCH   1   2
ATOM      2  C   UNL     1     147.056 153.762 159.519  1.00  0.00     0.042 C 
ATOM      3  O   UNL     1     145.943 153.510 160.049  1.00  0.00    -0.550 OA
ATOM      4  O   UNL     1     147.401 153.152 158.319  1.00  0.00    -0.550 OA
ENDBRANCH   1   2
BRANCH   1   5
ATOM      5  C   UNL     1     148.140 156.021 159.462  1.00  0.00     0.059 C 
BRANCH   5   6
ATOM      6  C   UNL     1     147.034 156.956 159.842  1.00  0.00     0.042 C 
ATOM      7  O   UNL     1     146.622 157.820 159.023  1.00  0.00    -0.550 OA
ATOM      8  O   UNL     1     146.484 156.899 161.116  1.00  0.00    -0.550 OA
ENDBRANCH   5   6
ENDBRANCH   1   5
TORSDOF 3
ENDMDL
MODEL 3
REMARK VINA RESULT:    -2.468      0.215      3.773
REMARK INTER + INTRA:          -3.001
REMARK INTER:                  -2.908
REMARK INTRA:                  -0.093
REMARK UNBOUND:                -0.100
REMARK SMILES O=C([O-])CCC(=O)[O-]
REMARK SMILES IDX 4 1 2 2 1 3 3 4 5 5 6 6 7 7 8 8
REMARK H PARENT
REMARK Flexibility Score: inf
ROOT
ATOM      1  C   UNL     1     148.541 155.768 159.069  1.00  0.00     0.059 C 
ENDROOT
BRANCH   1   2
ATOM      2  C   UNL     1     147.842 157.085 159.209  1.00  0.00     0.042 C 
ATOM      3  O   UNL     1     147.054 157.286 160.170  1.00  0.00    -0.550 OA
ATOM      4  O   UNL     1     148.032 158.077 158.255  1.00  0.00    -0.550 OA
ENDBRANCH   1   2
BRANCH   1   5
ATOM      5  C   UNL     1     148.086 154.771 160.141  1.00  0.00     0.059 C 
BRANCH   5   6
ATOM      6  C   UNL     1     147.105 153.781 159.592  1.00  0.00     0.042 C 
ATOM      7  O   UNL     1     147.375 153.132 158.546  1.00  0.00    -0.550 OA
ATOM      8  O   UNL     1     145.875 153.604 160.213  1.00  0.00    -0.550 OA
ENDBRANCH   5   6
ENDBRANCH   1   5
TORSDOF 3
ENDMDL
MODEL 4
REMARK VINA RESULT:    -2.464      1.831      2.394
REMARK INTER + INTRA:          -2.996
REMARK INTER:                  -2.872
REMARK INTRA:                  -0.124
REMARK UNBOUND:                -0.100
REMARK SMILES O=C([O-])CCC(=O)[O-]
REMARK SMILES IDX 4 1 2 2 1 3 3 4 5 5 6 6 7 7 8 8
REMARK H PARENT
REMARK Flexibility Score: inf
ROOT
ATOM      1  C   UNL     1     147.419 155.047 159.974  1.00  0.00     0.059 C 
ENDROOT
BRANCH   1   2
ATOM      2  C   UNL     1     146.849 153.748 159.494  1.00  0.00     0.042 C 
ATOM      3  O   UNL     1     145.893 153.208 160.110  1.00  0.00    -0.550 OA
ATOM      4  O   UNL     1     147.399 153.114 158.386  1.00  0.00    -0.550 OA
ENDBRANCH   1   2
BRANCH   1   5
ATOM      5  C   UNL     1     146.324 156.094 160.203  1.00  0.00     0.059 C 
BRANCH   5   6
ATOM      6  C   UNL     1     146.198 156.450 161.652  1.00  0.00     0.042 C 
ATOM      7  O   UNL     1     146.118 157.657 162.006  1.00  0.00    -0.550 OA
ATOM      8  O   UNL     1     146.208 155.451 162.617  1.00  0.00    -0.550 OA
ENDBRANCH   5   6
ENDBRANCH   1   5
TORSDOF 3
ENDMDL
MODEL 5
REMARK VINA RESULT:    -2.432      1.175      1.853
REMARK INTER + INTRA:          -2.959
REMARK INTER:                  -2.860
REMARK INTRA:                  -0.100
REMARK UNBOUND:                -0.100
REMARK SMILES O=C([O-])CCC(=O)[O-]
REMARK SMILES IDX 4 1 2 2 1 3 3 4 5 5 6 6 7 7 8 8
REMARK H PARENT
REMARK Flexibility Score: inf
ROOT
ATOM      1  C   UNL     1     147.928 154.938 159.792  1.00  0.00     0.059 C 
ENDROOT
BRANCH   1   2
ATOM      2  C   UNL     1     147.114 153.753 159.372  1.00  0.00     0.042 C 
ATOM      3  O   UNL     1     147.417 153.112 158.332  1.00  0.00    -0.550 OA
ATOM      4  O   UNL     1     145.997 153.379 160.109  1.00  0.00    -0.550 OA
ENDBRANCH   1   2
BRANCH   1   5
ATOM      5  C   UNL     1     147.459 155.495 161.140  1.00  0.00     0.059 C 
BRANCH   5   6
ATOM      6  C   UNL     1     146.682 156.764 160.971  1.00  0.00     0.042 C 
ATOM      7  O   UNL     1     146.334 157.436 161.979  1.00  0.00    -0.550 OA
ATOM      8  O   UNL     1     146.307 157.185 159.702  1.00  0.00    -0.550 OA
ENDBRANCH   5   6
ENDBRANCH   1   5
TORSDOF 3
ENDMDL
MODEL 6
REMARK VINA RESULT:    -2.401      1.223      3.815
REMARK INTER + INTRA:          -2.923
REMARK INTER:                  -2.813
REMARK INTRA:                  -0.109
REMARK UNBOUND:                -0.100
REMARK SMILES O=C([O-])CCC(=O)[O-]
REMARK SMILES IDX 4 1 2 2 1 3 3 4 5 5 6 6 7 7 8 8
REMARK H PARENT
REMARK Flexibility Score: inf
ROOT
ATOM      1  C   UNL     1     147.540 155.639 161.078  1.00  0.00     0.059 C 
ENDROOT
BRANCH   1   2
ATOM      2  C   UNL     1     146.857 156.957 160.878  1.00  0.00     0.042 C 
ATOM      3  O   UNL     1     147.035 157.895 161.698  1.00  0.00    -0.550 OA
ATOM      4  O   UNL     1     145.991 157.136 159.806  1.00  0.00    -0.550 OA
ENDBRANCH   1   2
BRANCH   1   5
ATOM      5  C   UNL     1     147.978 155.023 159.745  1.00  0.00     0.059 C 
BRANCH   5   6
ATOM      6  C   UNL     1     147.125 153.851 159.372  1.00  0.00     0.042 C 
ATOM      7  O   UNL     1     147.417 153.144 158.371  1.00  0.00    -0.550 OA
ATOM      8  O   UNL     1     145.982 153.562 160.107  1.00  0.00    -0.550 OA
ENDBRANCH   5   6
ENDBRANCH   1   5
TORSDOF 3
ENDMDL
MODEL 7
REMARK VINA RESULT:    -2.218      2.251      3.955
REMARK INTER + INTRA:          -2.708
REMARK INTER:                  -2.589
REMARK INTRA:                  -0.119
REMARK UNBOUND:                -0.100
REMARK SMILES O=C([O-])CCC(=O)[O-]
REMARK SMILES IDX 4 1 2 2 1 3 3 4 5 5 6 6 7 7 8 8
REMARK H PARENT
REMARK Flexibility Score: inf
ROOT
ATOM      1  C   UNL     1     146.386 156.479 160.592  1.00  0.00     0.059 C 
ENDROOT
BRANCH   1   2
ATOM      2  C   UNL     1     146.162 156.735 162.050  1.00  0.00     0.042 C 
ATOM      3  O   UNL     1     145.913 157.899 162.460  1.00  0.00    -0.550 OA
ATOM      4  O   UNL     1     146.268 155.692 162.963  1.00  0.00    -0.550 OA
ENDBRANCH   1   2
BRANCH   1   5
ATOM      5  C   UNL     1     146.064 155.029 160.216  1.00  0.00     0.059 C 
BRANCH   5   6
ATOM      6  C   UNL     1     147.290 154.286 159.785  1.00  0.00     0.042 C 
ATOM      7  O   UNL     1     148.400 154.517 160.336  1.00  0.00    -0.550 OA
ATOM      8  O   UNL     1     147.216 153.366 158.747  1.00  0.00    -0.550 OA
ENDBRANCH   5   6
ENDBRANCH   1   5
TORSDOF 3
ENDMDL
MODEL 8
REMARK VINA RESULT:    -2.187     11.119     12.200
REMARK INTER + INTRA:          -2.671
REMARK INTER:                  -2.645
REMARK INTRA:                  -0.026
REMARK UNBOUND:                -0.100
REMARK SMILES O=C([O-])CCC(=O)[O-]
REMARK SMILES IDX 4 1 2 2 1 3 3 4 5 5 6 6 7 7 8 8
REMARK H PARENT
REMARK Flexibility Score: inf
ROOT
ATOM      1  C   UNL     1     147.112 165.845 153.438  1.00  0.00     0.059 C 
ENDROOT
BRANCH   1   2
ATOM      2  C   UNL     1     147.171 165.738 154.930  1.00  0.00     0.042 C 
ATOM      3  O   UNL     1     148.148 165.173 155.488  1.00  0.00    -0.550 OA
ATOM      4  O   UNL     1     146.126 166.228 155.704  1.00  0.00    -0.550 OA
ENDBRANCH   1   2
BRANCH   1   5
ATOM      5  C   UNL     1     145.875 165.140 152.870  1.00  0.00     0.059 C 
BRANCH   5   6
ATOM      6  C   UNL     1     146.034 164.838 151.411  1.00  0.00     0.042 C 
ATOM      7  O   UNL     1     145.876 165.747 150.554  1.00  0.00    -0.550 OA
ATOM      8  O   UNL     1     146.317 163.542 150.997  1.00  0.00    -0.550 OA
ENDBRANCH   5   6
ENDBRANCH   1   5
TORSDOF 3
ENDMDL
MODEL 9
REMARK VINA RESULT:    -2.149     10.236     11.140
REMARK INTER + INTRA:          -2.626
REMARK INTER:                  -2.513
REMARK INTRA:                  -0.112
REMARK UNBOUND:                -0.100
REMARK SMILES O=C([O-])CCC(=O)[O-]
REMARK SMILES IDX 4 1 2 2 1 3 3 4 5 5 6 6 7 7 8 8
REMARK H PARENT
REMARK Flexibility Score: inf
ROOT
ATOM      1  C   UNL     1     146.359 164.771 152.425  1.00  0.00     0.059 C 
ENDROOT
BRANCH   1   2
ATOM      2  C   UNL     1     146.380 163.282 152.260  1.00  0.00     0.042 C 
ATOM      3  O   UNL     1     146.202 162.767 151.126  1.00  0.00    -0.550 OA
ATOM      4  O   UNL     1     146.558 162.463 153.368  1.00  0.00    -0.550 OA
ENDBRANCH   1   2
BRANCH   1   5
ATOM      5  C   UNL     1     145.884 165.177 153.824  1.00  0.00     0.059 C 
BRANCH   5   6
ATOM      6  C   UNL     1     146.975 165.842 154.605  1.00  0.00     0.042 C 
ATOM      7  O   UNL     1     146.692 166.654 155.526  1.00  0.00    -0.550 OA
ATOM      8  O   UNL     1     148.305 165.596 154.289  1.00  0.00    -0.550 OA
ENDBRANCH   5   6
ENDBRANCH   1   5
TORSDOF 3
ENDMDL
