MODEL 1
REMARK VINA RESULT:    -3.994      0.000      0.000
REMARK INTER + INTRA:          -5.668
REMARK INTER:                  -5.395
REMARK INTRA:                  -0.273
REMARK UNBOUND:                -0.273
REMARK SMILES CCCCCCCC(=O)[O-]
REMARK SMILES IDX 5 1 6 2 7 3 8 4 9 5 10 6 4 7 3 8 2 9 1 10
REMARK H PARENT
REMARK Flexibility Score: inf
ROOT
ATOM      1  C   UNL     1      13.332  25.130  33.270  1.00  0.00     0.000 C 
ENDROOT
BRANCH   1   2
ATOM      2  C   UNL     1      12.203  26.115  33.612  1.00  0.00     0.006 C 
BRANCH   2   3
ATOM      3  C   UNL     1      12.727  27.273  34.467  1.00  0.00     0.053 C 
BRANCH   3   4
ATOM      4  C   UNL     1      11.767  27.583  35.572  1.00  0.00     0.041 C 
ATOM      5  O   UNL     1      11.032  28.604  35.503  1.00  0.00    -0.550 OA
ATOM      6  O   UNL     1      11.718  26.773  36.699  1.00  0.00    -0.550 OA
ENDBRANCH   3   4
ENDBRANCH   2   3
ENDBRANCH   1   2
BRANCH   1   7
ATOM      7  C   UNL     1      14.723  25.781  33.322  1.00  0.00     0.000 C 
BRANCH   7   8
ATOM      8  C   UNL     1      15.861  24.749  33.299  1.00  0.00    -0.000 C 
BRANCH   8   9
ATOM      9  C   UNL     1      15.305  23.320  33.314  1.00  0.00    -0.003 C 
ATOM     10  C   UNL     1      16.430  22.292  33.370  1.00  0.00     0.004 C 
ENDBRANCH   8   9
ENDBRANCH   7   8
ENDBRANCH   1   7
TORSDOF 6
ENDMDL
MODEL 2
REMARK VINA RESULT:    -3.708      3.132      5.572
REMARK INTER + INTRA:          -5.281
REMARK INTER:                  -4.999
REMARK INTRA:                  -0.282
REMARK UNBOUND:                -0.273
REMARK SMILES CCCCCCCC(=O)[O-]
REMARK SMILES IDX 5 1 6 2 7 3 8 4 9 5 10 6 4 7 3 8 2 9 1 10
REMARK H PARENT
REMARK Flexibility Score: inf
ROOT
ATOM      1  C   UNL     1      14.630  25.977  33.354  1.00  0.00     0.000 C 
ENDROOT
BRANCH   1   2
ATOM      2  C   UNL     1      15.776  24.955  33.363  1.00  0.00     0.006 C 
BRANCH   2   3
ATOM      3  C   UNL     1      15.269  23.559  32.988  1.00  0.00     0.053 C 
BRANCH   3   4
ATOM      4  C   UNL     1      15.876  22.524  33.881  1.00  0.00     0.041 C 
ATOM      5  O   UNL     1      16.746  21.732  33.432  1.00  0.00    -0.550 OA
ATOM      6  O   UNL     1      15.449  22.403  35.197  1.00  0.00    -0.550 OA
ENDBRANCH   3   4
ENDBRANCH   2   3
ENDBRANCH   1   2
BRANCH   1   7
ATOM      7  C   UNL     1      13.244  25.314  33.386  1.00  0.00     0.000 C 
BRANCH   7   8
ATOM      8  C   UNL     1      12.122  26.302  33.741  1.00  0.00    -0.000 C 
BRANCH   8   9
ATOM      9  C   UNL     1      12.612  27.347  34.750  1.00  0.00    -0.003 C 
ATOM     10  C   UNL     1      11.441  28.036  35.444  1.00  0.00     0.004 C 
ENDBRANCH   8   9
ENDBRANCH   7   8
ENDBRANCH   1   7
TORSDOF 6
ENDMDL
MODEL 3
REMARK VINA RESULT:    -3.622      1.448      2.133
REMARK INTER + INTRA:          -5.165
REMARK INTER:                  -4.978
REMARK INTRA:                  -0.187
REMARK UNBOUND:                -0.273
REMARK SMILES CCCCCCCC(=O)[O-]
REMARK SMILES IDX 5 1 6 2 7 3 8 4 9 5 10 6 4 7 3 8 2 9 1 10
REMARK H PARENT
REMARK Flexibility Score: inf
ROOT
ATOM      1  C   UNL     1      14.494  23.992  33.329  1.00  0.00     0.000 C 
ENDROOT
BRANCH   1   2
ATOM      2  C   UNL     1      14.051  25.441  33.077  1.00  0.00     0.006 C 
BRANCH   2   3
ATOM      3  C   UNL     1      12.681  25.711  33.706  1.00  0.00     0.053 C 
BRANCH   3   4
ATOM      4  C   UNL     1      12.722  26.958  34.532  1.00  0.00     0.041 C 
ATOM      5  O   UNL     1      13.793  27.611  34.640  1.00  0.00    -0.550 OA
ATOM      6  O   UNL     1      11.590  27.374  35.221  1.00  0.00    -0.550 OA
ENDBRANCH   3   4
ENDBRANCH   2   3
ENDBRANCH   1   2
BRANCH   1   7
ATOM      7  C   UNL     1      16.022  23.831  33.333  1.00  0.00     0.000 C 
BRANCH   7   8
ATOM      8  C   UNL     1      16.503  22.766  34.330  1.00  0.00    -0.000 C 
BRANCH   8   9
ATOM      9  C   UNL     1      16.730  21.422  33.628  1.00  0.00    -0.003 C 
ATOM     10  C   UNL     1      15.744  20.368  34.122  1.00  0.00     0.004 C 
ENDBRANCH   8   9
ENDBRANCH   7   8
ENDBRANCH   1   7
TORSDOF 6
ENDMDL
MODEL 4
REMARK VINA RESULT:    -3.519      1.832      2.794
REMARK INTER + INTRA:          -5.027
REMARK INTER:                  -4.750
REMARK INTRA:                  -0.276
REMARK UNBOUND:                -0.273
REMARK SMILES CCCCCCCC(=O)[O-]
REMARK SMILES IDX 5 1 6 2 7 3 8 4 9 5 10 6 4 7 3 8 2 9 1 10
REMARK H PARENT
REMARK Flexibility Score: inf
ROOT
ATOM      1  C   UNL     1      14.258  25.458  33.573  1.00  0.00     0.000 C 
ENDROOT
BRANCH   1   2
ATOM      2  C   UNL     1      12.830  25.641  34.110  1.00  0.00     0.006 C 
BRANCH   2   3
ATOM      3  C   UNL     1      12.428  27.119  34.102  1.00  0.00     0.053 C 
BRANCH   3   4
ATOM      4  C   UNL     1      11.759  27.485  35.389  1.00  0.00     0.041 C 
ATOM      5  O   UNL     1      11.067  28.535  35.466  1.00  0.00    -0.550 OA
ATOM      6  O   UNL     1      11.938  26.694  36.516  1.00  0.00    -0.550 OA
ENDBRANCH   3   4
ENDBRANCH   2   3
ENDBRANCH   1   2
BRANCH   1   7
ATOM      7  C   UNL     1      15.224  26.542  34.075  1.00  0.00     0.000 C 
BRANCH   7   8
ATOM      8  C   UNL     1      16.364  26.824  33.084  1.00  0.00    -0.000 C 
BRANCH   8   9
ATOM      9  C   UNL     1      16.410  28.311  32.712  1.00  0.00    -0.003 C 
ATOM     10  C   UNL     1      17.123  28.524  31.380  1.00  0.00     0.004 C 
ENDBRANCH   8   9
ENDBRANCH   7   8
ENDBRANCH   1   7
TORSDOF 6
ENDMDL
MODEL 5
REMARK VINA RESULT:    -3.479      3.727      5.723
REMARK INTER + INTRA:          -4.973
REMARK INTER:                  -4.714
REMARK INTRA:                  -0.259
REMARK UNBOUND:                -0.273
REMARK SMILES CCCCCCCC(=O)[O-]
REMARK SMILES IDX 5 1 6 2 7 3 8 4 9 5 10 6 4 7 3 8 2 9 1 10
REMARK H PARENT
REMARK Flexibility Score: inf
ROOT
ATOM      1  C   UNL     1      15.296  24.141  32.976  1.00  0.00     0.000 C 
ENDROOT
BRANCH   1   2
ATOM      2  C   UNL     1      15.978  22.819  33.359  1.00  0.00     0.006 C 
BRANCH   2   3
ATOM      3  C   UNL     1      15.825  22.538  34.857  1.00  0.00     0.053 C 
BRANCH   3   4
ATOM      4  C   UNL     1      15.553  21.086  35.092  1.00  0.00     0.041 C 
ATOM      5  O   UNL     1      15.157  20.689  36.220  1.00  0.00    -0.550 OA
ATOM      6  O   UNL     1      15.782  20.162  34.080  1.00  0.00    -0.550 OA
ENDBRANCH   3   4
ENDBRANCH   2   3
ENDBRANCH   1   2
BRANCH   1   7
ATOM      7  C   UNL     1      14.262  24.598  34.016  1.00  0.00     0.000 C 
BRANCH   7   8
ATOM      8  C   UNL     1      13.008  25.213  33.375  1.00  0.00    -0.000 C 
BRANCH   8   9
ATOM      9  C   UNL     1      12.644  26.542  34.048  1.00  0.00    -0.003 C 
ATOM     10  C   UNL     1      13.893  27.293  34.497  1.00  0.00     0.004 C 
ENDBRANCH   8   9
ENDBRANCH   7   8
ENDBRANCH   1   7
TORSDOF 6
ENDMDL
MODEL 6
REMARK VINA RESULT:    -3.430      2.990      5.299
REMARK INTER + INTRA:          -4.906
REMARK INTER:                  -4.547
REMARK INTRA:                  -0.359
REMARK UNBOUND:                -0.273
REMARK SMILES CCCCCCCC(=O)[O-]
REMARK SMILES IDX 5 1 6 2 7 3 8 4 9 5 10 6 4 7 3 8 2 9 1 10
REMARK H PARENT
REMARK Flexibility Score: inf
ROOT
ATOM      1  C   UNL     1      15.237  27.807  34.213  1.00  0.00     0.000 C 
ENDROOT
BRANCH   1   2
ATOM      2  C   UNL     1      15.358  26.743  33.112  1.00  0.00     0.006 C 
BRANCH   2   3
ATOM      3  C   UNL     1      16.504  25.771  33.413  1.00  0.00     0.053 C 
BRANCH   3   4
ATOM      4  C   UNL     1      16.011  24.359  33.388  1.00  0.00     0.041 C 
ATOM      5  O   UNL     1      14.886  24.089  32.892  1.00  0.00    -0.550 OA
ATOM      6  O   UNL     1      16.773  23.346  33.957  1.00  0.00    -0.550 OA
ENDBRANCH   3   4
ENDBRANCH   2   3
ENDBRANCH   1   2
BRANCH   1   7
ATOM      7  C   UNL     1      13.920  27.703  34.997  1.00  0.00     0.000 C 
BRANCH   7   8
ATOM      8  C   UNL     1      12.903  26.768  34.324  1.00  0.00    -0.000 C 
BRANCH   8   9
ATOM      9  C   UNL     1      11.524  27.433  34.233  1.00  0.00    -0.003 C 
ATOM     10  C   UNL     1      11.308  28.414  35.380  1.00  0.00     0.004 C 
ENDBRANCH   8   9
ENDBRANCH   7   8
ENDBRANCH   1   7
TORSDOF 6
ENDMDL
MODEL 7
REMARK VINA RESULT:    -3.259      2.771      3.102
REMARK INTER + INTRA:          -4.675
REMARK INTER:                  -4.253
REMARK INTRA:                  -0.421
REMARK UNBOUND:                -0.273
REMARK SMILES CCCCCCCC(=O)[O-]
REMARK SMILES IDX 5 1 6 2 7 3 8 4 9 5 10 6 4 7 3 8 2 9 1 10
REMARK H PARENT
REMARK Flexibility Score: inf
ROOT
ATOM      1  C   UNL     1      13.353  25.489  34.376  1.00  0.00     0.000 C 
ENDROOT
BRANCH   1   2
ATOM      2  C   UNL     1      13.457  27.017  34.264  1.00  0.00     0.006 C 
BRANCH   2   3
ATOM      3  C   UNL     1      14.733  27.530  34.938  1.00  0.00     0.053 C 
BRANCH   3   4
ATOM      4  C   UNL     1      15.613  28.214  33.941  1.00  0.00     0.041 C 
ATOM      5  O   UNL     1      15.949  27.622  32.881  1.00  0.00    -0.550 OA
ATOM      6  O   UNL     1      16.103  29.487  34.202  1.00  0.00    -0.550 OA
ENDBRANCH   3   4
ENDBRANCH   2   3
ENDBRANCH   1   2
BRANCH   1   7
ATOM      7  C   UNL     1      13.713  24.772  33.065  1.00  0.00     0.000 C 
BRANCH   7   8
ATOM      8  C   UNL     1      15.126  24.168  33.089  1.00  0.00    -0.000 C 
BRANCH   8   9
ATOM      9  C   UNL     1      15.338  23.320  34.349  1.00  0.00    -0.003 C 
ATOM     10  C   UNL     1      15.779  21.904  33.993  1.00  0.00     0.004 C 
ENDBRANCH   8   9
ENDBRANCH   7   8
ENDBRANCH   1   7
TORSDOF 6
ENDMDL
MODEL 8
REMARK VINA RESULT:    -3.245      1.357      1.770
REMARK INTER + INTRA:          -4.655
REMARK INTER:                  -4.170
REMARK INTRA:                  -0.485
REMARK UNBOUND:                -0.273
REMARK SMILES CCCCCCCC(=O)[O-]
REMARK SMILES IDX 5 1 6 2 7 3 8 4 9 5 10 6 4 7 3 8 2 9 1 10
REMARK H PARENT
REMARK Flexibility Score: inf
ROOT
ATOM      1  C   UNL     1      15.092  27.282  35.114  1.00  0.00     0.000 C 
ENDROOT
BRANCH   1   2
ATOM      2  C   UNL     1      14.010  27.089  34.041  1.00  0.00     0.006 C 
BRANCH   2   3
ATOM      3  C   UNL     1      12.869  26.212  34.566  1.00  0.00     0.053 C 
BRANCH   3   4
ATOM      4  C   UNL     1      11.981  26.999  35.478  1.00  0.00     0.041 C 
ATOM      5  O   UNL     1      11.376  28.017  35.049  1.00  0.00    -0.550 OA
ATOM      6  O   UNL     1      11.859  26.637  36.813  1.00  0.00    -0.550 OA
ENDBRANCH   3   4
ENDBRANCH   2   3
ENDBRANCH   1   2
BRANCH   1   7
ATOM      7  C   UNL     1      16.488  26.861  34.630  1.00  0.00     0.000 C 
BRANCH   7   8
ATOM      8  C   UNL     1      16.436  25.926  33.412  1.00  0.00    -0.000 C 
BRANCH   8   9
ATOM      9  C   UNL     1      16.516  24.457  33.846  1.00  0.00    -0.003 C 
ATOM     10  C   UNL     1      15.457  23.616  33.141  1.00  0.00     0.004 C 
ENDBRANCH   8   9
ENDBRANCH   7   8
ENDBRANCH   1   7
TORSDOF 6
ENDMDL
MODEL 9
REMARK VINA RESULT:    -3.196      2.519      3.966
REMARK INTER + INTRA:          -4.590
REMARK INTER:                  -4.442
REMARK INTRA:                  -0.148
REMARK UNBOUND:                -0.273
REMARK SMILES CCCCCCCC(=O)[O-]
REMARK SMILES IDX 5 1 6 2 7 3 8 4 9 5 10 6 4 7 3 8 2 9 1 10
REMARK H PARENT
REMARK Flexibility Score: inf
ROOT
ATOM      1  C   UNL     1      15.619  22.864  34.175  1.00  0.00     0.000 C 
ENDROOT
BRANCH   1   2
ATOM      2  C   UNL     1      15.260  23.749  32.972  1.00  0.00     0.006 C 
BRANCH   2   3
ATOM      3  C   UNL     1      14.958  25.183  33.417  1.00  0.00     0.053 C 
BRANCH   3   4
ATOM      4  C   UNL     1      13.580  25.273  33.991  1.00  0.00     0.041 C 
ATOM      5  O   UNL     1      12.575  25.241  33.232  1.00  0.00    -0.550 OA
ATOM      6  O   UNL     1      13.405  25.439  35.359  1.00  0.00    -0.550 OA
ENDBRANCH   3   4
ENDBRANCH   2   3
ENDBRANCH   1   2
BRANCH   1   7
ATOM      7  C   UNL     1      16.303  21.552  33.764  1.00  0.00     0.000 C 
BRANCH   7   8
ATOM      8  C   UNL     1      15.588  20.311  34.319  1.00  0.00    -0.000 C 
BRANCH   8   9
ATOM      9  C   UNL     1      16.572  19.151  34.513  1.00  0.00    -0.003 C 
ATOM     10  C   UNL     1      15.836  17.835  34.745  1.00  0.00     0.004 C 
ENDBRANCH   8   9
ENDBRANCH   7   8
ENDBRANCH   1   7
TORSDOF 6
ENDMDL
