MODEL 1
REMARK VINA RESULT:    -3.924      0.000      0.000
REMARK INTER + INTRA:          -7.114
REMARK INTER:                  -6.218
REMARK INTRA:                  -0.896
REMARK UNBOUND:                -0.896
REMARK SMILES CCCCCCCCCCCC(=O)[O-]
REMARK SMILES IDX 7 1 8 2 9 3 10 4 11 5 12 6 13 7 14 8 6 9 5 10 4 11 3 12 2 13
REMARK SMILES IDX 1 14
REMARK H PARENT
REMARK Flexibility Score: inf
ROOT
ATOM      1  C   UNL     1      33.584  51.941  26.552  1.00  0.00     0.000 C 
ENDROOT
BRANCH   1   2
ATOM      2  C   UNL     1      33.363  50.420  26.473  1.00  0.00     0.000 C 
BRANCH   2   3
ATOM      3  C   UNL     1      34.643  49.573  26.345  1.00  0.00     0.000 C 
BRANCH   3   4
ATOM      4  C   UNL     1      34.525  48.460  25.291  1.00  0.00     0.006 C 
BRANCH   4   5
ATOM      5  C   UNL     1      33.209  47.681  25.415  1.00  0.00     0.053 C 
BRANCH   5   6
ATOM      6  C   UNL     1      33.446  46.212  25.589  1.00  0.00     0.041 C 
ATOM      7  O   UNL     1      34.293  45.800  26.425  1.00  0.00    -0.550 OA
ATOM      8  O   UNL     1      32.712  45.296  24.846  1.00  0.00    -0.550 OA
ENDBRANCH   5   6
ENDBRANCH   4   5
ENDBRANCH   3   4
ENDBRANCH   2   3
ENDBRANCH   1   2
BRANCH   1   9
ATOM      9  C   UNL     1      32.287  52.722  26.820  1.00  0.00     0.000 C 
BRANCH   9  10
ATOM     10  C   UNL     1      31.763  53.462  25.574  1.00  0.00    -0.000 C 
BRANCH  10  11
ATOM     11  C   UNL     1      30.290  53.188  25.218  1.00  0.00    -0.000 C 
BRANCH  11  12
ATOM     12  C   UNL     1      29.800  51.815  25.701  1.00  0.00    -0.000 C 
BRANCH  12  13
ATOM     13  C   UNL     1      29.567  50.867  24.518  1.00  0.00    -0.003 C 
ATOM     14  C   UNL     1      30.881  50.505  23.832  1.00  0.00     0.004 C 
ENDBRANCH  12  13
ENDBRANCH  11  12
ENDBRANCH  10  11
ENDBRANCH   9  10
ENDBRANCH   1   9
TORSDOF 10
ENDMDL
MODEL 2
REMARK VINA RESULT:    -3.804      1.315      2.861
REMARK INTER + INTRA:          -6.924
REMARK INTER:                  -5.885
REMARK INTRA:                  -1.039
REMARK UNBOUND:                -0.896
REMARK SMILES CCCCCCCCCCCC(=O)[O-]
REMARK SMILES IDX 7 1 8 2 9 3 10 4 11 5 12 6 13 7 14 8 6 9 5 10 4 11 3 12 2 13
REMARK SMILES IDX 1 14
REMARK H PARENT
REMARK Flexibility Score: inf
ROOT
ATOM      1  C   UNL     1      31.642  49.920  24.318  1.00  0.00     0.000 C 
ENDROOT
BRANCH   1   2
ATOM      2  C   UNL     1      31.362  49.463  25.762  1.00  0.00     0.000 C 
BRANCH   2   3
ATOM      3  C   UNL     1      32.450  48.577  26.395  1.00  0.00     0.000 C 
BRANCH   3   4
ATOM      4  C   UNL     1      33.631  48.304  25.448  1.00  0.00     0.006 C 
BRANCH   4   5
ATOM      5  C   UNL     1      34.973  48.266  26.191  1.00  0.00     0.053 C 
BRANCH   5   6
ATOM      6  C   UNL     1      35.399  46.863  26.499  1.00  0.00     0.041 C 
ATOM      7  O   UNL     1      34.628  46.089  27.125  1.00  0.00    -0.550 OA
ATOM      8  O   UNL     1      36.638  46.403  26.071  1.00  0.00    -0.550 OA
ENDBRANCH   5   6
ENDBRANCH   4   5
ENDBRANCH   3   4
ENDBRANCH   2   3
ENDBRANCH   1   2
BRANCH   1   9
ATOM      9  C   UNL     1      30.605  50.929  23.798  1.00  0.00     0.000 C 
BRANCH   9  10
ATOM     10  C   UNL     1      29.628  51.404  24.890  1.00  0.00    -0.000 C 
BRANCH  10  11
ATOM     11  C   UNL     1      29.884  52.824  25.428  1.00  0.00    -0.000 C 
BRANCH  11  12
ATOM     12  C   UNL     1      31.360  53.239  25.352  1.00  0.00    -0.000 C 
BRANCH  12  13
ATOM     13  C   UNL     1      32.078  52.964  26.679  1.00  0.00    -0.003 C 
ATOM     14  C   UNL     1      33.468  52.380  26.444  1.00  0.00     0.004 C 
ENDBRANCH  12  13
ENDBRANCH  11  12
ENDBRANCH  10  11
ENDBRANCH   9  10
ENDBRANCH   1   9
TORSDOF 10
ENDMDL
MODEL 3
REMARK VINA RESULT:    -3.756      1.359      2.344
REMARK INTER + INTRA:          -6.848
REMARK INTER:                  -5.925
REMARK INTRA:                  -0.922
REMARK UNBOUND:                -0.896
REMARK SMILES CCCCCCCCCCCC(=O)[O-]
REMARK SMILES IDX 7 1 8 2 9 3 10 4 11 5 12 6 13 7 14 8 6 9 5 10 4 11 3 12 2 13
REMARK SMILES IDX 1 14
REMARK H PARENT
REMARK Flexibility Score: inf
ROOT
ATOM      1  C   UNL     1      33.346  50.458  26.381  1.00  0.00     0.000 C 
ENDROOT
BRANCH   1   2
ATOM      2  C   UNL     1      34.596  49.575  26.211  1.00  0.00     0.000 C 
BRANCH   2   3
ATOM      3  C   UNL     1      34.398  48.309  25.358  1.00  0.00     0.000 C 
BRANCH   3   4
ATOM      4  C   UNL     1      34.888  47.029  26.057  1.00  0.00     0.006 C 
BRANCH   4   5
ATOM      5  C   UNL     1      33.810  46.415  26.961  1.00  0.00     0.053 C 
BRANCH   5   6
ATOM      6  C   UNL     1      33.165  45.221  26.325  1.00  0.00     0.041 C 
ATOM      7  O   UNL     1      33.864  44.377  25.705  1.00  0.00    -0.550 OA
ATOM      8  O   UNL     1      31.795  45.028  26.440  1.00  0.00    -0.550 OA
ENDBRANCH   5   6
ENDBRANCH   4   5
ENDBRANCH   3   4
ENDBRANCH   2   3
ENDBRANCH   1   2
BRANCH   1   9
ATOM      9  C   UNL     1      32.070  49.644  26.652  1.00  0.00     0.000 C 
BRANCH   9  10
ATOM     10  C   UNL     1      30.903  50.030  25.725  1.00  0.00    -0.000 C 
BRANCH  10  11
ATOM     11  C   UNL     1      31.273  50.208  24.240  1.00  0.00    -0.000 C 
BRANCH  11  12
ATOM     12  C   UNL     1      30.862  51.575  23.678  1.00  0.00    -0.000 C 
BRANCH  12  13
ATOM     13  C   UNL     1      30.634  52.588  24.806  1.00  0.00    -0.003 C 
ATOM     14  C   UNL     1      31.153  53.971  24.421  1.00  0.00     0.004 C 
ENDBRANCH  12  13
ENDBRANCH  11  12
ENDBRANCH  10  11
ENDBRANCH   9  10
ENDBRANCH   1   9
TORSDOF 10
ENDMDL
MODEL 4
REMARK VINA RESULT:    -3.681      3.347      6.001
REMARK INTER + INTRA:          -6.730
REMARK INTER:                  -5.665
REMARK INTRA:                  -1.064
REMARK UNBOUND:                -0.896
REMARK SMILES CCCCCCCCCCCC(=O)[O-]
REMARK SMILES IDX 7 1 8 2 9 3 10 4 11 5 12 6 13 7 14 8 6 9 5 10 4 11 3 12 2 13
REMARK SMILES IDX 1 14
REMARK H PARENT
REMARK Flexibility Score: inf
ROOT
ATOM      1  C   UNL     1      32.421  49.161  26.709  1.00  0.00     0.000 C 
ENDROOT
BRANCH   1   2
ATOM      2  C   UNL     1      31.213  49.628  25.877  1.00  0.00     0.000 C 
BRANCH   2   3
ATOM      3  C   UNL     1      31.486  49.832  24.375  1.00  0.00     0.000 C 
BRANCH   3   4
ATOM      4  C   UNL     1      30.716  51.022  23.779  1.00  0.00     0.006 C 
BRANCH   4   5
ATOM      5  C   UNL     1      30.264  52.018  24.856  1.00  0.00     0.053 C 
BRANCH   5   6
ATOM      6  C   UNL     1      31.241  53.142  25.019  1.00  0.00     0.041 C 
ATOM      7  O   UNL     1      31.333  54.036  24.137  1.00  0.00    -0.550 OA
ATOM      8  O   UNL     1      32.031  53.216  26.158  1.00  0.00    -0.550 OA
ENDBRANCH   5   6
ENDBRANCH   4   5
ENDBRANCH   3   4
ENDBRANCH   2   3
ENDBRANCH   1   2
BRANCH   1   9
ATOM      9  C   UNL     1      33.656  50.059  26.531  1.00  0.00     0.000 C 
BRANCH   9  10
ATOM     10  C   UNL     1      34.968  49.261  26.416  1.00  0.00    -0.000 C 
BRANCH  10  11
ATOM     11  C   UNL     1      34.895  48.000  25.536  1.00  0.00    -0.000 C 
BRANCH  11  12
ATOM     12  C   UNL     1      35.400  46.738  26.250  1.00  0.00    -0.000 C 
BRANCH  12  13
ATOM     13  C   UNL     1      34.285  45.693  26.374  1.00  0.00    -0.003 C 
ATOM     14  C   UNL     1      33.186  45.932  25.342  1.00  0.00     0.004 C 
ENDBRANCH  12  13
ENDBRANCH  11  12
ENDBRANCH  10  11
ENDBRANCH   9  10
ENDBRANCH   1   9
TORSDOF 10
ENDMDL
MODEL 5
REMARK VINA RESULT:    -3.675      1.010      1.654
REMARK INTER + INTRA:          -6.720
REMARK INTER:                  -5.629
REMARK INTRA:                  -1.091
REMARK UNBOUND:                -0.896
REMARK SMILES CCCCCCCCCCCC(=O)[O-]
REMARK SMILES IDX 7 1 8 2 9 3 10 4 11 5 12 6 13 7 14 8 6 9 5 10 4 11 3 12 2 13
REMARK SMILES IDX 1 14
REMARK H PARENT
REMARK Flexibility Score: inf
ROOT
ATOM      1  C   UNL     1      32.177  52.760  26.672  1.00  0.00     0.000 C 
ENDROOT
BRANCH   1   2
ATOM      2  C   UNL     1      33.439  52.077  26.114  1.00  0.00     0.000 C 
BRANCH   2   3
ATOM      3  C   UNL     1      34.231  51.229  27.125  1.00  0.00     0.000 C 
BRANCH   3   4
ATOM      4  C   UNL     1      33.923  49.725  27.021  1.00  0.00     0.006 C 
BRANCH   4   5
ATOM      5  C   UNL     1      34.654  49.064  25.844  1.00  0.00     0.053 C 
BRANCH   5   6
ATOM      6  C   UNL     1      34.115  47.697  25.553  1.00  0.00     0.041 C 
ATOM      7  O   UNL     1      34.530  46.700  26.201  1.00  0.00    -0.550 OA
ATOM      8  O   UNL     1      33.135  47.527  24.583  1.00  0.00    -0.550 OA
ENDBRANCH   5   6
ENDBRANCH   4   5
ENDBRANCH   3   4
ENDBRANCH   2   3
ENDBRANCH   1   2
BRANCH   1   9
ATOM      9  C   UNL     1      31.475  53.659  25.641  1.00  0.00     0.000 C 
BRANCH   9  10
ATOM     10  C   UNL     1      29.940  53.639  25.772  1.00  0.00    -0.000 C 
BRANCH  10  11
ATOM     11  C   UNL     1      29.331  52.277  26.153  1.00  0.00    -0.000 C 
BRANCH  11  12
ATOM     12  C   UNL     1      29.156  51.339  24.950  1.00  0.00    -0.000 C 
BRANCH  12  13
ATOM     13  C   UNL     1      30.207  50.222  24.966  1.00  0.00    -0.003 C 
ATOM     14  C   UNL     1      31.198  50.380  23.817  1.00  0.00     0.004 C 
ENDBRANCH  12  13
ENDBRANCH  11  12
ENDBRANCH  10  11
ENDBRANCH   9  10
ENDBRANCH   1   9
TORSDOF 10
ENDMDL
MODEL 6
REMARK VINA RESULT:    -3.531      1.577      3.301
REMARK INTER + INTRA:          -6.492
REMARK INTER:                  -5.508
REMARK INTRA:                  -0.984
REMARK UNBOUND:                -0.896
REMARK SMILES CCCCCCCCCCCC(=O)[O-]
REMARK SMILES IDX 7 1 8 2 9 3 10 4 11 5 12 6 13 7 14 8 6 9 5 10 4 11 3 12 2 13
REMARK SMILES IDX 1 14
REMARK H PARENT
REMARK Flexibility Score: inf
ROOT
ATOM      1  C   UNL     1      34.609  48.397  25.225  1.00  0.00     0.000 C 
ENDROOT
BRANCH   1   2
ATOM      2  C   UNL     1      33.209  47.823  24.940  1.00  0.00     0.000 C 
BRANCH   2   3
ATOM      3  C   UNL     1      33.105  46.287  24.988  1.00  0.00     0.000 C 
BRANCH   3   4
ATOM      4  C   UNL     1      33.522  45.698  26.346  1.00  0.00     0.006 C 
BRANCH   4   5
ATOM      5  C   UNL     1      34.097  44.281  26.211  1.00  0.00     0.053 C 
BRANCH   5   6
ATOM      6  C   UNL     1      35.592  44.276  26.315  1.00  0.00     0.041 C 
ATOM      7  O   UNL     1      36.221  43.187  26.371  1.00  0.00    -0.550 OA
ATOM      8  O   UNL     1      36.292  45.476  26.323  1.00  0.00    -0.550 OA
ENDBRANCH   5   6
ENDBRANCH   4   5
ENDBRANCH   3   4
ENDBRANCH   2   3
ENDBRANCH   1   2
BRANCH   1   9
ATOM      9  C   UNL     1      34.658  49.250  26.504  1.00  0.00     0.000 C 
BRANCH   9  10
ATOM     10  C   UNL     1      33.353  50.030  26.755  1.00  0.00    -0.000 C 
BRANCH  10  11
ATOM     11  C   UNL     1      33.393  51.520  26.366  1.00  0.00    -0.000 C 
BRANCH  11  12
ATOM     12  C   UNL     1      32.095  52.002  25.702  1.00  0.00    -0.000 C 
BRANCH  12  13
ATOM     13  C   UNL     1      31.177  50.820  25.367  1.00  0.00    -0.003 C 
ATOM     14  C   UNL     1      30.927  50.724  23.865  1.00  0.00     0.004 C 
ENDBRANCH  12  13
ENDBRANCH  11  12
ENDBRANCH  10  11
ENDBRANCH   9  10
ENDBRANCH   1   9
TORSDOF 10
ENDMDL
MODEL 7
REMARK VINA RESULT:    -3.514      1.444      2.810
REMARK INTER + INTRA:          -6.465
REMARK INTER:                  -5.652
REMARK INTRA:                  -0.813
REMARK UNBOUND:                -0.896
REMARK SMILES CCCCCCCCCCCC(=O)[O-]
REMARK SMILES IDX 7 1 8 2 9 3 10 4 11 5 12 6 13 7 14 8 6 9 5 10 4 11 3 12 2 13
REMARK SMILES IDX 1 14
REMARK H PARENT
REMARK Flexibility Score: inf
ROOT
ATOM      1  C   UNL     1      33.734  48.332  24.874  1.00  0.00     0.000 C 
ENDROOT
BRANCH   1   2
ATOM      2  C   UNL     1      34.989  48.015  25.709  1.00  0.00     0.000 C 
BRANCH   2   3
ATOM      3  C   UNL     1      34.782  47.000  26.849  1.00  0.00     0.000 C 
BRANCH   3   4
ATOM      4  C   UNL     1      35.102  45.554  26.433  1.00  0.00     0.006 C 
BRANCH   4   5
ATOM      5  C   UNL     1      33.962  44.586  26.778  1.00  0.00     0.053 C 
BRANCH   5   6
ATOM      6  C   UNL     1      32.679  44.979  26.111  1.00  0.00     0.041 C 
ATOM      7  O   UNL     1      32.587  44.972  24.856  1.00  0.00    -0.550 OA
ATOM      8  O   UNL     1      31.575  45.327  26.879  1.00  0.00    -0.550 OA
ENDBRANCH   5   6
ENDBRANCH   4   5
ENDBRANCH   3   4
ENDBRANCH   2   3
ENDBRANCH   1   2
BRANCH   1   9
ATOM      9  C   UNL     1      32.696  49.164  25.645  1.00  0.00     0.000 C 
BRANCH   9  10
ATOM     10  C   UNL     1      33.321  50.346  26.409  1.00  0.00    -0.000 C 
BRANCH  10  11
ATOM     11  C   UNL     1      32.793  51.738  26.012  1.00  0.00    -0.000 C 
BRANCH  11  12
ATOM     12  C   UNL     1      31.261  51.833  26.050  1.00  0.00    -0.000 C 
BRANCH  12  13
ATOM     13  C   UNL     1      30.680  51.912  24.633  1.00  0.00    -0.003 C 
ATOM     14  C   UNL     1      29.572  50.883  24.431  1.00  0.00     0.004 C 
ENDBRANCH  12  13
ENDBRANCH  11  12
ENDBRANCH  10  11
ENDBRANCH   9  10
ENDBRANCH   1   9
TORSDOF 10
ENDMDL
MODEL 8
REMARK VINA RESULT:    -3.508      2.783      5.910
REMARK INTER + INTRA:          -6.455
REMARK INTER:                  -5.359
REMARK INTRA:                  -1.096
REMARK UNBOUND:                -0.896
REMARK SMILES CCCCCCCCCCCC(=O)[O-]
REMARK SMILES IDX 7 1 8 2 9 3 10 4 11 5 12 6 13 7 14 8 6 9 5 10 4 11 3 12 2 13
REMARK SMILES IDX 1 14
REMARK H PARENT
REMARK Flexibility Score: inf
ROOT
ATOM      1  C   UNL     1      32.800  48.878  25.357  1.00  0.00     0.000 C 
ENDROOT
BRANCH   1   2
ATOM      2  C   UNL     1      32.502  49.179  26.837  1.00  0.00     0.000 C 
BRANCH   2   3
ATOM      3  C   UNL     1      31.912  50.573  27.121  1.00  0.00     0.000 C 
BRANCH   3   4
ATOM      4  C   UNL     1      32.255  51.604  26.032  1.00  0.00     0.006 C 
BRANCH   4   5
ATOM      5  C   UNL     1      31.001  52.278  25.457  1.00  0.00     0.053 C 
BRANCH   5   6
ATOM      6  C   UNL     1      30.236  51.355  24.559  1.00  0.00     0.041 C 
ATOM      7  O   UNL     1      29.066  51.000  24.862  1.00  0.00    -0.550 OA
ATOM      8  O   UNL     1      30.806  50.907  23.374  1.00  0.00    -0.550 OA
ENDBRANCH   5   6
ENDBRANCH   4   5
ENDBRANCH   3   4
ENDBRANCH   2   3
ENDBRANCH   1   2
BRANCH   1   9
ATOM      9  C   UNL     1      34.274  48.522  25.102  1.00  0.00     0.000 C 
BRANCH   9  10
ATOM     10  C   UNL     1      35.010  48.066  26.376  1.00  0.00    -0.000 C 
BRANCH  10  11
ATOM     11  C   UNL     1      35.434  46.586  26.397  1.00  0.00    -0.000 C 
BRANCH  11  12
ATOM     12  C   UNL     1      34.399  45.674  27.072  1.00  0.00    -0.000 C 
BRANCH  12  13
ATOM     13  C   UNL     1      33.910  44.589  26.106  1.00  0.00    -0.003 C 
ATOM     14  C   UNL     1      32.751  45.092  25.250  1.00  0.00     0.004 C 
ENDBRANCH  12  13
ENDBRANCH  11  12
ENDBRANCH  10  11
ENDBRANCH   9  10
ENDBRANCH   1   9
TORSDOF 10
ENDMDL
MODEL 9
REMARK VINA RESULT:    -3.504      2.088      5.062
REMARK INTER + INTRA:          -6.448
REMARK INTER:                  -5.691
REMARK INTRA:                  -0.757
REMARK UNBOUND:                -0.896
REMARK SMILES CCCCCCCCCCCC(=O)[O-]
REMARK SMILES IDX 7 1 8 2 9 3 10 4 11 5 12 6 13 7 14 8 6 9 5 10 4 11 3 12 2 13
REMARK SMILES IDX 1 14
REMARK H PARENT
REMARK Flexibility Score: inf
ROOT
ATOM      1  C   UNL     1      32.140  52.856  26.543  1.00  0.00     0.000 C 
ENDROOT
BRANCH   1   2
ATOM      2  C   UNL     1      31.698  53.630  25.287  1.00  0.00     0.000 C 
BRANCH   2   3
ATOM      3  C   UNL     1      30.193  53.562  24.968  1.00  0.00     0.000 C 
BRANCH   3   4
ATOM      4  C   UNL     1      29.455  52.479  25.772  1.00  0.00     0.006 C 
BRANCH   4   5
ATOM      5  C   UNL     1      29.197  51.214  24.941  1.00  0.00     0.053 C 
BRANCH   5   6
ATOM      6  C   UNL     1      30.389  50.307  24.924  1.00  0.00     0.041 C 
ATOM      7  O   UNL     1      30.621  49.545  25.899  1.00  0.00    -0.550 OA
ATOM      8  O   UNL     1      31.230  50.285  23.819  1.00  0.00    -0.550 OA
ENDBRANCH   5   6
ENDBRANCH   4   5
ENDBRANCH   3   4
ENDBRANCH   2   3
ENDBRANCH   1   2
BRANCH   1   9
ATOM      9  C   UNL     1      33.500  52.160  26.371  1.00  0.00     0.000 C 
BRANCH   9  10
ATOM     10  C   UNL     1      33.531  50.744  26.975  1.00  0.00    -0.000 C 
BRANCH  10  11
ATOM     11  C   UNL     1      34.595  49.800  26.385  1.00  0.00    -0.000 C 
BRANCH  11  12
ATOM     12  C   UNL     1      34.004  48.742  25.442  1.00  0.00    -0.000 C 
BRANCH  12  13
ATOM     13  C   UNL     1      34.201  47.330  26.008  1.00  0.00    -0.003 C 
ATOM     14  C   UNL     1      35.649  47.102  26.432  1.00  0.00     0.004 C 
ENDBRANCH  12  13
ENDBRANCH  11  12
ENDBRANCH  10  11
ENDBRANCH   9  10
ENDBRANCH   1   9
TORSDOF 10
ENDMDL
