MODEL 1
REMARK VINA RESULT:    -5.973      0.000      0.000
REMARK INTER + INTRA:          -7.518
REMARK INTER:                  -7.195
REMARK INTRA:                  -0.323
REMARK UNBOUND:                -0.323
REMARK SMILES O=c1c(O)c(-c2ccc(O)c(O)c2)oc2cc(O)cc(O)c12
REMARK SMILES IDX 5 1 3 2 2 3 1 4 22 5 20 6 19 7 17 8 16 9 15 10 14 11 6 12
REMARK SMILES IDX 7 13 8 14 9 15 13 16 11 17 10 18 12 20 4 22 21 24 18 26
REMARK H PARENT 10 19 12 21 4 23 21 25 18 27
REMARK Flexibility Score: inf
ROOT
ATOM      1  C   UNL     1      70.783  48.173   7.390  1.00  0.00     0.180 A 
ATOM      2  C   UNL     1      71.004  49.329   8.159  1.00  0.00     0.208 A 
ATOM      3  C   UNL     1      69.900  50.024   8.675  1.00  0.00     0.238 A 
ATOM      4  O   UNL     1      70.102  51.088   9.316  1.00  0.00    -0.285 OA
ATOM      5  C   UNL     1      68.590  49.548   8.431  1.00  0.00     0.111 A 
ATOM      6  C   UNL     1      67.400  50.150   8.940  1.00  0.00     0.134 A 
ATOM      7  C   UNL     1      66.151  49.670   8.527  1.00  0.00     0.093 A 
ATOM      8  C   UNL     1      66.050  48.567   7.675  1.00  0.00     0.123 A 
ATOM      9  C   UNL     1      67.204  47.935   7.221  1.00  0.00     0.094 A 
ATOM     10  C   UNL     1      68.465  48.413   7.587  1.00  0.00     0.146 A 
ATOM     11  O   UNL     1      69.540  47.788   7.124  1.00  0.00    -0.452 OA
ENDROOT
BRANCH   1  12
ATOM     12  C   UNL     1      71.897  47.372   6.833  1.00  0.00     0.025 A 
ATOM     13  C   UNL     1      72.466  46.347   7.607  1.00  0.00     0.016 A 
ATOM     14  C   UNL     1      73.531  45.593   7.109  1.00  0.00     0.051 A 
ATOM     15  C   UNL     1      74.055  45.860   5.840  1.00  0.00     0.157 A 
ATOM     16  C   UNL     1      72.438  47.653   5.566  1.00  0.00     0.062 A 
ATOM     17  C   UNL     1      73.509  46.898   5.065  1.00  0.00     0.158 A 
BRANCH  15  18
ATOM     18  O   UNL     1      75.116  45.089   5.369  1.00  0.00    -0.504 OA
ATOM     19  H   UNL     1      75.111  44.672   4.445  1.00  0.00     0.293 HD
ENDBRANCH  15  18
BRANCH  17  20
ATOM     20  O   UNL     1      74.036  47.178   3.805  1.00  0.00    -0.504 OA
ATOM     21  H   UNL     1      74.857  47.759   3.691  1.00  0.00     0.293 HD
ENDBRANCH  17  20
ENDBRANCH   1  12
BRANCH   2  22
ATOM     22  O   UNL     1      72.305  49.794   8.370  1.00  0.00    -0.502 OA
ATOM     23  H   UNL     1      72.661  50.632   7.928  1.00  0.00     0.293 HD
ENDBRANCH   2  22
BRANCH   6  24
ATOM     24  O   UNL     1      67.389  51.198   9.866  1.00  0.00    -0.507 OA
ATOM     25  H   UNL     1      68.194  51.513  10.386  1.00  0.00     0.293 HD
ENDBRANCH   6  24
BRANCH   8  26
ATOM     26  O   UNL     1      64.803  48.085   7.281  1.00  0.00    -0.508 OA
ATOM     27  H   UNL     1      63.981  48.205   7.861  1.00  0.00     0.293 HD
ENDBRANCH   8  26
TORSDOF 6
ENDMDL
MODEL 2
REMARK VINA RESULT:    -5.902      2.845      4.097
REMARK INTER + INTRA:          -7.432
REMARK INTER:                  -7.378
REMARK INTRA:                  -0.054
REMARK UNBOUND:                -0.323
REMARK SMILES O=c1c(O)c(-c2ccc(O)c(O)c2)oc2cc(O)cc(O)c12
REMARK SMILES IDX 5 1 3 2 2 3 1 4 22 5 20 6 19 7 17 8 16 9 15 10 14 11 6 12
REMARK SMILES IDX 7 13 8 14 9 15 13 16 11 17 10 18 12 20 4 22 21 24 18 26
REMARK H PARENT 10 19 12 21 4 23 21 25 18 27
REMARK Flexibility Score: inf
ROOT
ATOM      1  C   UNL     1      68.480  48.791   8.930  1.00  0.00     0.180 A 
ATOM      2  C   UNL     1      67.599  49.810   9.330  1.00  0.00     0.208 A 
ATOM      3  C   UNL     1      66.226  49.531   9.409  1.00  0.00     0.238 A 
ATOM      4  O   UNL     1      65.437  50.463   9.714  1.00  0.00    -0.285 OA
ATOM      5  C   UNL     1      65.752  48.233   9.104  1.00  0.00     0.111 A 
ATOM      6  C   UNL     1      64.386  47.828   9.189  1.00  0.00     0.134 A 
ATOM      7  C   UNL     1      64.012  46.556   8.738  1.00  0.00     0.093 A 
ATOM      8  C   UNL     1      64.967  45.652   8.265  1.00  0.00     0.123 A 
ATOM      9  C   UNL     1      66.311  46.016   8.233  1.00  0.00     0.094 A 
ATOM     10  C   UNL     1      66.709  47.291   8.643  1.00  0.00     0.146 A 
ATOM     11  O   UNL     1      67.998  47.602   8.587  1.00  0.00    -0.452 OA
ENDROOT
BRANCH   1  12
ATOM     12  C   UNL     1      69.944  49.002   8.847  1.00  0.00     0.025 A 
ATOM     13  C   UNL     1      70.450  50.013   8.015  1.00  0.00     0.016 A 
ATOM     14  C   UNL     1      71.828  50.216   7.905  1.00  0.00     0.051 A 
ATOM     15  C   UNL     1      72.720  49.403   8.611  1.00  0.00     0.157 A 
ATOM     16  C   UNL     1      70.843  48.172   9.539  1.00  0.00     0.062 A 
ATOM     17  C   UNL     1      72.227  48.373   9.430  1.00  0.00     0.158 A 
BRANCH  15  18
ATOM     18  O   UNL     1      74.090  49.631   8.484  1.00  0.00    -0.504 OA
ATOM     19  H   UNL     1      74.561  49.595   7.587  1.00  0.00     0.293 HD
ENDBRANCH  15  18
BRANCH  17  20
ATOM     20  O   UNL     1      73.112  47.550  10.125  1.00  0.00    -0.504 OA
ATOM     21  H   UNL     1      73.177  46.557   9.932  1.00  0.00     0.293 HD
ENDBRANCH  17  20
ENDBRANCH   1  12
BRANCH   2  22
ATOM     22  O   UNL     1      68.086  51.091   9.606  1.00  0.00    -0.502 OA
ATOM     23  H   UNL     1      68.648  51.613   8.945  1.00  0.00     0.293 HD
ENDBRANCH   2  22
BRANCH   6  24
ATOM     24  O   UNL     1      63.369  48.620   9.730  1.00  0.00    -0.507 OA
ATOM     25  H   UNL     1      62.659  49.092   9.190  1.00  0.00     0.293 HD
ENDBRANCH   6  24
BRANCH   8  26
ATOM     26  O   UNL     1      64.590  44.382   7.832  1.00  0.00    -0.508 OA
ATOM     27  H   UNL     1      64.927  43.999   6.956  1.00  0.00     0.293 HD
ENDBRANCH   8  26
TORSDOF 6
ENDMDL
MODEL 3
REMARK VINA RESULT:    -5.719      3.912      6.819
REMARK INTER + INTRA:          -7.212
REMARK INTER:                  -6.923
REMARK INTRA:                  -0.288
REMARK UNBOUND:                -0.323
REMARK SMILES O=c1c(O)c(-c2ccc(O)c(O)c2)oc2cc(O)cc(O)c12
REMARK SMILES IDX 5 1 3 2 2 3 1 4 22 5 20 6 19 7 17 8 16 9 15 10 14 11 6 12
REMARK SMILES IDX 7 13 8 14 9 15 13 16 11 17 10 18 12 20 4 22 21 24 18 26
REMARK H PARENT 10 19 12 21 4 23 21 25 18 27
REMARK Flexibility Score: inf
ROOT
ATOM      1  C   UNL     1      71.395  44.678   6.829  1.00  0.00     0.180 A 
ATOM      2  C   UNL     1      71.830  44.825   5.500  1.00  0.00     0.208 A 
ATOM      3  C   UNL     1      72.699  45.881   5.182  1.00  0.00     0.238 A 
ATOM      4  O   UNL     1      73.041  46.040   3.981  1.00  0.00    -0.285 OA
ATOM      5  C   UNL     1      73.134  46.766   6.197  1.00  0.00     0.111 A 
ATOM      6  C   UNL     1      74.045  47.846   5.994  1.00  0.00     0.134 A 
ATOM      7  C   UNL     1      74.304  48.738   7.043  1.00  0.00     0.093 A 
ATOM      8  C   UNL     1      73.735  48.548   8.305  1.00  0.00     0.123 A 
ATOM      9  C   UNL     1      72.891  47.464   8.529  1.00  0.00     0.094 A 
ATOM     10  C   UNL     1      72.585  46.578   7.493  1.00  0.00     0.146 A 
ATOM     11  O   UNL     1      71.769  45.563   7.745  1.00  0.00    -0.452 OA
ENDROOT
BRANCH   1  12
ATOM     12  C   UNL     1      70.500  43.575   7.247  1.00  0.00     0.025 A 
ATOM     13  C   UNL     1      71.030  42.289   7.439  1.00  0.00     0.016 A 
ATOM     14  C   UNL     1      70.200  41.229   7.813  1.00  0.00     0.051 A 
ATOM     15  C   UNL     1      68.828  41.433   7.985  1.00  0.00     0.157 A 
ATOM     16  C   UNL     1      69.116  43.773   7.400  1.00  0.00     0.062 A 
ATOM     17  C   UNL     1      68.280  42.710   7.774  1.00  0.00     0.158 A 
BRANCH  15  18
ATOM     18  O   UNL     1      68.025  40.357   8.361  1.00  0.00    -0.504 OA
ATOM     19  H   UNL     1      67.260  40.460   9.019  1.00  0.00     0.293 HD
ENDBRANCH  15  18
BRANCH  17  20
ATOM     20  O   UNL     1      66.911  42.917   7.931  1.00  0.00    -0.504 OA
ATOM     21  H   UNL     1      66.250  42.150   7.888  1.00  0.00     0.293 HD
ENDBRANCH  17  20
ENDBRANCH   1  12
BRANCH   2  22
ATOM     22  O   UNL     1      71.371  43.952   4.510  1.00  0.00    -0.502 OA
ATOM     23  H   UNL     1      71.710  43.002   4.423  1.00  0.00     0.293 HD
ENDBRANCH   2  22
BRANCH   6  24
ATOM     24  O   UNL     1      74.737  48.070   4.801  1.00  0.00    -0.507 OA
ATOM     25  H   UNL     1      74.876  48.976   4.378  1.00  0.00     0.293 HD
ENDBRANCH   6  24
BRANCH   8  26
ATOM     26  O   UNL     1      74.010  49.431   9.348  1.00  0.00    -0.508 OA
ATOM     27  H   UNL     1      73.871  50.430   9.248  1.00  0.00     0.293 HD
ENDBRANCH   8  26
TORSDOF 6
ENDMDL
MODEL 4
REMARK VINA RESULT:    -5.711      1.972      6.659
REMARK INTER + INTRA:          -7.203
REMARK INTER:                  -6.878
REMARK INTRA:                  -0.325
REMARK UNBOUND:                -0.323
REMARK SMILES O=c1c(O)c(-c2ccc(O)c(O)c2)oc2cc(O)cc(O)c12
REMARK SMILES IDX 5 1 3 2 2 3 1 4 22 5 20 6 19 7 17 8 16 9 15 10 14 11 6 12
REMARK SMILES IDX 7 13 8 14 9 15 13 16 11 17 10 18 12 20 4 22 21 24 18 26
REMARK H PARENT 10 19 12 21 4 23 21 25 18 27
REMARK Flexibility Score: inf
ROOT
ATOM      1  C   UNL     1      69.972  47.835   8.501  1.00  0.00     0.180 A 
ATOM      2  C   UNL     1      70.813  48.904   8.856  1.00  0.00     0.208 A 
ATOM      3  C   UNL     1      72.203  48.740   8.749  1.00  0.00     0.238 A 
ATOM      4  O   UNL     1      72.952  49.682   9.120  1.00  0.00    -0.285 OA
ATOM      5  C   UNL     1      72.735  47.518   8.274  1.00  0.00     0.111 A 
ATOM      6  C   UNL     1      74.125  47.256   8.087  1.00  0.00     0.134 A 
ATOM      7  C   UNL     1      74.546  45.967   7.737  1.00  0.00     0.093 A 
ATOM      8  C   UNL     1      73.619  44.947   7.502  1.00  0.00     0.123 A 
ATOM      9  C   UNL     1      72.257  45.208   7.624  1.00  0.00     0.094 A 
ATOM     10  C   UNL     1      71.809  46.474   8.008  1.00  0.00     0.146 A 
ATOM     11  O   UNL     1      70.503  46.678   8.122  1.00  0.00    -0.452 OA
ENDROOT
BRANCH   1  12
ATOM     12  C   UNL     1      68.496  47.940   8.563  1.00  0.00     0.025 A 
ATOM     13  C   UNL     1      67.828  47.602   9.752  1.00  0.00     0.016 A 
ATOM     14  C   UNL     1      66.435  47.674   9.826  1.00  0.00     0.051 A 
ATOM     15  C   UNL     1      65.687  48.067   8.711  1.00  0.00     0.157 A 
ATOM     16  C   UNL     1      67.741  48.315   7.438  1.00  0.00     0.062 A 
ATOM     17  C   UNL     1      66.342  48.386   7.509  1.00  0.00     0.158 A 
BRANCH  15  18
ATOM     18  O   UNL     1      64.299  48.132   8.817  1.00  0.00    -0.504 OA
ATOM     19  H   UNL     1      63.793  47.669   9.563  1.00  0.00     0.293 HD
ENDBRANCH  15  18
BRANCH  17  20
ATOM     20  O   UNL     1      65.601  48.765   6.391  1.00  0.00    -0.504 OA
ATOM     21  H   UNL     1      65.688  49.690   5.986  1.00  0.00     0.293 HD
ENDBRANCH  17  20
ENDBRANCH   1  12
BRANCH   2  22
ATOM     22  O   UNL     1      70.268  50.095   9.342  1.00  0.00    -0.502 OA
ATOM     23  H   UNL     1      70.682  50.608  10.112  1.00  0.00     0.293 HD
ENDBRANCH   2  22
BRANCH   6  24
ATOM     24  O   UNL     1      75.125  48.226   8.206  1.00  0.00    -0.507 OA
ATOM     25  H   UNL     1      75.173  48.915   8.943  1.00  0.00     0.293 HD
ENDBRANCH   6  24
BRANCH   8  26
ATOM     26  O   UNL     1      74.044  43.671   7.139  1.00  0.00    -0.508 OA
ATOM     27  H   UNL     1      74.291  42.976   7.834  1.00  0.00     0.293 HD
ENDBRANCH   8  26
TORSDOF 6
ENDMDL
MODEL 5
REMARK VINA RESULT:    -5.558      1.568      7.131
REMARK INTER + INTRA:          -7.018
REMARK INTER:                  -6.788
REMARK INTRA:                  -0.229
REMARK UNBOUND:                -0.323
REMARK SMILES O=c1c(O)c(-c2ccc(O)c(O)c2)oc2cc(O)cc(O)c12
REMARK SMILES IDX 5 1 3 2 2 3 1 4 22 5 20 6 19 7 17 8 16 9 15 10 14 11 6 12
REMARK SMILES IDX 7 13 8 14 9 15 13 16 11 17 10 18 12 20 4 22 21 24 18 26
REMARK H PARENT 10 19 12 21 4 23 21 25 18 27
REMARK Flexibility Score: inf
ROOT
ATOM      1  C   UNL     1      69.831  47.474   7.563  1.00  0.00     0.180 A 
ATOM      2  C   UNL     1      70.104  46.141   7.918  1.00  0.00     0.208 A 
ATOM      3  C   UNL     1      71.332  45.575   7.543  1.00  0.00     0.238 A 
ATOM      4  O   UNL     1      71.548  44.365   7.816  1.00  0.00    -0.285 OA
ATOM      5  C   UNL     1      72.279  46.351   6.834  1.00  0.00     0.111 A 
ATOM      6  C   UNL     1      73.572  45.892   6.439  1.00  0.00     0.134 A 
ATOM      7  C   UNL     1      74.375  46.703   5.627  1.00  0.00     0.093 A 
ATOM      8  C   UNL     1      73.958  47.982   5.251  1.00  0.00     0.123 A 
ATOM      9  C   UNL     1      72.724  48.463   5.680  1.00  0.00     0.094 A 
ATOM     10  C   UNL     1      71.885  47.664   6.461  1.00  0.00     0.146 A 
ATOM     11  O   UNL     1      70.712  48.155   6.841  1.00  0.00    -0.452 OA
ENDROOT
BRANCH   1  12
ATOM     12  C   UNL     1      68.569  48.148   7.944  1.00  0.00     0.025 A 
ATOM     13  C   UNL     1      68.580  49.107   8.970  1.00  0.00     0.016 A 
ATOM     14  C   UNL     1      67.397  49.740   9.360  1.00  0.00     0.051 A 
ATOM     15  C   UNL     1      66.185  49.415   8.744  1.00  0.00     0.157 A 
ATOM     16  C   UNL     1      67.346  47.807   7.340  1.00  0.00     0.062 A 
ATOM     17  C   UNL     1      66.157  48.441   7.731  1.00  0.00     0.158 A 
BRANCH  15  18
ATOM     18  O   UNL     1      65.022  50.066   9.152  1.00  0.00    -0.504 OA
ATOM     19  H   UNL     1      64.129  49.909   8.698  1.00  0.00     0.293 HD
ENDBRANCH  15  18
BRANCH  17  20
ATOM     20  O   UNL     1      64.949  48.102   7.123  1.00  0.00    -0.504 OA
ATOM     21  H   UNL     1      64.720  48.415   6.187  1.00  0.00     0.293 HD
ENDBRANCH  17  20
ENDBRANCH   1  12
BRANCH   2  22
ATOM     22  O   UNL     1      69.146  45.385   8.600  1.00  0.00    -0.502 OA
ATOM     23  H   UNL     1      69.183  44.375   8.646  1.00  0.00     0.293 HD
ENDBRANCH   2  22
BRANCH   6  24
ATOM     24  O   UNL     1      74.121  44.669   6.836  1.00  0.00    -0.507 OA
ATOM     25  H   UNL     1      73.629  43.789   6.828  1.00  0.00     0.293 HD
ENDBRANCH   6  24
BRANCH   8  26
ATOM     26  O   UNL     1      74.770  48.789   4.456  1.00  0.00    -0.508 OA
ATOM     27  H   UNL     1      75.548  49.308   4.847  1.00  0.00     0.293 HD
ENDBRANCH   8  26
TORSDOF 6
ENDMDL
MODEL 6
REMARK VINA RESULT:    -5.529      1.775      7.113
REMARK INTER + INTRA:          -6.983
REMARK INTER:                  -6.677
REMARK INTRA:                  -0.306
REMARK UNBOUND:                -0.323
REMARK SMILES O=c1c(O)c(-c2ccc(O)c(O)c2)oc2cc(O)cc(O)c12
REMARK SMILES IDX 5 1 3 2 2 3 1 4 22 5 20 6 19 7 17 8 16 9 15 10 14 11 6 12
REMARK SMILES IDX 7 13 8 14 9 15 13 16 11 17 10 18 12 20 4 22 21 24 18 26
REMARK H PARENT 10 19 12 21 4 23 21 25 18 27
REMARK Flexibility Score: inf
ROOT
ATOM      1  C   UNL     1      70.327  48.389   8.003  1.00  0.00     0.180 A 
ATOM      2  C   UNL     1      70.692  48.527   6.653  1.00  0.00     0.208 A 
ATOM      3  C   UNL     1      71.902  47.969   6.215  1.00  0.00     0.238 A 
ATOM      4  O   UNL     1      72.250  48.143   5.017  1.00  0.00    -0.285 OA
ATOM      5  C   UNL     1      72.725  47.266   7.127  1.00  0.00     0.111 A 
ATOM      6  C   UNL     1      73.954  46.625   6.783  1.00  0.00     0.134 A 
ATOM      7  C   UNL     1      74.751  46.071   7.792  1.00  0.00     0.093 A 
ATOM      8  C   UNL     1      74.331  46.077   9.125  1.00  0.00     0.123 A 
ATOM      9  C   UNL     1      73.106  46.647   9.463  1.00  0.00     0.094 A 
ATOM     10  C   UNL     1      72.306  47.240   8.483  1.00  0.00     0.146 A 
ATOM     11  O   UNL     1      71.151  47.781   8.848  1.00  0.00    -0.452 OA
ENDROOT
BRANCH   1  12
ATOM     12  C   UNL     1      69.054  48.928   8.535  1.00  0.00     0.025 A 
ATOM     13  C   UNL     1      67.928  48.092   8.612  1.00  0.00     0.016 A 
ATOM     14  C   UNL     1      66.712  48.586   9.091  1.00  0.00     0.051 A 
ATOM     15  C   UNL     1      66.597  49.923   9.483  1.00  0.00     0.157 A 
ATOM     16  C   UNL     1      68.930  50.278   8.910  1.00  0.00     0.062 A 
ATOM     17  C   UNL     1      67.710  50.776   9.389  1.00  0.00     0.158 A 
BRANCH  15  18
ATOM     18  O   UNL     1      65.371  50.386   9.959  1.00  0.00    -0.504 OA
ATOM     19  H   UNL     1      64.619  50.659   9.336  1.00  0.00     0.293 HD
ENDBRANCH  15  18
BRANCH  17  20
ATOM     20  O   UNL     1      67.597  52.113   9.766  1.00  0.00    -0.504 OA
ATOM     21  H   UNL     1      68.336  52.781   9.579  1.00  0.00     0.293 HD
ENDBRANCH  17  20
ENDBRANCH   1  12
BRANCH   2  22
ATOM     22  O   UNL     1      69.874  49.244   5.774  1.00  0.00    -0.502 OA
ATOM     23  H   UNL     1      69.466  48.824   4.948  1.00  0.00     0.293 HD
ENDBRANCH   2  22
BRANCH   6  24
ATOM     24  O   UNL     1      74.420  46.483   5.473  1.00  0.00    -0.507 OA
ATOM     25  H   UNL     1      74.038  46.964   4.671  1.00  0.00     0.293 HD
ENDBRANCH   6  24
BRANCH   8  26
ATOM     26  O   UNL     1      75.122  45.509  10.122  1.00  0.00    -0.508 OA
ATOM     27  H   UNL     1      74.830  45.506  11.092  1.00  0.00     0.293 HD
ENDBRANCH   8  26
TORSDOF 6
ENDMDL
MODEL 7
REMARK VINA RESULT:    -5.518      1.676      6.572
REMARK INTER + INTRA:          -6.969
REMARK INTER:                  -6.638
REMARK INTRA:                  -0.331
REMARK UNBOUND:                -0.323
REMARK SMILES O=c1c(O)c(-c2ccc(O)c(O)c2)oc2cc(O)cc(O)c12
REMARK SMILES IDX 5 1 3 2 2 3 1 4 22 5 20 6 19 7 17 8 16 9 15 10 14 11 6 12
REMARK SMILES IDX 7 13 8 14 9 15 13 16 11 17 10 18 12 20 4 22 21 24 18 26
REMARK H PARENT 10 19 12 21 4 23 21 25 18 27
REMARK Flexibility Score: inf
ROOT
ATOM      1  C   UNL     1      68.731  48.160   8.463  1.00  0.00     0.180 A 
ATOM      2  C   UNL     1      69.153  49.455   8.808  1.00  0.00     0.208 A 
ATOM      3  C   UNL     1      70.469  49.843   8.515  1.00  0.00     0.238 A 
ATOM      4  O   UNL     1      70.857  50.985   8.876  1.00  0.00    -0.285 OA
ATOM      5  C   UNL     1      71.342  48.938   7.865  1.00  0.00     0.111 A 
ATOM      6  C   UNL     1      72.684  49.238   7.484  1.00  0.00     0.134 A 
ATOM      7  C   UNL     1      73.499  48.224   6.965  1.00  0.00     0.093 A 
ATOM      8  C   UNL     1      72.999  46.937   6.753  1.00  0.00     0.123 A 
ATOM      9  C   UNL     1      71.673  46.649   7.068  1.00  0.00     0.094 A 
ATOM     10  C   UNL     1      70.846  47.630   7.620  1.00  0.00     0.146 A 
ATOM     11  O   UNL     1      69.592  47.312   7.915  1.00  0.00    -0.452 OA
ENDROOT
BRANCH   1  12
ATOM     12  C   UNL     1      67.350  47.687   8.718  1.00  0.00     0.025 A 
ATOM     13  C   UNL     1      67.078  46.939   9.875  1.00  0.00     0.016 A 
ATOM     14  C   UNL     1      65.788  46.466  10.125  1.00  0.00     0.051 A 
ATOM     15  C   UNL     1      64.755  46.716   9.216  1.00  0.00     0.157 A 
ATOM     16  C   UNL     1      66.315  47.919   7.796  1.00  0.00     0.062 A 
ATOM     17  C   UNL     1      65.019  47.443   8.043  1.00  0.00     0.158 A 
BRANCH  15  18
ATOM     18  O   UNL     1      63.477  46.233   9.494  1.00  0.00    -0.504 OA
ATOM     19  H   UNL     1      63.119  45.384   9.071  1.00  0.00     0.293 HD
ENDBRANCH  15  18
BRANCH  17  20
ATOM     20  O   UNL     1      63.996  47.684   7.127  1.00  0.00    -0.504 OA
ATOM     21  H   UNL     1      63.109  48.081   7.414  1.00  0.00     0.293 HD
ENDBRANCH  17  20
ENDBRANCH   1  12
BRANCH   2  22
ATOM     22  O   UNL     1      68.281  50.326   9.468  1.00  0.00    -0.502 OA
ATOM     23  H   UNL     1      68.553  50.847  10.293  1.00  0.00     0.293 HD
ENDBRANCH   2  22
BRANCH   6  24
ATOM     24  O   UNL     1      73.253  50.513   7.567  1.00  0.00    -0.507 OA
ATOM     25  H   UNL     1      72.729  51.374   7.610  1.00  0.00     0.293 HD
ENDBRANCH   6  24
BRANCH   8  26
ATOM     26  O   UNL     1      73.811  45.937   6.222  1.00  0.00    -0.508 OA
ATOM     27  H   UNL     1      73.647  44.958   6.424  1.00  0.00     0.293 HD
ENDBRANCH   8  26
TORSDOF 6
ENDMDL
MODEL 8
REMARK VINA RESULT:    -5.505      3.905      5.798
REMARK INTER + INTRA:          -6.954
REMARK INTER:                  -6.634
REMARK INTRA:                  -0.320
REMARK UNBOUND:                -0.323
REMARK SMILES O=c1c(O)c(-c2ccc(O)c(O)c2)oc2cc(O)cc(O)c12
REMARK SMILES IDX 5 1 3 2 2 3 1 4 22 5 20 6 19 7 17 8 16 9 15 10 14 11 6 12
REMARK SMILES IDX 7 13 8 14 9 15 13 16 11 17 10 18 12 20 4 22 21 24 18 26
REMARK H PARENT 10 19 12 21 4 23 21 25 18 27
REMARK Flexibility Score: inf
ROOT
ATOM      1  C   UNL     1      70.041  45.226   7.823  1.00  0.00     0.180 A 
ATOM      2  C   UNL     1      69.244  46.321   7.449  1.00  0.00     0.208 A 
ATOM      3  C   UNL     1      69.740  47.620   7.639  1.00  0.00     0.238 A 
ATOM      4  O   UNL     1      69.000  48.597   7.352  1.00  0.00    -0.285 OA
ATOM      5  C   UNL     1      71.032  47.809   8.185  1.00  0.00     0.111 A 
ATOM      6  C   UNL     1      71.650  49.080   8.385  1.00  0.00     0.134 A 
ATOM      7  C   UNL     1      72.878  49.154   9.054  1.00  0.00     0.093 A 
ATOM      8  C   UNL     1      73.540  47.997   9.473  1.00  0.00     0.123 A 
ATOM      9  C   UNL     1      72.973  46.748   9.231  1.00  0.00     0.094 A 
ATOM     10  C   UNL     1      71.732  46.644   8.597  1.00  0.00     0.146 A 
ATOM     11  O   UNL     1      71.221  45.436   8.394  1.00  0.00    -0.452 OA
ENDROOT
BRANCH   1  12
ATOM     12  C   UNL     1      69.598  43.826   7.631  1.00  0.00     0.025 A 
ATOM     13  C   UNL     1      68.838  43.198   8.631  1.00  0.00     0.016 A 
ATOM     14  C   UNL     1      68.427  41.871   8.479  1.00  0.00     0.051 A 
ATOM     15  C   UNL     1      68.781  41.148   7.336  1.00  0.00     0.157 A 
ATOM     16  C   UNL     1      69.970  43.090   6.492  1.00  0.00     0.062 A 
ATOM     17  C   UNL     1      69.559  41.758   6.338  1.00  0.00     0.158 A 
BRANCH  15  18
ATOM     18  O   UNL     1      68.354  39.826   7.212  1.00  0.00    -0.504 OA
ATOM     19  H   UNL     1      67.903  39.332   7.973  1.00  0.00     0.293 HD
ENDBRANCH  15  18
BRANCH  17  20
ATOM     20  O   UNL     1      69.927  41.038   5.202  1.00  0.00    -0.504 OA
ATOM     21  H   UNL     1      70.771  41.255   4.686  1.00  0.00     0.293 HD
ENDBRANCH  17  20
ENDBRANCH   1  12
BRANCH   2  22
ATOM     22  O   UNL     1      67.963  46.113   6.930  1.00  0.00    -0.502 OA
ATOM     23  H   UNL     1      67.297  45.485   7.363  1.00  0.00     0.293 HD
ENDBRANCH   2  22
BRANCH   6  24
ATOM     24  O   UNL     1      71.118  50.288   7.924  1.00  0.00    -0.507 OA
ATOM     25  H   UNL     1      70.132  50.485   7.835  1.00  0.00     0.293 HD
ENDBRANCH   6  24
BRANCH   8  26
ATOM     26  O   UNL     1      74.769  48.077  10.125  1.00  0.00    -0.508 OA
ATOM     27  H   UNL     1      75.479  48.740   9.837  1.00  0.00     0.293 HD
ENDBRANCH   8  26
TORSDOF 6
ENDMDL
