MODEL 1
REMARK VINA RESULT:    -5.136      0.000      0.000
REMARK INTER + INTRA:          -7.426
REMARK INTER:                  -6.937
REMARK INTRA:                  -0.489
REMARK UNBOUND:                -0.489
REMARK SMILES O=C[C@H](O)[C@@H](O)[C@H](O)CO
REMARK SMILES IDX 7 1 9 2 10 3 5 5 3 6 2 7 1 8 4 9 6 11 8 13
REMARK H PARENT 10 4 4 10 6 12 8 14
REMARK Flexibility Score: inf
ROOT
ATOM      1  C   UNL     1    -143.352 102.279  32.530  1.00  0.00     0.171 C 
ENDROOT
BRANCH   1   2
ATOM      2  C   UNL     1    -143.238 100.744  32.419  1.00  0.00     0.190 C 
BRANCH   2   3
ATOM      3  O   UNL     1    -143.758 100.130  33.568  1.00  0.00    -0.394 OA
ATOM      4  H   UNL     1    -143.666  99.150  33.434  1.00  0.00     0.210 HD
ENDBRANCH   2   3
ENDBRANCH   1   2
BRANCH   1   5
ATOM      5  C   UNL     1    -142.860 102.824  33.901  1.00  0.00     0.181 C 
BRANCH   5   6
ATOM      6  C   UNL     1    -142.412 104.308  33.846  1.00  0.00     0.209 C 
BRANCH   6   7
ATOM      7  C   UNL     1    -142.481 104.945  35.209  1.00  0.00     0.258 C 
ATOM      8  O   UNL     1    -141.830 105.945  35.467  1.00  0.00    -0.300 OA
ENDBRANCH   6   7
BRANCH   6   9
ATOM      9  O   UNL     1    -143.210 105.027  32.942  1.00  0.00    -0.383 OA
ATOM     10  H   UNL     1    -143.307 104.460  32.132  1.00  0.00     0.211 HD
ENDBRANCH   6   9
ENDBRANCH   5   6
BRANCH   5  11
ATOM     11  O   UNL     1    -143.857 102.642  34.878  1.00  0.00    -0.387 OA
ATOM     12  H   UNL     1    -144.727 102.554  34.408  1.00  0.00     0.211 HD
ENDBRANCH   5  11
ENDBRANCH   1   5
BRANCH   1  13
ATOM     13  O   UNL     1    -144.682 102.678  32.301  1.00  0.00    -0.388 OA
ATOM     14  H   UNL     1    -145.248 101.861  32.331  1.00  0.00     0.211 HD
ENDBRANCH   1  13
TORSDOF 8
ENDMDL
MODEL 2
REMARK VINA RESULT:    -4.811      1.198      4.317
REMARK INTER + INTRA:          -6.988
REMARK INTER:                  -6.336
REMARK INTRA:                  -0.652
REMARK UNBOUND:                -0.489
REMARK SMILES O=C[C@H](O)[C@@H](O)[C@H](O)CO
REMARK SMILES IDX 7 1 9 2 10 3 5 5 3 6 2 7 1 8 4 9 6 11 8 13
REMARK H PARENT 10 4 4 10 6 12 8 14
REMARK Flexibility Score: inf
ROOT
ATOM      1  C   UNL     1    -142.763 103.107  34.285  1.00  0.00     0.171 C 
ENDROOT
BRANCH   1   2
ATOM      2  C   UNL     1    -142.579 104.607  33.973  1.00  0.00     0.190 C 
BRANCH   2   3
ATOM      3  O   UNL     1    -142.935 104.878  32.644  1.00  0.00    -0.394 OA
ATOM      4  H   UNL     1    -143.623 105.593  32.673  1.00  0.00     0.210 HD
ENDBRANCH   2   3
ENDBRANCH   1   2
BRANCH   1   5
ATOM      5  C   UNL     1    -143.112 102.265  33.024  1.00  0.00     0.181 C 
BRANCH   5   6
ATOM      6  C   UNL     1    -143.007 100.736  33.259  1.00  0.00     0.209 C 
BRANCH   6   7
ATOM      7  C   UNL     1    -142.976  99.989  31.952  1.00  0.00     0.258 C 
ATOM      8  O   UNL     1    -142.777 100.576  30.900  1.00  0.00    -0.300 OA
ENDBRANCH   6   7
BRANCH   6   9
ATOM      9  O   UNL     1    -144.084 100.287  34.041  1.00  0.00    -0.383 OA
ATOM     10  H   UNL     1    -144.683  99.774  33.437  1.00  0.00     0.211 HD
ENDBRANCH   6   9
ENDBRANCH   5   6
BRANCH   5  11
ATOM     11  O   UNL     1    -144.394 102.610  32.555  1.00  0.00    -0.387 OA
ATOM     12  H   UNL     1    -144.510 102.192  31.662  1.00  0.00     0.211 HD
ENDBRANCH   5  11
ENDBRANCH   1   5
BRANCH   1  13
ATOM     13  O   UNL     1    -143.758 102.941  35.266  1.00  0.00    -0.388 OA
ATOM     14  H   UNL     1    -143.503 102.155  35.820  1.00  0.00     0.211 HD
ENDBRANCH   1  13
TORSDOF 8
ENDMDL
MODEL 3
REMARK VINA RESULT:    -4.689      1.316      1.805
REMARK INTER + INTRA:          -6.823
REMARK INTER:                  -6.146
REMARK INTRA:                  -0.677
REMARK UNBOUND:                -0.489
REMARK SMILES O=C[C@H](O)[C@@H](O)[C@H](O)CO
REMARK SMILES IDX 7 1 9 2 10 3 5 5 3 6 2 7 1 8 4 9 6 11 8 13
REMARK H PARENT 10 4 4 10 6 12 8 14
REMARK Flexibility Score: inf
ROOT
ATOM      1  C   UNL     1    -142.773 100.563  33.474  1.00  0.00     0.171 C 
ENDROOT
BRANCH   1   2
ATOM      2  C   UNL     1    -143.005  99.404  34.466  1.00  0.00     0.190 C 
BRANCH   2   3
ATOM      3  O   UNL     1    -144.302  98.888  34.324  1.00  0.00    -0.394 OA
ATOM      4  H   UNL     1    -144.425  98.221  35.049  1.00  0.00     0.210 HD
ENDBRANCH   2   3
ENDBRANCH   1   2
BRANCH   1   5
ATOM      5  C   UNL     1    -143.043 101.960  34.103  1.00  0.00     0.181 C 
BRANCH   5   6
ATOM      6  C   UNL     1    -142.951 103.121  33.080  1.00  0.00     0.209 C 
BRANCH   6   7
ATOM      7  C   UNL     1    -142.593 104.416  33.761  1.00  0.00     0.258 C 
ATOM      8  O   UNL     1    -142.684 104.531  34.973  1.00  0.00    -0.300 OA
ENDBRANCH   6   7
BRANCH   6   9
ATOM      9  O   UNL     1    -144.166 103.263  32.391  1.00  0.00    -0.383 OA
ATOM     10  H   UNL     1    -144.357 104.237  32.343  1.00  0.00     0.211 HD
ENDBRANCH   6   9
ENDBRANCH   5   6
BRANCH   5  11
ATOM     11  O   UNL     1    -144.294 101.964  34.749  1.00  0.00    -0.387 OA
ATOM     12  H   UNL     1    -144.807 101.182  34.417  1.00  0.00     0.211 HD
ENDBRANCH   5  11
ENDBRANCH   1   5
BRANCH   1  13
ATOM     13  O   UNL     1    -143.578 100.384  32.333  1.00  0.00    -0.388 OA
ATOM     14  H   UNL     1    -143.066  99.824  31.691  1.00  0.00     0.211 HD
ENDBRANCH   1  13
TORSDOF 8
ENDMDL
MODEL 4
REMARK VINA RESULT:    -4.575      1.207      4.160
REMARK INTER + INTRA:          -6.669
REMARK INTER:                  -6.381
REMARK INTRA:                  -0.288
REMARK UNBOUND:                -0.489
REMARK SMILES O=C[C@H](O)[C@@H](O)[C@H](O)CO
REMARK SMILES IDX 7 1 9 2 10 3 5 5 3 6 2 7 1 8 4 9 6 11 8 13
REMARK H PARENT 10 4 4 10 6 12 8 14
REMARK Flexibility Score: inf
ROOT
ATOM      1  C   UNL     1    -142.916 102.728  34.171  1.00  0.00     0.171 C 
ENDROOT
BRANCH   1   2
ATOM      2  C   UNL     1    -142.485 104.208  34.089  1.00  0.00     0.190 C 
BRANCH   2   3
ATOM      3  O   UNL     1    -143.124 104.847  33.017  1.00  0.00    -0.394 OA
ATOM      4  H   UNL     1    -143.444 105.723  33.356  1.00  0.00     0.210 HD
ENDBRANCH   2   3
ENDBRANCH   1   2
BRANCH   1   5
ATOM      5  C   UNL     1    -143.285 102.129  32.783  1.00  0.00     0.181 C 
BRANCH   5   6
ATOM      6  C   UNL     1    -143.288 100.579  32.766  1.00  0.00     0.209 C 
BRANCH   6   7
ATOM      7  C   UNL     1    -142.216 100.025  33.668  1.00  0.00     0.258 C 
ATOM      8  O   UNL     1    -142.497  99.259  34.575  1.00  0.00    -0.300 OA
ENDBRANCH   6   7
BRANCH   6   9
ATOM      9  O   UNL     1    -143.104 100.104  31.457  1.00  0.00    -0.383 OA
ATOM     10  H   UNL     1    -143.018  99.116  31.520  1.00  0.00     0.211 HD
ENDBRANCH   6   9
ENDBRANCH   5   6
BRANCH   5  11
ATOM     11  O   UNL     1    -144.529 102.634  32.357  1.00  0.00    -0.387 OA
ATOM     12  H   UNL     1    -144.405 103.012  31.448  1.00  0.00     0.211 HD
ENDBRANCH   5  11
ENDBRANCH   1   5
BRANCH   1  13
ATOM     13  O   UNL     1    -143.998 102.593  35.059  1.00  0.00    -0.388 OA
ATOM     14  H   UNL     1    -143.644 102.703  35.981  1.00  0.00     0.211 HD
ENDBRANCH   1  13
TORSDOF 8
ENDMDL
MODEL 5
REMARK VINA RESULT:    -4.416     19.965     21.675
REMARK INTER + INTRA:          -6.454
REMARK INTER:                  -5.776
REMARK INTRA:                  -0.678
REMARK UNBOUND:                -0.489
REMARK SMILES O=C[C@H](O)[C@@H](O)[C@H](O)CO
REMARK SMILES IDX 7 1 9 2 10 3 5 5 3 6 2 7 1 8 4 9 6 11 8 13
REMARK H PARENT 10 4 4 10 6 12 8 14
REMARK Flexibility Score: inf
ROOT
ATOM      1  C   UNL     1    -129.401 117.230  44.728  1.00  0.00     0.171 C 
ENDROOT
BRANCH   1   2
ATOM      2  C   UNL     1    -128.992 118.368  43.769  1.00  0.00     0.190 C 
BRANCH   2   3
ATOM      3  O   UNL     1    -128.572 117.845  42.538  1.00  0.00    -0.394 OA
ATOM      4  H   UNL     1    -127.716 117.370  42.706  1.00  0.00     0.210 HD
ENDBRANCH   2   3
ENDBRANCH   1   2
BRANCH   1   5
ATOM      5  C   UNL     1    -129.438 115.838  44.033  1.00  0.00     0.181 C 
BRANCH   5   6
ATOM      6  C   UNL     1    -129.489 114.655  45.033  1.00  0.00     0.209 C 
BRANCH   6   7
ATOM      7  C   UNL     1    -129.401 113.334  44.314  1.00  0.00     0.258 C 
ATOM      8  O   UNL     1    -129.377 113.287  43.094  1.00  0.00    -0.300 OA
ENDBRANCH   6   7
BRANCH   6   9
ATOM      9  O   UNL     1    -130.668 114.707  45.794  1.00  0.00    -0.383 OA
ATOM     10  H   UNL     1    -130.832 115.664  46.003  1.00  0.00     0.211 HD
ENDBRANCH   6   9
ENDBRANCH   5   6
BRANCH   5  11
ATOM     11  O   UNL     1    -130.520 115.777  43.135  1.00  0.00    -0.387 OA
ATOM     12  H   UNL     1    -131.355 115.740  43.670  1.00  0.00     0.211 HD
ENDBRANCH   5  11
ENDBRANCH   1   5
BRANCH   1  13
ATOM     13  O   UNL     1    -130.652 117.515  45.303  1.00  0.00    -0.388 OA
ATOM     14  H   UNL     1    -130.551 117.443  46.289  1.00  0.00     0.211 HD
ENDBRANCH   1  13
TORSDOF 8
ENDMDL
MODEL 6
REMARK VINA RESULT:    -4.398     14.167     15.015
REMARK INTER + INTRA:          -6.429
REMARK INTER:                  -5.942
REMARK INTRA:                  -0.488
REMARK UNBOUND:                -0.489
REMARK SMILES O=C[C@H](O)[C@@H](O)[C@H](O)CO
REMARK SMILES IDX 7 1 9 2 10 3 5 5 3 6 2 7 1 8 4 9 6 11 8 13
REMARK H PARENT 10 4 4 10 6 12 8 14
REMARK Flexibility Score: inf
ROOT
ATOM      1  C   UNL     1    -130.162 105.206  39.599  1.00  0.00     0.171 C 
ENDROOT
BRANCH   1   2
ATOM      2  C   UNL     1    -129.533 104.311  38.511  1.00  0.00     0.190 C 
BRANCH   2   3
ATOM      3  O   UNL     1    -129.721 104.876  37.241  1.00  0.00    -0.394 OA
ATOM      4  H   UNL     1    -130.527 104.445  36.854  1.00  0.00     0.210 HD
ENDBRANCH   2   3
ENDBRANCH   1   2
BRANCH   1   5
ATOM      5  C   UNL     1    -129.344 106.504  39.861  1.00  0.00     0.181 C 
BRANCH   5   6
ATOM      6  C   UNL     1    -129.935 107.753  39.158  1.00  0.00     0.209 C 
BRANCH   6   7
ATOM      7  C   UNL     1    -130.185 108.862  40.145  1.00  0.00     0.258 C 
ATOM      8  O   UNL     1    -129.262 109.532  40.581  1.00  0.00    -0.300 OA
ENDBRANCH   6   7
BRANCH   6   9
ATOM      9  O   UNL     1    -131.129 107.424  38.496  1.00  0.00    -0.383 OA
ATOM     10  H   UNL     1    -131.503 106.628  38.958  1.00  0.00     0.211 HD
ENDBRANCH   6   9
ENDBRANCH   5   6
BRANCH   5  11
ATOM     11  O   UNL     1    -129.221 106.724  41.246  1.00  0.00    -0.387 OA
ATOM     12  H   UNL     1    -130.137 106.777  41.625  1.00  0.00     0.211 HD
ENDBRANCH   5  11
ENDBRANCH   1   5
BRANCH   1  13
ATOM     13  O   UNL     1    -130.307 104.478  40.794  1.00  0.00    -0.388 OA
ATOM     14  H   UNL     1    -130.987 103.771  40.632  1.00  0.00     0.211 HD
ENDBRANCH   1  13
TORSDOF 8
ENDMDL
MODEL 7
REMARK VINA RESULT:    -4.387     19.822     21.620
REMARK INTER + INTRA:          -6.416
REMARK INTER:                  -5.789
REMARK INTRA:                  -0.626
REMARK UNBOUND:                -0.489
REMARK SMILES O=C[C@H](O)[C@@H](O)[C@H](O)CO
REMARK SMILES IDX 7 1 9 2 10 3 5 5 3 6 2 7 1 8 4 9 6 11 8 13
REMARK H PARENT 10 4 4 10 6 12 8 14
REMARK Flexibility Score: inf
ROOT
ATOM      1  C   UNL     1    -129.991 116.765  44.978  1.00  0.00     0.171 C 
ENDROOT
BRANCH   1   2
ATOM      2  C   UNL     1    -130.520 117.165  46.371  1.00  0.00     0.190 C 
BRANCH   2   3
ATOM      3  O   UNL     1    -131.063 116.051  47.027  1.00  0.00    -0.394 OA
ATOM      4  H   UNL     1    -130.731 115.247  46.549  1.00  0.00     0.210 HD
ENDBRANCH   2   3
ENDBRANCH   1   2
BRANCH   1   5
ATOM      5  C   UNL     1    -129.794 115.230  44.824  1.00  0.00     0.181 C 
BRANCH   5   6
ATOM      6  C   UNL     1    -129.809 114.755  43.347  1.00  0.00     0.209 C 
BRANCH   6   7
ATOM      7  C   UNL     1    -129.307 113.340  43.230  1.00  0.00     0.258 C 
ATOM      8  O   UNL     1    -129.360 112.575  44.180  1.00  0.00    -0.300 OA
ENDBRANCH   6   7
BRANCH   6   9
ATOM      9  O   UNL     1    -129.027 115.607  42.551  1.00  0.00    -0.383 OA
ATOM     10  H   UNL     1    -128.877 115.138  41.689  1.00  0.00     0.211 HD
ENDBRANCH   6   9
ENDBRANCH   5   6
BRANCH   5  11
ATOM     11  O   UNL     1    -128.605 114.830  45.463  1.00  0.00    -0.387 OA
ATOM     12  H   UNL     1    -128.856 114.380  46.312  1.00  0.00     0.211 HD
ENDBRANCH   5  11
ENDBRANCH   1   5
BRANCH   1  13
ATOM     13  O   UNL     1    -128.782 117.435  44.715  1.00  0.00    -0.388 OA
ATOM     14  H   UNL     1    -128.938 118.042  43.943  1.00  0.00     0.211 HD
ENDBRANCH   1  13
TORSDOF 8
ENDMDL
MODEL 8
REMARK VINA RESULT:    -4.357     19.720     21.221
REMARK INTER + INTRA:          -6.374
REMARK INTER:                  -5.754
REMARK INTRA:                  -0.620
REMARK UNBOUND:                -0.489
REMARK SMILES O=C[C@H](O)[C@@H](O)[C@H](O)CO
REMARK SMILES IDX 7 1 9 2 10 3 5 5 3 6 2 7 1 8 4 9 6 11 8 13
REMARK H PARENT 10 4 4 10 6 12 8 14
REMARK Flexibility Score: inf
ROOT
ATOM      1  C   UNL     1    -129.477 114.866  43.307  1.00  0.00     0.171 C 
ENDROOT
BRANCH   1   2
ATOM      2  C   UNL     1    -129.535 113.336  43.116  1.00  0.00     0.190 C 
BRANCH   2   3
ATOM      3  O   UNL     1    -128.598 112.703  43.945  1.00  0.00    -0.394 OA
ATOM      4  H   UNL     1    -128.907 111.766  44.061  1.00  0.00     0.210 HD
ENDBRANCH   2   3
ENDBRANCH   1   2
BRANCH   1   5
ATOM      5  C   UNL     1    -129.427 115.287  44.803  1.00  0.00     0.181 C 
BRANCH   5   6
ATOM      6  C   UNL     1    -129.280 116.818  45.005  1.00  0.00     0.209 C 
BRANCH   6   7
ATOM      7  C   UNL     1    -130.502 117.396  45.670  1.00  0.00     0.258 C 
ATOM      8  O   UNL     1    -130.649 117.326  46.879  1.00  0.00    -0.300 OA
ENDBRANCH   6   7
BRANCH   6   9
ATOM      9  O   UNL     1    -129.060 117.455  43.773  1.00  0.00    -0.383 OA
ATOM     10  H   UNL     1    -129.738 117.100  43.141  1.00  0.00     0.211 HD
ENDBRANCH   6   9
ENDBRANCH   5   6
BRANCH   5  11
ATOM     11  O   UNL     1    -130.564 114.804  45.478  1.00  0.00    -0.387 OA
ATOM     12  H   UNL     1    -130.724 115.393  46.260  1.00  0.00     0.211 HD
ENDBRANCH   5  11
ENDBRANCH   1   5
BRANCH   1  13
ATOM     13  O   UNL     1    -130.578 115.470  42.672  1.00  0.00    -0.388 OA
ATOM     14  H   UNL     1    -131.091 114.751  42.216  1.00  0.00     0.211 HD
ENDBRANCH   1  13
TORSDOF 8
ENDMDL
MODEL 9
REMARK VINA RESULT:    -4.345     14.749     15.567
REMARK INTER + INTRA:          -6.358
REMARK INTER:                  -5.882
REMARK INTRA:                  -0.476
REMARK UNBOUND:                -0.489
REMARK SMILES O=C[C@H](O)[C@@H](O)[C@H](O)CO
REMARK SMILES IDX 7 1 9 2 10 3 5 5 3 6 2 7 1 8 4 9 6 11 8 13
REMARK H PARENT 10 4 4 10 6 12 8 14
REMARK Flexibility Score: inf
ROOT
ATOM      1  C   UNL     1    -128.967 105.431  38.915  1.00  0.00     0.171 C 
ENDROOT
BRANCH   1   2
ATOM      2  C   UNL     1    -129.306 103.940  39.119  1.00  0.00     0.190 C 
BRANCH   2   3
ATOM      3  O   UNL     1    -129.316 103.621  40.485  1.00  0.00    -0.394 OA
ATOM      4  H   UNL     1    -129.474 102.642  40.548  1.00  0.00     0.210 HD
ENDBRANCH   2   3
ENDBRANCH   1   2
BRANCH   1   5
ATOM      5  C   UNL     1    -129.956 106.381  39.649  1.00  0.00     0.181 C 
BRANCH   5   6
ATOM      6  C   UNL     1    -129.381 106.967  40.965  1.00  0.00     0.209 C 
BRANCH   6   7
ATOM      7  C   UNL     1    -129.095 108.438  40.823  1.00  0.00     0.258 C 
ATOM      8  O   UNL     1    -129.953 109.270  41.073  1.00  0.00    -0.300 OA
ENDBRANCH   6   7
BRANCH   6   9
ATOM      9  O   UNL     1    -128.210 106.285  41.334  1.00  0.00    -0.383 OA
ATOM     10  H   UNL     1    -128.494 105.483  41.847  1.00  0.00     0.211 HD
ENDBRANCH   6   9
ENDBRANCH   5   6
BRANCH   5  11
ATOM     11  O   UNL     1    -130.364 107.414  38.783  1.00  0.00    -0.387 OA
ATOM     12  H   UNL     1    -130.139 108.278  39.216  1.00  0.00     0.211 HD
ENDBRANCH   5  11
ENDBRANCH   1   5
BRANCH   1  13
ATOM     13  O   UNL     1    -128.938 105.732  37.542  1.00  0.00    -0.388 OA
ATOM     14  H   UNL     1    -128.064 106.165  37.349  1.00  0.00     0.211 HD
ENDBRANCH   1  13
TORSDOF 8
ENDMDL
