MODEL 1
REMARK VINA RESULT:    -5.578      0.000      0.000
REMARK INTER + INTRA:         -11.639
REMARK INTER:                  -9.818
REMARK INTRA:                  -1.821
REMARK UNBOUND:                -1.821
REMARK SMILES CCCCCCC=CCCCCCCCC(=O)[O-]
REMARK SMILES IDX 10 1 11 2 12 3 13 4 14 5 15 6 16 7 17 8 18 9 9 10 8 11 7 12
REMARK SMILES IDX 6 13 5 14 4 15 3 16 2 17 1 18
REMARK H PARENT
REMARK Flexibility Score: inf
ROOT
ATOM      1  C   UNL     1      40.866  40.962  15.618  1.00  0.00     0.004 C 
ENDROOT
BRANCH   1   2
ATOM      2  C   UNL     1      41.097  42.481  15.670  1.00  0.00     0.000 C 
BRANCH   2   3
ATOM      3  C   UNL     1      41.164  43.075  17.090  1.00  0.00     0.000 C 
BRANCH   3   4
ATOM      4  C   UNL     1      42.592  43.458  17.535  1.00  0.00     0.000 C 
BRANCH   4   5
ATOM      5  C   UNL     1      43.150  42.493  18.597  1.00  0.00     0.006 C 
BRANCH   5   6
ATOM      6  C   UNL     1      42.116  42.162  19.681  1.00  0.00     0.053 C 
BRANCH   6   7
ATOM      7  C   UNL     1      41.918  40.685  19.830  1.00  0.00     0.041 C 
ATOM      8  O   UNL     1      41.162  40.065  19.036  1.00  0.00    -0.550 OA
ATOM      9  O   UNL     1      42.592  39.989  20.825  1.00  0.00    -0.550 OA
ENDBRANCH   6   7
ENDBRANCH   5   6
ENDBRANCH   4   5
ENDBRANCH   3   4
ENDBRANCH   2   3
ENDBRANCH   1   2
BRANCH   1  10
ATOM     10  C   UNL     1      42.139  40.158  15.919  1.00  0.00     0.027 C 
BRANCH  10  11
ATOM     11  C   UNL     1      43.302  40.690  15.121  1.00  0.00    -0.031 C 
ATOM     12  C   UNL     1      44.230  39.923  14.519  1.00  0.00    -0.031 C 
BRANCH  12  13
ATOM     13  C   UNL     1      44.197  38.415  14.468  1.00  0.00     0.027 C 
BRANCH  13  14
ATOM     14  C   UNL     1      43.272  37.898  13.356  1.00  0.00     0.004 C 
BRANCH  14  15
ATOM     15  C   UNL     1      42.353  36.769  13.845  1.00  0.00     0.000 C 
BRANCH  15  16
ATOM     16  C   UNL     1      40.895  37.035  13.443  1.00  0.00    -0.000 C 
BRANCH  16  17
ATOM     17  C   UNL     1      40.657  38.491  13.012  1.00  0.00    -0.003 C 
ATOM     18  C   UNL     1      39.304  38.691  12.329  1.00  0.00     0.004 C 
ENDBRANCH  16  17
ENDBRANCH  15  16
ENDBRANCH  14  15
ENDBRANCH  13  14
ENDBRANCH  12  13
ENDBRANCH  10  11
ENDBRANCH   1  10
TORSDOF 13
ENDMDL
MODEL 2
REMARK VINA RESULT:    -5.360      2.649      3.290
REMARK INTER + INTRA:         -11.255
REMARK INTER:                  -9.655
REMARK INTRA:                  -1.600
REMARK UNBOUND:                -1.821
REMARK SMILES CCCCCCC=CCCCCCCCC(=O)[O-]
REMARK SMILES IDX 10 1 11 2 12 3 13 4 14 5 15 6 16 7 17 8 18 9 9 10 8 11 7 12
REMARK SMILES IDX 6 13 5 14 4 15 3 16 2 17 1 18
REMARK H PARENT
REMARK Flexibility Score: inf
ROOT
ATOM      1  C   UNL     1      40.569  41.163  17.271  1.00  0.00     0.004 C 
ENDROOT
BRANCH   1   2
ATOM      2  C   UNL     1      41.431  40.592  18.409  1.00  0.00     0.000 C 
BRANCH   2   3
ATOM      3  C   UNL     1      42.248  41.641  19.187  1.00  0.00     0.000 C 
BRANCH   3   4
ATOM      4  C   UNL     1      43.421  42.237  18.378  1.00  0.00     0.000 C 
BRANCH   4   5
ATOM      5  C   UNL     1      43.278  43.757  18.179  1.00  0.00     0.006 C 
BRANCH   5   6
ATOM      6  C   UNL     1      43.219  44.145  16.696  1.00  0.00     0.053 C 
BRANCH   6   7
ATOM      7  C   UNL     1      43.918  45.444  16.431  1.00  0.00     0.041 C 
ATOM      8  O   UNL     1      43.959  45.913  15.263  1.00  0.00    -0.550 OA
ATOM      9  O   UNL     1      44.494  46.151  17.478  1.00  0.00    -0.550 OA
ENDBRANCH   6   7
ENDBRANCH   5   6
ENDBRANCH   4   5
ENDBRANCH   3   4
ENDBRANCH   2   3
ENDBRANCH   1   2
BRANCH   1  10
ATOM     10  C   UNL     1      40.874  40.514  15.913  1.00  0.00     0.027 C 
BRANCH  10  11
ATOM     11  C   UNL     1      42.122  41.107  15.310  1.00  0.00    -0.031 C 
ATOM     12  C   UNL     1      43.178  40.391  14.882  1.00  0.00    -0.031 C 
BRANCH  12  13
ATOM     13  C   UNL     1      43.238  38.884  14.849  1.00  0.00     0.027 C 
BRANCH  13  14
ATOM     14  C   UNL     1      42.796  38.320  13.492  1.00  0.00     0.004 C 
BRANCH  14  15
ATOM     15  C   UNL     1      42.080  36.969  13.630  1.00  0.00     0.000 C 
BRANCH  15  16
ATOM     16  C   UNL     1      40.563  37.130  13.455  1.00  0.00    -0.000 C 
BRANCH  16  17
ATOM     17  C   UNL     1      40.167  38.545  13.004  1.00  0.00    -0.003 C 
ATOM     18  C   UNL     1      39.021  38.544  11.992  1.00  0.00     0.004 C 
ENDBRANCH  16  17
ENDBRANCH  15  16
ENDBRANCH  14  15
ENDBRANCH  13  14
ENDBRANCH  12  13
ENDBRANCH  10  11
ENDBRANCH   1  10
TORSDOF 13
ENDMDL
MODEL 3
REMARK VINA RESULT:    -5.337      3.137      4.278
REMARK INTER + INTRA:         -11.215
REMARK INTER:                  -9.191
REMARK INTRA:                  -2.024
REMARK UNBOUND:                -1.821
REMARK SMILES CCCCCCC=CCCCCCCCC(=O)[O-]
REMARK SMILES IDX 10 1 11 2 12 3 13 4 14 5 15 6 16 7 17 8 18 9 9 10 8 11 7 12
REMARK SMILES IDX 6 13 5 14 4 15 3 16 2 17 1 18
REMARK H PARENT
REMARK Flexibility Score: inf
ROOT
ATOM      1  C   UNL     1      41.692  41.957  18.801  1.00  0.00     0.004 C 
ENDROOT
BRANCH   1   2
ATOM      2  C   UNL     1      43.053  42.648  18.615  1.00  0.00     0.000 C 
BRANCH   2   3
ATOM      3  C   UNL     1      43.154  43.547  17.368  1.00  0.00     0.000 C 
BRANCH   3   4
ATOM      4  C   UNL     1      41.822  44.231  16.988  1.00  0.00     0.000 C 
BRANCH   4   5
ATOM      5  C   UNL     1      41.621  44.306  15.464  1.00  0.00     0.006 C 
BRANCH   5   6
ATOM      6  C   UNL     1      42.949  44.234  14.699  1.00  0.00     0.053 C 
BRANCH   6   7
ATOM      7  C   UNL     1      43.444  45.594  14.311  1.00  0.00     0.041 C 
ATOM      8  O   UNL     1      42.694  46.383  13.676  1.00  0.00    -0.550 OA
ATOM      9  O   UNL     1      44.719  46.003  14.679  1.00  0.00    -0.550 OA
ENDBRANCH   6   7
ENDBRANCH   5   6
ENDBRANCH   4   5
ENDBRANCH   3   4
ENDBRANCH   2   3
ENDBRANCH   1   2
BRANCH   1  10
ATOM     10  C   UNL     1      41.630  40.578  18.128  1.00  0.00     0.027 C 
BRANCH  10  11
ATOM     11  C   UNL     1      40.696  40.608  16.945  1.00  0.00    -0.031 C 
ATOM     12  C   UNL     1      41.092  40.668  15.660  1.00  0.00    -0.031 C 
BRANCH  12  13
ATOM     13  C   UNL     1      42.529  40.618  15.201  1.00  0.00     0.027 C 
BRANCH  13  14
ATOM     14  C   UNL     1      43.041  39.177  15.074  1.00  0.00     0.004 C 
BRANCH  14  15
ATOM     15  C   UNL     1      42.690  38.555  13.714  1.00  0.00     0.000 C 
BRANCH  15  16
ATOM     16  C   UNL     1      42.022  37.184  13.893  1.00  0.00    -0.000 C 
BRANCH  16  17
ATOM     17  C   UNL     1      40.638  37.109  13.228  1.00  0.00    -0.003 C 
ATOM     18  C   UNL     1      40.026  38.489  12.983  1.00  0.00     0.004 C 
ENDBRANCH  16  17
ENDBRANCH  15  16
ENDBRANCH  14  15
ENDBRANCH  13  14
ENDBRANCH  12  13
ENDBRANCH  10  11
ENDBRANCH   1  10
TORSDOF 13
ENDMDL
MODEL 4
REMARK VINA RESULT:    -5.272      1.100      1.886
REMARK INTER + INTRA:         -11.100
REMARK INTER:                  -9.266
REMARK INTRA:                  -1.833
REMARK UNBOUND:                -1.821
REMARK SMILES CCCCCCC=CCCCCCCCC(=O)[O-]
REMARK SMILES IDX 10 1 11 2 12 3 13 4 14 5 15 6 16 7 17 8 18 9 9 10 8 11 7 12
REMARK SMILES IDX 6 13 5 14 4 15 3 16 2 17 1 18
REMARK H PARENT
REMARK Flexibility Score: inf
ROOT
ATOM      1  C   UNL     1      40.830  43.708  15.918  1.00  0.00     0.004 C 
ENDROOT
BRANCH   1   2
ATOM      2  C   UNL     1      41.834  44.711  16.510  1.00  0.00     0.000 C 
BRANCH   2   3
ATOM      3  C   UNL     1      43.206  44.111  16.872  1.00  0.00     0.000 C 
BRANCH   3   4
ATOM      4  C   UNL     1      43.276  43.545  18.308  1.00  0.00     0.000 C 
BRANCH   4   5
ATOM      5  C   UNL     1      43.206  42.008  18.332  1.00  0.00     0.006 C 
BRANCH   5   6
ATOM      6  C   UNL     1      41.818  41.496  18.742  1.00  0.00     0.053 C 
BRANCH   6   7
ATOM      7  C   UNL     1      41.727  41.251  20.217  1.00  0.00     0.041 C 
ATOM      8  O   UNL     1      42.015  40.119  20.689  1.00  0.00    -0.550 OA
ATOM      9  O   UNL     1      41.356  42.280  21.073  1.00  0.00    -0.550 OA
ENDBRANCH   6   7
ENDBRANCH   5   6
ENDBRANCH   4   5
ENDBRANCH   3   4
ENDBRANCH   2   3
ENDBRANCH   1   2
BRANCH   1  10
ATOM     10  C   UNL     1      41.502  42.647  15.035  1.00  0.00     0.027 C 
BRANCH  10  11
ATOM     11  C   UNL     1      40.987  41.272  15.375  1.00  0.00    -0.031 C 
ATOM     12  C   UNL     1      41.726  40.147  15.331  1.00  0.00    -0.031 C 
BRANCH  12  13
ATOM     13  C   UNL     1      43.203  40.100  15.027  1.00  0.00     0.027 C 
BRANCH  13  14
ATOM     14  C   UNL     1      43.558  38.950  14.075  1.00  0.00     0.004 C 
BRANCH  14  15
ATOM     15  C   UNL     1      42.855  37.640  14.461  1.00  0.00     0.000 C 
BRANCH  15  16
ATOM     16  C   UNL     1      42.039  37.086  13.283  1.00  0.00    -0.000 C 
BRANCH  16  17
ATOM     17  C   UNL     1      40.523  37.191  13.513  1.00  0.00    -0.003 C 
ATOM     18  C   UNL     1      39.895  38.377  12.782  1.00  0.00     0.004 C 
ENDBRANCH  16  17
ENDBRANCH  15  16
ENDBRANCH  14  15
ENDBRANCH  13  14
ENDBRANCH  12  13
ENDBRANCH  10  11
ENDBRANCH   1  10
TORSDOF 13
ENDMDL
MODEL 5
REMARK VINA RESULT:    -5.268      2.436      2.984
REMARK INTER + INTRA:         -11.093
REMARK INTER:                 -10.015
REMARK INTRA:                  -1.078
REMARK UNBOUND:                -1.821
REMARK SMILES CCCCCCC=CCCCCCCCC(=O)[O-]
REMARK SMILES IDX 10 1 11 2 12 3 13 4 14 5 15 6 16 7 17 8 18 9 9 10 8 11 7 12
REMARK SMILES IDX 6 13 5 14 4 15 3 16 2 17 1 18
REMARK H PARENT
REMARK Flexibility Score: inf
ROOT
ATOM      1  C   UNL     1      40.689  41.076  17.474  1.00  0.00     0.004 C 
ENDROOT
BRANCH   1   2
ATOM      2  C   UNL     1      41.983  40.983  18.299  1.00  0.00     0.000 C 
BRANCH   2   3
ATOM      3  C   UNL     1      41.772  40.924  19.824  1.00  0.00     0.000 C 
BRANCH   3   4
ATOM      4  C   UNL     1      42.123  42.241  20.550  1.00  0.00     0.000 C 
BRANCH   4   5
ATOM      5  C   UNL     1      43.467  42.825  20.079  1.00  0.00     0.006 C 
BRANCH   5   6
ATOM      6  C   UNL     1      44.337  43.297  21.251  1.00  0.00     0.053 C 
BRANCH   6   7
ATOM      7  C   UNL     1      44.460  44.790  21.290  1.00  0.00     0.041 C 
ATOM      8  O   UNL     1      44.812  45.422  20.259  1.00  0.00    -0.550 OA
ATOM      9  O   UNL     1      44.154  45.484  22.453  1.00  0.00    -0.550 OA
ENDBRANCH   6   7
ENDBRANCH   5   6
ENDBRANCH   4   5
ENDBRANCH   3   4
ENDBRANCH   2   3
ENDBRANCH   1   2
BRANCH   1  10
ATOM     10  C   UNL     1      40.874  40.603  16.025  1.00  0.00     0.027 C 
BRANCH  10  11
ATOM     11  C   UNL     1      42.100  41.233  15.415  1.00  0.00    -0.031 C 
ATOM     12  C   UNL     1      43.185  40.550  15.003  1.00  0.00    -0.031 C 
BRANCH  12  13
ATOM     13  C   UNL     1      43.303  39.046  15.000  1.00  0.00     0.027 C 
BRANCH  13  14
ATOM     14  C   UNL     1      42.823  38.435  13.675  1.00  0.00     0.004 C 
BRANCH  14  15
ATOM     15  C   UNL     1      42.062  37.118  13.887  1.00  0.00     0.000 C 
BRANCH  15  16
ATOM     16  C   UNL     1      40.702  37.150  13.173  1.00  0.00    -0.000 C 
BRANCH  16  17
ATOM     17  C   UNL     1      40.069  38.551  13.168  1.00  0.00    -0.003 C 
ATOM     18  C   UNL     1      39.058  38.738  12.037  1.00  0.00     0.004 C 
ENDBRANCH  16  17
ENDBRANCH  15  16
ENDBRANCH  14  15
ENDBRANCH  13  14
ENDBRANCH  12  13
ENDBRANCH  10  11
ENDBRANCH   1  10
TORSDOF 13
ENDMDL
MODEL 6
REMARK VINA RESULT:    -5.098      2.479      6.386
REMARK INTER + INTRA:         -10.793
REMARK INTER:                  -9.013
REMARK INTRA:                  -1.781
REMARK UNBOUND:                -1.821
REMARK SMILES CCCCCCC=CCCCCCCCC(=O)[O-]
REMARK SMILES IDX 10 1 11 2 12 3 13 4 14 5 15 6 16 7 17 8 18 9 9 10 8 11 7 12
REMARK SMILES IDX 6 13 5 14 4 15 3 16 2 17 1 18
REMARK H PARENT
REMARK Flexibility Score: inf
ROOT
ATOM      1  C   UNL     1      42.461  40.057  16.014  1.00  0.00     0.004 C 
ENDROOT
BRANCH   1   2
ATOM      2  C   UNL     1      43.398  40.752  15.013  1.00  0.00     0.000 C 
BRANCH   2   3
ATOM      3  C   UNL     1      44.418  39.820  14.330  1.00  0.00     0.000 C 
BRANCH   3   4
ATOM      4  C   UNL     1      44.187  38.323  14.631  1.00  0.00     0.000 C 
BRANCH   4   5
ATOM      5  C   UNL     1      43.521  37.589  13.452  1.00  0.00     0.006 C 
BRANCH   5   6
ATOM      6  C   UNL     1      42.296  36.776  13.892  1.00  0.00     0.053 C 
BRANCH   6   7
ATOM      7  C   UNL     1      41.022  37.353  13.355  1.00  0.00     0.041 C 
ATOM      8  O   UNL     1      40.032  36.606  13.137  1.00  0.00    -0.550 OA
ATOM      9  O   UNL     1      40.918  38.719  13.127  1.00  0.00    -0.550 OA
ENDBRANCH   6   7
ENDBRANCH   5   6
ENDBRANCH   4   5
ENDBRANCH   3   4
ENDBRANCH   2   3
ENDBRANCH   1   2
BRANCH   1  10
ATOM     10  C   UNL     1      41.046  40.651  16.014  1.00  0.00     0.027 C 
BRANCH  10  11
ATOM     11  C   UNL     1      41.017  41.949  15.248  1.00  0.00    -0.031 C 
ATOM     12  C   UNL     1      41.130  43.169  15.807  1.00  0.00    -0.031 C 
BRANCH  12  13
ATOM     13  C   UNL     1      41.399  43.422  17.270  1.00  0.00     0.027 C 
BRANCH  13  14
ATOM     14  C   UNL     1      42.902  43.448  17.581  1.00  0.00     0.004 C 
BRANCH  14  15
ATOM     15  C   UNL     1      43.330  42.271  18.471  1.00  0.00     0.000 C 
BRANCH  15  16
ATOM     16  C   UNL     1      42.884  42.491  19.924  1.00  0.00    -0.000 C 
BRANCH  16  17
ATOM     17  C   UNL     1      41.797  41.498  20.366  1.00  0.00    -0.003 C 
ATOM     18  C   UNL     1      41.988  40.107  19.761  1.00  0.00     0.004 C 
ENDBRANCH  16  17
ENDBRANCH  15  16
ENDBRANCH  14  15
ENDBRANCH  13  14
ENDBRANCH  12  13
ENDBRANCH  10  11
ENDBRANCH   1  10
TORSDOF 13
ENDMDL
MODEL 7
REMARK VINA RESULT:    -4.735      1.625      2.456
REMARK INTER + INTRA:         -10.155
REMARK INTER:                  -8.629
REMARK INTRA:                  -1.526
REMARK UNBOUND:                -1.821
REMARK SMILES CCCCCCC=CCCCCCCCC(=O)[O-]
REMARK SMILES IDX 10 1 11 2 12 3 13 4 14 5 15 6 16 7 17 8 18 9 9 10 8 11 7 12
REMARK SMILES IDX 6 13 5 14 4 15 3 16 2 17 1 18
REMARK H PARENT
REMARK Flexibility Score: inf
ROOT
ATOM      1  C   UNL     1      41.585  44.333  16.268  1.00  0.00     0.004 C 
ENDROOT
BRANCH   1   2
ATOM      2  C   UNL     1      40.560  43.189  16.208  1.00  0.00     0.000 C 
BRANCH   2   3
ATOM      3  C   UNL     1      40.301  42.484  17.554  1.00  0.00     0.000 C 
BRANCH   3   4
ATOM      4  C   UNL     1      40.794  41.021  17.592  1.00  0.00     0.000 C 
BRANCH   4   5
ATOM      5  C   UNL     1      42.098  40.867  18.394  1.00  0.00     0.006 C 
BRANCH   5   6
ATOM      6  C   UNL     1      41.847  40.822  19.907  1.00  0.00     0.053 C 
BRANCH   6   7
ATOM      7  C   UNL     1      42.060  42.159  20.549  1.00  0.00     0.041 C 
ATOM      8  O   UNL     1      41.166  42.658  21.283  1.00  0.00    -0.550 OA
ATOM      9  O   UNL     1      43.257  42.838  20.364  1.00  0.00    -0.550 OA
ENDBRANCH   6   7
ENDBRANCH   5   6
ENDBRANCH   4   5
ENDBRANCH   3   4
ENDBRANCH   2   3
ENDBRANCH   1   2
BRANCH   1  10
ATOM     10  C   UNL     1      43.032  43.843  16.116  1.00  0.00     0.027 C 
BRANCH  10  11
ATOM     11  C   UNL     1      43.304  43.429  14.692  1.00  0.00    -0.031 C 
ATOM     12  C   UNL     1      43.529  42.163  14.294  1.00  0.00    -0.031 C 
BRANCH  12  13
ATOM     13  C   UNL     1      43.449  40.953  15.192  1.00  0.00     0.027 C 
BRANCH  13  14
ATOM     14  C   UNL     1      43.893  39.672  14.471  1.00  0.00     0.004 C 
BRANCH  14  15
ATOM     15  C   UNL     1      42.750  38.654  14.343  1.00  0.00     0.000 C 
BRANCH  15  16
ATOM     16  C   UNL     1      41.384  39.353  14.391  1.00  0.00    -0.000 C 
BRANCH  16  17
ATOM     17  C   UNL     1      40.335  38.662  13.505  1.00  0.00    -0.003 C 
ATOM     18  C   UNL     1      40.646  37.185  13.264  1.00  0.00     0.004 C 
ENDBRANCH  16  17
ENDBRANCH  15  16
ENDBRANCH  14  15
ENDBRANCH  13  14
ENDBRANCH  12  13
ENDBRANCH  10  11
ENDBRANCH   1  10
TORSDOF 13
ENDMDL
MODEL 8
REMARK VINA RESULT:    -4.641     10.557     12.420
REMARK INTER + INTRA:          -9.989
REMARK INTER:                  -9.204
REMARK INTRA:                  -0.785
REMARK UNBOUND:                -1.821
REMARK SMILES CCCCCCC=CCCCCCCCC(=O)[O-]
REMARK SMILES IDX 10 1 11 2 12 3 13 4 14 5 15 6 16 7 17 8 18 9 9 10 8 11 7 12
REMARK SMILES IDX 6 13 5 14 4 15 3 16 2 17 1 18
REMARK H PARENT
REMARK Flexibility Score: inf
ROOT
ATOM      1  C   UNL     1      41.463  29.088  14.763  1.00  0.00     0.004 C 
ENDROOT
BRANCH   1   2
ATOM      2  C   UNL     1      40.501  29.249  13.574  1.00  0.00     0.000 C 
BRANCH   2   3
ATOM      3  C   UNL     1      39.006  29.190  13.941  1.00  0.00     0.000 C 
BRANCH   3   4
ATOM      4  C   UNL     1      38.291  30.556  13.850  1.00  0.00     0.000 C 
BRANCH   4   5
ATOM      5  C   UNL     1      37.149  30.685  14.875  1.00  0.00     0.006 C 
BRANCH   5   6
ATOM      6  C   UNL     1      36.179  31.820  14.522  1.00  0.00     0.053 C 
BRANCH   6   7
ATOM      7  C   UNL     1      35.076  31.351  13.622  1.00  0.00     0.041 C 
ATOM      8  O   UNL     1      34.393  32.186  12.971  1.00  0.00    -0.550 OA
ATOM      9  O   UNL     1      34.825  29.993  13.478  1.00  0.00    -0.550 OA
ENDBRANCH   6   7
ENDBRANCH   5   6
ENDBRANCH   4   5
ENDBRANCH   3   4
ENDBRANCH   2   3
ENDBRANCH   1   2
BRANCH   1  10
ATOM     10  C   UNL     1      41.623  30.381  15.575  1.00  0.00     0.027 C 
BRANCH  10  11
ATOM     11  C   UNL     1      41.439  30.109  17.046  1.00  0.00    -0.031 C 
ATOM     12  C   UNL     1      42.446  29.917  17.919  1.00  0.00    -0.031 C 
BRANCH  12  13
ATOM     13  C   UNL     1      43.911  30.040  17.582  1.00  0.00     0.027 C 
BRANCH  13  14
ATOM     14  C   UNL     1      44.808  29.634  18.759  1.00  0.00     0.004 C 
BRANCH  14  15
ATOM     15  C   UNL     1      44.106  29.816  20.113  1.00  0.00     0.000 C 
BRANCH  15  16
ATOM     16  C   UNL     1      44.111  28.506  20.915  1.00  0.00    -0.000 C 
BRANCH  16  17
ATOM     17  C   UNL     1      44.668  28.686  22.336  1.00  0.00    -0.003 C 
ATOM     18  C   UNL     1      43.802  29.605  23.198  1.00  0.00     0.004 C 
ENDBRANCH  16  17
ENDBRANCH  15  16
ENDBRANCH  14  15
ENDBRANCH  13  14
ENDBRANCH  12  13
ENDBRANCH  10  11
ENDBRANCH   1  10
TORSDOF 13
ENDMDL
MODEL 9
REMARK VINA RESULT:    -4.637      3.079      4.971
REMARK INTER + INTRA:          -9.982
REMARK INTER:                  -8.564
REMARK INTRA:                  -1.418
REMARK UNBOUND:                -1.821
REMARK SMILES CCCCCCC=CCCCCCCCC(=O)[O-]
REMARK SMILES IDX 10 1 11 2 12 3 13 4 14 5 15 6 16 7 17 8 18 9 9 10 8 11 7 12
REMARK SMILES IDX 6 13 5 14 4 15 3 16 2 17 1 18
REMARK H PARENT
REMARK Flexibility Score: inf
ROOT
ATOM      1  C   UNL     1      43.253  42.847  19.862  1.00  0.00     0.004 C 
ENDROOT
BRANCH   1   2
ATOM      2  C   UNL     1      43.498  42.794  18.345  1.00  0.00     0.000 C 
BRANCH   2   3
ATOM      3  C   UNL     1      43.206  44.111  17.599  1.00  0.00     0.000 C 
BRANCH   3   4
ATOM      4  C   UNL     1      41.978  44.033  16.665  1.00  0.00     0.000 C 
BRANCH   4   5
ATOM      5  C   UNL     1      42.303  44.509  15.237  1.00  0.00     0.006 C 
BRANCH   5   6
ATOM      6  C   UNL     1      42.495  46.030  15.162  1.00  0.00     0.053 C 
BRANCH   6   7
ATOM      7  C   UNL     1      41.302  46.770  15.685  1.00  0.00     0.041 C 
ATOM      8  O   UNL     1      40.184  46.648  15.118  1.00  0.00    -0.550 OA
ATOM      9  O   UNL     1      41.417  47.565  16.818  1.00  0.00    -0.550 OA
ENDBRANCH   6   7
ENDBRANCH   5   6
ENDBRANCH   4   5
ENDBRANCH   3   4
ENDBRANCH   2   3
ENDBRANCH   1   2
BRANCH   1  10
ATOM     10  C   UNL     1      41.985  42.091  20.284  1.00  0.00     0.027 C 
BRANCH  10  11
ATOM     11  C   UNL     1      42.028  40.667  19.792  1.00  0.00    -0.031 C 
ATOM     12  C   UNL     1      41.376  40.214  18.704  1.00  0.00    -0.031 C 
BRANCH  12  13
ATOM     13  C   UNL     1      40.579  41.079  17.759  1.00  0.00     0.027 C 
BRANCH  13  14
ATOM     14  C   UNL     1      40.681  40.588  16.308  1.00  0.00     0.004 C 
BRANCH  14  15
ATOM     15  C   UNL     1      42.135  40.342  15.879  1.00  0.00     0.000 C 
BRANCH  15  16
ATOM     16  C   UNL     1      42.198  39.426  14.648  1.00  0.00    -0.000 C 
BRANCH  16  17
ATOM     17  C   UNL     1      40.810  39.149  14.047  1.00  0.00    -0.003 C 
ATOM     18  C   UNL     1      40.725  37.784  13.362  1.00  0.00     0.004 C 
ENDBRANCH  16  17
ENDBRANCH  15  16
ENDBRANCH  14  15
ENDBRANCH  13  14
ENDBRANCH  12  13
ENDBRANCH  10  11
ENDBRANCH   1  10
TORSDOF 13
ENDMDL
