MODEL 1
REMARK VINA RESULT:    -4.324      0.000      0.000
REMARK INTER + INTRA:          -6.527
REMARK INTER:                  -6.346
REMARK INTRA:                  -0.182
REMARK UNBOUND:                -0.182
REMARK SMILES C=C1C=C[C@H](C(C)C)CCC(C)=CCC1
REMARK SMILES IDX 3 1 4 2 5 3 9 4 10 5 11 6 12 7 13 8 6 10 7 11 8 12 2 13 1 14
REMARK SMILES IDX 15 15 14 16
REMARK H PARENT
REMARK Flexibility Score: 70.00
ROOT
ATOM      1  C   UNL     1      -1.349   0.521  11.698  1.00  0.00    -0.001 C 
ATOM      2  C   UNL     1      -1.126   1.741  11.185  1.00  0.00    -0.023 C 
ENDROOT
BRANCH   2   3
ATOM      3  C   UNL     1      -1.267   3.052  11.933  1.00  0.00     0.014 C 
BRANCH   3   4
ATOM      4  C   UNL     1       0.129   3.610  12.296  1.00  0.00     0.012 C 
BRANCH   4   5
ATOM      5  C   UNL     1       0.450   3.536  13.800  1.00  0.00     0.031 C 
BRANCH   5   6
ATOM      6  C   UNL     1      -0.702   4.017  14.666  1.00  0.00    -0.077 C 
ATOM      7  C   UNL     1      -0.911   5.503  14.801  1.00  0.00     0.039 C 
ATOM      8  C   UNL     1      -1.568   3.196  15.309  1.00  0.00    -0.028 CG0
ATOM      9  G   UNL     1      -1.598   1.687  15.240  1.00  0.00     0.000 G0
ENDBRANCH   5   6
ENDBRANCH   4   5
ENDBRANCH   3   4
BRANCH   3  10
ATOM     10  C   UNL     1      -2.116   4.087  11.135  1.00  0.00    -0.010 C 
ATOM     11  C   UNL     1      -1.221   5.147  10.473  1.00  0.00     0.008 C 
ATOM     12  C   UNL     1      -3.210   4.772  11.972  1.00  0.00     0.008 C 
ENDBRANCH   3  10
ENDBRANCH   2   3
BRANCH   1  13
ATOM     13  C   UNL     1      -1.696   0.222  13.107  1.00  0.00    -0.055 C 
ATOM     14  C   UNL     1      -1.327  -0.965  13.598  1.00  0.00     0.012 C 
BRANCH  13  15
ATOM     15  C   UNL     1      -2.415   1.198  14.025  1.00  0.00     0.039 C 
BRANCH  15  16
ATOM     16  C   UNL     1      -1.591   1.688  15.239  1.00  0.00     0.032 CG0
ATOM     17  G   UNL     1      -1.572   3.199  15.309  1.00  0.00     0.000 G0
ENDBRANCH  15  16
ENDBRANCH  13  15
ENDBRANCH   1  13
TORSDOF 1
ENDMDL
MODEL 2
REMARK VINA RESULT:    -4.321      1.931      4.488
REMARK INTER + INTRA:          -6.523
REMARK INTER:                  -5.927
REMARK INTRA:                  -0.597
REMARK UNBOUND:                -0.182
REMARK SMILES C=C1C=C[C@H](C(C)C)CCC(C)=CCC1
REMARK SMILES IDX 3 1 4 2 5 3 9 4 10 5 11 6 12 7 13 8 6 10 7 11 8 12 2 13 1 14
REMARK SMILES IDX 15 15 14 16
REMARK H PARENT
REMARK Flexibility Score: 70.00
ROOT
ATOM      1  C   UNL     1       0.505   3.996  13.938  1.00  0.00    -0.001 C 
ATOM      2  C   UNL     1       0.302   2.945  13.129  1.00  0.00    -0.023 C 
ENDROOT
BRANCH   2   3
ATOM      3  C   UNL     1      -1.042   2.313  12.825  1.00  0.00     0.014 C 
BRANCH   3   4
ATOM      4  C   UNL     1      -1.341   2.401  11.310  1.00  0.00     0.012 C 
BRANCH   4   5
ATOM      5  C   UNL     1      -1.090   3.798  10.714  1.00  0.00     0.031 C 
BRANCH   5   6
ATOM      6  C   UNL     1      -2.229   4.765  10.993  1.00  0.00    -0.077 C 
ATOM      7  C   UNL     1      -3.575   4.464  10.386  1.00  0.00     0.039 C 
ATOM      8  C   UNL     1      -2.119   5.869  11.771  1.00  0.00    -0.028 CG0
ATOM      9  G   UNL     1      -0.895   6.309  12.543  1.00  0.00     0.000 G0
ENDBRANCH   5   6
ENDBRANCH   4   5
ENDBRANCH   3   4
BRANCH   3  10
ATOM     10  C   UNL     1      -1.125   0.848  13.348  1.00  0.00    -0.010 C 
ATOM     11  C   UNL     1      -1.327  -0.144  12.190  1.00  0.00     0.008 C 
ATOM     12  C   UNL     1      -2.206   0.630  14.421  1.00  0.00     0.008 C 
ENDBRANCH   3  10
ENDBRANCH   2   3
BRANCH   1  13
ATOM     13  C   UNL     1      -0.549   4.784  14.620  1.00  0.00    -0.055 C 
ATOM     14  C   UNL     1      -1.013   4.321  15.784  1.00  0.00     0.012 C 
BRANCH  13  15
ATOM     15  C   UNL     1      -1.102   6.095  14.084  1.00  0.00     0.039 C 
BRANCH  15  16
ATOM     16  C   UNL     1      -0.894   6.326  12.568  1.00  0.00     0.032 CG0
ATOM     17  G   UNL     1      -2.105   5.882  11.780  1.00  0.00     0.000 G0
ENDBRANCH  15  16
ENDBRANCH  13  15
ENDBRANCH   1  13
TORSDOF 1
ENDMDL
MODEL 3
REMARK VINA RESULT:    -4.108      1.823      3.767
REMARK INTER + INTRA:          -6.210
REMARK INTER:                  -5.754
REMARK INTRA:                  -0.456
REMARK UNBOUND:                -0.182
REMARK SMILES C=C1C=C[C@H](C(C)C)CCC(C)=CCC1
REMARK SMILES IDX 3 1 4 2 5 3 9 4 10 5 11 6 12 7 13 8 6 10 7 11 8 12 2 13 1 14
REMARK SMILES IDX 15 15 14 16
REMARK H PARENT
REMARK Flexibility Score: 70.00
ROOT
ATOM      1  C   UNL     1      -1.169   2.797  15.544  1.00  0.00    -0.001 C 
ATOM      2  C   UNL     1      -0.916   4.107  15.398  1.00  0.00    -0.023 C 
ENDROOT
BRANCH   2   3
ATOM      3  C   UNL     1      -0.657   4.815  14.083  1.00  0.00     0.014 C 
BRANCH   3   4
ATOM      4  C   UNL     1      -1.990   5.300  13.468  1.00  0.00     0.012 C 
BRANCH   4   5
ATOM      5  C   UNL     1      -2.453   4.462  12.262  1.00  0.00     0.031 C 
BRANCH   5   6
ATOM      6  C   UNL     1      -1.328   4.185  11.278  1.00  0.00    -0.077 C 
ATOM      7  C   UNL     1      -0.809   5.337  10.457  1.00  0.00     0.039 C 
ATOM      8  C   UNL     1      -0.746   2.973  11.106  1.00  0.00    -0.028 CG0
ATOM      9  G   UNL     1      -1.047   1.711  11.882  1.00  0.00     0.000 G0
ENDBRANCH   5   6
ENDBRANCH   4   5
ENDBRANCH   3   4
BRANCH   3  10
ATOM     10  C   UNL     1       0.366   5.979  14.243  1.00  0.00    -0.010 C 
ATOM     11  C   UNL     1      -0.182   7.285  13.646  1.00  0.00     0.008 C 
ATOM     12  C   UNL     1       1.754   5.673  13.654  1.00  0.00     0.008 C 
ENDBRANCH   3  10
ENDBRANCH   2   3
BRANCH   1  13
ATOM     13  C   UNL     1      -1.321   1.814  14.445  1.00  0.00    -0.055 C 
ATOM     14  C   UNL     1      -2.373   0.991  14.490  1.00  0.00     0.012 C 
BRANCH  13  15
ATOM     15  C   UNL     1      -0.368   1.715  13.264  1.00  0.00     0.039 C 
BRANCH  15  16
ATOM     16  C   UNL     1      -1.045   1.702  11.872  1.00  0.00     0.032 CG0
ATOM     17  G   UNL     1      -0.735   2.968  11.106  1.00  0.00     0.000 G0
ENDBRANCH  15  16
ENDBRANCH  13  15
ENDBRANCH   1  13
TORSDOF 1
ENDMDL
MODEL 4
REMARK VINA RESULT:    -4.028      1.361      3.794
REMARK INTER + INTRA:          -6.093
REMARK INTER:                  -5.482
REMARK INTRA:                  -0.611
REMARK UNBOUND:                -0.182
REMARK SMILES C=C1C=C[C@H](C(C)C)CCC(C)=CCC1
REMARK SMILES IDX 3 1 4 2 5 3 9 4 10 5 11 6 12 7 13 8 6 10 7 11 8 12 2 13 1 14
REMARK SMILES IDX 15 15 14 16
REMARK H PARENT
REMARK Flexibility Score: 70.00
ROOT
ATOM      1  C   UNL     1      -2.149   5.842  13.667  1.00  0.00    -0.001 C 
ATOM      2  C   UNL     1      -2.268   5.743  12.334  1.00  0.00    -0.023 C 
ENDROOT
BRANCH   2   3
ATOM      3  C   UNL     1      -1.240   5.139  11.399  1.00  0.00     0.014 C 
BRANCH   3   4
ATOM      4  C   UNL     1      -1.576   3.654  11.126  1.00  0.00     0.012 C 
BRANCH   4   5
ATOM      5  C   UNL     1      -0.416   2.693  11.440  1.00  0.00     0.031 C 
BRANCH   5   6
ATOM      6  C   UNL     1      -0.793   1.639  12.468  1.00  0.00    -0.077 C 
ATOM      7  C   UNL     1      -1.377   0.342  11.968  1.00  0.00     0.039 C 
ATOM      8  C   UNL     1      -0.618   1.780  13.804  1.00  0.00    -0.028 CG0
ATOM      9  G   UNL     1       0.026   2.951  14.509  1.00  0.00     0.000 G0
ENDBRANCH   5   6
ENDBRANCH   4   5
ENDBRANCH   3   4
BRANCH   3  10
ATOM     10  C   UNL     1      -1.106   5.955  10.079  1.00  0.00    -0.010 C 
ATOM     11  C   UNL     1       0.117   6.886  10.124  1.00  0.00     0.008 C 
ATOM     12  C   UNL     1      -2.365   6.760   9.713  1.00  0.00     0.008 C 
ENDBRANCH   3  10
ENDBRANCH   2   3
BRANCH   1  13
ATOM     13  C   UNL     1      -1.031   5.309  14.481  1.00  0.00    -0.055 C 
ATOM     14  C   UNL     1       0.015   6.112  14.699  1.00  0.00     0.012 C 
BRANCH  13  15
ATOM     15  C   UNL     1      -1.026   3.921  15.101  1.00  0.00     0.039 C 
BRANCH  15  16
ATOM     16  C   UNL     1       0.033   2.949  14.529  1.00  0.00     0.032 CG0
ATOM     17  G   UNL     1      -0.623   1.793  13.808  1.00  0.00     0.000 G0
ENDBRANCH  15  16
ENDBRANCH  13  15
ENDBRANCH   1  13
TORSDOF 1
ENDMDL
MODEL 5
REMARK VINA RESULT:    -4.025      2.154      4.326
REMARK INTER + INTRA:          -6.089
REMARK INTER:                  -5.432
REMARK INTRA:                  -0.657
REMARK UNBOUND:                -0.182
REMARK SMILES C=C1C=C[C@H](C(C)C)CCC(C)=CCC1
REMARK SMILES IDX 3 1 4 2 5 3 9 4 10 5 11 6 12 7 13 8 6 10 7 11 8 12 2 13 1 14
REMARK SMILES IDX 15 15 14 16
REMARK H PARENT
REMARK Flexibility Score: 70.00
ROOT
ATOM      1  C   UNL     1      -2.873   4.442  12.740  1.00  0.00    -0.001 C 
ATOM      2  C   UNL     1      -2.442   3.694  13.767  1.00  0.00    -0.023 C 
ENDROOT
BRANCH   2   3
ATOM      3  C   UNL     1      -1.109   2.976  13.839  1.00  0.00     0.014 C 
BRANCH   3   4
ATOM      4  C   UNL     1      -0.244   3.572  14.974  1.00  0.00     0.012 C 
BRANCH   4   5
ATOM      5  C   UNL     1      -0.455   5.082  15.181  1.00  0.00     0.031 C 
BRANCH   5   6
ATOM      6  C   UNL     1       0.570   5.922  14.436  1.00  0.00    -0.077 C 
ATOM      7  C   UNL     1       2.004   5.857  14.896  1.00  0.00     0.039 C 
ATOM      8  C   UNL     1       0.283   6.710  13.371  1.00  0.00    -0.028 CG0
ATOM      9  G   UNL     1      -1.061   6.854  12.694  1.00  0.00     0.000 G0
ENDBRANCH   5   6
ENDBRANCH   4   5
ENDBRANCH   3   4
BRANCH   3  10
ATOM     10  C   UNL     1      -1.287   1.436  13.992  1.00  0.00    -0.010 C 
ATOM     11  C   UNL     1      -1.004   0.710  12.666  1.00  0.00     0.008 C 
ATOM     12  C   UNL     1      -2.664   1.020  14.535  1.00  0.00     0.008 C 
ENDBRANCH   3  10
ENDBRANCH   2   3
BRANCH   1  13
ATOM     13  C   UNL     1      -2.097   4.772  11.521  1.00  0.00    -0.055 C 
ATOM     14  C   UNL     1      -2.272   3.997  10.446  1.00  0.00     0.012 C 
BRANCH  13  15
ATOM     15  C   UNL     1      -1.145   5.953  11.421  1.00  0.00     0.039 C 
BRANCH  15  16
ATOM     16  C   UNL     1      -1.065   6.843  12.684  1.00  0.00     0.032 CG0
ATOM     17  G   UNL     1       0.283   6.714  13.355  1.00  0.00     0.000 G0
ENDBRANCH  15  16
ENDBRANCH  13  15
ENDBRANCH   1  13
TORSDOF 1
ENDMDL
MODEL 6
REMARK VINA RESULT:    -3.703      1.753      2.674
REMARK INTER + INTRA:          -5.616
REMARK INTER:                  -5.040
REMARK INTRA:                  -0.577
REMARK UNBOUND:                -0.182
REMARK SMILES C=C1C=C[C@H](C(C)C)CCC(C)=CCC1
REMARK SMILES IDX 3 1 4 2 5 3 9 4 10 5 11 6 12 7 13 8 6 10 7 11 8 12 2 13 1 14
REMARK SMILES IDX 15 15 14 16
REMARK H PARENT
REMARK Flexibility Score: 70.00
ROOT
ATOM      1  C   UNL     1      -0.403   2.580  11.605  1.00  0.00    -0.001 C 
ATOM      2  C   UNL     1      -0.933   3.605  10.918  1.00  0.00    -0.023 C 
ENDROOT
BRANCH   2   3
ATOM      3  C   UNL     1      -1.785   4.713  11.503  1.00  0.00     0.014 C 
BRANCH   3   4
ATOM      4  C   UNL     1      -0.946   6.003  11.661  1.00  0.00     0.012 C 
BRANCH   4   5
ATOM      5  C   UNL     1      -1.068   6.650  13.052  1.00  0.00     0.031 C 
BRANCH   5   6
ATOM      6  C   UNL     1       0.229   6.588  13.841  1.00  0.00    -0.077 C 
ATOM      7  C   UNL     1       1.134   7.793  13.806  1.00  0.00     0.039 C 
ATOM      8  C   UNL     1       0.616   5.529  14.592  1.00  0.00    -0.028 CG0
ATOM      9  G   UNL     1      -0.174   4.263  14.838  1.00  0.00     0.000 G0
ENDBRANCH   5   6
ENDBRANCH   4   5
ENDBRANCH   3   4
BRANCH   3  10
ATOM     10  C   UNL     1      -3.074   4.959  10.663  1.00  0.00    -0.010 C 
ATOM     11  C   UNL     1      -2.937   6.219   9.793  1.00  0.00     0.008 C 
ATOM     12  C   UNL     1      -4.359   5.039  11.505  1.00  0.00     0.008 C 
ENDBRANCH   3  10
ENDBRANCH   2   3
BRANCH   1  13
ATOM     13  C   UNL     1      -0.484   2.385  13.072  1.00  0.00    -0.055 C 
ATOM     14  C   UNL     1      -1.412   1.542  13.535  1.00  0.00     0.012 C 
BRANCH  13  15
ATOM     15  C   UNL     1       0.446   3.063  14.066  1.00  0.00     0.039 C 
BRANCH  15  16
ATOM     16  C   UNL     1      -0.172   4.253  14.838  1.00  0.00     0.032 CG0
ATOM     17  G   UNL     1       0.611   5.524  14.594  1.00  0.00     0.000 G0
ENDBRANCH  15  16
ENDBRANCH  13  15
ENDBRANCH   1  13
TORSDOF 1
ENDMDL
MODEL 7
REMARK VINA RESULT:    -3.430     11.828     13.274
REMARK INTER + INTRA:          -5.216
REMARK INTER:                  -4.583
REMARK INTRA:                  -0.633
REMARK UNBOUND:                -0.182
REMARK SMILES C=C1C=C[C@H](C(C)C)CCC(C)=CCC1
REMARK SMILES IDX 3 1 4 2 5 3 9 4 10 5 11 6 12 7 13 8 6 10 7 11 8 12 2 13 1 14
REMARK SMILES IDX 15 15 14 16
REMARK H PARENT
REMARK Flexibility Score: 70.00
ROOT
ATOM      1  C   UNL     1       2.766  -9.017  11.614  1.00  0.00    -0.001 C 
ATOM      2  C   UNL     1       1.582  -8.874  10.998  1.00  0.00    -0.023 C 
ENDROOT
BRANCH   2   3
ATOM      3  C   UNL     1       0.471  -9.904  10.970  1.00  0.00     0.014 C 
BRANCH   3   4
ATOM      4  C   UNL     1      -0.771  -9.369  11.721  1.00  0.00     0.012 C 
BRANCH   4   5
ATOM      5  C   UNL     1      -1.127 -10.183  12.978  1.00  0.00     0.031 C 
BRANCH   5   6
ATOM      6  C   UNL     1      -0.599  -9.548  14.254  1.00  0.00    -0.077 C 
ATOM      7  C   UNL     1      -1.468  -8.531  14.949  1.00  0.00     0.039 C 
ATOM      8  C   UNL     1       0.594  -9.852  14.820  1.00  0.00    -0.028 CG0
ATOM      9  G   UNL     1       1.576 -10.898  14.344  1.00  0.00     0.000 G0
ENDBRANCH   5   6
ENDBRANCH   4   5
ENDBRANCH   3   4
BRANCH   3  10
ATOM     10  C   UNL     1       0.125 -10.344   9.516  1.00  0.00    -0.010 C 
ATOM     11  C   UNL     1      -1.258  -9.821   9.093  1.00  0.00     0.008 C 
ATOM     12  C   UNL     1       0.204 -11.864   9.290  1.00  0.00     0.008 C 
ENDBRANCH   3  10
ENDBRANCH   2   3
BRANCH   1  13
ATOM     13  C   UNL     1       3.177 -10.173  12.446  1.00  0.00    -0.055 C 
ATOM     14  C   UNL     1       3.824 -11.173  11.841  1.00  0.00     0.012 C 
BRANCH  13  15
ATOM     15  C   UNL     1       2.931 -10.264  13.944  1.00  0.00     0.039 C 
BRANCH  15  16
ATOM     16  C   UNL     1       1.585 -10.911  14.351  1.00  0.00     0.032 CG0
ATOM     17  G   UNL     1       0.593  -9.863  14.801  1.00  0.00     0.000 G0
ENDBRANCH  15  16
ENDBRANCH  13  15
ENDBRANCH   1  13
TORSDOF 1
ENDMDL
MODEL 8
REMARK VINA RESULT:    -3.409      2.681      5.424
REMARK INTER + INTRA:          -5.185
REMARK INTER:                  -4.512
REMARK INTRA:                  -0.674
REMARK UNBOUND:                -0.182
REMARK SMILES C=C1C=C[C@H](C(C)C)CCC(C)=CCC1
REMARK SMILES IDX 3 1 4 2 5 3 9 4 10 5 11 6 12 7 13 8 6 10 7 11 8 12 2 13 1 14
REMARK SMILES IDX 15 15 14 16
REMARK H PARENT
REMARK Flexibility Score: 70.00
ROOT
ATOM      1  C   UNL     1       1.253   5.064  13.363  1.00  0.00    -0.001 C 
ATOM      2  C   UNL     1       0.411   4.081  13.010  1.00  0.00    -0.023 C 
ENDROOT
BRANCH   2   3
ATOM      3  C   UNL     1      -1.099   4.127  13.128  1.00  0.00     0.014 C 
BRANCH   3   4
ATOM      4  C   UNL     1      -1.749   3.866  11.750  1.00  0.00     0.012 C 
BRANCH   4   5
ATOM      5  C   UNL     1      -1.106   4.668  10.604  1.00  0.00     0.031 C 
BRANCH   5   6
ATOM      6  C   UNL     1      -1.638   6.089  10.517  1.00  0.00    -0.077 C 
ATOM      7  C   UNL     1      -3.057   6.284  10.046  1.00  0.00     0.039 C 
ATOM      8  C   UNL     1      -0.928   7.192  10.855  1.00  0.00    -0.028 CG0
ATOM      9  G   UNL     1       0.470   7.222  11.430  1.00  0.00     0.000 G0
ENDBRANCH   5   6
ENDBRANCH   4   5
ENDBRANCH   3   4
BRANCH   3  10
ATOM     10  C   UNL     1      -1.627   3.143  14.214  1.00  0.00    -0.010 C 
ATOM     11  C   UNL     1      -1.079   3.505  15.605  1.00  0.00     0.008 C 
ATOM     12  C   UNL     1      -1.340   1.663  13.906  1.00  0.00     0.008 C 
ENDBRANCH   3  10
ENDBRANCH   2   3
BRANCH   1  13
ATOM     13  C   UNL     1       0.863   6.405  13.858  1.00  0.00    -0.055 C 
ATOM     14  C   UNL     1       0.942   6.629  15.173  1.00  0.00     0.012 C 
BRANCH  13  15
ATOM     15  C   UNL     1       0.411   7.540  12.952  1.00  0.00     0.039 C 
BRANCH  15  16
ATOM     16  C   UNL     1       0.469   7.235  11.436  1.00  0.00     0.032 CG0
ATOM     17  G   UNL     1      -0.918   7.194  10.837  1.00  0.00     0.000 G0
ENDBRANCH  15  16
ENDBRANCH  13  15
ENDBRANCH   1  13
TORSDOF 1
ENDMDL
MODEL 9
REMARK VINA RESULT:    -3.400      2.549      3.726
REMARK INTER + INTRA:          -5.171
REMARK INTER:                  -4.544
REMARK INTRA:                  -0.627
REMARK UNBOUND:                -0.182
REMARK SMILES C=C1C=C[C@H](C(C)C)CCC(C)=CCC1
REMARK SMILES IDX 3 1 4 2 5 3 9 4 10 5 11 6 12 7 13 8 6 10 7 11 8 12 2 13 1 14
REMARK SMILES IDX 15 15 14 16
REMARK H PARENT
REMARK Flexibility Score: 70.00
ROOT
ATOM      1  C   UNL     1      -2.258   4.363  10.740  1.00  0.00    -0.001 C 
ATOM      2  C   UNL     1      -1.159   5.048  10.386  1.00  0.00    -0.023 C 
ENDROOT
BRANCH   2   3
ATOM      3  C   UNL     1      -0.853   6.483  10.766  1.00  0.00     0.014 C 
BRANCH   3   4
ATOM      4  C   UNL     1       0.336   6.530  11.754  1.00  0.00     0.012 C 
BRANCH   4   5
ATOM      5  C   UNL     1       0.507   5.237  12.573  1.00  0.00     0.031 C 
BRANCH   5   6
ATOM      6  C   UNL     1       0.064   5.399  14.018  1.00  0.00    -0.077 C 
ATOM      7  C   UNL     1       0.930   6.225  14.933  1.00  0.00     0.039 C 
ATOM      8  C   UNL     1      -1.071   4.866  14.532  1.00  0.00    -0.028 CG0
ATOM      9  G   UNL     1      -2.122   4.084  13.776  1.00  0.00     0.000 G0
ENDBRANCH   5   6
ENDBRANCH   4   5
ENDBRANCH   3   4
BRANCH   3  10
ATOM     10  C   UNL     1      -0.600   7.373   9.513  1.00  0.00    -0.010 C 
ATOM     11  C   UNL     1      -1.887   7.550   8.689  1.00  0.00     0.008 C 
ATOM     12  C   UNL     1       0.537   6.868   8.609  1.00  0.00     0.008 C 
ENDBRANCH   3  10
ENDBRANCH   2   3
BRANCH   1  13
ATOM     13  C   UNL     1      -3.336   4.852  11.631  1.00  0.00    -0.055 C 
ATOM     14  C   UNL     1      -4.515   5.145  11.074  1.00  0.00     0.012 C 
BRANCH  13  15
ATOM     15  C   UNL     1      -3.181   5.007  13.136  1.00  0.00     0.039 C 
BRANCH  15  16
ATOM     16  C   UNL     1      -2.132   4.076  13.789  1.00  0.00     0.032 CG0
ATOM     17  G   UNL     1      -1.077   4.874  14.519  1.00  0.00     0.000 G0
ENDBRANCH  15  16
ENDBRANCH  13  15
ENDBRANCH   1  13
TORSDOF 1
ENDMDL
