MODEL 1
REMARK VINA RESULT:    -5.503      0.000      0.000
REMARK INTER + INTRA:          -9.238
REMARK INTER:                  -8.399
REMARK INTRA:                  -0.839
REMARK UNBOUND:                -0.839
REMARK SMILES CC(=O)CCC=C(C)CCC=C(C)CCC=C(C)C
REMARK SMILES IDX 10 1 11 2 12 3 13 4 14 5 15 6 16 7 18 8 17 9 19 10 9 11 7 12
REMARK SMILES IDX 6 13 8 14 5 15 4 16 2 17 3 18 1 19
REMARK H PARENT
REMARK Flexibility Score: inf
ROOT
ATOM      1  C   UNL     1      80.796  -8.619  20.080  1.00  0.00     0.032 C 
ENDROOT
BRANCH   1   2
ATOM      2  C   UNL     1      80.350  -8.857  18.660  1.00  0.00    -0.028 C 
ATOM      3  C   UNL     1      79.104  -9.246  18.306  1.00  0.00    -0.077 C 
ATOM      4  C   UNL     1      78.001  -9.415  19.325  1.00  0.00     0.039 C 
BRANCH   3   5
ATOM      5  C   UNL     1      78.802  -9.504  16.846  1.00  0.00     0.034 C 
BRANCH   5   6
ATOM      6  C   UNL     1      79.710  -8.659  15.947  1.00  0.00     0.032 C 
BRANCH   6   7
ATOM      7  C   UNL     1      78.897  -7.676  15.141  1.00  0.00    -0.028 C 
ATOM      8  C   UNL     1      80.888  -6.806  13.895  1.00  0.00     0.039 C 
ATOM      9  C   UNL     1      79.409  -6.854  14.198  1.00  0.00    -0.080 C 
ATOM     10  C   UNL     1      78.467  -5.952  13.444  1.00  0.00     0.039 C 
ENDBRANCH   6   7
ENDBRANCH   5   6
ENDBRANCH   3   5
ENDBRANCH   1   2
BRANCH   1  11
ATOM     11  C   UNL     1      81.603  -9.815  20.600  1.00  0.00     0.034 C 
BRANCH  11  12
ATOM     12  C   UNL     1      82.973  -9.383  21.089  1.00  0.00    -0.077 C 
ATOM     13  C   UNL     1      83.217  -8.982  22.360  1.00  0.00    -0.028 C 
ATOM     14  C   UNL     1      84.125  -9.394  20.118  1.00  0.00     0.039 C 
BRANCH  13  15
ATOM     15  C   UNL     1      82.203  -8.924  23.478  1.00  0.00     0.035 C 
BRANCH  15  16
ATOM     16  C   UNL     1      82.848  -9.357  24.798  1.00  0.00     0.079 C 
BRANCH  16  17
ATOM     17  C   UNL     1      83.316  -8.160  25.582  1.00  0.00     0.130 C 
ATOM     18  O   UNL     1      83.015  -7.039  25.204  1.00  0.00    -0.300 OA
ATOM     19  C   UNL     1      84.137  -8.313  26.829  1.00  0.00     0.087 C 
ENDBRANCH  16  17
ENDBRANCH  15  16
ENDBRANCH  13  15
ENDBRANCH  11  12
ENDBRANCH   1  11
TORSDOF 9
ENDMDL
MODEL 2
REMARK VINA RESULT:    -5.144      3.029      9.469
REMARK INTER + INTRA:          -8.690
REMARK INTER:                  -7.954
REMARK INTRA:                  -0.736
REMARK UNBOUND:                -0.839
REMARK SMILES CC(=O)CCC=C(C)CCC=C(C)CCC=C(C)C
REMARK SMILES IDX 10 1 11 2 12 3 13 4 14 5 15 6 16 7 18 8 17 9 19 10 9 11 7 12
REMARK SMILES IDX 6 13 8 14 5 15 4 16 2 17 3 18 1 19
REMARK H PARENT
REMARK Flexibility Score: inf
ROOT
ATOM      1  C   UNL     1      80.494  -9.822  18.881  1.00  0.00     0.032 C 
ENDROOT
BRANCH   1   2
ATOM      2  C   UNL     1      80.545  -9.521  20.357  1.00  0.00    -0.028 C 
ATOM      3  C   UNL     1      81.682  -9.482  21.090  1.00  0.00    -0.077 C 
ATOM      4  C   UNL     1      83.042  -9.673  20.462  1.00  0.00     0.039 C 
BRANCH   3   5
ATOM      5  C   UNL     1      81.588  -9.223  22.577  1.00  0.00     0.034 C 
BRANCH   5   6
ATOM      6  C   UNL     1      82.880  -8.586  23.100  1.00  0.00     0.032 C 
BRANCH   6   7
ATOM      7  C   UNL     1      83.480  -9.424  24.202  1.00  0.00    -0.028 C 
ATOM      8  C   UNL     1      83.456  -7.547  25.860  1.00  0.00     0.039 C 
ATOM      9  C   UNL     1      83.722  -8.978  25.454  1.00  0.00    -0.080 C 
ATOM     10  C   UNL     1      84.289  -9.942  26.463  1.00  0.00     0.039 C 
ENDBRANCH   6   7
ENDBRANCH   5   6
ENDBRANCH   3   5
ENDBRANCH   1   2
BRANCH   1  11
ATOM     11  C   UNL     1      80.007  -8.598  18.097  1.00  0.00     0.034 C 
BRANCH  11  12
ATOM     12  C   UNL     1      79.128  -9.005  16.930  1.00  0.00    -0.077 C 
ATOM     13  C   UNL     1      79.189  -8.418  15.711  1.00  0.00    -0.028 C 
ATOM     14  C   UNL     1      78.129 -10.116  17.129  1.00  0.00     0.039 C 
BRANCH  13  15
ATOM     15  C   UNL     1      80.135  -7.309  15.311  1.00  0.00     0.035 C 
BRANCH  15  16
ATOM     16  C   UNL     1      80.035  -7.047  13.805  1.00  0.00     0.079 C 
BRANCH  16  17
ATOM     17  C   UNL     1      78.624  -6.690  13.418  1.00  0.00     0.130 C 
ATOM     18  O   UNL     1      78.144  -5.636  13.804  1.00  0.00    -0.300 OA
ATOM     19  C   UNL     1      77.796  -7.597  12.556  1.00  0.00     0.087 C 
ENDBRANCH  16  17
ENDBRANCH  15  16
ENDBRANCH  13  15
ENDBRANCH  11  12
ENDBRANCH   1  11
TORSDOF 9
ENDMDL
MODEL 3
REMARK VINA RESULT:    -5.103      2.746      9.448
REMARK INTER + INTRA:          -8.628
REMARK INTER:                  -7.831
REMARK INTRA:                  -0.797
REMARK UNBOUND:                -0.839
REMARK SMILES CC(=O)CCC=C(C)CCC=C(C)CCC=C(C)C
REMARK SMILES IDX 10 1 11 2 12 3 13 4 14 5 15 6 16 7 18 8 17 9 19 10 9 11 7 12
REMARK SMILES IDX 6 13 8 14 5 15 4 16 2 17 3 18 1 19
REMARK H PARENT
REMARK Flexibility Score: inf
ROOT
ATOM      1  C   UNL     1      80.481  -9.666  20.636  1.00  0.00     0.032 C 
ENDROOT
BRANCH   1   2
ATOM      2  C   UNL     1      81.734  -9.270  21.374  1.00  0.00    -0.028 C 
ATOM      3  C   UNL     1      81.890  -9.356  22.715  1.00  0.00    -0.077 C 
ATOM      4  C   UNL     1      80.818  -9.936  23.607  1.00  0.00     0.039 C 
BRANCH   3   5
ATOM      5  C   UNL     1      83.182  -8.871  23.336  1.00  0.00     0.034 C 
BRANCH   5   6
ATOM      6  C   UNL     1      83.538  -9.708  24.569  1.00  0.00     0.032 C 
BRANCH   6   7
ATOM      7  C   UNL     1      84.217  -8.857  25.614  1.00  0.00    -0.028 C 
ATOM      8  C   UNL     1      82.074  -8.300  26.785  1.00  0.00     0.039 C 
ATOM      9  C   UNL     1      83.576  -8.238  26.629  1.00  0.00    -0.080 C 
ATOM     10  C   UNL     1      84.393  -7.452  27.622  1.00  0.00     0.039 C 
ENDBRANCH   6   7
ENDBRANCH   5   6
ENDBRANCH   3   5
ENDBRANCH   1   2
BRANCH   1  11
ATOM     11  C   UNL     1      80.410  -8.961  19.276  1.00  0.00     0.034 C 
BRANCH  11  12
ATOM     12  C   UNL     1      79.076  -9.210  18.596  1.00  0.00    -0.077 C 
ATOM     13  C   UNL     1      78.841  -8.927  17.293  1.00  0.00    -0.028 C 
ATOM     14  C   UNL     1      77.949  -9.798  19.406  1.00  0.00     0.039 C 
BRANCH  13  15
ATOM     15  C   UNL     1      79.845  -8.359  16.317  1.00  0.00     0.035 C 
BRANCH  15  16
ATOM     16  C   UNL     1      79.227  -8.263  14.919  1.00  0.00     0.079 C 
BRANCH  16  17
ATOM     17  C   UNL     1      79.605  -6.966  14.255  1.00  0.00     0.130 C 
ATOM     18  O   UNL     1      80.768  -6.595  14.279  1.00  0.00    -0.300 OA
ATOM     19  C   UNL     1      78.584  -6.120  13.552  1.00  0.00     0.087 C 
ENDBRANCH  16  17
ENDBRANCH  15  16
ENDBRANCH  13  15
ENDBRANCH  11  12
ENDBRANCH   1  11
TORSDOF 9
ENDMDL
MODEL 4
REMARK VINA RESULT:    -4.816      4.040     12.041
REMARK INTER + INTRA:          -8.188
REMARK INTER:                  -7.275
REMARK INTRA:                  -0.914
REMARK UNBOUND:                -0.839
REMARK SMILES CC(=O)CCC=C(C)CCC=C(C)CCC=C(C)C
REMARK SMILES IDX 10 1 11 2 12 3 13 4 14 5 15 6 16 7 18 8 17 9 19 10 9 11 7 12
REMARK SMILES IDX 6 13 8 14 5 15 4 16 2 17 3 18 1 19
REMARK H PARENT
REMARK Flexibility Score: inf
ROOT
ATOM      1  C   UNL     1      83.882  -7.684  26.734  1.00  0.00     0.032 C 
ENDROOT
BRANCH   1   2
ATOM      2  C   UNL     1      84.324  -8.341  28.017  1.00  0.00    -0.028 C 
ATOM      3  C   UNL     1      85.123  -7.756  28.939  1.00  0.00    -0.077 C 
ATOM      4  C   UNL     1      85.600  -6.331  28.792  1.00  0.00     0.039 C 
BRANCH   3   5
ATOM      5  C   UNL     1      85.537  -8.549  30.159  1.00  0.00     0.034 C 
BRANCH   5   6
ATOM      6  C   UNL     1      86.170  -7.632  31.212  1.00  0.00     0.032 C 
BRANCH   6   7
ATOM      7  C   UNL     1      87.609  -8.015  31.456  1.00  0.00    -0.028 C 
ATOM      8  C   UNL     1      88.433  -5.656  31.283  1.00  0.00     0.039 C 
ATOM      9  C   UNL     1      88.633  -7.136  31.515  1.00  0.00    -0.080 C 
ATOM     10  C   UNL     1      90.015  -7.661  31.807  1.00  0.00     0.039 C 
ENDBRANCH   6   7
ENDBRANCH   5   6
ENDBRANCH   3   5
ENDBRANCH   1   2
BRANCH   1  11
ATOM     11  C   UNL     1      83.496  -8.740  25.692  1.00  0.00     0.034 C 
BRANCH  11  12
ATOM     12  C   UNL     1      82.042  -8.599  25.278  1.00  0.00    -0.077 C 
ATOM     13  C   UNL     1      81.553  -9.071  24.107  1.00  0.00    -0.028 C 
ATOM     14  C   UNL     1      81.090  -7.894  26.210  1.00  0.00     0.039 C 
BRANCH  13  15
ATOM     15  C   UNL     1      82.341  -9.821  23.058  1.00  0.00     0.035 C 
BRANCH  15  16
ATOM     16  C   UNL     1      82.953  -8.838  22.056  1.00  0.00     0.079 C 
BRANCH  16  17
ATOM     17  C   UNL     1      82.995  -9.439  20.676  1.00  0.00     0.130 C 
ATOM     18  O   UNL     1      84.072  -9.603  20.124  1.00  0.00    -0.300 OA
ATOM     19  C   UNL     1      81.741  -9.853  19.965  1.00  0.00     0.087 C 
ENDBRANCH  16  17
ENDBRANCH  15  16
ENDBRANCH  13  15
ENDBRANCH  11  12
ENDBRANCH   1  11
TORSDOF 9
ENDMDL
MODEL 5
REMARK VINA RESULT:    -4.692      1.972      3.969
REMARK INTER + INTRA:          -7.999
REMARK INTER:                  -7.089
REMARK INTRA:                  -0.911
REMARK UNBOUND:                -0.839
REMARK SMILES CC(=O)CCC=C(C)CCC=C(C)CCC=C(C)C
REMARK SMILES IDX 10 1 11 2 12 3 13 4 14 5 15 6 16 7 18 8 17 9 19 10 9 11 7 12
REMARK SMILES IDX 6 13 8 14 5 15 4 16 2 17 3 18 1 19
REMARK H PARENT
REMARK Flexibility Score: inf
ROOT
ATOM      1  C   UNL     1      79.189  -8.101  16.919  1.00  0.00     0.032 C 
ENDROOT
BRANCH   1   2
ATOM      2  C   UNL     1      78.753  -8.776  15.643  1.00  0.00    -0.028 C 
ATOM      3  C   UNL     1      78.214  -8.131  14.583  1.00  0.00    -0.077 C 
ATOM      4  C   UNL     1      78.061  -6.628  14.558  1.00  0.00     0.039 C 
BRANCH   3   5
ATOM      5  C   UNL     1      77.767  -8.936  13.383  1.00  0.00     0.034 C 
BRANCH   5   6
ATOM      6  C   UNL     1      78.757  -8.779  12.225  1.00  0.00     0.032 C 
BRANCH   6   7
ATOM      7  C   UNL     1      79.988  -9.620  12.456  1.00  0.00    -0.028 C 
ATOM      8  C   UNL     1      81.330  -7.701  13.345  1.00  0.00     0.039 C 
ATOM      9  C   UNL     1      81.143  -9.156  12.981  1.00  0.00    -0.080 C 
ATOM     10  C   UNL     1      82.278 -10.125  13.192  1.00  0.00     0.039 C 
ENDBRANCH   6   7
ENDBRANCH   5   6
ENDBRANCH   3   5
ENDBRANCH   1   2
BRANCH   1  11
ATOM     11  C   UNL     1      80.013  -9.063  17.783  1.00  0.00     0.034 C 
BRANCH  11  12
ATOM     12  C   UNL     1      79.279  -9.420  19.062  1.00  0.00    -0.077 C 
ATOM     13  C   UNL     1      79.909  -9.749  20.215  1.00  0.00    -0.028 C 
ATOM     14  C   UNL     1      77.772  -9.415  19.057  1.00  0.00     0.039 C 
BRANCH  13  15
ATOM     15  C   UNL     1      81.405  -9.788  20.424  1.00  0.00     0.035 C 
BRANCH  15  16
ATOM     16  C   UNL     1      81.725 -10.011  21.906  1.00  0.00     0.079 C 
BRANCH  16  17
ATOM     17  C   UNL     1      82.825  -9.088  22.358  1.00  0.00     0.130 C 
ATOM     18  O   UNL     1      83.489  -8.490  21.526  1.00  0.00    -0.300 OA
ATOM     19  C   UNL     1      83.119  -8.875  23.814  1.00  0.00     0.087 C 
ENDBRANCH  16  17
ENDBRANCH  15  16
ENDBRANCH  13  15
ENDBRANCH  11  12
ENDBRANCH   1  11
TORSDOF 9
ENDMDL
MODEL 6
REMARK VINA RESULT:    -4.675      6.461     11.836
REMARK INTER + INTRA:          -7.974
REMARK INTER:                  -6.490
REMARK INTRA:                  -1.484
REMARK UNBOUND:                -0.839
REMARK SMILES CC(=O)CCC=C(C)CCC=C(C)CCC=C(C)C
REMARK SMILES IDX 10 1 11 2 12 3 13 4 14 5 15 6 16 7 18 8 17 9 19 10 9 11 7 12
REMARK SMILES IDX 6 13 8 14 5 15 4 16 2 17 3 18 1 19
REMARK H PARENT
REMARK Flexibility Score: inf
ROOT
ATOM      1  C   UNL     1      84.131  -7.848  26.383  1.00  0.00     0.032 C 
ENDROOT
BRANCH   1   2
ATOM      2  C   UNL     1      84.364  -8.427  27.756  1.00  0.00    -0.028 C 
ATOM      3  C   UNL     1      85.024  -7.791  28.751  1.00  0.00    -0.077 C 
ATOM      4  C   UNL     1      85.539  -6.380  28.591  1.00  0.00     0.039 C 
BRANCH   3   5
ATOM      5  C   UNL     1      85.238  -8.508  30.065  1.00  0.00     0.034 C 
BRANCH   5   6
ATOM      6  C   UNL     1      85.878  -7.573  31.096  1.00  0.00     0.032 C 
BRANCH   6   7
ATOM      7  C   UNL     1      87.335  -7.911  31.293  1.00  0.00    -0.028 C 
ATOM      8  C   UNL     1      88.046  -5.511  31.379  1.00  0.00     0.039 C 
ATOM      9  C   UNL     1      88.317  -6.996  31.446  1.00  0.00    -0.080 C 
ATOM     10  C   UNL     1      89.725  -7.484  31.674  1.00  0.00     0.039 C 
ENDBRANCH   6   7
ENDBRANCH   5   6
ENDBRANCH   3   5
ENDBRANCH   1   2
BRANCH   1  11
ATOM     11  C   UNL     1      82.653  -7.488  26.194  1.00  0.00     0.034 C 
BRANCH  11  12
ATOM     12  C   UNL     1      81.991  -8.396  25.174  1.00  0.00    -0.077 C 
ATOM     13  C   UNL     1      80.825  -9.046  25.403  1.00  0.00    -0.028 C 
ATOM     14  C   UNL     1      82.661  -8.595  23.839  1.00  0.00     0.039 C 
BRANCH  13  15
ATOM     15  C   UNL     1      79.996  -8.958  26.663  1.00  0.00     0.035 C 
BRANCH  15  16
ATOM     16  C   UNL     1      80.532  -9.932  27.717  1.00  0.00     0.079 C 
BRANCH  16  17
ATOM     17  C   UNL     1      80.362  -9.368  29.102  1.00  0.00     0.130 C 
ATOM     18  O   UNL     1      79.565  -9.886  29.869  1.00  0.00    -0.300 OA
ATOM     19  C   UNL     1      81.160  -8.187  29.569  1.00  0.00     0.087 C 
ENDBRANCH  16  17
ENDBRANCH  15  16
ENDBRANCH  13  15
ENDBRANCH  11  12
ENDBRANCH   1  11
TORSDOF 9
ENDMDL
MODEL 7
REMARK VINA RESULT:    -4.604      2.035      4.016
REMARK INTER + INTRA:          -7.866
REMARK INTER:                  -6.613
REMARK INTRA:                  -1.253
REMARK UNBOUND:                -0.839
REMARK SMILES CC(=O)CCC=C(C)CCC=C(C)CCC=C(C)C
REMARK SMILES IDX 10 1 11 2 12 3 13 4 14 5 15 6 16 7 18 8 17 9 19 10 9 11 7 12
REMARK SMILES IDX 6 13 8 14 5 15 4 16 2 17 3 18 1 19
REMARK H PARENT
REMARK Flexibility Score: inf
ROOT
ATOM      1  C   UNL     1      79.319  -8.434  17.002  1.00  0.00     0.032 C 
ENDROOT
BRANCH   1   2
ATOM      2  C   UNL     1      80.000  -9.065  15.814  1.00  0.00    -0.028 C 
ATOM      3  C   UNL     1      80.560  -8.372  14.796  1.00  0.00    -0.077 C 
ATOM      4  C   UNL     1      80.614  -6.862  14.796  1.00  0.00     0.039 C 
BRANCH   3   5
ATOM      5  C   UNL     1      81.162  -9.131  13.634  1.00  0.00     0.034 C 
BRANCH   5   6
ATOM      6  C   UNL     1      80.423  -8.804  12.332  1.00  0.00     0.032 C 
BRANCH   6   7
ATOM      7  C   UNL     1      79.144  -9.597  12.231  1.00  0.00    -0.028 C 
ATOM      8  C   UNL     1      77.685  -7.567  12.384  1.00  0.00     0.039 C 
ATOM      9  C   UNL     1      77.907  -9.054  12.228  1.00  0.00    -0.080 C 
ATOM     10  C   UNL     1      76.720  -9.970  12.080  1.00  0.00     0.039 C 
ENDBRANCH   6   7
ENDBRANCH   5   6
ENDBRANCH   3   5
ENDBRANCH   1   2
BRANCH   1  11
ATOM     11  C   UNL     1      80.048  -8.803  18.299  1.00  0.00     0.034 C 
BRANCH  11  12
ATOM     12  C   UNL     1      79.095  -9.409  19.313  1.00  0.00    -0.077 C 
ATOM     13  C   UNL     1      79.506  -9.996  20.462  1.00  0.00    -0.028 C 
ATOM     14  C   UNL     1      77.615  -9.363  19.032  1.00  0.00     0.039 C 
BRANCH  13  15
ATOM     15  C   UNL     1      80.938 -10.119  20.929  1.00  0.00     0.035 C 
BRANCH  15  16
ATOM     16  C   UNL     1      81.032  -9.817  22.428  1.00  0.00     0.079 C 
BRANCH  16  17
ATOM     17  C   UNL     1      82.333  -9.133  22.753  1.00  0.00     0.130 C 
ATOM     18  O   UNL     1      82.638  -8.945  23.921  1.00  0.00    -0.300 OA
ATOM     19  C   UNL     1      83.274  -8.685  21.673  1.00  0.00     0.087 C 
ENDBRANCH  16  17
ENDBRANCH  15  16
ENDBRANCH  13  15
ENDBRANCH  11  12
ENDBRANCH   1  11
TORSDOF 9
ENDMDL
MODEL 8
REMARK VINA RESULT:    -4.539      4.911      8.514
REMARK INTER + INTRA:          -7.767
REMARK INTER:                  -5.838
REMARK INTRA:                  -1.928
REMARK UNBOUND:                -0.839
REMARK SMILES CC(=O)CCC=C(C)CCC=C(C)CCC=C(C)C
REMARK SMILES IDX 10 1 11 2 12 3 13 4 14 5 15 6 16 7 18 8 17 9 19 10 9 11 7 12
REMARK SMILES IDX 6 13 8 14 5 15 4 16 2 17 3 18 1 19
REMARK H PARENT
REMARK Flexibility Score: inf
ROOT
ATOM      1  C   UNL     1      84.676  -7.473  27.832  1.00  0.00     0.032 C 
ENDROOT
BRANCH   1   2
ATOM      2  C   UNL     1      83.494  -8.026  27.076  1.00  0.00    -0.028 C 
ATOM      3  C   UNL     1      83.496  -9.203  26.410  1.00  0.00    -0.077 C 
ATOM      4  C   UNL     1      84.693 -10.124  26.423  1.00  0.00     0.039 C 
BRANCH   3   5
ATOM      5  C   UNL     1      82.258  -9.615  25.645  1.00  0.00     0.034 C 
BRANCH   5   6
ATOM      6  C   UNL     1      81.893  -8.560  24.595  1.00  0.00     0.032 C 
BRANCH   6   7
ATOM      7  C   UNL     1      82.838  -8.626  23.421  1.00  0.00    -0.028 C 
ATOM      8  C   UNL     1      81.138  -9.669  21.905  1.00  0.00     0.039 C 
ATOM      9  C   UNL     1      82.506  -9.099  22.200  1.00  0.00    -0.080 C 
ATOM     10  C   UNL     1      83.546  -9.065  21.110  1.00  0.00     0.039 C 
ENDBRANCH   6   7
ENDBRANCH   5   6
ENDBRANCH   3   5
ENDBRANCH   1   2
BRANCH   1  11
ATOM     11  C   UNL     1      84.373  -7.405  29.333  1.00  0.00     0.034 C 
BRANCH  11  12
ATOM     12  C   UNL     1      85.024  -8.555  30.079  1.00  0.00    -0.077 C 
ATOM     13  C   UNL     1      84.383  -9.713  30.366  1.00  0.00    -0.028 C 
ATOM     14  C   UNL     1      86.454  -8.408  30.530  1.00  0.00     0.039 C 
BRANCH  13  15
ATOM     15  C   UNL     1      82.963 -10.056  29.980  1.00  0.00     0.035 C 
BRANCH  15  16
ATOM     16  C   UNL     1      82.009  -9.725  31.131  1.00  0.00     0.079 C 
BRANCH  16  17
ATOM     17  C   UNL     1      80.944  -8.760  30.681  1.00  0.00     0.130 C 
ATOM     18  O   UNL     1      80.256  -8.192  31.515  1.00  0.00    -0.300 OA
ATOM     19  C   UNL     1      80.715  -8.470  29.227  1.00  0.00     0.087 C 
ENDBRANCH  16  17
ENDBRANCH  15  16
ENDBRANCH  13  15
ENDBRANCH  11  12
ENDBRANCH   1  11
TORSDOF 9
ENDMDL
MODEL 9
REMARK VINA RESULT:    -4.400      5.974      9.713
REMARK INTER + INTRA:          -7.554
REMARK INTER:                  -6.240
REMARK INTRA:                  -1.314
REMARK UNBOUND:                -0.839
REMARK SMILES CC(=O)CCC=C(C)CCC=C(C)CCC=C(C)C
REMARK SMILES IDX 10 1 11 2 12 3 13 4 14 5 15 6 16 7 18 8 17 9 19 10 9 11 7 12
REMARK SMILES IDX 6 13 8 14 5 15 4 16 2 17 3 18 1 19
REMARK H PARENT
REMARK Flexibility Score: inf
ROOT
ATOM      1  C   UNL     1      84.521  -8.716  28.492  1.00  0.00     0.032 C 
ENDROOT
BRANCH   1   2
ATOM      2  C   UNL     1      83.453  -9.328  27.621  1.00  0.00    -0.028 C 
ATOM      3  C   UNL     1      82.127  -9.113  27.772  1.00  0.00    -0.077 C 
ATOM      4  C   UNL     1      81.587  -8.162  28.814  1.00  0.00     0.039 C 
BRANCH   3   5
ATOM      5  C   UNL     1      81.157  -9.835  26.862  1.00  0.00     0.034 C 
BRANCH   5   6
ATOM      6  C   UNL     1      80.624  -8.891  25.779  1.00  0.00     0.032 C 
BRANCH   6   7
ATOM      7  C   UNL     1      81.279  -9.179  24.451  1.00  0.00    -0.028 C 
ATOM      8  C   UNL     1      83.081  -7.473  24.787  1.00  0.00     0.039 C 
ATOM      9  C   UNL     1      82.397  -8.568  24.002  1.00  0.00    -0.080 C 
ATOM     10  C   UNL     1      82.960  -8.988  22.669  1.00  0.00     0.039 C 
ENDBRANCH   6   7
ENDBRANCH   5   6
ENDBRANCH   3   5
ENDBRANCH   1   2
BRANCH   1  11
ATOM     11  C   UNL     1      85.143  -9.777  29.408  1.00  0.00     0.034 C 
BRANCH  11  12
ATOM     12  C   UNL     1      84.965  -9.414  30.870  1.00  0.00    -0.077 C 
ATOM     13  C   UNL     1      85.886  -8.724  31.583  1.00  0.00    -0.028 C 
ATOM     14  C   UNL     1      83.703  -9.843  31.574  1.00  0.00     0.039 C 
BRANCH  13  15
ATOM     15  C   UNL     1      87.197  -8.191  31.052  1.00  0.00     0.035 C 
BRANCH  15  16
ATOM     16  C   UNL     1      87.288  -6.680  31.292  1.00  0.00     0.079 C 
BRANCH  16  17
ATOM     17  C   UNL     1      88.718  -6.259  31.506  1.00  0.00     0.130 C 
ATOM     18  O   UNL     1      89.003  -5.072  31.492  1.00  0.00    -0.300 OA
ATOM     19  C   UNL     1      89.802  -7.267  31.748  1.00  0.00     0.087 C 
ENDBRANCH  16  17
ENDBRANCH  15  16
ENDBRANCH  13  15
ENDBRANCH  11  12
ENDBRANCH   1  11
TORSDOF 9
ENDMDL
