MODEL 1
REMARK VINA RESULT:    -2.532      0.000      0.000
REMARK INTER + INTRA:          -3.440
REMARK INTER:                  -3.273
REMARK INTRA:                  -0.167
REMARK UNBOUND:                -0.167
REMARK SMILES CCCCCCC(=O)[O-]
REMARK SMILES IDX 5 1 6 2 7 3 8 4 9 5 4 6 3 7 2 8 1 9
REMARK H PARENT
REMARK Flexibility Score: inf
ROOT
ATOM      1  C   UNL     1       8.512 -29.896 -18.358  1.00  0.00     0.006 C 
ENDROOT
BRANCH   1   2
ATOM      2  C   UNL     1       9.687 -29.858 -17.377  1.00  0.00     0.053 C 
BRANCH   2   3
ATOM      3  C   UNL     1       9.345 -30.593 -16.120  1.00  0.00     0.041 C 
ATOM      4  O   UNL     1       9.564 -31.829 -16.029  1.00  0.00    -0.550 OA
ATOM      5  O   UNL     1       8.828 -29.903 -15.030  1.00  0.00    -0.550 OA
ENDBRANCH   2   3
ENDBRANCH   1   2
BRANCH   1   6
ATOM      6  C   UNL     1       7.427 -28.888 -17.959  1.00  0.00     0.000 C 
BRANCH   6   7
ATOM      7  C   UNL     1       6.536 -28.535 -19.159  1.00  0.00    -0.000 C 
BRANCH   7   8
ATOM      8  C   UNL     1       6.998 -29.214 -20.458  1.00  0.00    -0.003 C 
ATOM      9  C   UNL     1       6.536 -28.469 -21.710  1.00  0.00     0.004 C 
ENDBRANCH   7   8
ENDBRANCH   6   7
ENDBRANCH   1   6
TORSDOF 5
ENDMDL
MODEL 2
REMARK VINA RESULT:    -2.378      3.145      4.915
REMARK INTER + INTRA:          -3.241
REMARK INTER:                  -3.065
REMARK INTRA:                  -0.176
REMARK UNBOUND:                -0.167
REMARK SMILES CCCCCCC(=O)[O-]
REMARK SMILES IDX 5 1 6 2 7 3 8 4 9 5 4 6 3 7 2 8 1 9
REMARK H PARENT
REMARK Flexibility Score: inf
ROOT
ATOM      1  C   UNL     1       7.684 -29.203 -18.198  1.00  0.00     0.006 C 
ENDROOT
BRANCH   1   2
ATOM      2  C   UNL     1       6.584 -28.617 -19.089  1.00  0.00     0.053 C 
BRANCH   2   3
ATOM      3  C   UNL     1       6.855 -28.925 -20.527  1.00  0.00     0.041 C 
ATOM      4  O   UNL     1       7.876 -29.587 -20.851  1.00  0.00    -0.550 OA
ATOM      5  O   UNL     1       5.956 -28.523 -21.506  1.00  0.00    -0.550 OA
ENDBRANCH   2   3
ENDBRANCH   1   2
BRANCH   1   6
ATOM      6  C   UNL     1       7.445 -28.853 -16.724  1.00  0.00     0.000 C 
BRANCH   6   7
ATOM      7  C   UNL     1       8.468 -29.555 -15.819  1.00  0.00    -0.000 C 
BRANCH   7   8
ATOM      8  C   UNL     1       9.437 -30.450 -16.607  1.00  0.00    -0.003 C 
ATOM      9  C   UNL     1       9.388 -31.911 -16.161  1.00  0.00     0.004 C 
ENDBRANCH   7   8
ENDBRANCH   6   7
ENDBRANCH   1   6
TORSDOF 5
ENDMDL
MODEL 3
REMARK VINA RESULT:    -2.364      0.731      1.445
REMARK INTER + INTRA:          -3.223
REMARK INTER:                  -3.154
REMARK INTRA:                  -0.068
REMARK UNBOUND:                -0.167
REMARK SMILES CCCCCCC(=O)[O-]
REMARK SMILES IDX 5 1 6 2 7 3 8 4 9 5 4 6 3 7 2 8 1 9
REMARK H PARENT
REMARK Flexibility Score: inf
ROOT
ATOM      1  C   UNL     1       8.099 -29.267 -18.107  1.00  0.00     0.006 C 
ENDROOT
BRANCH   1   2
ATOM      2  C   UNL     1       9.364 -29.962 -17.594  1.00  0.00     0.053 C 
BRANCH   2   3
ATOM      3  C   UNL     1       9.162 -30.451 -16.195  1.00  0.00     0.041 C 
ATOM      4  O   UNL     1       8.559 -29.734 -15.354  1.00  0.00    -0.550 OA
ATOM      5  O   UNL     1       9.597 -31.720 -15.833  1.00  0.00    -0.550 OA
ENDBRANCH   2   3
ENDBRANCH   1   2
BRANCH   1   6
ATOM      6  C   UNL     1       7.902 -29.517 -19.607  1.00  0.00     0.000 C 
BRANCH   6   7
ATOM      7  C   UNL     1       6.885 -28.531 -20.200  1.00  0.00    -0.000 C 
BRANCH   7   8
ATOM      8  C   UNL     1       6.397 -28.953 -21.595  1.00  0.00    -0.003 C 
ATOM      9  C   UNL     1       6.268 -27.773 -22.557  1.00  0.00     0.004 C 
ENDBRANCH   7   8
ENDBRANCH   6   7
ENDBRANCH   1   6
TORSDOF 5
ENDMDL
MODEL 4
REMARK VINA RESULT:    -2.197      1.429      1.864
REMARK INTER + INTRA:          -3.007
REMARK INTER:                  -2.884
REMARK INTRA:                  -0.123
REMARK UNBOUND:                -0.167
REMARK SMILES CCCCCCC(=O)[O-]
REMARK SMILES IDX 5 1 6 2 7 3 8 4 9 5 4 6 3 7 2 8 1 9
REMARK H PARENT
REMARK Flexibility Score: inf
ROOT
ATOM      1  C   UNL     1       9.640 -30.244 -17.131  1.00  0.00     0.006 C 
ENDROOT
BRANCH   1   2
ATOM      2  C   UNL     1       9.412 -30.998 -15.818  1.00  0.00     0.053 C 
BRANCH   2   3
ATOM      3  C   UNL     1       9.254 -32.463 -16.076  1.00  0.00     0.041 C 
ATOM      4  O   UNL     1       9.517 -32.938 -17.212  1.00  0.00    -0.550 OA
ATOM      5  O   UNL     1       8.863 -33.312 -15.048  1.00  0.00    -0.550 OA
ENDBRANCH   2   3
ENDBRANCH   1   2
BRANCH   1   6
ATOM      6  C   UNL     1       8.392 -29.451 -17.537  1.00  0.00     0.000 C 
BRANCH   6   7
ATOM      7  C   UNL     1       8.167 -29.518 -19.054  1.00  0.00    -0.000 C 
BRANCH   7   8
ATOM      8  C   UNL     1       6.887 -28.789 -19.494  1.00  0.00    -0.003 C 
ATOM      9  C   UNL     1       6.703 -28.782 -21.012  1.00  0.00     0.004 C 
ENDBRANCH   7   8
ENDBRANCH   6   7
ENDBRANCH   1   6
TORSDOF 5
ENDMDL
MODEL 5
REMARK VINA RESULT:    -1.379      3.116      5.141
REMARK INTER + INTRA:          -1.949
REMARK INTER:                  -1.804
REMARK INTRA:                  -0.146
REMARK UNBOUND:                -0.167
REMARK SMILES CCCCCCC(=O)[O-]
REMARK SMILES IDX 5 1 6 2 7 3 8 4 9 5 4 6 3 7 2 8 1 9
REMARK H PARENT
REMARK Flexibility Score: inf
ROOT
ATOM      1  C   UNL     1       8.537 -29.623 -18.673  1.00  0.00     0.006 C 
ENDROOT
BRANCH   1   2
ATOM      2  C   UNL     1       7.161 -28.955 -18.754  1.00  0.00     0.053 C 
BRANCH   2   3
ATOM      3  C   UNL     1       6.743 -28.790 -20.181  1.00  0.00     0.041 C 
ATOM      4  O   UNL     1       6.224 -29.752 -20.804  1.00  0.00    -0.550 OA
ATOM      5  O   UNL     1       6.881 -27.557 -20.807  1.00  0.00    -0.550 OA
ENDBRANCH   2   3
ENDBRANCH   1   2
BRANCH   1   6
ATOM      6  C   UNL     1       9.046 -29.664 -17.227  1.00  0.00     0.000 C 
BRANCH   6   7
ATOM      7  C   UNL     1       9.590 -31.056 -16.874  1.00  0.00    -0.000 C 
BRANCH   7   8
ATOM      8  C   UNL     1       9.410 -31.401 -15.388  1.00  0.00    -0.003 C 
ATOM      9  C   UNL     1       8.969 -30.200 -14.551  1.00  0.00     0.004 C 
ENDBRANCH   7   8
ENDBRANCH   6   7
ENDBRANCH   1   6
TORSDOF 5
ENDMDL
MODEL 6
REMARK VINA RESULT:     0.168      2.855      5.130
REMARK INTER + INTRA:           0.050
REMARK INTER:                   0.156
REMARK INTRA:                  -0.106
REMARK UNBOUND:                -0.167
REMARK SMILES CCCCCCC(=O)[O-]
REMARK SMILES IDX 5 1 6 2 7 3 8 4 9 5 4 6 3 7 2 8 1 9
REMARK H PARENT
REMARK Flexibility Score: inf
ROOT
ATOM      1  C   UNL     1       9.064 -29.559 -17.696  1.00  0.00     0.006 C 
ENDROOT
BRANCH   1   2
ATOM      2  C   UNL     1       8.590 -29.617 -19.152  1.00  0.00     0.053 C 
BRANCH   2   3
ATOM      3  C   UNL     1       7.248 -28.973 -19.292  1.00  0.00     0.041 C 
ATOM      4  O   UNL     1       6.575 -28.683 -18.269  1.00  0.00    -0.550 OA
ATOM      5  O   UNL     1       6.761 -28.648 -20.552  1.00  0.00    -0.550 OA
ENDBRANCH   2   3
ENDBRANCH   1   2
BRANCH   1   6
ATOM      6  C   UNL     1       9.800 -30.845 -17.303  1.00  0.00     0.000 C 
BRANCH   6   7
ATOM      7  C   UNL     1       9.298 -31.375 -15.952  1.00  0.00    -0.000 C 
BRANCH   7   8
ATOM      8  C   UNL     1       9.070 -32.894 -15.960  1.00  0.00    -0.003 C 
ATOM      9  C   UNL     1       8.716 -33.447 -14.580  1.00  0.00     0.004 C 
ENDBRANCH   7   8
ENDBRANCH   6   7
ENDBRANCH   1   6
TORSDOF 5
ENDMDL
