MODEL 1
REMARK VINA RESULT:    -4.055      0.000      0.000
REMARK INTER + INTRA:          -4.971
REMARK INTER:                  -4.885
REMARK INTRA:                  -0.086
REMARK UNBOUND:                -0.086
REMARK SMILES OCCc1ccc(O)c(O)c1
REMARK SMILES IDX 3 1 4 2 5 3 6 4 7 5 11 6 9 7 8 8 10 10 2 12 1 13
REMARK H PARENT 8 9 10 11 1 14
REMARK Flexibility Score: inf
ROOT
ATOM      1  C   UNL     1      43.900  19.762  -4.989  1.00  0.00     0.064 C 
ENDROOT
BRANCH   1   2
ATOM      2  C   UNL     1      43.069  19.679  -3.735  1.00  0.00    -0.042 A 
ATOM      3  C   UNL     1      42.518  20.839  -3.171  1.00  0.00     0.008 A 
ATOM      4  C   UNL     1      41.773  20.762  -1.993  1.00  0.00     0.050 A 
ATOM      5  C   UNL     1      41.572  19.534  -1.353  1.00  0.00     0.157 A 
ATOM      6  C   UNL     1      42.882  18.447  -3.091  1.00  0.00     0.054 A 
ATOM      7  C   UNL     1      42.136  18.360  -1.909  1.00  0.00     0.157 A 
BRANCH   5   8
ATOM      8  O   UNL     1      40.815  19.526  -0.179  1.00  0.00    -0.504 OA
ATOM      9  H   UNL     1      40.387  18.697   0.210  1.00  0.00     0.293 HD
ENDBRANCH   5   8
BRANCH   7  10
ATOM     10  O   UNL     1      41.985  17.101  -1.324  1.00  0.00    -0.504 OA
ATOM     11  H   UNL     1      41.369  16.909  -0.547  1.00  0.00     0.293 HD
ENDBRANCH   7  10
ENDBRANCH   1   2
BRANCH   1  12
ATOM     12  C   UNL     1      43.523  20.983  -5.827  1.00  0.00     0.161 C 
BRANCH  12  13
ATOM     13  O   UNL     1      44.679  21.657  -6.242  1.00  0.00    -0.396 OA
ATOM     14  H   UNL     1      45.439  21.200  -5.798  1.00  0.00     0.210 HD
ENDBRANCH  12  13
ENDBRANCH   1  12
TORSDOF 5
ENDMDL
MODEL 2
REMARK VINA RESULT:    -3.997      8.797      9.951
REMARK INTER + INTRA:          -4.900
REMARK INTER:                  -4.805
REMARK INTRA:                  -0.095
REMARK UNBOUND:                -0.086
REMARK SMILES OCCc1ccc(O)c(O)c1
REMARK SMILES IDX 3 1 4 2 5 3 6 4 7 5 11 6 9 7 8 8 10 10 2 12 1 13
REMARK H PARENT 8 9 10 11 1 14
REMARK Flexibility Score: inf
ROOT
ATOM      1  C   UNL     1      52.412  15.659  -6.410  1.00  0.00     0.064 C 
ENDROOT
BRANCH   1   2
ATOM      2  C   UNL     1      51.227  15.142  -5.637  1.00  0.00    -0.042 A 
ATOM      3  C   UNL     1      51.122  13.778  -5.328  1.00  0.00     0.008 A 
ATOM      4  C   UNL     1      50.009  13.298  -4.637  1.00  0.00     0.050 A 
ATOM      5  C   UNL     1      48.979  14.163  -4.249  1.00  0.00     0.157 A 
ATOM      6  C   UNL     1      50.193  16.012  -5.262  1.00  0.00     0.054 A 
ATOM      7  C   UNL     1      49.072  15.539  -4.568  1.00  0.00     0.157 A 
BRANCH   5   8
ATOM      8  O   UNL     1      47.895  13.619  -3.558  1.00  0.00    -0.504 OA
ATOM      9  H   UNL     1      47.800  13.637  -2.552  1.00  0.00     0.293 HD
ENDBRANCH   5   8
BRANCH   7  10
ATOM     10  O   UNL     1      48.082  16.461  -4.221  1.00  0.00    -0.504 OA
ATOM     11  H   UNL     1      47.542  16.417  -3.370  1.00  0.00     0.293 HD
ENDBRANCH   7  10
ENDBRANCH   1   2
BRANCH   1  12
ATOM     12  C   UNL     1      53.388  14.534  -6.752  1.00  0.00     0.161 C 
BRANCH  12  13
ATOM     13  O   UNL     1      54.560  14.666  -5.995  1.00  0.00    -0.396 OA
ATOM     14  H   UNL     1      54.888  13.743  -5.834  1.00  0.00     0.210 HD
ENDBRANCH  12  13
ENDBRANCH   1  12
TORSDOF 5
ENDMDL
MODEL 3
REMARK VINA RESULT:    -3.968      7.814      9.526
REMARK INTER + INTRA:          -4.866
REMARK INTER:                  -4.791
REMARK INTRA:                  -0.074
REMARK UNBOUND:                -0.086
REMARK SMILES OCCc1ccc(O)c(O)c1
REMARK SMILES IDX 3 1 4 2 5 3 6 4 7 5 11 6 9 7 8 8 10 10 2 12 1 13
REMARK H PARENT 8 9 10 11 1 14
REMARK Flexibility Score: inf
ROOT
ATOM      1  C   UNL     1      49.271  11.497  -3.210  1.00  0.00     0.064 C 
ENDROOT
BRANCH   1   2
ATOM      2  C   UNL     1      49.072  12.912  -3.685  1.00  0.00    -0.042 A 
ATOM      3  C   UNL     1      50.042  13.536  -4.483  1.00  0.00     0.008 A 
ATOM      4  C   UNL     1      49.867  14.857  -4.898  1.00  0.00     0.050 A 
ATOM      5  C   UNL     1      48.731  15.582  -4.519  1.00  0.00     0.157 A 
ATOM      6  C   UNL     1      47.937  13.637  -3.292  1.00  0.00     0.054 A 
ATOM      7  C   UNL     1      47.753  14.963  -3.703  1.00  0.00     0.157 A 
BRANCH   5   8
ATOM      8  O   UNL     1      48.617  16.898  -4.970  1.00  0.00    -0.504 OA
ATOM      9  H   UNL     1      49.230  17.648  -4.683  1.00  0.00     0.293 HD
ENDBRANCH   5   8
BRANCH   7  10
ATOM     10  O   UNL     1      46.599  15.624  -3.278  1.00  0.00    -0.504 OA
ATOM     11  H   UNL     1      45.787  15.157  -2.902  1.00  0.00     0.293 HD
ENDBRANCH   7  10
ENDBRANCH   1   2
BRANCH   1  12
ATOM     12  C   UNL     1      48.655  11.281  -1.828  1.00  0.00     0.161 C 
BRANCH  12  13
ATOM     13  O   UNL     1      49.641  10.878  -0.918  1.00  0.00    -0.396 OA
ATOM     14  H   UNL     1      50.482  11.317  -1.212  1.00  0.00     0.210 HD
ENDBRANCH  12  13
ENDBRANCH   1  12
TORSDOF 5
ENDMDL
MODEL 4
REMARK VINA RESULT:    -3.953      1.117      1.226
REMARK INTER + INTRA:          -4.847
REMARK INTER:                  -4.758
REMARK INTRA:                  -0.090
REMARK UNBOUND:                -0.086
REMARK SMILES OCCc1ccc(O)c(O)c1
REMARK SMILES IDX 3 1 4 2 5 3 6 4 7 5 11 6 9 7 8 8 10 10 2 12 1 13
REMARK H PARENT 8 9 10 11 1 14
REMARK Flexibility Score: inf
ROOT
ATOM      1  C   UNL     1      43.827  20.124  -4.803  1.00  0.00     0.064 C 
ENDROOT
BRANCH   1   2
ATOM      2  C   UNL     1      42.985  19.918  -3.571  1.00  0.00    -0.042 A 
ATOM      3  C   UNL     1      42.367  21.008  -2.944  1.00  0.00     0.008 A 
ATOM      4  C   UNL     1      41.611  20.817  -1.786  1.00  0.00     0.050 A 
ATOM      5  C   UNL     1      41.465  19.541  -1.229  1.00  0.00     0.157 A 
ATOM      6  C   UNL     1      42.854  18.639  -3.011  1.00  0.00     0.054 A 
ATOM      7  C   UNL     1      42.097  18.437  -1.850  1.00  0.00     0.157 A 
BRANCH   5   8
ATOM      8  O   UNL     1      40.694  19.419  -0.072  1.00  0.00    -0.504 OA
ATOM      9  H   UNL     1      40.481  20.188   0.548  1.00  0.00     0.293 HD
ENDBRANCH   5   8
BRANCH   7  10
ATOM     10  O   UNL     1      42.005  17.137  -1.349  1.00  0.00    -0.504 OA
ATOM     11  H   UNL     1      42.496  16.811  -0.529  1.00  0.00     0.293 HD
ENDBRANCH   7  10
ENDBRANCH   1   2
BRANCH   1  12
ATOM     12  C   UNL     1      43.888  18.857  -5.655  1.00  0.00     0.161 C 
BRANCH  12  13
ATOM     13  O   UNL     1      45.205  18.381  -5.717  1.00  0.00    -0.396 OA
ATOM     14  H   UNL     1      45.788  19.156  -5.506  1.00  0.00     0.210 HD
ENDBRANCH  12  13
ENDBRANCH   1  12
TORSDOF 5
ENDMDL
MODEL 5
REMARK VINA RESULT:    -3.907      8.956      9.972
REMARK INTER + INTRA:          -4.793
REMARK INTER:                  -4.698
REMARK INTRA:                  -0.095
REMARK UNBOUND:                -0.086
REMARK SMILES OCCc1ccc(O)c(O)c1
REMARK SMILES IDX 3 1 4 2 5 3 6 4 7 5 11 6 9 7 8 8 10 10 2 12 1 13
REMARK H PARENT 8 9 10 11 1 14
REMARK Flexibility Score: inf
ROOT
ATOM      1  C   UNL     1      52.446  13.481  -6.369  1.00  0.00     0.064 C 
ENDROOT
BRANCH   1   2
ATOM      2  C   UNL     1      51.251  14.178  -5.774  1.00  0.00    -0.042 A 
ATOM      3  C   UNL     1      50.981  15.518  -6.088  1.00  0.00     0.008 A 
ATOM      4  C   UNL     1      49.889  16.168  -5.512  1.00  0.00     0.050 A 
ATOM      5  C   UNL     1      49.053  15.501  -4.609  1.00  0.00     0.157 A 
ATOM      6  C   UNL     1      50.424  13.507  -4.860  1.00  0.00     0.054 A 
ATOM      7  C   UNL     1      49.326  14.152  -4.277  1.00  0.00     0.157 A 
BRANCH   5   8
ATOM      8  O   UNL     1      47.977  16.209  -4.071  1.00  0.00    -0.504 OA
ATOM      9  H   UNL     1      47.805  17.190  -4.242  1.00  0.00     0.293 HD
ENDBRANCH   5   8
BRANCH   7  10
ATOM     10  O   UNL     1      48.543  13.424  -3.379  1.00  0.00    -0.504 OA
ATOM     11  H   UNL     1      48.731  12.469  -3.111  1.00  0.00     0.293 HD
ENDBRANCH   7  10
ENDBRANCH   1   2
BRANCH   1  12
ATOM     12  C   UNL     1      53.473  14.485  -6.891  1.00  0.00     0.161 C 
BRANCH  12  13
ATOM     13  O   UNL     1      54.549  14.582  -5.998  1.00  0.00    -0.396 OA
ATOM     14  H   UNL     1      54.151  14.605  -5.089  1.00  0.00     0.210 HD
ENDBRANCH  12  13
ENDBRANCH   1  12
TORSDOF 5
ENDMDL
MODEL 6
REMARK VINA RESULT:    -3.894      8.068      9.818
REMARK INTER + INTRA:          -4.777
REMARK INTER:                  -4.708
REMARK INTRA:                  -0.069
REMARK UNBOUND:                -0.086
REMARK SMILES OCCc1ccc(O)c(O)c1
REMARK SMILES IDX 3 1 4 2 5 3 6 4 7 5 11 6 9 7 8 8 10 10 2 12 1 13
REMARK H PARENT 8 9 10 11 1 14
REMARK Flexibility Score: inf
ROOT
ATOM      1  C   UNL     1      49.182  11.521  -3.205  1.00  0.00     0.064 C 
ENDROOT
BRANCH   1   2
ATOM      2  C   UNL     1      49.018  12.945  -3.666  1.00  0.00    -0.042 A 
ATOM      3  C   UNL     1      47.851  13.659  -3.360  1.00  0.00     0.008 A 
ATOM      4  C   UNL     1      47.690  14.970  -3.813  1.00  0.00     0.050 A 
ATOM      5  C   UNL     1      48.682  15.587  -4.584  1.00  0.00     0.157 A 
ATOM      6  C   UNL     1      50.010  13.554  -4.448  1.00  0.00     0.054 A 
ATOM      7  C   UNL     1      49.858  14.868  -4.908  1.00  0.00     0.157 A 
BRANCH   5   8
ATOM      8  O   UNL     1      48.459  16.900  -5.004  1.00  0.00    -0.504 OA
ATOM      9  H   UNL     1      47.543  17.289  -5.178  1.00  0.00     0.293 HD
ENDBRANCH   5   8
BRANCH   7  10
ATOM     10  O   UNL     1      50.887  15.413  -5.678  1.00  0.00    -0.504 OA
ATOM     11  H   UNL     1      50.800  16.264  -6.215  1.00  0.00     0.293 HD
ENDBRANCH   7  10
ENDBRANCH   1   2
BRANCH   1  12
ATOM     12  C   UNL     1      48.684  11.338  -1.772  1.00  0.00     0.161 C 
BRANCH  12  13
ATOM     13  O   UNL     1      49.737  10.924  -0.945  1.00  0.00    -0.396 OA
ATOM     14  H   UNL     1      50.318  10.348  -1.507  1.00  0.00     0.210 HD
ENDBRANCH  12  13
ENDBRANCH   1  12
TORSDOF 5
ENDMDL
MODEL 7
REMARK VINA RESULT:    -3.840      1.121      2.171
REMARK INTER + INTRA:          -4.712
REMARK INTER:                  -4.619
REMARK INTRA:                  -0.093
REMARK UNBOUND:                -0.086
REMARK SMILES OCCc1ccc(O)c(O)c1
REMARK SMILES IDX 3 1 4 2 5 3 6 4 7 5 11 6 9 7 8 8 10 10 2 12 1 13
REMARK H PARENT 8 9 10 11 1 14
REMARK Flexibility Score: inf
ROOT
ATOM      1  C   UNL     1      43.700  20.947  -5.245  1.00  0.00     0.064 C 
ENDROOT
BRANCH   1   2
ATOM      2  C   UNL     1      43.218  20.272  -3.987  1.00  0.00    -0.042 A 
ATOM      3  C   UNL     1      43.353  18.885  -3.830  1.00  0.00     0.008 A 
ATOM      4  C   UNL     1      42.880  18.259  -2.676  1.00  0.00     0.050 A 
ATOM      5  C   UNL     1      42.256  19.000  -1.665  1.00  0.00     0.157 A 
ATOM      6  C   UNL     1      42.583  21.018  -2.983  1.00  0.00     0.054 A 
ATOM      7  C   UNL     1      42.105  20.399  -1.822  1.00  0.00     0.157 A 
BRANCH   5   8
ATOM      8  O   UNL     1      41.807  18.313  -0.535  1.00  0.00    -0.504 OA
ATOM      9  H   UNL     1      40.850  18.324  -0.211  1.00  0.00     0.293 HD
ENDBRANCH   5   8
BRANCH   7  10
ATOM     10  O   UNL     1      41.487  21.202  -0.861  1.00  0.00    -0.504 OA
ATOM     11  H   UNL     1      41.744  22.161  -0.677  1.00  0.00     0.293 HD
ENDBRANCH   7  10
ENDBRANCH   1   2
BRANCH   1  12
ATOM     12  C   UNL     1      43.730  19.974  -6.423  1.00  0.00     0.161 C 
BRANCH  12  13
ATOM     13  O   UNL     1      45.047  19.797  -6.868  1.00  0.00    -0.396 OA
ATOM     14  H   UNL     1      45.387  18.988  -6.405  1.00  0.00     0.210 HD
ENDBRANCH  12  13
ENDBRANCH   1  12
TORSDOF 5
ENDMDL
MODEL 8
REMARK VINA RESULT:    -3.812      2.510      3.903
REMARK INTER + INTRA:          -4.678
REMARK INTER:                  -4.570
REMARK INTRA:                  -0.108
REMARK UNBOUND:                -0.086
REMARK SMILES OCCc1ccc(O)c(O)c1
REMARK SMILES IDX 3 1 4 2 5 3 6 4 7 5 11 6 9 7 8 8 10 10 2 12 1 13
REMARK H PARENT 8 9 10 11 1 14
REMARK Flexibility Score: inf
ROOT
ATOM      1  C   UNL     1      42.202  20.075  -2.678  1.00  0.00     0.064 C 
ENDROOT
BRANCH   1   2
ATOM      2  C   UNL     1      42.543  18.608  -2.720  1.00  0.00    -0.042 A 
ATOM      3  C   UNL     1      43.646  18.156  -3.457  1.00  0.00     0.008 A 
ATOM      4  C   UNL     1      43.942  16.794  -3.517  1.00  0.00     0.050 A 
ATOM      5  C   UNL     1      43.141  15.858  -2.852  1.00  0.00     0.157 A 
ATOM      6  C   UNL     1      41.729  17.674  -2.061  1.00  0.00     0.054 A 
ATOM      7  C   UNL     1      42.018  16.305  -2.115  1.00  0.00     0.157 A 
BRANCH   5   8
ATOM      8  O   UNL     1      43.494  14.510  -2.950  1.00  0.00    -0.504 OA
ATOM      9  H   UNL     1      42.826  13.751  -2.945  1.00  0.00     0.293 HD
ENDBRANCH   5   8
BRANCH   7  10
ATOM     10  O   UNL     1      41.168  15.432  -1.433  1.00  0.00    -0.504 OA
ATOM     11  H   UNL     1      40.648  15.681  -0.604  1.00  0.00     0.293 HD
ENDBRANCH   7  10
ENDBRANCH   1   2
BRANCH   1  12
ATOM     12  C   UNL     1      42.242  20.616  -1.250  1.00  0.00     0.161 C 
BRANCH  12  13
ATOM     13  O   UNL     1      43.509  20.404  -0.690  1.00  0.00    -0.396 OA
ATOM     14  H   UNL     1      43.724  21.227  -0.178  1.00  0.00     0.210 HD
ENDBRANCH  12  13
ENDBRANCH   1  12
TORSDOF 5
ENDMDL
MODEL 9
REMARK VINA RESULT:    -3.801      6.882      8.386
REMARK INTER + INTRA:          -4.664
REMARK INTER:                  -4.573
REMARK INTRA:                  -0.091
REMARK UNBOUND:                -0.086
REMARK SMILES OCCc1ccc(O)c(O)c1
REMARK SMILES IDX 3 1 4 2 5 3 6 4 7 5 11 6 9 7 8 8 10 10 2 12 1 13
REMARK H PARENT 8 9 10 11 1 14
REMARK Flexibility Score: inf
ROOT
ATOM      1  C   UNL     1      46.387  16.438  -4.612  1.00  0.00     0.064 C 
ENDROOT
BRANCH   1   2
ATOM      2  C   UNL     1      47.742  15.780  -4.632  1.00  0.00    -0.042 A 
ATOM      3  C   UNL     1      48.812  16.381  -5.310  1.00  0.00     0.008 A 
ATOM      4  C   UNL     1      50.059  15.755  -5.350  1.00  0.00     0.050 A 
ATOM      5  C   UNL     1      50.260  14.519  -4.725  1.00  0.00     0.157 A 
ATOM      6  C   UNL     1      47.933  14.536  -4.014  1.00  0.00     0.054 A 
ATOM      7  C   UNL     1      49.181  13.900  -4.048  1.00  0.00     0.157 A 
BRANCH   5   8
ATOM      8  O   UNL     1      51.532  13.948  -4.801  1.00  0.00    -0.504 OA
ATOM      9  H   UNL     1      52.207  13.973  -4.049  1.00  0.00     0.293 HD
ENDBRANCH   5   8
BRANCH   7  10
ATOM     10  O   UNL     1      49.302  12.665  -3.408  1.00  0.00    -0.504 OA
ATOM     11  H   UNL     1      48.707  12.360  -2.651  1.00  0.00     0.293 HD
ENDBRANCH   7  10
ENDBRANCH   1   2
BRANCH   1  12
ATOM     12  C   UNL     1      45.420  15.693  -3.694  1.00  0.00     0.161 C 
BRANCH  12  13
ATOM     13  O   UNL     1      45.120  16.477  -2.572  1.00  0.00    -0.396 OA
ATOM     14  H   UNL     1      45.863  16.333  -1.929  1.00  0.00     0.210 HD
ENDBRANCH  12  13
ENDBRANCH   1  12
TORSDOF 5
ENDMDL
