MODEL 1
REMARK VINA RESULT:    -3.453      0.000      0.000
REMARK INTER + INTRA:          -4.094
REMARK INTER:                  -4.058
REMARK INTRA:                  -0.036
REMARK UNBOUND:                -0.036
REMARK SMILES CCCCC(=O)[O-]
REMARK SMILES IDX 4 1 5 2 6 3 7 4 3 5 2 6 1 7
REMARK H PARENT
REMARK Flexibility Score: inf
ROOT
ATOM      1  C   UNL     1      -9.163 -21.789  47.234  1.00  0.00     0.053 C 
ENDROOT
BRANCH   1   2
ATOM      2  C   UNL     1     -10.369 -22.557  47.673  1.00  0.00     0.041 C 
ATOM      3  O   UNL     1     -11.495 -22.315  47.165  1.00  0.00    -0.550 OA
ATOM      4  O   UNL     1     -10.242 -23.576  48.610  1.00  0.00    -0.550 OA
ENDBRANCH   1   2
BRANCH   1   5
ATOM      5  C   UNL     1      -7.985 -22.735  46.985  1.00  0.00     0.006 C 
BRANCH   5   6
ATOM      6  C   UNL     1      -6.653 -22.057  47.325  1.00  0.00    -0.003 C 
ATOM      7  C   UNL     1      -6.604 -20.633  46.781  1.00  0.00     0.004 C 
ENDBRANCH   5   6
ENDBRANCH   1   5
TORSDOF 3
ENDMDL
MODEL 2
REMARK VINA RESULT:    -3.383      3.651      4.312
REMARK INTER + INTRA:          -4.012
REMARK INTER:                  -3.936
REMARK INTRA:                  -0.076
REMARK UNBOUND:                -0.036
REMARK SMILES CCCCC(=O)[O-]
REMARK SMILES IDX 4 1 5 2 6 3 7 4 3 5 2 6 1 7
REMARK H PARENT
REMARK Flexibility Score: inf
ROOT
ATOM      1  C   UNL     1      -6.188 -23.043  48.189  1.00  0.00     0.053 C 
ENDROOT
BRANCH   1   2
ATOM      2  C   UNL     1      -5.045 -23.823  47.620  1.00  0.00     0.041 C 
ATOM      3  O   UNL     1      -4.055 -23.226  47.123  1.00  0.00    -0.550 OA
ATOM      4  O   UNL     1      -5.050 -25.211  47.684  1.00  0.00    -0.550 OA
ENDBRANCH   1   2
BRANCH   1   5
ATOM      5  C   UNL     1      -7.319 -22.924  47.164  1.00  0.00     0.006 C 
BRANCH   5   6
ATOM      6  C   UNL     1      -7.733 -21.461  46.969  1.00  0.00    -0.003 C 
ATOM      7  C   UNL     1      -6.514 -20.561  46.795  1.00  0.00     0.004 C 
ENDBRANCH   5   6
ENDBRANCH   1   5
TORSDOF 3
ENDMDL
MODEL 3
REMARK VINA RESULT:    -3.335      2.663      4.119
REMARK INTER + INTRA:          -3.956
REMARK INTER:                  -3.937
REMARK INTRA:                  -0.019
REMARK UNBOUND:                -0.036
REMARK SMILES CCCCC(=O)[O-]
REMARK SMILES IDX 4 1 5 2 6 3 7 4 3 5 2 6 1 7
REMARK H PARENT
REMARK Flexibility Score: inf
ROOT
ATOM      1  C   UNL     1      -8.154 -22.702  46.861  1.00  0.00     0.053 C 
ENDROOT
BRANCH   1   2
ATOM      2  C   UNL     1      -6.851 -21.995  47.064  1.00  0.00     0.041 C 
ATOM      3  O   UNL     1      -5.809 -22.650  47.328  1.00  0.00    -0.550 OA
ATOM      4  O   UNL     1      -6.776 -20.616  46.912  1.00  0.00    -0.550 OA
ENDBRANCH   1   2
BRANCH   1   5
ATOM      5  C   UNL     1      -9.319 -21.824  47.329  1.00  0.00     0.006 C 
BRANCH   5   6
ATOM      6  C   UNL     1     -10.447 -22.677  47.919  1.00  0.00    -0.003 C 
ATOM      7  C   UNL     1     -11.794 -21.971  47.796  1.00  0.00     0.004 C 
ENDBRANCH   5   6
ENDBRANCH   1   5
TORSDOF 3
ENDMDL
MODEL 4
REMARK VINA RESULT:    -3.320      2.745      4.105
REMARK INTER + INTRA:          -3.938
REMARK INTER:                  -3.914
REMARK INTRA:                  -0.024
REMARK UNBOUND:                -0.036
REMARK SMILES CCCCC(=O)[O-]
REMARK SMILES IDX 4 1 5 2 6 3 7 4 3 5 2 6 1 7
REMARK H PARENT
REMARK Flexibility Score: inf
ROOT
ATOM      1  C   UNL     1      -6.718 -22.174  47.276  1.00  0.00     0.053 C 
ENDROOT
BRANCH   1   2
ATOM      2  C   UNL     1      -5.794 -23.277  47.685  1.00  0.00     0.041 C 
ATOM      3  O   UNL     1      -4.596 -23.279  47.297  1.00  0.00    -0.550 OA
ATOM      4  O   UNL     1      -6.242 -24.280  48.537  1.00  0.00    -0.550 OA
ENDBRANCH   1   2
BRANCH   1   5
ATOM      5  C   UNL     1      -8.129 -22.717  47.037  1.00  0.00     0.006 C 
BRANCH   5   6
ATOM      6  C   UNL     1      -9.184 -21.629  47.269  1.00  0.00    -0.003 C 
ATOM      7  C   UNL     1     -10.541 -22.238  47.605  1.00  0.00     0.004 C 
ENDBRANCH   5   6
ENDBRANCH   1   5
TORSDOF 3
ENDMDL
MODEL 5
REMARK VINA RESULT:    -3.312     12.932     13.859
REMARK INTER + INTRA:          -3.928
REMARK INTER:                  -3.819
REMARK INTRA:                  -0.109
REMARK UNBOUND:                -0.036
REMARK SMILES CCCCC(=O)[O-]
REMARK SMILES IDX 4 1 5 2 6 3 7 4 3 5 2 6 1 7
REMARK H PARENT
REMARK Flexibility Score: inf
ROOT
ATOM      1  C   UNL     1      -5.531 -35.375  44.204  1.00  0.00     0.053 C 
ENDROOT
BRANCH   1   2
ATOM      2  C   UNL     1      -4.392 -35.818  45.066  1.00  0.00     0.041 C 
ATOM      3  O   UNL     1      -4.190 -37.045  45.269  1.00  0.00    -0.550 OA
ATOM      4  O   UNL     1      -3.521 -34.880  45.605  1.00  0.00    -0.550 OA
ENDBRANCH   1   2
BRANCH   1   5
ATOM      5  C   UNL     1      -6.254 -34.185  44.842  1.00  0.00     0.006 C 
BRANCH   5   6
ATOM      6  C   UNL     1      -6.964 -34.602  46.135  1.00  0.00    -0.003 C 
ATOM      7  C   UNL     1      -6.907 -33.491  47.178  1.00  0.00     0.004 C 
ENDBRANCH   5   6
ENDBRANCH   1   5
TORSDOF 3
ENDMDL
MODEL 6
REMARK VINA RESULT:    -3.258     11.821     12.725
REMARK INTER + INTRA:          -3.865
REMARK INTER:                  -3.773
REMARK INTRA:                  -0.092
REMARK UNBOUND:                -0.036
REMARK SMILES CCCCC(=O)[O-]
REMARK SMILES IDX 4 1 5 2 6 3 7 4 3 5 2 6 1 7
REMARK H PARENT
REMARK Flexibility Score: inf
ROOT
ATOM      1  C   UNL     1      -6.791 -34.366  46.156  1.00  0.00     0.053 C 
ENDROOT
BRANCH   1   2
ATOM      2  C   UNL     1      -6.221 -33.519  47.248  1.00  0.00     0.041 C 
ATOM      3  O   UNL     1      -5.171 -33.875  47.845  1.00  0.00    -0.550 OA
ATOM      4  O   UNL     1      -6.819 -32.308  47.575  1.00  0.00    -0.550 OA
ENDBRANCH   1   2
BRANCH   1   5
ATOM      5  C   UNL     1      -6.144 -34.018  44.812  1.00  0.00     0.006 C 
BRANCH   5   6
ATOM      6  C   UNL     1      -5.656 -35.280  44.093  1.00  0.00    -0.003 C 
ATOM      7  C   UNL     1      -4.734 -36.103  44.987  1.00  0.00     0.004 C 
ENDBRANCH   5   6
ENDBRANCH   1   5
TORSDOF 3
ENDMDL
MODEL 7
REMARK VINA RESULT:    -3.205     11.809     12.975
REMARK INTER + INTRA:          -3.803
REMARK INTER:                  -3.694
REMARK INTRA:                  -0.109
REMARK UNBOUND:                -0.036
REMARK SMILES CCCCC(=O)[O-]
REMARK SMILES IDX 4 1 5 2 6 3 7 4 3 5 2 6 1 7
REMARK H PARENT
REMARK Flexibility Score: inf
ROOT
ATOM      1  C   UNL     1       2.550 -21.734  47.049  1.00  0.00     0.053 C 
ENDROOT
BRANCH   1   2
ATOM      2  C   UNL     1       2.895 -20.344  46.619  1.00  0.00     0.041 C 
ATOM      3  O   UNL     1       3.629 -19.620  47.342  1.00  0.00    -0.550 OA
ATOM      4  O   UNL     1       2.448 -19.863  45.394  1.00  0.00    -0.550 OA
ENDBRANCH   1   2
BRANCH   1   5
ATOM      5  C   UNL     1       3.794 -22.458  47.573  1.00  0.00     0.006 C 
BRANCH   5   6
ATOM      6  C   UNL     1       4.734 -22.837  46.423  1.00  0.00    -0.003 C 
ATOM      7  C   UNL     1       6.195 -22.644  46.818  1.00  0.00     0.004 C 
ENDBRANCH   5   6
ENDBRANCH   1   5
TORSDOF 3
ENDMDL
MODEL 8
REMARK VINA RESULT:    -3.142     11.998     12.868
REMARK INTER + INTRA:          -3.729
REMARK INTER:                  -3.645
REMARK INTRA:                  -0.084
REMARK UNBOUND:                -0.036
REMARK SMILES CCCCC(=O)[O-]
REMARK SMILES IDX 4 1 5 2 6 3 7 4 3 5 2 6 1 7
REMARK H PARENT
REMARK Flexibility Score: inf
ROOT
ATOM      1  C   UNL     1      -5.132 -34.424  45.918  1.00  0.00     0.053 C 
ENDROOT
BRANCH   1   2
ATOM      2  C   UNL     1      -5.565 -34.662  44.506  1.00  0.00     0.041 C 
ATOM      3  O   UNL     1      -5.315 -35.759  43.942  1.00  0.00    -0.550 OA
ATOM      4  O   UNL     1      -6.290 -33.690  43.827  1.00  0.00    -0.550 OA
ENDBRANCH   1   2
BRANCH   1   5
ATOM      5  C   UNL     1      -6.205 -34.906  46.898  1.00  0.00     0.006 C 
BRANCH   5   6
ATOM      6  C   UNL     1      -7.276 -33.830  47.112  1.00  0.00    -0.003 C 
ATOM      7  C   UNL     1      -6.649 -32.499  47.513  1.00  0.00     0.004 C 
ENDBRANCH   5   6
ENDBRANCH   1   5
TORSDOF 3
ENDMDL
MODEL 9
REMARK VINA RESULT:    -3.129      2.535      3.043
REMARK INTER + INTRA:          -3.713
REMARK INTER:                  -3.612
REMARK INTRA:                  -0.101
REMARK UNBOUND:                -0.036
REMARK SMILES CCCCC(=O)[O-]
REMARK SMILES IDX 4 1 5 2 6 3 7 4 3 5 2 6 1 7
REMARK H PARENT
REMARK Flexibility Score: inf
ROOT
ATOM      1  C   UNL     1      -7.612 -23.196  47.390  1.00  0.00     0.053 C 
ENDROOT
BRANCH   1   2
ATOM      2  C   UNL     1      -7.941 -21.776  47.055  1.00  0.00     0.041 C 
ATOM      3  O   UNL     1      -7.075 -21.032  46.524  1.00  0.00    -0.550 OA
ATOM      4  O   UNL     1      -9.221 -21.286  47.283  1.00  0.00    -0.550 OA
ENDBRANCH   1   2
BRANCH   1   5
ATOM      5  C   UNL     1      -6.441 -23.258  48.375  1.00  0.00     0.006 C 
BRANCH   5   6
ATOM      6  C   UNL     1      -5.301 -24.120  47.822  1.00  0.00    -0.003 C 
ATOM      7  C   UNL     1      -4.184 -23.255  47.247  1.00  0.00     0.004 C 
ENDBRANCH   5   6
ENDBRANCH   1   5
TORSDOF 3
ENDMDL
