MODEL 1
REMARK VINA RESULT:    -4.906      0.000      0.000
REMARK INTER + INTRA:          -9.936
REMARK INTER:                  -8.347
REMARK INTRA:                  -1.589
REMARK UNBOUND:                -1.589
REMARK SMILES CCCCCCCCCCCCCC(=O)[O-]
REMARK SMILES IDX 8 1 9 2 10 3 11 4 12 5 13 6 14 7 15 8 16 9 7 10 6 11 5 12
REMARK SMILES IDX 4 13 3 14 2 15 1 16
REMARK H PARENT
REMARK Flexibility Score: inf
ROOT
ATOM      1  C   UNL     1      24.780  35.095 147.384  1.00  0.00     0.000 C 
ENDROOT
BRANCH   1   2
ATOM      2  C   UNL     1      24.239  34.124 148.446  1.00  0.00     0.000 C 
BRANCH   2   3
ATOM      3  C   UNL     1      25.375  33.580 149.321  1.00  0.00     0.000 C 
BRANCH   3   4
ATOM      4  C   UNL     1      26.691  33.512 148.532  1.00  0.00     0.000 C 
BRANCH   4   5
ATOM      5  C   UNL     1      27.845  34.256 149.232  1.00  0.00     0.006 C 
BRANCH   5   6
ATOM      6  C   UNL     1      27.391  35.361 150.199  1.00  0.00     0.053 C 
BRANCH   6   7
ATOM      7  C   UNL     1      27.509  36.724 149.589  1.00  0.00     0.041 C 
ATOM      8  O   UNL     1      27.018  37.725 150.173  1.00  0.00    -0.550 OA
ATOM      9  O   UNL     1      28.134  36.882 148.358  1.00  0.00    -0.550 OA
ENDBRANCH   6   7
ENDBRANCH   5   6
ENDBRANCH   4   5
ENDBRANCH   3   4
ENDBRANCH   2   3
ENDBRANCH   1   2
BRANCH   1  10
ATOM     10  C   UNL     1      24.083  36.464 147.420  1.00  0.00     0.000 C 
BRANCH  10  11
ATOM     11  C   UNL     1      23.801  36.947 148.854  1.00  0.00    -0.000 C 
BRANCH  11  12
ATOM     12  C   UNL     1      23.095  38.313 148.887  1.00  0.00    -0.000 C 
BRANCH  12  13
ATOM     13  C   UNL     1      23.254  39.088 147.568  1.00  0.00    -0.000 C 
BRANCH  13  14
ATOM     14  C   UNL     1      23.953  40.447 147.754  1.00  0.00    -0.000 C 
BRANCH  14  15
ATOM     15  C   UNL     1      25.405  40.366 148.259  1.00  0.00    -0.003 C 
ATOM     16  C   UNL     1      26.350  39.700 147.259  1.00  0.00     0.004 C 
ENDBRANCH  14  15
ENDBRANCH  13  14
ENDBRANCH  12  13
ENDBRANCH  11  12
ENDBRANCH  10  11
ENDBRANCH   1  10
TORSDOF 12
ENDMDL
MODEL 2
REMARK VINA RESULT:    -4.849      2.269      5.279
REMARK INTER + INTRA:          -9.840
REMARK INTER:                  -8.576
REMARK INTRA:                  -1.264
REMARK UNBOUND:                -1.589
REMARK SMILES CCCCCCCCCCCCCC(=O)[O-]
REMARK SMILES IDX 8 1 9 2 10 3 11 4 12 5 13 6 14 7 15 8 16 9 7 10 6 11 5 12
REMARK SMILES IDX 4 13 3 14 2 15 1 16
REMARK H PARENT
REMARK Flexibility Score: inf
ROOT
ATOM      1  C   UNL     1      24.452  36.235 147.424  1.00  0.00     0.000 C 
ENDROOT
BRANCH   1   2
ATOM      2  C   UNL     1      23.209  37.083 147.735  1.00  0.00     0.000 C 
BRANCH   2   3
ATOM      3  C   UNL     1      23.557  38.576 147.761  1.00  0.00     0.000 C 
BRANCH   3   4
ATOM      4  C   UNL     1      25.065  38.792 147.568  1.00  0.00     0.000 C 
BRANCH   4   5
ATOM      5  C   UNL     1      25.455  40.282 147.531  1.00  0.00     0.006 C 
BRANCH   5   6
ATOM      6  C   UNL     1      24.262  41.245 147.417  1.00  0.00     0.053 C 
BRANCH   6   7
ATOM      7  C   UNL     1      24.098  42.082 148.648  1.00  0.00     0.041 C 
ATOM      8  O   UNL     1      24.182  41.556 149.788  1.00  0.00    -0.550 OA
ATOM      9  O   UNL     1      23.820  43.438 148.534  1.00  0.00    -0.550 OA
ENDBRANCH   6   7
ENDBRANCH   5   6
ENDBRANCH   4   5
ENDBRANCH   3   4
ENDBRANCH   2   3
ENDBRANCH   1   2
BRANCH   1  10
ATOM     10  C   UNL     1      24.105  34.781 147.067  1.00  0.00     0.000 C 
BRANCH  10  11
ATOM     11  C   UNL     1      24.269  33.823 148.260  1.00  0.00    -0.000 C 
BRANCH  11  12
ATOM     12  C   UNL     1      25.037  34.464 149.428  1.00  0.00    -0.000 C 
BRANCH  12  13
ATOM     13  C   UNL     1      26.544  34.161 149.376  1.00  0.00    -0.000 C 
BRANCH  13  14
ATOM     14  C   UNL     1      27.380  35.143 150.219  1.00  0.00    -0.000 C 
BRANCH  14  15
ATOM     15  C   UNL     1      27.351  36.602 149.733  1.00  0.00    -0.003 C 
ATOM     16  C   UNL     1      28.037  36.797 148.381  1.00  0.00     0.004 C 
ENDBRANCH  14  15
ENDBRANCH  13  14
ENDBRANCH  12  13
ENDBRANCH  11  12
ENDBRANCH  10  11
ENDBRANCH   1  10
TORSDOF 12
ENDMDL
MODEL 3
REMARK VINA RESULT:    -4.824      2.144      2.984
REMARK INTER + INTRA:          -9.797
REMARK INTER:                  -7.832
REMARK INTRA:                  -1.964
REMARK UNBOUND:                -1.589
REMARK SMILES CCCCCCCCCCCCCC(=O)[O-]
REMARK SMILES IDX 8 1 9 2 10 3 11 4 12 5 13 6 14 7 15 8 16 9 7 10 6 11 5 12
REMARK SMILES IDX 4 13 3 14 2 15 1 16
REMARK H PARENT
REMARK Flexibility Score: inf
ROOT
ATOM      1  C   UNL     1      24.791  37.002 147.388  1.00  0.00     0.000 C 
ENDROOT
BRANCH   1   2
ATOM      2  C   UNL     1      26.321  36.902 147.494  1.00  0.00     0.000 C 
BRANCH   2   3
ATOM      3  C   UNL     1      26.775  36.972 148.957  1.00  0.00     0.000 C 
BRANCH   3   4
ATOM      4  C   UNL     1      27.554  35.708 149.352  1.00  0.00     0.000 C 
BRANCH   4   5
ATOM      5  C   UNL     1      26.637  34.568 149.836  1.00  0.00     0.006 C 
BRANCH   5   6
ATOM      6  C   UNL     1      26.231  33.574 148.736  1.00  0.00     0.053 C 
BRANCH   6   7
ATOM      7  C   UNL     1      24.746  33.392 148.666  1.00  0.00     0.041 C 
ATOM      8  O   UNL     1      24.072  33.270 149.722  1.00  0.00    -0.550 OA
ATOM      9  O   UNL     1      24.112  33.324 147.433  1.00  0.00    -0.550 OA
ENDBRANCH   6   7
ENDBRANCH   5   6
ENDBRANCH   4   5
ENDBRANCH   3   4
ENDBRANCH   2   3
ENDBRANCH   1   2
BRANCH   1  10
ATOM     10  C   UNL     1      24.109  37.155 148.756  1.00  0.00     0.000 C 
BRANCH  10  11
ATOM     11  C   UNL     1      23.072  38.291 148.777  1.00  0.00    -0.000 C 
BRANCH  11  12
ATOM     12  C   UNL     1      23.174  39.204 147.544  1.00  0.00    -0.000 C 
BRANCH  12  13
ATOM     13  C   UNL     1      23.825  40.560 147.868  1.00  0.00    -0.000 C 
BRANCH  13  14
ATOM     14  C   UNL     1      25.216  40.723 147.228  1.00  0.00    -0.000 C 
BRANCH  14  15
ATOM     15  C   UNL     1      26.400  40.561 148.197  1.00  0.00    -0.003 C 
ATOM     16  C   UNL     1      25.975  40.542 149.665  1.00  0.00     0.004 C 
ENDBRANCH  14  15
ENDBRANCH  13  14
ENDBRANCH  12  13
ENDBRANCH  11  12
ENDBRANCH  10  11
ENDBRANCH   1  10
TORSDOF 12
ENDMDL
MODEL 4
REMARK VINA RESULT:    -4.802      2.111      4.672
REMARK INTER + INTRA:          -9.759
REMARK INTER:                  -7.898
REMARK INTRA:                  -1.861
REMARK UNBOUND:                -1.589
REMARK SMILES CCCCCCCCCCCCCC(=O)[O-]
REMARK SMILES IDX 8 1 9 2 10 3 11 4 12 5 13 6 14 7 15 8 16 9 7 10 6 11 5 12
REMARK SMILES IDX 4 13 3 14 2 15 1 16
REMARK H PARENT
REMARK Flexibility Score: inf
ROOT
ATOM      1  C   UNL     1      24.040  34.199 148.611  1.00  0.00     0.000 C 
ENDROOT
BRANCH   1   2
ATOM      2  C   UNL     1      24.413  35.051 147.388  1.00  0.00     0.000 C 
BRANCH   2   3
ATOM      3  C   UNL     1      23.643  36.378 147.389  1.00  0.00     0.000 C 
BRANCH   3   4
ATOM      4  C   UNL     1      23.690  37.038 148.775  1.00  0.00     0.000 C 
BRANCH   4   5
ATOM      5  C   UNL     1      23.650  38.577 148.705  1.00  0.00     0.006 C 
BRANCH   5   6
ATOM      6  C   UNL     1      24.650  39.279 149.637  1.00  0.00     0.053 C 
BRANCH   6   7
ATOM      7  C   UNL     1      24.481  40.767 149.622  1.00  0.00     0.041 C 
ATOM      8  O   UNL     1      24.045  41.345 148.592  1.00  0.00    -0.550 OA
ATOM      9  O   UNL     1      24.836  41.518 150.734  1.00  0.00    -0.550 OA
ENDBRANCH   6   7
ENDBRANCH   5   6
ENDBRANCH   4   5
ENDBRANCH   3   4
ENDBRANCH   2   3
ENDBRANCH   1   2
BRANCH   1  10
ATOM     10  C   UNL     1      25.269  33.728 149.405  1.00  0.00     0.000 C 
BRANCH  10  11
ATOM     11  C   UNL     1      26.521  33.580 148.523  1.00  0.00    -0.000 C 
BRANCH  11  12
ATOM     12  C   UNL     1      27.729  34.353 149.079  1.00  0.00    -0.000 C 
BRANCH  12  13
ATOM     13  C   UNL     1      27.342  35.294 150.233  1.00  0.00    -0.000 C 
BRANCH  13  14
ATOM     14  C   UNL     1      27.390  36.781 149.833  1.00  0.00    -0.000 C 
BRANCH  14  15
ATOM     15  C   UNL     1      28.120  37.073 148.510  1.00  0.00    -0.003 C 
ATOM     16  C   UNL     1      27.173  37.474 147.379  1.00  0.00     0.004 C 
ENDBRANCH  14  15
ENDBRANCH  13  14
ENDBRANCH  12  13
ENDBRANCH  11  12
ENDBRANCH  10  11
ENDBRANCH   1  10
TORSDOF 12
ENDMDL
MODEL 5
REMARK VINA RESULT:    -4.782      2.182      3.699
REMARK INTER + INTRA:          -9.725
REMARK INTER:                  -8.300
REMARK INTRA:                  -1.425
REMARK UNBOUND:                -1.589
REMARK SMILES CCCCCCCCCCCCCC(=O)[O-]
REMARK SMILES IDX 8 1 9 2 10 3 11 4 12 5 13 6 14 7 15 8 16 9 7 10 6 11 5 12
REMARK SMILES IDX 4 13 3 14 2 15 1 16
REMARK H PARENT
REMARK Flexibility Score: inf
ROOT
ATOM      1  C   UNL     1      28.066  37.023 148.495  1.00  0.00     0.000 C 
ENDROOT
BRANCH   1   2
ATOM      2  C   UNL     1      27.300  36.727 149.794  1.00  0.00     0.000 C 
BRANCH   2   3
ATOM      3  C   UNL     1      27.389  35.239 150.156  1.00  0.00     0.000 C 
BRANCH   3   4
ATOM      4  C   UNL     1      28.129  34.452 149.064  1.00  0.00     0.000 C 
BRANCH   4   5
ATOM      5  C   UNL     1      27.240  33.392 148.386  1.00  0.00     0.006 C 
BRANCH   5   6
ATOM      6  C   UNL     1      25.852  33.904 147.968  1.00  0.00     0.053 C 
BRANCH   6   7
ATOM      7  C   UNL     1      24.749  33.132 148.623  1.00  0.00     0.041 C 
ATOM      8  O   UNL     1      24.401  32.011 148.167  1.00  0.00    -0.550 OA
ATOM      9  O   UNL     1      24.083  33.666 149.719  1.00  0.00    -0.550 OA
ENDBRANCH   6   7
ENDBRANCH   5   6
ENDBRANCH   4   5
ENDBRANCH   3   4
ENDBRANCH   2   3
ENDBRANCH   1   2
BRANCH   1  10
ATOM     10  C   UNL     1      27.159  37.571 147.382  1.00  0.00     0.000 C 
BRANCH  10  11
ATOM     11  C   UNL     1      26.979  39.097 147.462  1.00  0.00    -0.000 C 
BRANCH  11  12
ATOM     12  C   UNL     1      25.770  39.504 148.321  1.00  0.00    -0.000 C 
BRANCH  12  13
ATOM     13  C   UNL     1      24.551  39.899 147.470  1.00  0.00    -0.000 C 
BRANCH  13  14
ATOM     14  C   UNL     1      23.303  39.054 147.786  1.00  0.00    -0.000 C 
BRANCH  14  15
ATOM     15  C   UNL     1      23.590  37.696 148.451  1.00  0.00    -0.003 C 
ATOM     16  C   UNL     1      23.512  36.522 147.475  1.00  0.00     0.004 C 
ENDBRANCH  14  15
ENDBRANCH  13  14
ENDBRANCH  12  13
ENDBRANCH  11  12
ENDBRANCH  10  11
ENDBRANCH   1  10
TORSDOF 12
ENDMDL
MODEL 6
REMARK VINA RESULT:    -4.700      2.483      4.820
REMARK INTER + INTRA:          -9.586
REMARK INTER:                  -7.508
REMARK INTRA:                  -2.078
REMARK UNBOUND:                -1.589
REMARK SMILES CCCCCCCCCCCCCC(=O)[O-]
REMARK SMILES IDX 8 1 9 2 10 3 11 4 12 5 13 6 14 7 15 8 16 9 7 10 6 11 5 12
REMARK SMILES IDX 4 13 3 14 2 15 1 16
REMARK H PARENT
REMARK Flexibility Score: inf
ROOT
ATOM      1  C   UNL     1      25.451  40.699 147.417  1.00  0.00     0.000 C 
ENDROOT
BRANCH   1   2
ATOM      2  C   UNL     1      26.250  39.389 147.320  1.00  0.00     0.000 C 
BRANCH   2   3
ATOM      3  C   UNL     1      27.299  39.303 148.436  1.00  0.00     0.000 C 
BRANCH   3   4
ATOM      4  C   UNL     1      26.779  38.466 149.614  1.00  0.00     0.000 C 
BRANCH   4   5
ATOM      5  C   UNL     1      26.462  39.318 150.857  1.00  0.00     0.006 C 
BRANCH   5   6
ATOM      6  C   UNL     1      27.219  40.654 150.918  1.00  0.00     0.053 C 
BRANCH   6   7
ATOM      7  C   UNL     1      26.286  41.826 150.933  1.00  0.00     0.041 C 
ATOM      8  O   UNL     1      25.047  41.649 151.066  1.00  0.00    -0.550 OA
ATOM      9  O   UNL     1      26.784  43.112 150.769  1.00  0.00    -0.550 OA
ENDBRANCH   6   7
ENDBRANCH   5   6
ENDBRANCH   4   5
ENDBRANCH   3   4
ENDBRANCH   2   3
ENDBRANCH   1   2
BRANCH   1  10
ATOM     10  C   UNL     1      24.006  40.479 147.890  1.00  0.00     0.000 C 
BRANCH  10  11
ATOM     11  C   UNL     1      23.494  39.060 147.590  1.00  0.00    -0.000 C 
BRANCH  11  12
ATOM     12  C   UNL     1      23.120  38.287 148.866  1.00  0.00    -0.000 C 
BRANCH  12  13
ATOM     13  C   UNL     1      23.654  36.844 148.857  1.00  0.00    -0.000 C 
BRANCH  13  14
ATOM     14  C   UNL     1      24.157  36.402 147.470  1.00  0.00    -0.000 C 
BRANCH  14  15
ATOM     15  C   UNL     1      25.160  35.235 147.485  1.00  0.00    -0.003 C 
ATOM     16  C   UNL     1      26.572  35.653 147.077  1.00  0.00     0.004 C 
ENDBRANCH  14  15
ENDBRANCH  13  14
ENDBRANCH  12  13
ENDBRANCH  11  12
ENDBRANCH  10  11
ENDBRANCH   1  10
TORSDOF 12
ENDMDL
MODEL 7
REMARK VINA RESULT:    -4.695      2.111      4.440
REMARK INTER + INTRA:          -9.578
REMARK INTER:                  -7.605
REMARK INTRA:                  -1.974
REMARK UNBOUND:                -1.589
REMARK SMILES CCCCCCCCCCCCCC(=O)[O-]
REMARK SMILES IDX 8 1 9 2 10 3 11 4 12 5 13 6 14 7 15 8 16 9 7 10 6 11 5 12
REMARK SMILES IDX 4 13 3 14 2 15 1 16
REMARK H PARENT
REMARK Flexibility Score: inf
ROOT
ATOM      1  C   UNL     1      24.448  39.879 147.750  1.00  0.00     0.000 C 
ENDROOT
BRANCH   1   2
ATOM      2  C   UNL     1      23.499  38.680 147.592  1.00  0.00     0.000 C 
BRANCH   2   3
ATOM      3  C   UNL     1      23.270  37.980 148.937  1.00  0.00     0.000 C 
BRANCH   3   4
ATOM      4  C   UNL     1      23.732  36.517 148.880  1.00  0.00     0.000 C 
BRANCH   4   5
ATOM      5  C   UNL     1      23.852  35.984 147.439  1.00  0.00     0.006 C 
BRANCH   5   6
ATOM      6  C   UNL     1      23.890  34.452 147.333  1.00  0.00     0.053 C 
BRANCH   6   7
ATOM      7  C   UNL     1      24.573  33.824 148.509  1.00  0.00     0.041 C 
ATOM      8  O   UNL     1      23.894  33.313 149.438  1.00  0.00    -0.550 OA
ATOM      9  O   UNL     1      25.959  33.833 148.593  1.00  0.00    -0.550 OA
ENDBRANCH   6   7
ENDBRANCH   5   6
ENDBRANCH   4   5
ENDBRANCH   3   4
ENDBRANCH   2   3
ENDBRANCH   1   2
BRANCH   1  10
ATOM     10  C   UNL     1      24.350  40.535 149.136  1.00  0.00     0.000 C 
BRANCH  10  11
ATOM     11  C   UNL     1      25.718  40.668 149.827  1.00  0.00    -0.000 C 
BRANCH  11  12
ATOM     12  C   UNL     1      26.791  39.773 149.184  1.00  0.00    -0.000 C 
BRANCH  12  13
ATOM     13  C   UNL     1      27.059  38.497 150.001  1.00  0.00    -0.000 C 
BRANCH  13  14
ATOM     14  C   UNL     1      27.265  37.254 149.116  1.00  0.00    -0.000 C 
BRANCH  14  15
ATOM     15  C   UNL     1      27.224  37.521 147.601  1.00  0.00    -0.003 C 
ATOM     16  C   UNL     1      27.568  36.289 146.765  1.00  0.00     0.004 C 
ENDBRANCH  14  15
ENDBRANCH  13  14
ENDBRANCH  12  13
ENDBRANCH  11  12
ENDBRANCH  10  11
ENDBRANCH   1  10
TORSDOF 12
ENDMDL
MODEL 8
REMARK VINA RESULT:    -4.695      2.231      5.439
REMARK INTER + INTRA:          -9.578
REMARK INTER:                  -7.866
REMARK INTRA:                  -1.713
REMARK UNBOUND:                -1.589
REMARK SMILES CCCCCCCCCCCCCC(=O)[O-]
REMARK SMILES IDX 8 1 9 2 10 3 11 4 12 5 13 6 14 7 15 8 16 9 7 10 6 11 5 12
REMARK SMILES IDX 4 13 3 14 2 15 1 16
REMARK H PARENT
REMARK Flexibility Score: inf
ROOT
ATOM      1  C   UNL     1      25.017  36.860 147.395  1.00  0.00     0.000 C 
ENDROOT
BRANCH   1   2
ATOM      2  C   UNL     1      23.840  37.779 147.759  1.00  0.00     0.000 C 
BRANCH   2   3
ATOM      3  C   UNL     1      23.265  37.415 149.133  1.00  0.00     0.000 C 
BRANCH   3   4
ATOM      4  C   UNL     1      23.244  38.639 150.062  1.00  0.00     0.000 C 
BRANCH   4   5
ATOM      5  C   UNL     1      24.559  39.440 150.024  1.00  0.00     0.006 C 
BRANCH   5   6
ATOM      6  C   UNL     1      24.369  40.963 149.935  1.00  0.00     0.053 C 
BRANCH   6   7
ATOM      7  C   UNL     1      24.643  41.482 148.556  1.00  0.00     0.041 C 
ATOM      8  O   UNL     1      25.724  42.076 148.305  1.00  0.00    -0.550 OA
ATOM      9  O   UNL     1      23.689  41.337 147.557  1.00  0.00    -0.550 OA
ENDBRANCH   6   7
ENDBRANCH   5   6
ENDBRANCH   4   5
ENDBRANCH   3   4
ENDBRANCH   2   3
ENDBRANCH   1   2
BRANCH   1  10
ATOM     10  C   UNL     1      26.373  37.584 147.443  1.00  0.00     0.000 C 
BRANCH  10  11
ATOM     11  C   UNL     1      27.469  36.743 148.121  1.00  0.00    -0.000 C 
BRANCH  11  12
ATOM     12  C   UNL     1      27.253  36.607 149.638  1.00  0.00    -0.000 C 
BRANCH  12  13
ATOM     13  C   UNL     1      27.135  35.140 150.085  1.00  0.00    -0.000 C 
BRANCH  13  14
ATOM     14  C   UNL     1      27.175  34.151 148.905  1.00  0.00    -0.000 C 
BRANCH  14  15
ATOM     15  C   UNL     1      25.856  33.404 148.641  1.00  0.00    -0.003 C 
ATOM     16  C   UNL     1      24.737  33.805 149.601  1.00  0.00     0.004 C 
ENDBRANCH  14  15
ENDBRANCH  13  14
ENDBRANCH  12  13
ENDBRANCH  11  12
ENDBRANCH  10  11
ENDBRANCH   1  10
TORSDOF 12
ENDMDL
MODEL 9
REMARK VINA RESULT:    -4.671      2.404      4.522
REMARK INTER + INTRA:          -9.537
REMARK INTER:                  -7.991
REMARK INTRA:                  -1.546
REMARK UNBOUND:                -1.589
REMARK SMILES CCCCCCCCCCCCCC(=O)[O-]
REMARK SMILES IDX 8 1 9 2 10 3 11 4 12 5 13 6 14 7 15 8 16 9 7 10 6 11 5 12
REMARK SMILES IDX 4 13 3 14 2 15 1 16
REMARK H PARENT
REMARK Flexibility Score: inf
ROOT
ATOM      1  C   UNL     1      24.777  39.311 147.416  1.00  0.00     0.000 C 
ENDROOT
BRANCH   1   2
ATOM      2  C   UNL     1      23.390  39.016 148.011  1.00  0.00     0.000 C 
BRANCH   2   3
ATOM      3  C   UNL     1      23.258  37.535 148.386  1.00  0.00     0.000 C 
BRANCH   3   4
ATOM      4  C   UNL     1      24.158  36.662 147.500  1.00  0.00     0.000 C 
BRANCH   4   5
ATOM      5  C   UNL     1      23.524  35.298 147.165  1.00  0.00     0.006 C 
BRANCH   5   6
ATOM      6  C   UNL     1      24.511  34.120 147.185  1.00  0.00     0.053 C 
BRANCH   6   7
ATOM      7  C   UNL     1      24.398  33.314 148.442  1.00  0.00     0.041 C 
ATOM      8  O   UNL     1      24.177  32.076 148.384  1.00  0.00    -0.550 OA
ATOM      9  O   UNL     1      24.504  33.937 149.679  1.00  0.00    -0.550 OA
ENDBRANCH   6   7
ENDBRANCH   5   6
ENDBRANCH   4   5
ENDBRANCH   3   4
ENDBRANCH   2   3
ENDBRANCH   1   2
BRANCH   1  10
ATOM     10  C   UNL     1      25.293  40.712 147.778  1.00  0.00     0.000 C 
BRANCH  10  11
ATOM     11  C   UNL     1      24.637  41.274 149.051  1.00  0.00    -0.000 C 
BRANCH  11  12
ATOM     12  C   UNL     1      25.587  41.257 150.261  1.00  0.00    -0.000 C 
BRANCH  12  13
ATOM     13  C   UNL     1      25.688  39.866 150.909  1.00  0.00    -0.000 C 
BRANCH  13  14
ATOM     14  C   UNL     1      27.073  39.219 150.721  1.00  0.00    -0.000 C 
BRANCH  14  15
ATOM     15  C   UNL     1      27.064  37.873 149.976  1.00  0.00    -0.003 C 
ATOM     16  C   UNL     1      27.994  37.854 148.763  1.00  0.00     0.004 C 
ENDBRANCH  14  15
ENDBRANCH  13  14
ENDBRANCH  12  13
ENDBRANCH  11  12
ENDBRANCH  10  11
ENDBRANCH   1  10
TORSDOF 12
ENDMDL
