MODEL 1
REMARK VINA RESULT:    -2.720      0.000      0.000
REMARK INTER + INTRA:          -3.661
REMARK INTER:                  -3.356
REMARK INTRA:                  -0.305
REMARK UNBOUND:                -0.305
REMARK SMILES C=CCc1ccc(OC)c(OC)c1
REMARK SMILES IDX 7 1 10 2 13 3 4 4 5 5 6 6 8 7 9 8 11 9 12 10 3 11 2 12 1 13
REMARK H PARENT
REMARK Flexibility Score: inf
ROOT
ATOM      1  C   UNL     1     145.029 145.341 139.717  1.00  0.00     0.160 A 
ATOM      2  C   UNL     1     143.986 145.798 138.897  1.00  0.00     0.160 A 
ATOM      3  C   UNL     1     142.874 144.968 138.657  1.00  0.00     0.054 A 
ATOM      4  C   UNL     1     142.798 143.692 139.234  1.00  0.00    -0.040 A 
ATOM      5  C   UNL     1     143.849 143.239 140.042  1.00  0.00     0.008 A 
ATOM      6  C   UNL     1     144.954 144.056 140.287  1.00  0.00     0.051 A 
ENDROOT
BRANCH   1   7
ATOM      7  O   UNL     1     146.124 146.191 139.941  1.00  0.00    -0.493 OA
ATOM      8  C   UNL     1     146.359 146.900 141.153  1.00  0.00     0.278 C 
ENDBRANCH   1   7
BRANCH   2   9
ATOM      9  O   UNL     1     144.092 147.082 138.338  1.00  0.00    -0.493 OA
ATOM     10  C   UNL     1     143.060 148.062 138.366  1.00  0.00     0.278 C 
ENDBRANCH   2   9
BRANCH   4  11
ATOM     11  C   UNL     1     141.623 142.794 138.949  1.00  0.00     0.062 C 
BRANCH  11  12
ATOM     12  C   UNL     1     141.700 142.242 137.553  1.00  0.00    -0.030 C 
ATOM     13  C   UNL     1     142.099 140.990 137.314  1.00  0.00     0.004 C 
ENDBRANCH  11  12
ENDBRANCH   4  11
TORSDOF 4
ENDMDL
MODEL 2
REMARK VINA RESULT:    -2.712     10.632     11.962
REMARK INTER + INTRA:          -3.651
REMARK INTER:                  -3.373
REMARK INTRA:                  -0.277
REMARK UNBOUND:                -0.305
REMARK SMILES C=CCc1ccc(OC)c(OC)c1
REMARK SMILES IDX 7 1 10 2 13 3 4 4 5 5 6 6 8 7 9 8 11 9 12 10 3 11 2 12 1 13
REMARK H PARENT
REMARK Flexibility Score: inf
ROOT
ATOM      1  C   UNL     1     132.317 146.500 139.252  1.00  0.00     0.160 A 
ATOM      2  C   UNL     1     131.461 145.897 138.317  1.00  0.00     0.160 A 
ATOM      3  C   UNL     1     131.753 144.605 137.838  1.00  0.00     0.054 A 
ATOM      4  C   UNL     1     132.888 143.915 138.290  1.00  0.00    -0.040 A 
ATOM      5  C   UNL     1     133.742 144.529 139.215  1.00  0.00     0.008 A 
ATOM      6  C   UNL     1     133.460 145.808 139.696  1.00  0.00     0.051 A 
ENDROOT
BRANCH   1   7
ATOM      7  O   UNL     1     131.999 147.787 139.713  1.00  0.00    -0.493 OA
ATOM      8  C   UNL     1     131.610 148.092 141.049  1.00  0.00     0.278 C 
ENDBRANCH   1   7
BRANCH   2   9
ATOM      9  O   UNL     1     130.333 146.613 137.887  1.00  0.00    -0.493 OA
ATOM     10  C   UNL     1     128.986 146.235 138.154  1.00  0.00     0.278 C 
ENDBRANCH   2   9
BRANCH   4  11
ATOM     11  C   UNL     1     133.215 142.547 137.752  1.00  0.00     0.062 C 
BRANCH  11  12
ATOM     12  C   UNL     1     132.583 142.341 136.403  1.00  0.00    -0.030 C 
ATOM     13  C   UNL     1     131.821 141.276 136.140  1.00  0.00     0.004 C 
ENDBRANCH  11  12
ENDBRANCH   4  11
TORSDOF 4
ENDMDL
MODEL 3
REMARK VINA RESULT:    -2.675      1.801      3.283
REMARK INTER + INTRA:          -3.605
REMARK INTER:                  -3.271
REMARK INTRA:                  -0.334
REMARK UNBOUND:                -0.305
REMARK SMILES C=CCc1ccc(OC)c(OC)c1
REMARK SMILES IDX 7 1 10 2 13 3 4 4 5 5 6 6 8 7 9 8 11 9 12 10 3 11 2 12 1 13
REMARK H PARENT
REMARK Flexibility Score: inf
ROOT
ATOM      1  C   UNL     1     144.749 145.564 139.411  1.00  0.00     0.160 A 
ATOM      2  C   UNL     1     144.211 144.323 139.789  1.00  0.00     0.160 A 
ATOM      3  C   UNL     1     142.989 143.896 139.235  1.00  0.00     0.054 A 
ATOM      4  C   UNL     1     142.307 144.696 138.307  1.00  0.00    -0.040 A 
ATOM      5  C   UNL     1     142.845 145.937 137.943  1.00  0.00     0.008 A 
ATOM      6  C   UNL     1     144.057 146.368 138.485  1.00  0.00     0.051 A 
ENDROOT
BRANCH   1   7
ATOM      7  O   UNL     1     145.970 145.962 139.977  1.00  0.00    -0.493 OA
ATOM      8  C   UNL     1     146.094 146.837 141.094  1.00  0.00     0.278 C 
ENDBRANCH   1   7
BRANCH   2   9
ATOM      9  O   UNL     1     144.921 143.545 140.718  1.00  0.00    -0.493 OA
ATOM     10  C   UNL     1     145.131 142.142 140.603  1.00  0.00     0.278 C 
ENDBRANCH   2   9
BRANCH   4  11
ATOM     11  C   UNL     1     140.984 144.251 137.741  1.00  0.00     0.062 C 
BRANCH  11  12
ATOM     12  C   UNL     1     139.952 145.334 137.885  1.00  0.00    -0.030 C 
ATOM     13  C   UNL     1     139.217 145.462 138.993  1.00  0.00     0.004 C 
ENDBRANCH  11  12
ENDBRANCH   4  11
TORSDOF 4
ENDMDL
MODEL 4
REMARK VINA RESULT:    -2.583     11.719     13.618
REMARK INTER + INTRA:          -3.492
REMARK INTER:                  -3.188
REMARK INTRA:                  -0.303
REMARK UNBOUND:                -0.305
REMARK SMILES C=CCc1ccc(OC)c(OC)c1
REMARK SMILES IDX 7 1 10 2 13 3 4 4 5 5 6 6 8 7 9 8 11 9 12 10 3 11 2 12 1 13
REMARK H PARENT
REMARK Flexibility Score: inf
ROOT
ATOM      1  C   UNL     1     131.337 141.963 138.563  1.00  0.00     0.160 A 
ATOM      2  C   UNL     1     130.202 142.692 138.951  1.00  0.00     0.160 A 
ATOM      3  C   UNL     1     130.190 144.093 138.803  1.00  0.00     0.054 A 
ATOM      4  C   UNL     1     131.299 144.763 138.266  1.00  0.00    -0.040 A 
ATOM      5  C   UNL     1     132.431 144.029 137.892  1.00  0.00     0.008 A 
ATOM      6  C   UNL     1     132.451 142.641 138.033  1.00  0.00     0.051 A 
ENDROOT
BRANCH   1   7
ATOM      7  O   UNL     1     131.319 140.568 138.719  1.00  0.00    -0.493 OA
ATOM      8  C   UNL     1     132.005 139.652 137.872  1.00  0.00     0.278 C 
ENDBRANCH   1   7
BRANCH   2   9
ATOM      9  O   UNL     1     129.108 141.990 139.481  1.00  0.00    -0.493 OA
ATOM     10  C   UNL     1     127.882 141.765 138.792  1.00  0.00     0.278 C 
ENDBRANCH   2   9
BRANCH   4  11
ATOM     11  C   UNL     1     131.295 146.264 138.140  1.00  0.00     0.062 C 
BRANCH  11  12
ATOM     12  C   UNL     1     131.710 146.909 139.432  1.00  0.00    -0.030 C 
ATOM     13  C   UNL     1     132.977 147.260 139.668  1.00  0.00     0.004 C 
ENDBRANCH  11  12
ENDBRANCH   4  11
TORSDOF 4
ENDMDL
MODEL 5
REMARK VINA RESULT:    -2.556     12.155     14.309
REMARK INTER + INTRA:          -3.458
REMARK INTER:                  -3.173
REMARK INTRA:                  -0.286
REMARK UNBOUND:                -0.305
REMARK SMILES C=CCc1ccc(OC)c(OC)c1
REMARK SMILES IDX 7 1 10 2 13 3 4 4 5 5 6 6 8 7 9 8 11 9 12 10 3 11 2 12 1 13
REMARK H PARENT
REMARK Flexibility Score: inf
ROOT
ATOM      1  C   UNL     1     129.261 142.716 138.825  1.00  0.00     0.160 A 
ATOM      2  C   UNL     1     130.633 142.743 138.525  1.00  0.00     0.160 A 
ATOM      3  C   UNL     1     131.284 143.980 138.354  1.00  0.00     0.054 A 
ATOM      4  C   UNL     1     130.576 145.184 138.486  1.00  0.00    -0.040 A 
ATOM      5  C   UNL     1     129.206 145.147 138.775  1.00  0.00     0.008 A 
ATOM      6  C   UNL     1     128.553 143.926 138.948  1.00  0.00     0.051 A 
ENDROOT
BRANCH   1   7
ATOM      7  O   UNL     1     128.640 141.468 138.993  1.00  0.00    -0.493 OA
ATOM      8  C   UNL     1     128.208 140.944 140.244  1.00  0.00     0.278 C 
ENDBRANCH   1   7
BRANCH   2   9
ATOM      9  O   UNL     1     131.312 141.520 138.403  1.00  0.00    -0.493 OA
ATOM     10  C   UNL     1     131.699 140.931 137.166  1.00  0.00     0.278 C 
ENDBRANCH   2   9
BRANCH   4  11
ATOM     11  C   UNL     1     131.268 146.504 138.271  1.00  0.00     0.062 C 
BRANCH  11  12
ATOM     12  C   UNL     1     131.860 147.010 139.556  1.00  0.00    -0.030 C 
ATOM     13  C   UNL     1     133.173 147.222 139.690  1.00  0.00     0.004 C 
ENDBRANCH  11  12
ENDBRANCH   4  11
TORSDOF 4
ENDMDL
MODEL 6
REMARK VINA RESULT:    -2.546      2.178      5.373
REMARK INTER + INTRA:          -3.446
REMARK INTER:                  -3.191
REMARK INTRA:                  -0.255
REMARK UNBOUND:                -0.305
REMARK SMILES C=CCc1ccc(OC)c(OC)c1
REMARK SMILES IDX 7 1 10 2 13 3 4 4 5 5 6 6 8 7 9 8 11 9 12 10 3 11 2 12 1 13
REMARK H PARENT
REMARK Flexibility Score: inf
ROOT
ATOM      1  C   UNL     1     142.191 144.861 138.112  1.00  0.00     0.160 A 
ATOM      2  C   UNL     1     142.785 143.986 139.036  1.00  0.00     0.160 A 
ATOM      3  C   UNL     1     143.998 144.345 139.656  1.00  0.00     0.054 A 
ATOM      4  C   UNL     1     144.614 145.571 139.362  1.00  0.00    -0.040 A 
ATOM      5  C   UNL     1     144.020 146.433 138.431  1.00  0.00     0.008 A 
ATOM      6  C   UNL     1     142.817 146.086 137.813  1.00  0.00     0.051 A 
ENDROOT
BRANCH   1   7
ATOM      7  O   UNL     1     140.981 144.477 137.513  1.00  0.00    -0.493 OA
ATOM      8  C   UNL     1     139.731 145.120 137.736  1.00  0.00     0.278 C 
ENDBRANCH   1   7
BRANCH   2   9
ATOM      9  O   UNL     1     142.141 142.769 139.310  1.00  0.00    -0.493 OA
ATOM     10  C   UNL     1     142.528 141.510 138.768  1.00  0.00     0.278 C 
ENDBRANCH   2   9
BRANCH   4  11
ATOM     11  C   UNL     1     145.927 145.938 140.002  1.00  0.00     0.062 C 
BRANCH  11  12
ATOM     12  C   UNL     1     145.702 146.649 141.307  1.00  0.00    -0.030 C 
ATOM     13  C   UNL     1     146.625 147.459 141.833  1.00  0.00     0.004 C 
ENDBRANCH  11  12
ENDBRANCH   4  11
TORSDOF 4
ENDMDL
MODEL 7
REMARK VINA RESULT:    -2.526      9.624     11.175
REMARK INTER + INTRA:          -3.422
REMARK INTER:                  -3.174
REMARK INTRA:                  -0.248
REMARK UNBOUND:                -0.305
REMARK SMILES C=CCc1ccc(OC)c(OC)c1
REMARK SMILES IDX 7 1 10 2 13 3 4 4 5 5 6 6 8 7 9 8 11 9 12 10 3 11 2 12 1 13
REMARK H PARENT
REMARK Flexibility Score: inf
ROOT
ATOM      1  C   UNL     1     132.466 146.522 139.379  1.00  0.00     0.160 A 
ATOM      2  C   UNL     1     133.559 145.740 139.787  1.00  0.00     0.160 A 
ATOM      3  C   UNL     1     133.724 144.444 139.259  1.00  0.00     0.054 A 
ATOM      4  C   UNL     1     132.808 143.931 138.328  1.00  0.00    -0.040 A 
ATOM      5  C   UNL     1     131.715 144.714 137.935  1.00  0.00     0.008 A 
ATOM      6  C   UNL     1     131.545 145.999 138.451  1.00  0.00     0.051 A 
ENDROOT
BRANCH   1   7
ATOM      7  O   UNL     1     132.330 147.810 139.919  1.00  0.00    -0.493 OA
ATOM      8  C   UNL     1     131.554 148.123 141.071  1.00  0.00     0.278 C 
ENDBRANCH   1   7
BRANCH   2   9
ATOM      9  O   UNL     1     134.458 146.285 140.717  1.00  0.00    -0.493 OA
ATOM     10  C   UNL     1     135.875 146.207 140.613  1.00  0.00     0.278 C 
ENDBRANCH   2   9
BRANCH   4  11
ATOM     11  C   UNL     1     132.969 142.533 137.790  1.00  0.00     0.062 C 
BRANCH  11  12
ATOM     12  C   UNL     1     132.559 142.468 136.346  1.00  0.00    -0.030 C 
ATOM     13  C   UNL     1     132.519 141.311 135.679  1.00  0.00     0.004 C 
ENDBRANCH  11  12
ENDBRANCH   4  11
TORSDOF 4
ENDMDL
MODEL 8
REMARK VINA RESULT:    -2.498      6.838      8.735
REMARK INTER + INTRA:          -3.387
REMARK INTER:                  -3.077
REMARK INTRA:                  -0.309
REMARK UNBOUND:                -0.305
REMARK SMILES C=CCc1ccc(OC)c(OC)c1
REMARK SMILES IDX 7 1 10 2 13 3 4 4 5 5 6 6 8 7 9 8 11 9 12 10 3 11 2 12 1 13
REMARK H PARENT
REMARK Flexibility Score: inf
ROOT
ATOM      1  C   UNL     1     145.440 138.109 137.818  1.00  0.00     0.160 A 
ATOM      2  C   UNL     1     146.607 138.407 138.538  1.00  0.00     0.160 A 
ATOM      3  C   UNL     1     147.484 137.367 138.904  1.00  0.00     0.054 A 
ATOM      4  C   UNL     1     147.202 136.039 138.553  1.00  0.00    -0.040 A 
ATOM      5  C   UNL     1     146.029 135.750 137.844  1.00  0.00     0.008 A 
ATOM      6  C   UNL     1     145.156 136.774 137.475  1.00  0.00     0.051 A 
ENDROOT
BRANCH   1   7
ATOM      7  O   UNL     1     144.587 139.167 137.464  1.00  0.00    -0.493 OA
ATOM      8  C   UNL     1     143.400 139.516 138.168  1.00  0.00     0.278 C 
ENDBRANCH   1   7
BRANCH   2   9
ATOM      9  O   UNL     1     146.861 139.747 138.871  1.00  0.00    -0.493 OA
ATOM     10  C   UNL     1     146.680 140.305 140.168  1.00  0.00     0.278 C 
ENDBRANCH   2   9
BRANCH   4  11
ATOM     11  C   UNL     1     148.124 134.925 138.974  1.00  0.00     0.062 C 
BRANCH  11  12
ATOM     12  C   UNL     1     147.339 133.725 139.424  1.00  0.00    -0.030 C 
ATOM     13  C   UNL     1     147.905 132.736 140.121  1.00  0.00     0.004 C 
ENDBRANCH  11  12
ENDBRANCH   4  11
TORSDOF 4
ENDMDL
MODEL 9
REMARK VINA RESULT:    -2.481      9.781     11.733
REMARK INTER + INTRA:          -3.367
REMARK INTER:                  -3.081
REMARK INTRA:                  -0.286
REMARK UNBOUND:                -0.305
REMARK SMILES C=CCc1ccc(OC)c(OC)c1
REMARK SMILES IDX 7 1 10 2 13 3 4 4 5 5 6 6 8 7 9 8 11 9 12 10 3 11 2 12 1 13
REMARK H PARENT
REMARK Flexibility Score: inf
ROOT
ATOM      1  C   UNL     1     131.723 145.963 138.546  1.00  0.00     0.160 A 
ATOM      2  C   UNL     1     132.339 144.701 138.541  1.00  0.00     0.160 A 
ATOM      3  C   UNL     1     133.511 144.496 139.295  1.00  0.00     0.054 A 
ATOM      4  C   UNL     1     134.064 145.538 140.053  1.00  0.00    -0.040 A 
ATOM      5  C   UNL     1     133.449 146.797 140.043  1.00  0.00     0.008 A 
ATOM      6  C   UNL     1     132.287 147.009 139.301  1.00  0.00     0.051 A 
ENDROOT
BRANCH   1   7
ATOM      7  O   UNL     1     130.554 146.137 137.788  1.00  0.00    -0.493 OA
ATOM      8  C   UNL     1     129.234 146.087 138.319  1.00  0.00     0.278 C 
ENDBRANCH   1   7
BRANCH   2   9
ATOM      9  O   UNL     1     131.757 143.679 137.774  1.00  0.00    -0.493 OA
ATOM     10  C   UNL     1     132.464 142.864 136.846  1.00  0.00     0.278 C 
ENDBRANCH   2   9
BRANCH   4  11
ATOM     11  C   UNL     1     135.336 145.324 140.831  1.00  0.00     0.062 C 
BRANCH  11  12
ATOM     12  C   UNL     1     136.328 146.415 140.542  1.00  0.00    -0.030 C 
ATOM     13  C   UNL     1     137.565 146.146 140.118  1.00  0.00     0.004 C 
ENDBRANCH  11  12
ENDBRANCH   4  11
TORSDOF 4
ENDMDL
