MODEL 1
REMARK VINA RESULT:    -1.728      0.000      0.000
REMARK INTER + INTRA:          -1.728
REMARK INTER:                  -1.728
REMARK INTRA:                   0.000
REMARK UNBOUND:                 0.000
REMARK SMILES CC(=O)[O-]
REMARK SMILES IDX 1 1 2 2 3 3 4 4
REMARK H PARENT
REMARK Flexibility Score: inf
ROOT
ATOM      1  C   UNL     1     -34.888  17.801  18.313  1.00  0.00     0.063 C 
ATOM      2  C   UNL     1     -35.789  16.717  17.825  1.00  0.00     0.038 C 
ATOM      3  O   UNL     1     -35.378  15.894  16.965  1.00  0.00    -0.550 OA
ATOM      4  O   UNL     1     -37.100  16.645  18.277  1.00  0.00    -0.550 OA
ENDROOT
TORSDOF 0
ENDMDL
MODEL 2
REMARK VINA RESULT:    -1.465      1.404      1.771
REMARK INTER + INTRA:          -1.465
REMARK INTER:                  -1.465
REMARK INTRA:                   0.000
REMARK UNBOUND:                 0.000
REMARK SMILES CC(=O)[O-]
REMARK SMILES IDX 1 1 2 2 3 3 4 4
REMARK H PARENT
REMARK Flexibility Score: inf
ROOT
ATOM      1  C   UNL     1     -37.114  16.498  18.212  1.00  0.00     0.063 C 
ATOM      2  C   UNL     1     -35.709  16.772  17.791  1.00  0.00     0.038 C 
ATOM      3  O   UNL     1     -35.154  16.038  16.932  1.00  0.00    -0.550 OA
ATOM      4  O   UNL     1     -34.993  17.803  18.384  1.00  0.00    -0.550 OA
ENDROOT
TORSDOF 0
ENDMDL
MODEL 3
REMARK VINA RESULT:    -1.288      1.428      2.054
REMARK INTER + INTRA:          -1.288
REMARK INTER:                  -1.288
REMARK INTRA:                   0.000
REMARK UNBOUND:                 0.000
REMARK SMILES CC(=O)[O-]
REMARK SMILES IDX 1 1 2 2 3 3 4 4
REMARK H PARENT
REMARK Flexibility Score: inf
ROOT
ATOM      1  C   UNL     1     -35.185  15.893  16.933  1.00  0.00     0.063 C 
ATOM      2  C   UNL     1     -35.741  16.873  17.911  1.00  0.00     0.038 C 
ATOM      3  O   UNL     1     -36.939  16.779  18.287  1.00  0.00    -0.550 OA
ATOM      4  O   UNL     1     -34.956  17.924  18.367  1.00  0.00    -0.550 OA
ENDROOT
TORSDOF 0
ENDMDL
MODEL 4
REMARK VINA RESULT:    -1.196     14.843     15.366
REMARK INTER + INTRA:          -1.196
REMARK INTER:                  -1.196
REMARK INTRA:                   0.000
REMARK UNBOUND:                 0.000
REMARK SMILES CC(=O)[O-]
REMARK SMILES IDX 1 1 2 2 3 3 4 4
REMARK H PARENT
REMARK Flexibility Score: inf
ROOT
ATOM      1  C   UNL     1     -41.023  17.637  32.868  1.00  0.00     0.063 C 
ATOM      2  C   UNL     1     -39.679  18.162  32.488  1.00  0.00     0.038 C 
ATOM      3  O   UNL     1     -39.175  19.124  33.125  1.00  0.00    -0.550 OA
ATOM      4  O   UNL     1     -39.005  17.628  31.399  1.00  0.00    -0.550 OA
ENDROOT
TORSDOF 0
ENDMDL
MODEL 5
REMARK VINA RESULT:    -0.533      4.910      5.542
REMARK INTER + INTRA:          -0.533
REMARK INTER:                  -0.533
REMARK INTRA:                   0.000
REMARK UNBOUND:                 0.000
REMARK SMILES CC(=O)[O-]
REMARK SMILES IDX 1 1 2 2 3 3 4 4
REMARK H PARENT
REMARK Flexibility Score: inf
ROOT
ATOM      1  C   UNL     1     -33.207  11.841  19.281  1.00  0.00     0.063 C 
ATOM      2  C   UNL     1     -33.051  12.415  17.913  1.00  0.00     0.038 C 
ATOM      3  O   UNL     1     -34.068  12.699  17.228  1.00  0.00    -0.550 OA
ATOM      4  O   UNL     1     -31.784  12.586  17.369  1.00  0.00    -0.550 OA
ENDROOT
TORSDOF 0
ENDMDL
MODEL 6
REMARK VINA RESULT:    -0.162     14.714     15.162
REMARK INTER + INTRA:          -0.162
REMARK INTER:                  -0.162
REMARK INTRA:                   0.000
REMARK UNBOUND:                 0.000
REMARK SMILES CC(=O)[O-]
REMARK SMILES IDX 1 1 2 2 3 3 4 4
REMARK H PARENT
REMARK Flexibility Score: inf
ROOT
ATOM      1  C   UNL     1     -38.913  17.634  31.252  1.00  0.00     0.063 C 
ATOM      2  C   UNL     1     -39.870  18.011  32.332  1.00  0.00     0.038 C 
ATOM      3  O   UNL     1     -40.929  17.351  32.496  1.00  0.00    -0.550 OA
ATOM      4  O   UNL     1     -39.622  19.124  33.125  1.00  0.00    -0.550 OA
ENDROOT
TORSDOF 0
ENDMDL
MODEL 7
REMARK VINA RESULT:     0.042      5.040      5.435
REMARK INTER + INTRA:           0.042
REMARK INTER:                   0.042
REMARK INTRA:                   0.000
REMARK UNBOUND:                 0.000
REMARK SMILES CC(=O)[O-]
REMARK SMILES IDX 1 1 2 2 3 3 4 4
REMARK H PARENT
REMARK Flexibility Score: inf
ROOT
ATOM      1  C   UNL     1     -31.687  12.454  17.567  1.00  0.00     0.063 C 
ATOM      2  C   UNL     1     -33.048  12.324  18.164  1.00  0.00     0.038 C 
ATOM      3  O   UNL     1     -34.064  12.653  17.498  1.00  0.00    -0.550 OA
ATOM      4  O   UNL     1     -33.194  11.890  19.475  1.00  0.00    -0.550 OA
ENDROOT
TORSDOF 0
ENDMDL
MODEL 8
REMARK VINA RESULT:     0.055      5.320      5.500
REMARK INTER + INTRA:           0.055
REMARK INTER:                   0.055
REMARK INTRA:                   0.000
REMARK UNBOUND:                 0.000
REMARK SMILES CC(=O)[O-]
REMARK SMILES IDX 1 1 2 2 3 3 4 4
REMARK H PARENT
REMARK Flexibility Score: inf
ROOT
ATOM      1  C   UNL     1     -34.020  12.699  17.192  1.00  0.00     0.063 C 
ATOM      2  C   UNL     1     -32.912  12.347  18.126  1.00  0.00     0.038 C 
ATOM      3  O   UNL     1     -31.714  12.496  17.768  1.00  0.00    -0.550 OA
ATOM      4  O   UNL     1     -33.196  11.804  19.372  1.00  0.00    -0.550 OA
ENDROOT
TORSDOF 0
ENDMDL
MODEL 9
REMARK VINA RESULT:     0.653     20.724     21.059
REMARK INTER + INTRA:           0.653
REMARK INTER:                   0.653
REMARK INTRA:                   0.000
REMARK UNBOUND:                 0.000
REMARK SMILES CC(=O)[O-]
REMARK SMILES IDX 1 1 2 2 3 3 4 4
REMARK H PARENT
REMARK Flexibility Score: inf
ROOT
ATOM      1  C   UNL     1     -20.877   4.771  25.623  1.00  0.00     0.063 C 
ATOM      2  C   UNL     1     -21.569   3.450  25.625  1.00  0.00     0.038 C 
ATOM      3  O   UNL     1     -22.770   3.368  25.993  1.00  0.00    -0.550 OA
ATOM      4  O   UNL     1     -20.876   2.299  25.275  1.00  0.00    -0.550 OA
ENDROOT
TORSDOF 0
ENDMDL
