MODEL 1
REMARK VINA RESULT:    -5.034      0.000      0.000
REMARK INTER + INTRA:          -5.034
REMARK INTER:                  -5.034
REMARK INTRA:                   0.000
REMARK UNBOUND:                 0.000
REMARK SMILES C=C1CCC[C@]2(C)CC(=O)C(=C(C)C)C[C@H]12
REMARK SMILES IDX 13 1 12 2 11 3 15 4 16 5 2 6 1 7 3 8 4 9 5 10 6 11 8 12 9 13
REMARK SMILES IDX 10 14 7 15 14 16
REMARK H PARENT
REMARK Flexibility Score: inf
ROOT
ATOM      1  C   UNL     1    -126.506-100.478   2.781  1.00  0.00     0.039 C 
ATOM      2  C   UNL     1    -125.360-100.081   3.681  1.00  0.00    -0.070 C 
ATOM      3  C   UNL     1    -124.064-100.219   3.282  1.00  0.00    -0.006 C 
ATOM      4  C   UNL     1    -123.694-100.779   1.923  1.00  0.00     0.047 C 
ATOM      5  C   UNL     1    -122.418-100.137   1.319  1.00  0.00     0.025 C 
ATOM      6  C   UNL     1    -122.009-100.932   0.089  1.00  0.00    -0.073 C 
ATOM      7  C   UNL     1    -122.348-100.512  -1.139  1.00  0.00     0.008 C 
ATOM      8  C   UNL     1    -121.353-102.283   0.282  1.00  0.00     0.031 C 
ATOM      9  C   UNL     1    -120.237-102.226   1.334  1.00  0.00     0.005 C 
ATOM     10  C   UNL     1    -120.660-101.475   2.609  1.00  0.00     0.008 C 
ATOM     11  C   UNL     1    -121.220-100.051   2.317  1.00  0.00    -0.018 C 
ATOM     12  C   UNL     1    -121.667 -99.372   3.638  1.00  0.00     0.088 C 
ATOM     13  C   UNL     1    -122.924 -99.963   4.192  1.00  0.00     0.159 C 
ATOM     14  O   UNL     1    -122.993-100.233   5.421  1.00  0.00    -0.295 OA
ATOM     15  C   UNL     1    -120.100 -99.161   1.713  1.00  0.00     0.012 C 
ATOM     16  C   UNL     1    -125.712 -99.488   5.027  1.00  0.00     0.039 C 
ENDROOT
TORSDOF 0
ENDMDL
MODEL 2
REMARK VINA RESULT:    -4.960      1.588      3.184
REMARK INTER + INTRA:          -4.960
REMARK INTER:                  -4.960
REMARK INTRA:                   0.000
REMARK UNBOUND:                 0.000
REMARK SMILES C=C1CCC[C@]2(C)CC(=O)C(=C(C)C)C[C@H]12
REMARK SMILES IDX 13 1 12 2 11 3 15 4 16 5 2 6 1 7 3 8 4 9 5 10 6 11 8 12 9 13
REMARK SMILES IDX 10 14 7 15 14 16
REMARK H PARENT
REMARK Flexibility Score: inf
ROOT
ATOM      1  C   UNL     1    -122.134 -99.354   5.485  1.00  0.00     0.039 C 
ATOM      2  C   UNL     1    -123.269 -99.779   4.584  1.00  0.00    -0.070 C 
ATOM      3  C   UNL     1    -123.042-100.210   3.311  1.00  0.00    -0.006 C 
ATOM      4  C   UNL     1    -121.647-100.285   2.723  1.00  0.00     0.047 C 
ATOM      5  C   UNL     1    -121.457-101.468   1.738  1.00  0.00     0.025 C 
ATOM      6  C   UNL     1    -120.119-101.305   1.034  1.00  0.00    -0.073 C 
ATOM      7  C   UNL     1    -119.037-101.975   1.460  1.00  0.00     0.008 C 
ATOM      8  C   UNL     1    -119.992-100.258  -0.052  1.00  0.00     0.031 C 
ATOM      9  C   UNL     1    -121.165-100.322  -1.040  1.00  0.00     0.005 C 
ATOM     10  C   UNL     1    -122.531-100.426  -0.337  1.00  0.00     0.008 C 
ATOM     11  C   UNL     1    -122.599-101.603   0.682  1.00  0.00    -0.018 C 
ATOM     12  C   UNL     1    -123.983-101.621   1.384  1.00  0.00     0.088 C 
ATOM     13  C   UNL     1    -124.143-100.506   2.367  1.00  0.00     0.159 C 
ATOM     14  O   UNL     1    -125.212 -99.837   2.375  1.00  0.00    -0.295 OA
ATOM     15  C   UNL     1    -122.460-102.955  -0.069  1.00  0.00     0.012 C 
ATOM     16  C   UNL     1    -124.664 -99.744   5.167  1.00  0.00     0.039 C 
ENDROOT
TORSDOF 0
ENDMDL
MODEL 3
REMARK VINA RESULT:    -4.563      4.108      7.046
REMARK INTER + INTRA:          -4.563
REMARK INTER:                  -4.563
REMARK INTRA:                   0.000
REMARK UNBOUND:                 0.000
REMARK SMILES C=C1CCC[C@]2(C)CC(=O)C(=C(C)C)C[C@H]12
REMARK SMILES IDX 13 1 12 2 11 3 15 4 16 5 2 6 1 7 3 8 4 9 5 10 6 11 8 12 9 13
REMARK SMILES IDX 10 14 7 15 14 16
REMARK H PARENT
REMARK Flexibility Score: inf
ROOT
ATOM      1  C   UNL     1    -115.506 -97.498   2.032  1.00  0.00     0.039 C 
ATOM      2  C   UNL     1    -115.478 -98.275   0.737  1.00  0.00    -0.070 C 
ATOM      3  C   UNL     1    -116.499 -99.108   0.387  1.00  0.00    -0.006 C 
ATOM      4  C   UNL     1    -117.713 -99.309   1.271  1.00  0.00     0.047 C 
ATOM      5  C   UNL     1    -119.024 -99.538   0.473  1.00  0.00     0.025 C 
ATOM      6  C   UNL     1    -120.116 -99.964   1.443  1.00  0.00    -0.073 C 
ATOM      7  C   UNL     1    -120.999 -99.071   1.913  1.00  0.00     0.008 C 
ATOM      8  C   UNL     1    -120.090-101.377   1.990  1.00  0.00     0.031 C 
ATOM      9  C   UNL     1    -119.864-102.410   0.878  1.00  0.00     0.005 C 
ATOM     10  C   UNL     1    -118.720-102.018  -0.075  1.00  0.00     0.008 C 
ATOM     11  C   UNL     1    -118.892-100.590  -0.673  1.00  0.00    -0.018 C 
ATOM     12  C   UNL     1    -117.686-100.244  -1.585  1.00  0.00     0.088 C 
ATOM     13  C   UNL     1    -116.436 -99.979  -0.809  1.00  0.00     0.159 C 
ATOM     14  O   UNL     1    -115.351-100.499  -1.184  1.00  0.00    -0.295 OA
ATOM     15  C   UNL     1    -120.159-100.546  -1.570  1.00  0.00     0.012 C 
ATOM     16  C   UNL     1    -114.290 -98.058  -0.173  1.00  0.00     0.039 C 
ENDROOT
TORSDOF 0
ENDMDL
MODEL 4
REMARK VINA RESULT:    -4.542     14.183     16.293
REMARK INTER + INTRA:          -4.542
REMARK INTER:                  -4.542
REMARK INTRA:                   0.000
REMARK UNBOUND:                 0.000
REMARK SMILES C=C1CCC[C@]2(C)CC(=O)C(=C(C)C)C[C@H]12
REMARK SMILES IDX 13 1 12 2 11 3 15 4 16 5 2 6 1 7 3 8 4 9 5 10 6 11 8 12 9 13
REMARK SMILES IDX 10 14 7 15 14 16
REMARK H PARENT
REMARK Flexibility Score: inf
ROOT
ATOM      1  C   UNL     1    -113.963 -99.547  13.242  1.00  0.00     0.039 C 
ATOM      2  C   UNL     1    -113.890 -99.411  14.745  1.00  0.00    -0.070 C 
ATOM      3  C   UNL     1    -114.383 -98.313  15.384  1.00  0.00    -0.006 C 
ATOM      4  C   UNL     1    -115.025 -97.164  14.631  1.00  0.00     0.047 C 
ATOM      5  C   UNL     1    -116.187 -96.492  15.408  1.00  0.00     0.025 C 
ATOM      6  C   UNL     1    -116.590 -95.221  14.678  1.00  0.00    -0.073 C 
ATOM      7  C   UNL     1    -117.642 -95.215  13.844  1.00  0.00     0.008 C 
ATOM      8  C   UNL     1    -115.691 -94.006  14.784  1.00  0.00     0.031 C 
ATOM      9  C   UNL     1    -115.275 -93.736  16.236  1.00  0.00     0.005 C 
ATOM     10  C   UNL     1    -114.807 -95.007  16.968  1.00  0.00     0.008 C 
ATOM     11  C   UNL     1    -115.847 -96.164  16.897  1.00  0.00    -0.018 C 
ATOM     12  C   UNL     1    -115.294 -97.424  17.613  1.00  0.00     0.088 C 
ATOM     13  C   UNL     1    -114.206 -98.095  16.837  1.00  0.00     0.159 C 
ATOM     14  O   UNL     1    -113.158 -98.464  17.433  1.00  0.00    -0.295 OA
ATOM     15  C   UNL     1    -117.142 -95.753  17.649  1.00  0.00     0.012 C 
ATOM     16  C   UNL     1    -113.284-100.564  15.514  1.00  0.00     0.039 C 
ENDROOT
TORSDOF 0
ENDMDL
MODEL 5
REMARK VINA RESULT:    -4.531      3.691      6.003
REMARK INTER + INTRA:          -4.531
REMARK INTER:                  -4.531
REMARK INTRA:                   0.000
REMARK UNBOUND:                 0.000
REMARK SMILES C=C1CCC[C@]2(C)CC(=O)C(=C(C)C)C[C@H]12
REMARK SMILES IDX 13 1 12 2 11 3 15 4 16 5 2 6 1 7 3 8 4 9 5 10 6 11 8 12 9 13
REMARK SMILES IDX 10 14 7 15 14 16
REMARK H PARENT
REMARK Flexibility Score: inf
ROOT
ATOM      1  C   UNL     1    -121.737 -99.657   2.033  1.00  0.00     0.039 C 
ATOM      2  C   UNL     1    -120.449-100.388   1.734  1.00  0.00    -0.070 C 
ATOM      3  C   UNL     1    -119.338 -99.724   1.306  1.00  0.00    -0.006 C 
ATOM      4  C   UNL     1    -119.328 -98.222   1.100  1.00  0.00     0.047 C 
ATOM      5  C   UNL     1    -117.964 -97.564   1.439  1.00  0.00     0.025 C 
ATOM      6  C   UNL     1    -117.993 -96.117   0.971  1.00  0.00    -0.073 C 
ATOM      7  C   UNL     1    -118.261 -95.126   1.834  1.00  0.00     0.008 C 
ATOM      8  C   UNL     1    -117.871 -95.830  -0.511  1.00  0.00     0.031 C 
ATOM      9  C   UNL     1    -116.724 -96.625  -1.149  1.00  0.00     0.005 C 
ATOM     10  C   UNL     1    -116.721 -98.106  -0.730  1.00  0.00     0.008 C 
ATOM     11  C   UNL     1    -116.735 -98.299   0.815  1.00  0.00    -0.018 C 
ATOM     12  C   UNL     1    -116.777 -99.810   1.165  1.00  0.00     0.088 C 
ATOM     13  C   UNL     1    -118.108-100.429   0.881  1.00  0.00     0.159 C 
ATOM     14  O   UNL     1    -118.161-101.539   0.286  1.00  0.00    -0.295 OA
ATOM     15  C   UNL     1    -115.424 -97.734   1.427  1.00  0.00     0.012 C 
ATOM     16  C   UNL     1    -120.433-101.882   1.968  1.00  0.00     0.039 C 
ENDROOT
TORSDOF 0
ENDMDL
MODEL 6
REMARK VINA RESULT:    -4.417      6.923      9.337
REMARK INTER + INTRA:          -4.417
REMARK INTER:                  -4.417
REMARK INTRA:                   0.000
REMARK UNBOUND:                 0.000
REMARK SMILES C=C1CCC[C@]2(C)CC(=O)C(=C(C)C)C[C@H]12
REMARK SMILES IDX 13 1 12 2 11 3 15 4 16 5 2 6 1 7 3 8 4 9 5 10 6 11 8 12 9 13
REMARK SMILES IDX 10 14 7 15 14 16
REMARK H PARENT
REMARK Flexibility Score: inf
ROOT
ATOM      1  C   UNL     1    -115.739 -98.622   0.877  1.00  0.00     0.039 C 
ATOM      2  C   UNL     1    -116.638 -97.417   1.028  1.00  0.00    -0.070 C 
ATOM      3  C   UNL     1    -116.482 -96.540   2.060  1.00  0.00    -0.006 C 
ATOM      4  C   UNL     1    -115.410 -96.722   3.116  1.00  0.00     0.047 C 
ATOM      5  C   UNL     1    -114.831 -95.382   3.641  1.00  0.00     0.025 C 
ATOM      6  C   UNL     1    -113.953 -95.671   4.849  1.00  0.00    -0.073 C 
ATOM      7  C   UNL     1    -112.621 -95.764   4.719  1.00  0.00     0.008 C 
ATOM      8  C   UNL     1    -114.620 -96.009   6.167  1.00  0.00     0.031 C 
ATOM      9  C   UNL     1    -115.755 -95.031   6.494  1.00  0.00     0.005 C 
ATOM     10  C   UNL     1    -116.686 -94.776   5.294  1.00  0.00     0.008 C 
ATOM     11  C   UNL     1    -115.919 -94.326   4.016  1.00  0.00    -0.018 C 
ATOM     12  C   UNL     1    -116.910 -94.132   2.839  1.00  0.00     0.088 C 
ATOM     13  C   UNL     1    -117.428 -95.428   2.305  1.00  0.00     0.159 C 
ATOM     14  O   UNL     1    -118.661 -95.554   2.072  1.00  0.00    -0.295 OA
ATOM     15  C   UNL     1    -115.246 -92.949   4.266  1.00  0.00     0.012 C 
ATOM     16  C   UNL     1    -117.690 -97.203  -0.037  1.00  0.00     0.039 C 
ENDROOT
TORSDOF 0
ENDMDL
MODEL 7
REMARK VINA RESULT:    -4.403      3.882      6.540
REMARK INTER + INTRA:          -4.403
REMARK INTER:                  -4.403
REMARK INTRA:                   0.000
REMARK UNBOUND:                 0.000
REMARK SMILES C=C1CCC[C@]2(C)CC(=O)C(=C(C)C)C[C@H]12
REMARK SMILES IDX 13 1 12 2 11 3 15 4 16 5 2 6 1 7 3 8 4 9 5 10 6 11 8 12 9 13
REMARK SMILES IDX 10 14 7 15 14 16
REMARK H PARENT
REMARK Flexibility Score: inf
ROOT
ATOM      1  C   UNL     1    -118.398-101.990   1.240  1.00  0.00     0.039 C 
ATOM      2  C   UNL     1    -119.269-100.757   1.179  1.00  0.00    -0.070 C 
ATOM      3  C   UNL     1    -118.728 -99.507   1.147  1.00  0.00    -0.006 C 
ATOM      4  C   UNL     1    -117.230 -99.276   1.176  1.00  0.00     0.047 C 
ATOM      5  C   UNL     1    -116.780 -98.047   0.343  1.00  0.00     0.025 C 
ATOM      6  C   UNL     1    -115.314 -97.771   0.638  1.00  0.00    -0.073 C 
ATOM      7  C   UNL     1    -114.356 -98.213  -0.191  1.00  0.00     0.008 C 
ATOM      8  C   UNL     1    -114.946 -97.129   1.959  1.00  0.00     0.031 C 
ATOM      9  C   UNL     1    -115.839 -95.920   2.269  1.00  0.00     0.005 C 
ATOM     10  C   UNL     1    -117.333 -96.207   2.032  1.00  0.00     0.008 C 
ATOM     11  C   UNL     1    -117.626 -96.761   0.606  1.00  0.00    -0.018 C 
ATOM     12  C   UNL     1    -119.138 -97.069   0.453  1.00  0.00     0.088 C 
ATOM     13  C   UNL     1    -119.558 -98.282   1.219  1.00  0.00     0.159 C 
ATOM     14  O   UNL     1    -120.609 -98.243   1.914  1.00  0.00    -0.295 OA
ATOM     15  C   UNL     1    -117.279 -95.682  -0.456  1.00  0.00     0.012 C 
ATOM     16  C   UNL     1    -120.765-100.971   1.113  1.00  0.00     0.039 C 
ENDROOT
TORSDOF 0
ENDMDL
MODEL 8
REMARK VINA RESULT:    -4.398      5.100      7.979
REMARK INTER + INTRA:          -4.398
REMARK INTER:                  -4.398
REMARK INTRA:                   0.000
REMARK UNBOUND:                 0.000
REMARK SMILES C=C1CCC[C@]2(C)CC(=O)C(=C(C)C)C[C@H]12
REMARK SMILES IDX 13 1 12 2 11 3 15 4 16 5 2 6 1 7 3 8 4 9 5 10 6 11 8 12 9 13
REMARK SMILES IDX 10 14 7 15 14 16
REMARK H PARENT
REMARK Flexibility Score: inf
ROOT
ATOM      1  C   UNL     1    -116.910-100.776   1.044  1.00  0.00     0.039 C 
ATOM      2  C   UNL     1    -117.853 -99.602   0.924  1.00  0.00    -0.070 C 
ATOM      3  C   UNL     1    -117.470 -98.345   1.285  1.00  0.00    -0.006 C 
ATOM      4  C   UNL     1    -116.087 -98.049   1.830  1.00  0.00     0.047 C 
ATOM      5  C   UNL     1    -115.546 -96.657   1.412  1.00  0.00     0.025 C 
ATOM      6  C   UNL     1    -114.277 -96.371   2.201  1.00  0.00    -0.073 C 
ATOM      7  C   UNL     1    -113.071 -96.588   1.657  1.00  0.00     0.008 C 
ATOM      8  C   UNL     1    -114.401 -95.989   3.661  1.00  0.00     0.031 C 
ATOM      9  C   UNL     1    -115.475 -94.914   3.876  1.00  0.00     0.005 C 
ATOM     10  C   UNL     1    -116.785 -95.223   3.130  1.00  0.00     0.008 C 
ATOM     11  C   UNL     1    -116.569 -95.494   1.611  1.00  0.00    -0.018 C 
ATOM     12  C   UNL     1    -117.919 -95.842   0.933  1.00  0.00     0.088 C 
ATOM     13  C   UNL     1    -118.414 -97.204   1.302  1.00  0.00     0.159 C 
ATOM     14  O   UNL     1    -119.623 -97.358   1.621  1.00  0.00    -0.295 OA
ATOM     15  C   UNL     1    -116.039 -94.208   0.920  1.00  0.00     0.012 C 
ATOM     16  C   UNL     1    -119.225 -99.874   0.350  1.00  0.00     0.039 C 
ENDROOT
TORSDOF 0
ENDMDL
MODEL 9
REMARK VINA RESULT:    -4.370      2.461      4.310
REMARK INTER + INTRA:          -4.370
REMARK INTER:                  -4.370
REMARK INTRA:                   0.000
REMARK UNBOUND:                 0.000
REMARK SMILES C=C1CCC[C@]2(C)CC(=O)C(=C(C)C)C[C@H]12
REMARK SMILES IDX 13 1 12 2 11 3 15 4 16 5 2 6 1 7 3 8 4 9 5 10 6 11 8 12 9 13
REMARK SMILES IDX 10 14 7 15 14 16
REMARK H PARENT
REMARK Flexibility Score: inf
ROOT
ATOM      1  C   UNL     1    -121.829-100.525   4.256  1.00  0.00     0.039 C 
ATOM      2  C   UNL     1    -122.415-100.314   2.879  1.00  0.00    -0.070 C 
ATOM      3  C   UNL     1    -121.632 -99.964   1.820  1.00  0.00    -0.006 C 
ATOM      4  C   UNL     1    -120.136 -99.760   1.958  1.00  0.00     0.047 C 
ATOM      5  C   UNL     1    -119.338-100.191   0.699  1.00  0.00     0.025 C 
ATOM      6  C   UNL     1    -117.899 -99.723   0.851  1.00  0.00    -0.073 C 
ATOM      7  C   UNL     1    -116.949-100.566   1.283  1.00  0.00     0.008 C 
ATOM      8  C   UNL     1    -117.589 -98.253   0.661  1.00  0.00     0.031 C 
ATOM      9  C   UNL     1    -118.251 -97.694  -0.605  1.00  0.00     0.005 C 
ATOM     10  C   UNL     1    -119.727 -98.111  -0.740  1.00  0.00     0.008 C 
ATOM     11  C   UNL     1    -119.932 -99.652  -0.642  1.00  0.00    -0.018 C 
ATOM     12  C   UNL     1    -121.441 -99.997  -0.739  1.00  0.00     0.088 C 
ATOM     13  C   UNL     1    -122.197 -99.623   0.495  1.00  0.00     0.159 C 
ATOM     14  O   UNL     1    -123.302 -99.025   0.388  1.00  0.00    -0.295 OA
ATOM     15  C   UNL     1    -119.234-100.352  -1.840  1.00  0.00     0.012 C 
ATOM     16  C   UNL     1    -123.901-100.548   2.718  1.00  0.00     0.039 C 
ENDROOT
TORSDOF 0
ENDMDL
