MODEL 1
REMARK VINA RESULT:    -4.822      0.000      0.000
REMARK INTER + INTRA:          -9.819
REMARK INTER:                  -8.487
REMARK INTRA:                  -1.331
REMARK UNBOUND:                -1.331
REMARK SMILES CCCCCCCCCCCCCCC(=O)[O-]
REMARK SMILES IDX 9 1 10 2 11 3 12 4 13 5 14 6 15 7 16 8 17 9 8 10 7 11 6 12
REMARK SMILES IDX 5 13 4 14 3 15 2 16 1 17
REMARK H PARENT
REMARK Flexibility Score: inf
ROOT
ATOM      1  C   UNL     1       1.362 -36.281  19.764  1.00  0.00     0.000 C 
ENDROOT
BRANCH   1   2
ATOM      2  C   UNL     1       0.423 -36.726  20.899  1.00  0.00     0.000 C 
BRANCH   2   3
ATOM      3  C   UNL     1      -0.247 -35.575  21.675  1.00  0.00     0.000 C 
BRANCH   3   4
ATOM      4  C   UNL     1      -1.782 -35.599  21.574  1.00  0.00     0.000 C 
BRANCH   4   5
ATOM      5  C   UNL     1      -2.459 -34.779  22.691  1.00  0.00     0.006 C 
BRANCH   5   6
ATOM      6  C   UNL     1      -1.759 -33.440  22.979  1.00  0.00     0.053 C 
BRANCH   6   7
ATOM      7  C   UNL     1      -2.453 -32.657  24.047  1.00  0.00     0.041 C 
ATOM      8  O   UNL     1      -3.377 -31.856  23.746  1.00  0.00    -0.550 OA
ATOM      9  O   UNL     1      -2.057 -32.782  25.372  1.00  0.00    -0.550 OA
ENDBRANCH   6   7
ENDBRANCH   5   6
ENDBRANCH   4   5
ENDBRANCH   3   4
ENDBRANCH   2   3
ENDBRANCH   1   2
BRANCH   1  10
ATOM     10  C   UNL     1       1.683 -37.411  18.776  1.00  0.00     0.000 C 
BRANCH  10  11
ATOM     11  C   UNL     1       2.763 -36.979  17.778  1.00  0.00    -0.000 C 
BRANCH  11  12
ATOM     12  C   UNL     1       3.963 -36.347  18.501  1.00  0.00    -0.000 C 
BRANCH  12  13
ATOM     13  C   UNL     1       4.974 -37.390  19.013  1.00  0.00    -0.000 C 
BRANCH  13  14
ATOM     14  C   UNL     1       4.875 -37.715  20.514  1.00  0.00    -0.000 C 
BRANCH  14  15
ATOM     15  C   UNL     1       4.823 -36.459  21.399  1.00  0.00    -0.000 C 
BRANCH  15  16
ATOM     16  C   UNL     1       3.854 -36.610  22.579  1.00  0.00    -0.003 C 
ATOM     17  C   UNL     1       3.213 -35.287  22.996  1.00  0.00     0.004 C 
ENDBRANCH  15  16
ENDBRANCH  14  15
ENDBRANCH  13  14
ENDBRANCH  12  13
ENDBRANCH  11  12
ENDBRANCH  10  11
ENDBRANCH   1  10
TORSDOF 13
ENDMDL
MODEL 2
REMARK VINA RESULT:    -4.796      1.542      2.496
REMARK INTER + INTRA:          -9.772
REMARK INTER:                  -7.904
REMARK INTRA:                  -1.869
REMARK UNBOUND:                -1.331
REMARK SMILES CCCCCCCCCCCCCCC(=O)[O-]
REMARK SMILES IDX 9 1 10 2 11 3 12 4 13 5 14 6 15 7 16 8 17 9 8 10 7 11 6 12
REMARK SMILES IDX 5 13 4 14 3 15 2 16 1 17
REMARK H PARENT
REMARK Flexibility Score: inf
ROOT
ATOM      1  C   UNL     1       2.362 -36.708  18.545  1.00  0.00     0.000 C 
ENDROOT
BRANCH   1   2
ATOM      2  C   UNL     1       2.039 -38.005  19.309  1.00  0.00     0.000 C 
BRANCH   2   3
ATOM      3  C   UNL     1       0.581 -38.125  19.795  1.00  0.00     0.000 C 
BRANCH   3   4
ATOM      4  C   UNL     1       0.380 -37.585  21.222  1.00  0.00     0.000 C 
BRANCH   4   5
ATOM      5  C   UNL     1      -1.083 -37.182  21.498  1.00  0.00     0.006 C 
BRANCH   5   6
ATOM      6  C   UNL     1      -1.329 -35.667  21.407  1.00  0.00     0.053 C 
BRANCH   6   7
ATOM      7  C   UNL     1      -2.477 -35.229  22.260  1.00  0.00     0.041 C 
ATOM      8  O   UNL     1      -3.577 -35.842  22.204  1.00  0.00    -0.550 OA
ATOM      9  O   UNL     1      -2.348 -34.121  23.088  1.00  0.00    -0.550 OA
ENDBRANCH   6   7
ENDBRANCH   5   6
ENDBRANCH   4   5
ENDBRANCH   3   4
ENDBRANCH   2   3
ENDBRANCH   1   2
BRANCH   1  10
ATOM     10  C   UNL     1       3.859 -36.552  18.239  1.00  0.00     0.000 C 
BRANCH  10  11
ATOM     11  C   UNL     1       4.613 -37.859  18.508  1.00  0.00    -0.000 C 
BRANCH  11  12
ATOM     12  C   UNL     1       5.965 -37.587  19.186  1.00  0.00    -0.000 C 
BRANCH  12  13
ATOM     13  C   UNL     1       5.823 -36.921  20.567  1.00  0.00    -0.000 C 
BRANCH  13  14
ATOM     14  C   UNL     1       5.232 -37.819  21.668  1.00  0.00    -0.000 C 
BRANCH  14  15
ATOM     15  C   UNL     1       3.991 -37.207  22.339  1.00  0.00    -0.000 C 
BRANCH  15  16
ATOM     16  C   UNL     1       3.727 -35.765  21.884  1.00  0.00    -0.003 C 
ATOM     17  C   UNL     1       2.688 -35.050  22.747  1.00  0.00     0.004 C 
ENDBRANCH  15  16
ENDBRANCH  14  15
ENDBRANCH  13  14
ENDBRANCH  12  13
ENDBRANCH  11  12
ENDBRANCH  10  11
ENDBRANCH   1  10
TORSDOF 13
ENDMDL
MODEL 3
REMARK VINA RESULT:    -4.744     20.971     22.677
REMARK INTER + INTRA:          -9.680
REMARK INTER:                  -7.792
REMARK INTRA:                  -1.888
REMARK UNBOUND:                -1.331
REMARK SMILES CCCCCCCCCCCCCCC(=O)[O-]
REMARK SMILES IDX 9 1 10 2 11 3 12 4 13 5 14 6 15 7 16 8 17 9 8 10 7 11 6 12
REMARK SMILES IDX 5 13 4 14 3 15 2 16 1 17
REMARK H PARENT
REMARK Flexibility Score: inf
ROOT
ATOM      1  C   UNL     1      -8.268 -18.986  30.825  1.00  0.00     0.000 C 
ENDROOT
BRANCH   1   2
ATOM      2  C   UNL     1      -8.292 -18.070  32.062  1.00  0.00     0.000 C 
BRANCH   2   3
ATOM      3  C   UNL     1      -8.216 -18.804  33.415  1.00  0.00     0.000 C 
BRANCH   3   4
ATOM      4  C   UNL     1      -8.421 -20.323  33.283  1.00  0.00     0.000 C 
BRANCH   4   5
ATOM      5  C   UNL     1      -7.459 -21.127  34.182  1.00  0.00     0.006 C 
BRANCH   5   6
ATOM      6  C   UNL     1      -6.024 -20.573  34.195  1.00  0.00     0.053 C 
BRANCH   6   7
ATOM      7  C   UNL     1      -5.118 -21.372  35.077  1.00  0.00     0.041 C 
ATOM      8  O   UNL     1      -3.890 -21.096  35.138  1.00  0.00    -0.550 OA
ATOM      9  O   UNL     1      -5.619 -22.445  35.802  1.00  0.00    -0.550 OA
ENDBRANCH   6   7
ENDBRANCH   5   6
ENDBRANCH   4   5
ENDBRANCH   3   4
ENDBRANCH   2   3
ENDBRANCH   1   2
BRANCH   1  10
ATOM     10  C   UNL     1      -9.413 -18.696  29.844  1.00  0.00     0.000 C 
BRANCH  10  11
ATOM     11  C   UNL     1     -10.762 -18.655  30.572  1.00  0.00    -0.000 C 
BRANCH  11  12
ATOM     12  C   UNL     1     -11.240 -20.071  30.928  1.00  0.00    -0.000 C 
BRANCH  12  13
ATOM     13  C   UNL     1     -12.205 -20.096  32.128  1.00  0.00    -0.000 C 
BRANCH  13  14
ATOM     14  C   UNL     1     -11.856 -19.123  33.269  1.00  0.00    -0.000 C 
BRANCH  14  15
ATOM     15  C   UNL     1     -12.095 -19.724  34.664  1.00  0.00    -0.000 C 
BRANCH  15  16
ATOM     16  C   UNL     1     -12.213 -21.254  34.633  1.00  0.00    -0.003 C 
ATOM     17  C   UNL     1     -11.058 -21.953  35.350  1.00  0.00     0.004 C 
ENDBRANCH  15  16
ENDBRANCH  14  15
ENDBRANCH  13  14
ENDBRANCH  12  13
ENDBRANCH  11  12
ENDBRANCH  10  11
ENDBRANCH   1  10
TORSDOF 13
ENDMDL
MODEL 4
REMARK VINA RESULT:    -4.724      1.198      2.820
REMARK INTER + INTRA:          -9.646
REMARK INTER:                  -8.458
REMARK INTRA:                  -1.188
REMARK UNBOUND:                -1.331
REMARK SMILES CCCCCCCCCCCCCCC(=O)[O-]
REMARK SMILES IDX 9 1 10 2 11 3 12 4 13 5 14 6 15 7 16 8 17 9 8 10 7 11 6 12
REMARK SMILES IDX 5 13 4 14 3 15 2 16 1 17
REMARK H PARENT
REMARK Flexibility Score: inf
ROOT
ATOM      1  C   UNL     1      -0.468 -37.827  21.205  1.00  0.00     0.000 C 
ENDROOT
BRANCH   1   2
ATOM      2  C   UNL     1      -1.269 -36.513  21.249  1.00  0.00     0.000 C 
BRANCH   2   3
ATOM      3  C   UNL     1      -2.706 -36.647  21.789  1.00  0.00     0.000 C 
BRANCH   3   4
ATOM      4  C   UNL     1      -3.178 -35.395  22.550  1.00  0.00     0.000 C 
BRANCH   4   5
ATOM      5  C   UNL     1      -2.075 -34.323  22.661  1.00  0.00     0.006 C 
BRANCH   5   6
ATOM      6  C   UNL     1      -2.556 -33.012  23.305  1.00  0.00     0.053 C 
BRANCH   6   7
ATOM      7  C   UNL     1      -1.759 -32.653  24.518  1.00  0.00     0.041 C 
ATOM      8  O   UNL     1      -2.181 -32.958  25.666  1.00  0.00    -0.550 OA
ATOM      9  O   UNL     1      -0.570 -31.948  24.388  1.00  0.00    -0.550 OA
ENDBRANCH   6   7
ENDBRANCH   5   6
ENDBRANCH   4   5
ENDBRANCH   3   4
ENDBRANCH   2   3
ENDBRANCH   1   2
BRANCH   1  10
ATOM     10  C   UNL     1       1.050 -37.600  21.173  1.00  0.00     0.000 C 
BRANCH  10  11
ATOM     11  C   UNL     1       1.382 -36.104  21.171  1.00  0.00    -0.000 C 
BRANCH  11  12
ATOM     12  C   UNL     1       2.524 -35.791  22.150  1.00  0.00    -0.000 C 
BRANCH  12  13
ATOM     13  C   UNL     1       3.878 -35.581  21.448  1.00  0.00    -0.000 C 
BRANCH  13  14
ATOM     14  C   UNL     1       4.438 -36.817  20.722  1.00  0.00    -0.000 C 
BRANCH  14  15
ATOM     15  C   UNL     1       4.542 -36.624  19.200  1.00  0.00    -0.000 C 
BRANCH  15  16
ATOM     16  C   UNL     1       3.660 -37.609  18.421  1.00  0.00    -0.003 C 
ATOM     17  C   UNL     1       2.499 -36.925  17.700  1.00  0.00     0.004 C 
ENDBRANCH  15  16
ENDBRANCH  14  15
ENDBRANCH  13  14
ENDBRANCH  12  13
ENDBRANCH  11  12
ENDBRANCH  10  11
ENDBRANCH   1  10
TORSDOF 13
ENDMDL
MODEL 5
REMARK VINA RESULT:    -4.685      2.651      6.264
REMARK INTER + INTRA:          -9.577
REMARK INTER:                  -7.947
REMARK INTRA:                  -1.630
REMARK UNBOUND:                -1.331
REMARK SMILES CCCCCCCCCCCCCCC(=O)[O-]
REMARK SMILES IDX 9 1 10 2 11 3 12 4 13 5 14 6 15 7 16 8 17 9 8 10 7 11 6 12
REMARK SMILES IDX 5 13 4 14 3 15 2 16 1 17
REMARK H PARENT
REMARK Flexibility Score: inf
ROOT
ATOM      1  C   UNL     1       2.549 -37.504  18.218  1.00  0.00     0.000 C 
ENDROOT
BRANCH   1   2
ATOM      2  C   UNL     1       3.513 -36.308  18.130  1.00  0.00     0.000 C 
BRANCH   2   3
ATOM      3  C   UNL     1       4.927 -36.572  18.681  1.00  0.00     0.000 C 
BRANCH   3   4
ATOM      4  C   UNL     1       5.060 -37.952  19.350  1.00  0.00     0.000 C 
BRANCH   4   5
ATOM      5  C   UNL     1       5.492 -37.851  20.827  1.00  0.00     0.006 C 
BRANCH   5   6
ATOM      6  C   UNL     1       5.081 -36.530  21.498  1.00  0.00     0.053 C 
BRANCH   6   7
ATOM      7  C   UNL     1       3.939 -36.708  22.447  1.00  0.00     0.041 C 
ATOM      8  O   UNL     1       3.322 -37.806  22.494  1.00  0.00    -0.550 OA
ATOM      9  O   UNL     1       3.530 -35.654  23.252  1.00  0.00    -0.550 OA
ENDBRANCH   6   7
ENDBRANCH   5   6
ENDBRANCH   4   5
ENDBRANCH   3   4
ENDBRANCH   2   3
ENDBRANCH   1   2
BRANCH   1  10
ATOM     10  C   UNL     1       1.590 -37.413  19.414  1.00  0.00     0.000 C 
BRANCH  10  11
ATOM     11  C   UNL     1       1.369 -35.954  19.830  1.00  0.00    -0.000 C 
BRANCH  11  12
ATOM     12  C   UNL     1       0.585 -35.868  21.148  1.00  0.00    -0.000 C 
BRANCH  12  13
ATOM     13  C   UNL     1      -0.083 -37.199  21.540  1.00  0.00    -0.000 C 
BRANCH  13  14
ATOM     14  C   UNL     1      -1.563 -37.332  21.138  1.00  0.00    -0.000 C 
BRANCH  14  15
ATOM     15  C   UNL     1      -2.277 -35.975  21.022  1.00  0.00    -0.000 C 
BRANCH  15  16
ATOM     16  C   UNL     1      -2.948 -35.549  22.335  1.00  0.00    -0.003 C 
ATOM     17  C   UNL     1      -2.315 -34.300  22.948  1.00  0.00     0.004 C 
ENDBRANCH  15  16
ENDBRANCH  14  15
ENDBRANCH  13  14
ENDBRANCH  12  13
ENDBRANCH  11  12
ENDBRANCH  10  11
ENDBRANCH   1  10
TORSDOF 13
ENDMDL
MODEL 6
REMARK VINA RESULT:    -4.655     20.697     22.156
REMARK INTER + INTRA:          -9.525
REMARK INTER:                  -8.232
REMARK INTRA:                  -1.292
REMARK UNBOUND:                -1.331
REMARK SMILES CCCCCCCCCCCCCCC(=O)[O-]
REMARK SMILES IDX 9 1 10 2 11 3 12 4 13 5 14 6 15 7 16 8 17 9 8 10 7 11 6 12
REMARK SMILES IDX 5 13 4 14 3 15 2 16 1 17
REMARK H PARENT
REMARK Flexibility Score: inf
ROOT
ATOM      1  C   UNL     1      -7.600 -20.442  33.652  1.00  0.00     0.000 C 
ENDROOT
BRANCH   1   2
ATOM      2  C   UNL     1      -7.783 -18.932  33.416  1.00  0.00     0.000 C 
BRANCH   2   3
ATOM      3  C   UNL     1      -6.622 -18.246  32.672  1.00  0.00     0.000 C 
BRANCH   3   4
ATOM      4  C   UNL     1      -5.307 -19.042  32.751  1.00  0.00     0.000 C 
BRANCH   4   5
ATOM      5  C   UNL     1      -4.308 -18.429  33.754  1.00  0.00     0.006 C 
BRANCH   5   6
ATOM      6  C   UNL     1      -4.318 -19.117  35.129  1.00  0.00     0.053 C 
BRANCH   6   7
ATOM      7  C   UNL     1      -3.707 -20.481  35.084  1.00  0.00     0.041 C 
ATOM      8  O   UNL     1      -4.380 -21.488  35.429  1.00  0.00    -0.550 OA
ATOM      9  O   UNL     1      -2.382 -20.639  34.697  1.00  0.00    -0.550 OA
ENDBRANCH   6   7
ENDBRANCH   5   6
ENDBRANCH   4   5
ENDBRANCH   3   4
ENDBRANCH   2   3
ENDBRANCH   1   2
BRANCH   1  10
ATOM     10  C   UNL     1      -8.929 -21.211  33.663  1.00  0.00     0.000 C 
BRANCH  10  11
ATOM     11  C   UNL     1     -10.096 -20.296  33.276  1.00  0.00    -0.000 C 
BRANCH  11  12
ATOM     12  C   UNL     1     -10.548 -20.558  31.831  1.00  0.00    -0.000 C 
BRANCH  12  13
ATOM     13  C   UNL     1     -11.319 -19.375  31.217  1.00  0.00    -0.000 C 
BRANCH  13  14
ATOM     14  C   UNL     1     -10.444 -18.310  30.531  1.00  0.00    -0.000 C 
BRANCH  14  15
ATOM     15  C   UNL     1      -9.319 -18.917  29.676  1.00  0.00    -0.000 C 
BRANCH  15  16
ATOM     16  C   UNL     1      -9.852 -19.658  28.443  1.00  0.00    -0.003 C 
ATOM     17  C   UNL     1      -9.576 -18.914  27.137  1.00  0.00     0.004 C 
ENDBRANCH  15  16
ENDBRANCH  14  15
ENDBRANCH  13  14
ENDBRANCH  12  13
ENDBRANCH  11  12
ENDBRANCH  10  11
ENDBRANCH   1  10
TORSDOF 13
ENDMDL
MODEL 7
REMARK VINA RESULT:    -4.591     21.211     22.836
REMARK INTER + INTRA:          -9.412
REMARK INTER:                  -8.040
REMARK INTRA:                  -1.372
REMARK UNBOUND:                -1.331
REMARK SMILES CCCCCCCCCCCCCCC(=O)[O-]
REMARK SMILES IDX 9 1 10 2 11 3 12 4 13 5 14 6 15 7 16 8 17 9 8 10 7 11 6 12
REMARK SMILES IDX 5 13 4 14 3 15 2 16 1 17
REMARK H PARENT
REMARK Flexibility Score: inf
ROOT
ATOM      1  C   UNL     1     -10.725 -18.808  30.387  1.00  0.00     0.000 C 
ENDROOT
BRANCH   1   2
ATOM      2  C   UNL     1      -9.453 -19.000  29.541  1.00  0.00     0.000 C 
BRANCH   2   3
ATOM      3  C   UNL     1      -8.138 -18.623  30.249  1.00  0.00     0.000 C 
BRANCH   3   4
ATOM      4  C   UNL     1      -8.315 -18.410  31.764  1.00  0.00     0.000 C 
BRANCH   4   5
ATOM      5  C   UNL     1      -7.135 -18.976  32.579  1.00  0.00     0.006 C 
BRANCH   5   6
ATOM      6  C   UNL     1      -7.551 -20.053  33.594  1.00  0.00     0.053 C 
BRANCH   6   7
ATOM      7  C   UNL     1      -6.373 -20.763  34.181  1.00  0.00     0.041 C 
ATOM      8  O   UNL     1      -5.207 -20.479  33.797  1.00  0.00    -0.550 OA
ATOM      9  O   UNL     1      -6.561 -21.765  35.124  1.00  0.00    -0.550 OA
ENDBRANCH   6   7
ENDBRANCH   5   6
ENDBRANCH   4   5
ENDBRANCH   3   4
ENDBRANCH   2   3
ENDBRANCH   1   2
BRANCH   1  10
ATOM     10  C   UNL     1     -11.414 -20.134  30.740  1.00  0.00     0.000 C 
BRANCH  10  11
ATOM     11  C   UNL     1     -12.172 -20.022  32.068  1.00  0.00    -0.000 C 
BRANCH  11  12
ATOM     12  C   UNL     1     -11.216 -20.154  33.263  1.00  0.00    -0.000 C 
BRANCH  12  13
ATOM     13  C   UNL     1     -11.679 -19.354  34.495  1.00  0.00    -0.000 C 
BRANCH  13  14
ATOM     14  C   UNL     1     -12.227 -20.201  35.657  1.00  0.00    -0.000 C 
BRANCH  14  15
ATOM     15  C   UNL     1     -12.424 -21.679  35.282  1.00  0.00    -0.000 C 
BRANCH  15  16
ATOM     16  C   UNL     1     -11.555 -22.622  36.125  1.00  0.00    -0.003 C 
ATOM     17  C   UNL     1     -10.184 -22.881  35.502  1.00  0.00     0.004 C 
ENDBRANCH  15  16
ENDBRANCH  14  15
ENDBRANCH  13  14
ENDBRANCH  12  13
ENDBRANCH  11  12
ENDBRANCH  10  11
ENDBRANCH   1  10
TORSDOF 13
ENDMDL
MODEL 8
REMARK VINA RESULT:    -4.577     20.603     21.784
REMARK INTER + INTRA:          -9.387
REMARK INTER:                  -7.992
REMARK INTRA:                  -1.395
REMARK UNBOUND:                -1.331
REMARK SMILES CCCCCCCCCCCCCCC(=O)[O-]
REMARK SMILES IDX 9 1 10 2 11 3 12 4 13 5 14 6 15 7 16 8 17 9 8 10 7 11 6 12
REMARK SMILES IDX 5 13 4 14 3 15 2 16 1 17
REMARK H PARENT
REMARK Flexibility Score: inf
ROOT
ATOM      1  C   UNL     1      -8.461 -20.108  33.211  1.00  0.00     0.000 C 
ENDROOT
BRANCH   1   2
ATOM      2  C   UNL     1      -9.979 -20.355  33.262  1.00  0.00     0.000 C 
BRANCH   2   3
ATOM      3  C   UNL     1     -10.842 -19.205  32.708  1.00  0.00     0.000 C 
BRANCH   3   4
ATOM      4  C   UNL     1     -11.276 -19.433  31.249  1.00  0.00     0.000 C 
BRANCH   4   5
ATOM      5  C   UNL     1     -10.746 -18.338  30.300  1.00  0.00     0.006 C 
BRANCH   5   6
ATOM      6  C   UNL     1      -9.465 -18.742  29.552  1.00  0.00     0.053 C 
BRANCH   6   7
ATOM      7  C   UNL     1      -9.758 -19.507  28.301  1.00  0.00     0.041 C 
ATOM      8  O   UNL     1      -9.701 -18.933  27.180  1.00  0.00    -0.550 OA
ATOM      9  O   UNL     1     -10.131 -20.842  28.372  1.00  0.00    -0.550 OA
ENDBRANCH   6   7
ENDBRANCH   5   6
ENDBRANCH   4   5
ENDBRANCH   3   4
ENDBRANCH   2   3
ENDBRANCH   1   2
BRANCH   1  10
ATOM     10  C   UNL     1      -8.091 -18.625  33.353  1.00  0.00     0.000 C 
BRANCH  10  11
ATOM     11  C   UNL     1      -7.024 -18.225  32.328  1.00  0.00    -0.000 C 
BRANCH  11  12
ATOM     12  C   UNL     1      -5.679 -17.939  33.014  1.00  0.00    -0.000 C 
BRANCH  12  13
ATOM     13  C   UNL     1      -4.808 -19.198  33.179  1.00  0.00    -0.000 C 
BRANCH  13  14
ATOM     14  C   UNL     1      -3.765 -19.128  34.310  1.00  0.00    -0.000 C 
BRANCH  14  15
ATOM     15  C   UNL     1      -4.015 -20.161  35.421  1.00  0.00    -0.000 C 
BRANCH  15  16
ATOM     16  C   UNL     1      -5.473 -20.637  35.465  1.00  0.00    -0.003 C 
ATOM     17  C   UNL     1      -5.599 -22.156  35.575  1.00  0.00     0.004 C 
ENDBRANCH  15  16
ENDBRANCH  14  15
ENDBRANCH  13  14
ENDBRANCH  12  13
ENDBRANCH  11  12
ENDBRANCH  10  11
ENDBRANCH   1  10
TORSDOF 13
ENDMDL
MODEL 9
REMARK VINA RESULT:    -4.571      1.891      3.606
REMARK INTER + INTRA:          -9.376
REMARK INTER:                  -7.683
REMARK INTRA:                  -1.694
REMARK UNBOUND:                -1.331
REMARK SMILES CCCCCCCCCCCCCCC(=O)[O-]
REMARK SMILES IDX 9 1 10 2 11 3 12 4 13 5 14 6 15 7 16 8 17 9 8 10 7 11 6 12
REMARK SMILES IDX 5 13 4 14 3 15 2 16 1 17
REMARK H PARENT
REMARK Flexibility Score: inf
ROOT
ATOM      1  C   UNL     1       1.881 -35.178  22.262  1.00  0.00     0.000 C 
ENDROOT
BRANCH   1   2
ATOM      2  C   UNL     1       1.087 -35.877  21.145  1.00  0.00     0.000 C 
BRANCH   2   3
ATOM      3  C   UNL     1       0.841 -37.382  21.368  1.00  0.00     0.000 C 
BRANCH   3   4
ATOM      4  C   UNL     1      -0.343 -37.923  20.546  1.00  0.00     0.000 C 
BRANCH   4   5
ATOM      5  C   UNL     1      -1.678 -37.841  21.314  1.00  0.00     0.006 C 
BRANCH   5   6
ATOM      6  C   UNL     1      -2.584 -36.689  20.849  1.00  0.00     0.053 C 
BRANCH   6   7
ATOM      7  C   UNL     1      -2.868 -35.714  21.947  1.00  0.00     0.041 C 
ATOM      8  O   UNL     1      -3.965 -35.757  22.564  1.00  0.00    -0.550 OA
ATOM      9  O   UNL     1      -1.938 -34.733  22.266  1.00  0.00    -0.550 OA
ENDBRANCH   6   7
ENDBRANCH   5   6
ENDBRANCH   4   5
ENDBRANCH   3   4
ENDBRANCH   2   3
ENDBRANCH   1   2
BRANCH   1  10
ATOM     10  C   UNL     1       3.400 -35.236  22.043  1.00  0.00     0.000 C 
BRANCH  10  11
ATOM     11  C   UNL     1       4.074 -36.114  23.103  1.00  0.00    -0.000 C 
BRANCH  11  12
ATOM     12  C   UNL     1       4.966 -37.181  22.451  1.00  0.00    -0.000 C 
BRANCH  12  13
ATOM     13  C   UNL     1       4.517 -37.552  21.026  1.00  0.00    -0.000 C 
BRANCH  13  14
ATOM     14  C   UNL     1       5.554 -37.281  19.921  1.00  0.00    -0.000 C 
BRANCH  14  15
ATOM     15  C   UNL     1       4.927 -37.180  18.521  1.00  0.00    -0.000 C 
BRANCH  15  16
ATOM     16  C   UNL     1       3.637 -36.349  18.513  1.00  0.00    -0.003 C 
ATOM     17  C   UNL     1       2.453 -37.096  17.901  1.00  0.00     0.004 C 
ENDBRANCH  15  16
ENDBRANCH  14  15
ENDBRANCH  13  14
ENDBRANCH  12  13
ENDBRANCH  11  12
ENDBRANCH  10  11
ENDBRANCH   1  10
TORSDOF 13
ENDMDL
