MODEL 1
REMARK VINA RESULT:    -7.447      0.000      0.000
REMARK INTER + INTRA:         -11.888
REMARK INTER:                 -10.930
REMARK INTRA:                  -0.958
REMARK UNBOUND:                -0.958
REMARK SMILES Cc1cc2c(C(C)C)c(O)c(O)c(C=O)c2c(O)c1-c1c(C)cc2c(C(C)C)c(O)c(O)c(C=O)c2c1O
REMARK SMILES IDX 1 1 2 2 3 3 4 4 16 5 13 6 11 7 9 8 5 9 17 10 19 11 20 12
REMARK SMILES IDX 37 13 21 14 36 15 23 16 22 17 24 18 33 19 25 20 31 21 29 22
REMARK SMILES IDX 38 23 34 25 35 26 26 27 27 28 28 29 32 30 30 32 18 34 6 36
REMARK SMILES IDX 7 37 8 38 14 39 15 40 10 41 12 43
REMARK H PARENT 38 24 32 31 30 33 18 35 10 42 12 44
REMARK Flexibility Score: inf
ROOT
ATOM      1  C   UNL     1      -1.372 -18.307 -35.585  1.00  0.00     0.045 C 
ATOM      2  C   UNL     1      -1.636 -16.846 -35.859  1.00  0.00    -0.039 A 
ATOM      3  C   UNL     1      -2.447 -16.486 -36.936  1.00  0.00     0.013 A 
ATOM      4  C   UNL     1      -2.741 -15.136 -37.227  1.00  0.00    -0.006 A 
ATOM      5  C   UNL     1      -2.325 -14.133 -36.305  1.00  0.00     0.039 A 
ATOM      6  C   UNL     1      -2.817 -12.804 -36.463  1.00  0.00     0.072 A 
ATOM      7  C   UNL     1      -3.651 -12.485 -37.552  1.00  0.00     0.169 A 
ATOM      8  C   UNL     1      -4.007 -13.472 -38.493  1.00  0.00     0.162 A 
ATOM      9  C   UNL     1      -3.472 -14.775 -38.399  1.00  0.00     0.008 A 
ATOM     10  C   UNL     1      -1.410 -14.490 -35.271  1.00  0.00     0.132 A 
ATOM     11  C   UNL     1      -1.081 -15.843 -35.046  1.00  0.00     0.031 A 
ENDROOT
BRANCH  11  12
ATOM     12  C   UNL     1      -0.158 -16.215 -33.941  1.00  0.00     0.031 A 
ATOM     13  C   UNL     1      -0.645 -16.355 -32.625  1.00  0.00     0.132 A 
ATOM     14  C   UNL     1       1.194 -16.473 -34.224  1.00  0.00    -0.039 A 
ATOM     15  C   UNL     1       0.239 -16.700 -31.558  1.00  0.00     0.039 A 
ATOM     16  C   UNL     1       2.046 -16.879 -33.196  1.00  0.00     0.013 A 
ATOM     17  C   UNL     1       1.729 -16.365 -35.630  1.00  0.00     0.045 C 
ATOM     18  C   UNL     1       1.612 -16.965 -31.854  1.00  0.00    -0.006 A 
ATOM     19  C   UNL     1      -0.215 -16.844 -30.213  1.00  0.00     0.072 A 
ATOM     20  C   UNL     1       2.510 -17.346 -30.810  1.00  0.00     0.008 A 
ATOM     21  C   UNL     1       0.637 -17.407 -29.243  1.00  0.00     0.169 A 
ATOM     22  C   UNL     1       1.972 -17.688 -29.551  1.00  0.00     0.162 A 
BRANCH  13  23
ATOM     23  O   UNL     1      -2.013 -16.189 -32.384  1.00  0.00    -0.507 OA
ATOM     24  H   UNL     1      -2.454 -15.296 -32.210  1.00  0.00     0.293 HD
ENDBRANCH  13  23
BRANCH  19  25
ATOM     25  C   UNL     1      -1.550 -16.389 -29.774  1.00  0.00     0.264 C 
ATOM     26  O   UNL     1      -1.735 -15.189 -29.439  1.00  0.00    -0.298 OA
ENDBRANCH  19  25
BRANCH  20  27
ATOM     27  C   UNL     1       4.032 -17.428 -31.036  1.00  0.00     0.017 C 
ATOM     28  C   UNL     1       4.598 -18.735 -30.473  1.00  0.00     0.012 C 
ATOM     29  C   UNL     1       4.808 -16.208 -30.504  1.00  0.00     0.012 C 
ENDBRANCH  20  27
BRANCH  21  30
ATOM     30  O   UNL     1       0.192 -17.673 -27.942  1.00  0.00    -0.504 OA
ATOM     31  H   UNL     1       0.724 -17.466 -27.107  1.00  0.00     0.293 HD
ENDBRANCH  21  30
BRANCH  22  32
ATOM     32  O   UNL     1       2.778 -18.308 -28.593  1.00  0.00    -0.504 OA
ATOM     33  H   UNL     1       3.227 -19.203 -28.744  1.00  0.00     0.293 HD
ENDBRANCH  22  32
ENDBRANCH  11  12
BRANCH  10  34
ATOM     34  O   UNL     1      -0.796 -13.498 -34.497  1.00  0.00    -0.507 OA
ATOM     35  H   UNL     1      -0.314 -13.679 -33.626  1.00  0.00     0.293 HD
ENDBRANCH  10  34
BRANCH   9  36
ATOM     36  C   UNL     1      -3.698 -15.779 -39.544  1.00  0.00     0.017 C 
ATOM     37  C   UNL     1      -2.364 -16.270 -40.117  1.00  0.00     0.012 C 
ATOM     38  C   UNL     1      -4.612 -16.958 -39.163  1.00  0.00     0.012 C 
ENDBRANCH   9  36
BRANCH   6  39
ATOM     39  C   UNL     1      -2.589 -11.752 -35.443  1.00  0.00     0.264 C 
ATOM     40  O   UNL     1      -1.784 -10.806 -35.655  1.00  0.00    -0.298 OA
ENDBRANCH   6  39
BRANCH   8  41
ATOM     41  O   UNL     1      -4.926 -13.192 -39.508  1.00  0.00    -0.504 OA
ATOM     42  H   UNL     1      -4.799 -13.425 -40.482  1.00  0.00     0.293 HD
ENDBRANCH   8  41
BRANCH   7  43
ATOM     43  O   UNL     1      -4.119 -11.171 -37.668  1.00  0.00    -0.504 OA
ATOM     44  H   UNL     1      -5.030 -10.914 -38.020  1.00  0.00     0.293 HD
ENDBRANCH   7  43
TORSDOF 11
ENDMDL
MODEL 2
REMARK VINA RESULT:    -7.110      1.551      2.972
REMARK INTER + INTRA:         -11.394
REMARK INTER:                 -10.903
REMARK INTRA:                  -0.491
REMARK UNBOUND:                -0.958
REMARK SMILES Cc1cc2c(C(C)C)c(O)c(O)c(C=O)c2c(O)c1-c1c(C)cc2c(C(C)C)c(O)c(O)c(C=O)c2c1O
REMARK SMILES IDX 1 1 2 2 3 3 4 4 16 5 13 6 11 7 9 8 5 9 17 10 19 11 20 12
REMARK SMILES IDX 37 13 21 14 36 15 23 16 22 17 24 18 33 19 25 20 31 21 29 22
REMARK SMILES IDX 38 23 34 25 35 26 26 27 27 28 28 29 32 30 30 32 18 34 6 36
REMARK SMILES IDX 7 37 8 38 14 39 15 40 10 41 12 43
REMARK H PARENT 38 24 32 31 30 33 18 35 10 42 12 44
REMARK Flexibility Score: inf
ROOT
ATOM      1  C   UNL     1      -0.461 -12.779 -34.377  1.00  0.00     0.045 C 
ATOM      2  C   UNL     1      -1.369 -13.725 -35.124  1.00  0.00    -0.039 A 
ATOM      3  C   UNL     1      -2.284 -13.214 -36.047  1.00  0.00     0.013 A 
ATOM      4  C   UNL     1      -3.144 -14.055 -36.786  1.00  0.00    -0.006 A 
ATOM      5  C   UNL     1      -2.962 -15.465 -36.697  1.00  0.00     0.039 A 
ATOM      6  C   UNL     1      -3.660 -16.309 -37.610  1.00  0.00     0.072 A 
ATOM      7  C   UNL     1      -4.557 -15.752 -38.542  1.00  0.00     0.169 A 
ATOM      8  C   UNL     1      -4.775 -14.361 -38.580  1.00  0.00     0.162 A 
ATOM      9  C   UNL     1      -4.154 -13.513 -37.637  1.00  0.00     0.008 A 
ATOM     10  C   UNL     1      -2.108 -15.983 -35.679  1.00  0.00     0.132 A 
ATOM     11  C   UNL     1      -1.308 -15.113 -34.908  1.00  0.00     0.031 A 
ENDROOT
BRANCH  11  12
ATOM     12  C   UNL     1      -0.389 -15.659 -33.875  1.00  0.00     0.031 A 
ATOM     13  C   UNL     1      -0.839 -15.847 -32.551  1.00  0.00     0.132 A 
ATOM     14  C   UNL     1       0.916 -16.031 -34.235  1.00  0.00    -0.039 A 
ATOM     15  C   UNL     1       0.042 -16.359 -31.553  1.00  0.00     0.039 A 
ATOM     16  C   UNL     1       1.759 -16.597 -33.278  1.00  0.00     0.013 A 
ATOM     17  C   UNL     1       1.408 -15.872 -35.653  1.00  0.00     0.045 C 
ATOM     18  C   UNL     1       1.368 -16.740 -31.927  1.00  0.00    -0.006 A 
ATOM     19  C   UNL     1      -0.374 -16.557 -30.202  1.00  0.00     0.072 A 
ATOM     20  C   UNL     1       2.259 -17.287 -30.953  1.00  0.00     0.008 A 
ATOM     21  C   UNL     1       0.449 -17.276 -29.314  1.00  0.00     0.169 A 
ATOM     22  C   UNL     1       1.735 -17.666 -29.699  1.00  0.00     0.162 A 
BRANCH  13  23
ATOM     23  O   UNL     1      -2.173 -15.561 -32.239  1.00  0.00    -0.507 OA
ATOM     24  H   UNL     1      -2.650 -14.713 -32.513  1.00  0.00     0.293 HD
ENDBRANCH  13  23
BRANCH  19  25
ATOM     25  C   UNL     1      -1.637 -16.003 -29.673  1.00  0.00     0.264 C 
ATOM     26  O   UNL     1      -1.704 -14.796 -29.320  1.00  0.00    -0.298 OA
ENDBRANCH  19  25
BRANCH  20  27
ATOM     27  C   UNL     1       3.754 -17.506 -31.252  1.00  0.00     0.017 C 
ATOM     28  C   UNL     1       4.278 -18.753 -30.533  1.00  0.00     0.012 C 
ATOM     29  C   UNL     1       4.636 -16.279 -30.956  1.00  0.00     0.012 C 
ENDBRANCH  20  27
BRANCH  21  30
ATOM     30  O   UNL     1       0.027 -17.592 -28.017  1.00  0.00    -0.504 OA
ATOM     31  H   UNL     1      -0.615 -18.343 -27.795  1.00  0.00     0.293 HD
ENDBRANCH  21  30
BRANCH  22  32
ATOM     32  O   UNL     1       2.506 -18.436 -28.824  1.00  0.00    -0.504 OA
ATOM     33  H   UNL     1       2.185 -18.715 -27.905  1.00  0.00     0.293 HD
ENDBRANCH  22  32
ENDBRANCH  11  12
BRANCH  10  34
ATOM     34  O   UNL     1      -2.086 -17.355 -35.405  1.00  0.00    -0.507 OA
ATOM     35  H   UNL     1      -1.999 -17.744 -34.475  1.00  0.00     0.293 HD
ENDBRANCH  10  34
BRANCH   9  36
ATOM     36  C   UNL     1      -4.563 -12.031 -37.555  1.00  0.00     0.017 C 
ATOM     37  C   UNL     1      -4.512 -11.368 -38.936  1.00  0.00     0.012 C 
ATOM     38  C   UNL     1      -5.925 -11.802 -36.873  1.00  0.00     0.012 C 
ENDBRANCH   9  36
BRANCH   6  39
ATOM     39  C   UNL     1      -3.380 -17.762 -37.711  1.00  0.00     0.264 C 
ATOM     40  O   UNL     1      -2.479 -18.198 -38.476  1.00  0.00    -0.298 OA
ENDBRANCH   6  39
BRANCH   8  41
ATOM     41  O   UNL     1      -5.574 -13.791 -39.575  1.00  0.00    -0.504 OA
ATOM     42  H   UNL     1      -6.006 -12.880 -39.518  1.00  0.00     0.293 HD
ENDBRANCH   8  41
BRANCH   7  43
ATOM     43  O   UNL     1      -5.217 -16.614 -39.426  1.00  0.00    -0.504 OA
ATOM     44  H   UNL     1      -5.170 -17.622 -39.388  1.00  0.00     0.293 HD
ENDBRANCH   7  43
TORSDOF 11
ENDMDL
MODEL 3
REMARK VINA RESULT:    -7.057      2.041      3.262
REMARK INTER + INTRA:         -11.315
REMARK INTER:                 -10.221
REMARK INTRA:                  -1.094
REMARK UNBOUND:                -0.958
REMARK SMILES Cc1cc2c(C(C)C)c(O)c(O)c(C=O)c2c(O)c1-c1c(C)cc2c(C(C)C)c(O)c(O)c(C=O)c2c1O
REMARK SMILES IDX 1 1 2 2 3 3 4 4 16 5 13 6 11 7 9 8 5 9 17 10 19 11 20 12
REMARK SMILES IDX 37 13 21 14 36 15 23 16 22 17 24 18 33 19 25 20 31 21 29 22
REMARK SMILES IDX 38 23 34 25 35 26 26 27 27 28 28 29 32 30 30 32 18 34 6 36
REMARK SMILES IDX 7 37 8 38 14 39 15 40 10 41 12 43
REMARK H PARENT 38 24 32 31 30 33 18 35 10 42 12 44
REMARK Flexibility Score: inf
ROOT
ATOM      1  C   UNL     1      -1.938 -12.424 -33.499  1.00  0.00     0.045 C 
ATOM      2  C   UNL     1      -2.169 -13.075 -34.841  1.00  0.00    -0.039 A 
ATOM      3  C   UNL     1      -3.062 -12.492 -35.742  1.00  0.00     0.013 A 
ATOM      4  C   UNL     1      -3.301 -13.049 -37.018  1.00  0.00    -0.006 A 
ATOM      5  C   UNL     1      -2.495 -14.142 -37.448  1.00  0.00     0.039 A 
ATOM      6  C   UNL     1      -2.565 -14.556 -38.810  1.00  0.00     0.072 A 
ATOM      7  C   UNL     1      -3.463 -13.927 -39.694  1.00  0.00     0.169 A 
ATOM      8  C   UNL     1      -4.300 -12.888 -39.243  1.00  0.00     0.162 A 
ATOM      9  C   UNL     1      -4.303 -12.512 -37.881  1.00  0.00     0.008 A 
ATOM     10  C   UNL     1      -1.666 -14.800 -36.492  1.00  0.00     0.132 A 
ATOM     11  C   UNL     1      -1.498 -14.257 -35.200  1.00  0.00     0.031 A 
ENDROOT
BRANCH  11  12
ATOM     12  C   UNL     1      -0.601 -14.923 -34.219  1.00  0.00     0.031 A 
ATOM     13  C   UNL     1      -1.095 -15.952 -33.390  1.00  0.00     0.132 A 
ATOM     14  C   UNL     1       0.752 -14.554 -34.154  1.00  0.00    -0.039 A 
ATOM     15  C   UNL     1      -0.242 -16.587 -32.438  1.00  0.00     0.039 A 
ATOM     16  C   UNL     1       1.606 -15.221 -33.274  1.00  0.00     0.013 A 
ATOM     17  C   UNL     1       1.310 -13.481 -35.056  1.00  0.00     0.045 C 
ATOM     18  C   UNL     1       1.136 -16.210 -32.381  1.00  0.00    -0.006 A 
ATOM     19  C   UNL     1      -0.706 -17.627 -31.578  1.00  0.00     0.072 A 
ATOM     20  C   UNL     1       2.018 -16.854 -31.460  1.00  0.00     0.008 A 
ATOM     21  C   UNL     1       0.218 -18.378 -30.825  1.00  0.00     0.169 A 
ATOM     22  C   UNL     1       1.568 -18.016 -30.797  1.00  0.00     0.162 A 
BRANCH  13  23
ATOM     23  O   UNL     1      -2.422 -16.370 -33.541  1.00  0.00    -0.507 OA
ATOM     24  H   UNL     1      -2.693 -17.294 -33.850  1.00  0.00     0.293 HD
ENDBRANCH  13  23
BRANCH  19  25
ATOM     25  C   UNL     1      -2.141 -17.936 -31.411  1.00  0.00     0.264 C 
ATOM     26  O   UNL     1      -2.634 -18.971 -31.932  1.00  0.00    -0.298 OA
ENDBRANCH  19  25
BRANCH  20  27
ATOM     27  C   UNL     1       3.447 -16.338 -31.207  1.00  0.00     0.017 C 
ATOM     28  C   UNL     1       4.476 -17.186 -31.962  1.00  0.00     0.012 C 
ATOM     29  C   UNL     1       3.811 -16.214 -29.716  1.00  0.00     0.012 C 
ENDBRANCH  20  27
BRANCH  21  30
ATOM     30  O   UNL     1      -0.183 -19.480 -30.061  1.00  0.00    -0.504 OA
ATOM     31  H   UNL     1      -0.736 -19.414 -29.215  1.00  0.00     0.293 HD
ENDBRANCH  21  30
BRANCH  22  32
ATOM     32  O   UNL     1       2.475 -18.815 -30.097  1.00  0.00    -0.504 OA
ATOM     33  H   UNL     1       3.353 -18.466 -29.733  1.00  0.00     0.293 HD
ENDBRANCH  22  32
ENDBRANCH  11  12
BRANCH  10  34
ATOM     34  O   UNL     1      -1.045 -16.013 -36.810  1.00  0.00    -0.507 OA
ATOM     35  H   UNL     1      -0.805 -16.294 -37.752  1.00  0.00     0.293 HD
ENDBRANCH  10  34
BRANCH   9  36
ATOM     36  C   UNL     1      -5.367 -11.528 -37.362  1.00  0.00     0.017 C 
ATOM     37  C   UNL     1      -5.604 -10.393 -38.365  1.00  0.00     0.012 C 
ATOM     38  C   UNL     1      -6.690 -12.203 -36.957  1.00  0.00     0.012 C 
ENDBRANCH   9  36
BRANCH   6  39
ATOM     39  C   UNL     1      -1.624 -15.551 -39.381  1.00  0.00     0.264 C 
ATOM     40  O   UNL     1      -2.019 -16.700 -39.714  1.00  0.00    -0.298 OA
ENDBRANCH   6  39
BRANCH   8  41
ATOM     41  O   UNL     1      -5.109 -12.183 -40.138  1.00  0.00    -0.504 OA
ATOM     42  H   UNL     1      -4.880 -12.004 -41.105  1.00  0.00     0.293 HD
ENDBRANCH   8  41
BRANCH   7  43
ATOM     43  O   UNL     1      -3.497 -14.358 -41.026  1.00  0.00    -0.504 OA
ATOM     44  H   UNL     1      -2.771 -14.181 -41.705  1.00  0.00     0.293 HD
ENDBRANCH   7  43
TORSDOF 11
ENDMDL
MODEL 4
REMARK VINA RESULT:    -6.860      3.076      5.829
REMARK INTER + INTRA:         -11.026
REMARK INTER:                 -10.162
REMARK INTRA:                  -0.864
REMARK UNBOUND:                -0.958
REMARK SMILES Cc1cc2c(C(C)C)c(O)c(O)c(C=O)c2c(O)c1-c1c(C)cc2c(C(C)C)c(O)c(O)c(C=O)c2c1O
REMARK SMILES IDX 1 1 2 2 3 3 4 4 16 5 13 6 11 7 9 8 5 9 17 10 19 11 20 12
REMARK SMILES IDX 37 13 21 14 36 15 23 16 22 17 24 18 33 19 25 20 31 21 29 22
REMARK SMILES IDX 38 23 34 25 35 26 26 27 27 28 28 29 32 30 30 32 18 34 6 36
REMARK SMILES IDX 7 37 8 38 14 39 15 40 10 41 12 43
REMARK H PARENT 38 24 32 31 30 33 18 35 10 42 12 44
REMARK Flexibility Score: inf
ROOT
ATOM      1  C   UNL     1      -2.677 -14.448 -40.310  1.00  0.00     0.045 C 
ATOM      2  C   UNL     1      -3.752 -13.558 -39.734  1.00  0.00    -0.039 A 
ATOM      3  C   UNL     1      -4.542 -12.793 -40.594  1.00  0.00     0.013 A 
ATOM      4  C   UNL     1      -5.573 -11.957 -40.112  1.00  0.00    -0.006 A 
ATOM      5  C   UNL     1      -5.911 -12.019 -38.730  1.00  0.00     0.039 A 
ATOM      6  C   UNL     1      -7.094 -11.364 -38.280  1.00  0.00     0.072 A 
ATOM      7  C   UNL     1      -7.877 -10.620 -39.184  1.00  0.00     0.169 A 
ATOM      8  C   UNL     1      -7.499 -10.515 -40.537  1.00  0.00     0.162 A 
ATOM      9  C   UNL     1      -6.293 -11.092 -40.990  1.00  0.00     0.008 A 
ATOM     10  C   UNL     1      -5.038 -12.714 -37.841  1.00  0.00     0.132 A 
ATOM     11  C   UNL     1      -3.973 -13.488 -38.348  1.00  0.00     0.031 A 
ENDROOT
BRANCH  11  12
ATOM     12  C   UNL     1      -3.089 -14.243 -37.422  1.00  0.00     0.031 A 
ATOM     13  C   UNL     1      -1.970 -13.615 -36.837  1.00  0.00     0.132 A 
ATOM     14  C   UNL     1      -3.401 -15.573 -37.094  1.00  0.00    -0.039 A 
ATOM     15  C   UNL     1      -1.110 -14.338 -35.956  1.00  0.00     0.039 A 
ATOM     16  C   UNL     1      -2.604 -16.262 -36.179  1.00  0.00     0.013 A 
ATOM     17  C   UNL     1      -4.613 -16.254 -37.680  1.00  0.00     0.045 C 
ATOM     18  C   UNL     1      -1.437 -15.690 -35.624  1.00  0.00    -0.006 A 
ATOM     19  C   UNL     1       0.035 -13.739 -35.351  1.00  0.00     0.072 A 
ATOM     20  C   UNL     1      -0.612 -16.425 -34.718  1.00  0.00     0.008 A 
ATOM     21  C   UNL     1       0.713 -14.413 -34.318  1.00  0.00     0.169 A 
ATOM     22  C   UNL     1       0.369 -15.726 -33.983  1.00  0.00     0.162 A 
BRANCH  13  23
ATOM     23  O   UNL     1      -1.734 -12.261 -37.101  1.00  0.00    -0.507 OA
ATOM     24  H   UNL     1      -2.464 -11.567 -37.198  1.00  0.00     0.293 HD
ENDBRANCH  13  23
BRANCH  19  25
ATOM     25  C   UNL     1       0.572 -12.435 -35.790  1.00  0.00     0.264 C 
ATOM     26  O   UNL     1       0.428 -11.412 -35.070  1.00  0.00    -0.298 OA
ENDBRANCH  19  25
BRANCH  20  27
ATOM     27  C   UNL     1      -0.794 -17.939 -34.500  1.00  0.00     0.017 C 
ATOM     28  C   UNL     1      -1.521 -18.217 -33.181  1.00  0.00     0.012 C 
ATOM     29  C   UNL     1       0.516 -18.745 -34.596  1.00  0.00     0.012 C 
ENDBRANCH  20  27
BRANCH  21  30
ATOM     30  O   UNL     1       1.768 -13.812 -33.619  1.00  0.00    -0.504 OA
ATOM     31  H   UNL     1       2.601 -13.441 -34.057  1.00  0.00     0.293 HD
ENDBRANCH  21  30
BRANCH  22  32
ATOM     32  O   UNL     1       1.012 -16.349 -32.910  1.00  0.00    -0.504 OA
ATOM     33  H   UNL     1       2.017 -16.334 -32.785  1.00  0.00     0.293 HD
ENDBRANCH  22  32
ENDBRANCH  11  12
BRANCH  10  34
ATOM     34  O   UNL     1      -5.202 -12.600 -36.456  1.00  0.00    -0.507 OA
ATOM     35  H   UNL     1      -6.090 -12.422 -36.005  1.00  0.00     0.293 HD
ENDBRANCH  10  34
BRANCH   9  36
ATOM     36  C   UNL     1      -5.788 -10.791 -42.413  1.00  0.00     0.017 C 
ATOM     37  C   UNL     1      -6.956 -10.692 -43.401  1.00  0.00     0.012 C 
ATOM     38  C   UNL     1      -4.876  -9.553 -42.497  1.00  0.00     0.012 C 
ENDBRANCH   9  36
BRANCH   6  39
ATOM     39  C   UNL     1      -7.618 -11.540 -36.903  1.00  0.00     0.264 C 
ATOM     40  O   UNL     1      -8.374 -12.506 -36.615  1.00  0.00    -0.298 OA
ENDBRANCH   6  39
BRANCH   8  41
ATOM     41  O   UNL     1      -8.330  -9.876 -41.462  1.00  0.00    -0.504 OA
ATOM     42  H   UNL     1      -8.568  -8.895 -41.443  1.00  0.00     0.293 HD
ENDBRANCH   8  41
BRANCH   7  43
ATOM     43  O   UNL     1      -9.035  -9.997 -38.704  1.00  0.00    -0.504 OA
ATOM     44  H   UNL     1      -9.124  -9.576 -37.790  1.00  0.00     0.293 HD
ENDBRANCH   7  43
TORSDOF 11
ENDMDL
MODEL 5
REMARK VINA RESULT:    -6.708      3.458      9.935
REMARK INTER + INTRA:         -10.803
REMARK INTER:                  -9.938
REMARK INTRA:                  -0.865
REMARK UNBOUND:                -0.958
REMARK SMILES Cc1cc2c(C(C)C)c(O)c(O)c(C=O)c2c(O)c1-c1c(C)cc2c(C(C)C)c(O)c(O)c(C=O)c2c1O
REMARK SMILES IDX 1 1 2 2 3 3 4 4 16 5 13 6 11 7 9 8 5 9 17 10 19 11 20 12
REMARK SMILES IDX 37 13 21 14 36 15 23 16 22 17 24 18 33 19 25 20 31 21 29 22
REMARK SMILES IDX 38 23 34 25 35 26 26 27 27 28 28 29 32 30 30 32 18 34 6 36
REMARK SMILES IDX 7 37 8 38 14 39 15 40 10 41 12 43
REMARK H PARENT 38 24 32 31 30 33 18 35 10 42 12 44
REMARK Flexibility Score: inf
ROOT
ATOM      1  C   UNL     1      -4.426 -16.440 -38.559  1.00  0.00     0.045 C 
ATOM      2  C   UNL     1      -3.332 -15.745 -37.786  1.00  0.00    -0.039 A 
ATOM      3  C   UNL     1      -2.485 -16.498 -36.970  1.00  0.00     0.013 A 
ATOM      4  C   UNL     1      -1.434 -15.902 -36.239  1.00  0.00    -0.006 A 
ATOM      5  C   UNL     1      -1.139 -14.527 -36.465  1.00  0.00     0.039 A 
ATOM      6  C   UNL     1       0.058 -13.979 -35.917  1.00  0.00     0.072 A 
ATOM      7  C   UNL     1       0.897 -14.778 -35.117  1.00  0.00     0.169 A 
ATOM      8  C   UNL     1       0.565 -16.120 -34.849  1.00  0.00     0.162 A 
ATOM      9  C   UNL     1      -0.652 -16.662 -35.318  1.00  0.00     0.008 A 
ATOM     10  C   UNL     1      -2.067 -13.741 -37.210  1.00  0.00     0.132 A 
ATOM     11  C   UNL     1      -3.149 -14.355 -37.876  1.00  0.00     0.031 A 
ENDROOT
BRANCH  11  12
ATOM     12  C   UNL     1      -4.091 -13.538 -38.685  1.00  0.00     0.031 A 
ATOM     13  C   UNL     1      -5.180 -12.888 -38.066  1.00  0.00     0.132 A 
ATOM     14  C   UNL     1      -3.865 -13.378 -40.062  1.00  0.00    -0.039 A 
ATOM     15  C   UNL     1      -6.095 -12.113 -38.840  1.00  0.00     0.039 A 
ATOM     16  C   UNL     1      -4.717 -12.563 -40.809  1.00  0.00     0.013 A 
ATOM     17  C   UNL     1      -2.686 -14.034 -40.738  1.00  0.00     0.045 C 
ATOM     18  C   UNL     1      -5.855 -11.950 -40.240  1.00  0.00    -0.006 A 
ATOM     19  C   UNL     1      -7.212 -11.446 -38.252  1.00  0.00     0.072 A 
ATOM     20  C   UNL     1      -6.737 -11.150 -41.030  1.00  0.00     0.008 A 
ATOM     21  C   UNL     1      -7.946 -10.511 -39.006  1.00  0.00     0.169 A 
ATOM     22  C   UNL     1      -7.686 -10.341 -40.370  1.00  0.00     0.162 A 
BRANCH  13  23
ATOM     23  O   UNL     1      -5.330 -12.982 -36.678  1.00  0.00    -0.507 OA
ATOM     24  H   UNL     1      -6.094 -12.569 -36.162  1.00  0.00     0.293 HD
ENDBRANCH  13  23
BRANCH  19  25
ATOM     25  C   UNL     1      -7.663 -11.722 -36.872  1.00  0.00     0.264 C 
ATOM     26  O   UNL     1      -8.368 -12.735 -36.624  1.00  0.00    -0.298 OA
ENDBRANCH  19  25
BRANCH  20  27
ATOM     27  C   UNL     1      -6.651 -11.122 -42.568  1.00  0.00     0.017 C 
ATOM     28  C   UNL     1      -5.693 -10.025 -43.041  1.00  0.00     0.012 C 
ATOM     29  C   UNL     1      -8.018 -11.010 -43.268  1.00  0.00     0.012 C 
ENDBRANCH  20  27
BRANCH  21  30
ATOM     30  O   UNL     1      -8.973  -9.752 -38.433  1.00  0.00    -0.504 OA
ATOM     31  H   UNL     1      -9.725 -10.140 -37.877  1.00  0.00     0.293 HD
ENDBRANCH  21  30
BRANCH  22  32
ATOM     32  O   UNL     1      -8.383  -9.361 -41.080  1.00  0.00    -0.504 OA
ATOM     33  H   UNL     1      -9.139  -9.574 -41.719  1.00  0.00     0.293 HD
ENDBRANCH  22  32
ENDBRANCH  11  12
BRANCH  10  34
ATOM     34  O   UNL     1      -1.939 -12.348 -37.254  1.00  0.00    -0.507 OA
ATOM     35  H   UNL     1      -1.288 -11.822 -36.684  1.00  0.00     0.293 HD
ENDBRANCH  10  34
BRANCH   9  36
ATOM     36  C   UNL     1      -1.101 -18.056 -34.843  1.00  0.00     0.017 C 
ATOM     37  C   UNL     1      -2.383 -17.967 -34.008  1.00  0.00     0.012 C 
ATOM     38  C   UNL     1      -1.245 -19.082 -35.983  1.00  0.00     0.012 C 
ENDBRANCH   9  36
BRANCH   6  39
ATOM     39  C   UNL     1       0.533 -12.618 -36.264  1.00  0.00     0.264 C 
ATOM     40  O   UNL     1       1.357 -12.437 -37.199  1.00  0.00    -0.298 OA
ENDBRANCH   6  39
BRANCH   8  41
ATOM     41  O   UNL     1       1.449 -16.949 -34.154  1.00  0.00    -0.504 OA
ATOM     42  H   UNL     1       1.943 -17.733 -34.557  1.00  0.00     0.293 HD
ENDBRANCH   8  41
BRANCH   7  43
ATOM     43  O   UNL     1       2.067 -14.204 -34.603  1.00  0.00    -0.504 OA
ATOM     44  H   UNL     1       2.317 -14.188 -33.624  1.00  0.00     0.293 HD
ENDBRANCH   7  43
TORSDOF 11
ENDMDL
MODEL 6
REMARK VINA RESULT:    -6.629      0.618      8.913
REMARK INTER + INTRA:         -10.687
REMARK INTER:                  -9.866
REMARK INTRA:                  -0.822
REMARK UNBOUND:                -0.958
REMARK SMILES Cc1cc2c(C(C)C)c(O)c(O)c(C=O)c2c(O)c1-c1c(C)cc2c(C(C)C)c(O)c(O)c(C=O)c2c1O
REMARK SMILES IDX 1 1 2 2 3 3 4 4 16 5 13 6 11 7 9 8 5 9 17 10 19 11 20 12
REMARK SMILES IDX 37 13 21 14 36 15 23 16 22 17 24 18 33 19 25 20 31 21 29 22
REMARK SMILES IDX 38 23 34 25 35 26 26 27 27 28 28 29 32 30 30 32 18 34 6 36
REMARK SMILES IDX 7 37 8 38 14 39 15 40 10 41 12 43
REMARK H PARENT 38 24 32 31 30 33 18 35 10 42 12 44
REMARK Flexibility Score: inf
ROOT
ATOM      1  C   UNL     1       1.658 -15.578 -35.791  1.00  0.00     0.045 C 
ATOM      2  C   UNL     1       1.088 -15.963 -34.447  1.00  0.00    -0.039 A 
ATOM      3  C   UNL     1       1.954 -16.313 -33.409  1.00  0.00     0.013 A 
ATOM      4  C   UNL     1       1.476 -16.663 -32.128  1.00  0.00    -0.006 A 
ATOM      5  C   UNL     1       0.088 -16.505 -31.850  1.00  0.00     0.039 A 
ATOM      6  C   UNL     1      -0.364 -16.628 -30.504  1.00  0.00     0.072 A 
ATOM      7  C   UNL     1       0.545 -16.960 -29.481  1.00  0.00     0.169 A 
ATOM      8  C   UNL     1       1.906 -17.174 -29.777  1.00  0.00     0.162 A 
ATOM      9  C   UNL     1       2.363 -17.133 -31.112  1.00  0.00     0.008 A 
ATOM     10  C   UNL     1      -0.803 -16.255 -32.935  1.00  0.00     0.132 A 
ATOM     11  C   UNL     1      -0.299 -15.973 -34.223  1.00  0.00     0.031 A 
ENDROOT
BRANCH  11  12
ATOM     12  C   UNL     1      -1.230 -15.674 -35.342  1.00  0.00     0.031 A 
ATOM     13  C   UNL     1      -1.629 -14.345 -35.598  1.00  0.00     0.132 A 
ATOM     14  C   UNL     1      -1.672 -16.715 -36.174  1.00  0.00    -0.039 A 
ATOM     15  C   UNL     1      -2.533 -14.053 -36.663  1.00  0.00     0.039 A 
ATOM     16  C   UNL     1      -2.499 -16.424 -37.260  1.00  0.00     0.013 A 
ATOM     17  C   UNL     1      -1.229 -18.138 -35.941  1.00  0.00     0.045 C 
ATOM     18  C   UNL     1      -2.975 -15.117 -37.508  1.00  0.00    -0.006 A 
ATOM     19  C   UNL     1      -2.965 -12.723 -36.949  1.00  0.00     0.072 A 
ATOM     20  C   UNL     1      -3.853 -14.846 -38.604  1.00  0.00     0.008 A 
ATOM     21  C   UNL     1      -3.665 -12.455 -38.141  1.00  0.00     0.169 A 
ATOM     22  C   UNL     1      -4.071 -13.502 -38.975  1.00  0.00     0.162 A 
BRANCH  13  23
ATOM     23  O   UNL     1      -1.098 -13.312 -34.817  1.00  0.00    -0.507 OA
ATOM     24  H   UNL     1      -1.654 -12.698 -34.236  1.00  0.00     0.293 HD
ENDBRANCH  13  23
BRANCH  19  25
ATOM     25  C   UNL     1      -2.739 -11.599 -36.017  1.00  0.00     0.264 C 
ATOM     26  O   UNL     1      -1.774 -10.811 -36.193  1.00  0.00    -0.298 OA
ENDBRANCH  19  25
BRANCH  20  27
ATOM     27  C   UNL     1      -4.528 -15.976 -39.403  1.00  0.00     0.017 C 
ATOM     28  C   UNL     1      -5.869 -16.365 -38.773  1.00  0.00     0.012 C 
ATOM     29  C   UNL     1      -3.632 -17.211 -39.616  1.00  0.00     0.012 C 
ENDBRANCH  20  27
BRANCH  21  30
ATOM     30  O   UNL     1      -4.004 -11.149 -38.514  1.00  0.00    -0.504 OA
ATOM     31  H   UNL     1      -3.849 -10.763 -39.437  1.00  0.00     0.293 HD
ENDBRANCH  21  30
BRANCH  22  32
ATOM     32  O   UNL     1      -4.704 -13.206 -40.184  1.00  0.00    -0.504 OA
ATOM     33  H   UNL     1      -4.403 -13.586 -41.073  1.00  0.00     0.293 HD
ENDBRANCH  22  32
ENDBRANCH  11  12
BRANCH  10  34
ATOM     34  O   UNL     1      -2.188 -16.329 -32.744  1.00  0.00    -0.507 OA
ATOM     35  H   UNL     1      -2.625 -16.541 -31.856  1.00  0.00     0.293 HD
ENDBRANCH  10  34
BRANCH   9  36
ATOM     36  C   UNL     1       3.800 -17.575 -31.443  1.00  0.00     0.017 C 
ATOM     37  C   UNL     1       4.777 -16.400 -31.334  1.00  0.00     0.012 C 
ATOM     38  C   UNL     1       4.281 -18.782 -30.616  1.00  0.00     0.012 C 
ENDBRANCH   9  36
BRANCH   6  39
ATOM     39  C   UNL     1      -1.752 -16.289 -30.104  1.00  0.00     0.264 C 
ATOM     40  O   UNL     1      -2.044 -15.136 -29.689  1.00  0.00    -0.298 OA
ENDBRANCH   6  39
BRANCH   8  41
ATOM     41  O   UNL     1       2.833 -17.390 -28.753  1.00  0.00    -0.504 OA
ATOM     42  H   UNL     1       2.944 -18.256 -28.248  1.00  0.00     0.293 HD
ENDBRANCH   8  41
BRANCH   7  43
ATOM     43  O   UNL     1       0.063 -17.064 -28.171  1.00  0.00    -0.504 OA
ATOM     44  H   UNL     1       0.623 -17.324 -27.372  1.00  0.00     0.293 HD
ENDBRANCH   7  43
TORSDOF 11
ENDMDL
MODEL 7
REMARK VINA RESULT:    -6.629      1.661      9.075
REMARK INTER + INTRA:         -10.687
REMARK INTER:                  -9.837
REMARK INTRA:                  -0.850
REMARK UNBOUND:                -0.958
REMARK SMILES Cc1cc2c(C(C)C)c(O)c(O)c(C=O)c2c(O)c1-c1c(C)cc2c(C(C)C)c(O)c(O)c(C=O)c2c1O
REMARK SMILES IDX 1 1 2 2 3 3 4 4 16 5 13 6 11 7 9 8 5 9 17 10 19 11 20 12
REMARK SMILES IDX 37 13 21 14 36 15 23 16 22 17 24 18 33 19 25 20 31 21 29 22
REMARK SMILES IDX 38 23 34 25 35 26 26 27 27 28 28 29 32 30 30 32 18 34 6 36
REMARK SMILES IDX 7 37 8 38 14 39 15 40 10 41 12 43
REMARK H PARENT 38 24 32 31 30 33 18 35 10 42 12 44
REMARK Flexibility Score: inf
ROOT
ATOM      1  C   UNL     1       1.404 -14.879 -35.594  1.00  0.00     0.045 C 
ATOM      2  C   UNL     1       0.858 -15.372 -34.275  1.00  0.00    -0.039 A 
ATOM      3  C   UNL     1       1.735 -15.886 -33.319  1.00  0.00     0.013 A 
ATOM      4  C   UNL     1       1.282 -16.343 -32.063  1.00  0.00    -0.006 A 
ATOM      5  C   UNL     1      -0.082 -16.128 -31.710  1.00  0.00     0.039 A 
ATOM      6  C   UNL     1      -0.492 -16.368 -30.366  1.00  0.00     0.072 A 
ATOM      7  C   UNL     1       0.429 -16.866 -29.425  1.00  0.00     0.169 A 
ATOM      8  C   UNL     1       1.760 -17.134 -29.800  1.00  0.00     0.162 A 
ATOM      9  C   UNL     1       2.170 -16.976 -31.142  1.00  0.00     0.008 A 
ATOM     10  C   UNL     1      -0.993 -15.705 -32.722  1.00  0.00     0.132 A 
ATOM     11  C   UNL     1      -0.518 -15.318 -33.993  1.00  0.00     0.031 A 
ENDROOT
BRANCH  11  12
ATOM     12  C   UNL     1      -1.466 -14.839 -35.033  1.00  0.00     0.031 A 
ATOM     13  C   UNL     1      -2.073 -15.756 -35.917  1.00  0.00     0.132 A 
ATOM     14  C   UNL     1      -1.791 -13.474 -35.101  1.00  0.00    -0.039 A 
ATOM     15  C   UNL     1      -2.975 -15.301 -36.926  1.00  0.00     0.039 A 
ATOM     16  C   UNL     1      -2.725 -13.035 -36.039  1.00  0.00     0.013 A 
ATOM     17  C   UNL     1      -1.181 -12.481 -34.142  1.00  0.00     0.045 C 
ATOM     18  C   UNL     1      -3.304 -13.911 -36.985  1.00  0.00    -0.006 A 
ATOM     19  C   UNL     1      -3.603 -16.196 -37.842  1.00  0.00     0.072 A 
ATOM     20  C   UNL     1      -4.231 -13.435 -37.964  1.00  0.00     0.008 A 
ATOM     21  C   UNL     1      -4.653 -15.737 -38.660  1.00  0.00     0.169 A 
ATOM     22  C   UNL     1      -4.985 -14.379 -38.692  1.00  0.00     0.162 A 
BRANCH  13  23
ATOM     23  O   UNL     1      -1.810 -17.122 -35.768  1.00  0.00    -0.507 OA
ATOM     24  H   UNL     1      -1.529 -17.731 -36.525  1.00  0.00     0.293 HD
ENDBRANCH  13  23
BRANCH  19  25
ATOM     25  C   UNL     1      -3.172 -17.600 -38.000  1.00  0.00     0.264 C 
ATOM     26  O   UNL     1      -2.737 -18.011 -39.108  1.00  0.00    -0.298 OA
ENDBRANCH  19  25
BRANCH  20  27
ATOM     27  C   UNL     1      -4.450 -11.930 -38.211  1.00  0.00     0.017 C 
ATOM     28  C   UNL     1      -5.689 -11.429 -37.463  1.00  0.00     0.012 C 
ATOM     29  C   UNL     1      -4.502 -11.544 -39.701  1.00  0.00     0.012 C 
ENDBRANCH  20  27
BRANCH  21  30
ATOM     30  O   UNL     1      -5.373 -16.609 -39.487  1.00  0.00    -0.504 OA
ATOM     31  H   UNL     1      -5.401 -16.541 -40.497  1.00  0.00     0.293 HD
ENDBRANCH  21  30
BRANCH  22  32
ATOM     32  O   UNL     1      -6.073 -13.960 -39.461  1.00  0.00    -0.504 OA
ATOM     33  H   UNL     1      -7.003 -13.834 -39.080  1.00  0.00     0.293 HD
ENDBRANCH  22  32
ENDBRANCH  11  12
BRANCH  10  34
ATOM     34  O   UNL     1      -2.372 -15.711 -32.480  1.00  0.00    -0.507 OA
ATOM     35  H   UNL     1      -3.028 -16.309 -32.965  1.00  0.00     0.293 HD
ENDBRANCH  10  34
BRANCH   9  36
ATOM     36  C   UNL     1       3.561 -17.471 -31.580  1.00  0.00     0.017 C 
ATOM     37  C   UNL     1       4.605 -16.355 -31.460  1.00  0.00     0.012 C 
ATOM     38  C   UNL     1       4.020 -18.748 -30.854  1.00  0.00     0.012 C 
ENDBRANCH   9  36
BRANCH   6  39
ATOM     39  C   UNL     1      -1.838 -15.987 -29.873  1.00  0.00     0.264 C 
ATOM     40  O   UNL     1      -2.055 -14.840 -29.399  1.00  0.00    -0.298 OA
ENDBRANCH   6  39
BRANCH   8  41
ATOM     41  O   UNL     1       2.707 -17.518 -28.847  1.00  0.00    -0.504 OA
ATOM     42  H   UNL     1       2.510 -18.077 -28.030  1.00  0.00     0.293 HD
ENDBRANCH   8  41
BRANCH   7  43
ATOM     43  O   UNL     1      -0.011 -17.082 -28.113  1.00  0.00    -0.504 OA
ATOM     44  H   UNL     1      -0.296 -17.978 -27.743  1.00  0.00     0.293 HD
ENDBRANCH   7  43
TORSDOF 11
ENDMDL
MODEL 8
REMARK VINA RESULT:    -6.469      1.472      8.999
REMARK INTER + INTRA:         -10.452
REMARK INTER:                  -9.740
REMARK INTRA:                  -0.712
REMARK UNBOUND:                -0.958
REMARK SMILES Cc1cc2c(C(C)C)c(O)c(O)c(C=O)c2c(O)c1-c1c(C)cc2c(C(C)C)c(O)c(O)c(C=O)c2c1O
REMARK SMILES IDX 1 1 2 2 3 3 4 4 16 5 13 6 11 7 9 8 5 9 17 10 19 11 20 12
REMARK SMILES IDX 37 13 21 14 36 15 23 16 22 17 24 18 33 19 25 20 31 21 29 22
REMARK SMILES IDX 38 23 34 25 35 26 26 27 27 28 28 29 32 30 30 32 18 34 6 36
REMARK SMILES IDX 7 37 8 38 14 39 15 40 10 41 12 43
REMARK H PARENT 38 24 32 31 30 33 18 35 10 42 12 44
REMARK Flexibility Score: inf
ROOT
ATOM      1  C   UNL     1       1.995 -13.923 -34.135  1.00  0.00     0.045 C 
ATOM      2  C   UNL     1       1.621 -15.163 -33.360  1.00  0.00    -0.039 A 
ATOM      3  C   UNL     1       2.492 -15.651 -32.384  1.00  0.00     0.013 A 
ATOM      4  C   UNL     1       2.184 -16.796 -31.617  1.00  0.00    -0.006 A 
ATOM      5  C   UNL     1       0.886 -17.370 -31.739  1.00  0.00     0.039 A 
ATOM      6  C   UNL     1       0.485 -18.371 -30.806  1.00  0.00     0.072 A 
ATOM      7  C   UNL     1       1.386 -18.821 -29.822  1.00  0.00     0.169 A 
ATOM      8  C   UNL     1       2.689 -18.290 -29.750  1.00  0.00     0.162 A 
ATOM      9  C   UNL     1       3.134 -17.354 -30.709  1.00  0.00     0.008 A 
ATOM     10  C   UNL     1       0.044 -16.940 -32.806  1.00  0.00     0.132 A 
ATOM     11  C   UNL     1       0.409 -15.833 -33.601  1.00  0.00     0.031 A 
ENDROOT
BRANCH  11  12
ATOM     12  C   UNL     1      -0.490 -15.362 -34.687  1.00  0.00     0.031 A 
ATOM     13  C   UNL     1      -1.233 -14.173 -34.530  1.00  0.00     0.132 A 
ATOM     14  C   UNL     1      -0.560 -16.083 -35.891  1.00  0.00    -0.039 A 
ATOM     15  C   UNL     1      -2.107 -13.723 -35.564  1.00  0.00     0.039 A 
ATOM     16  C   UNL     1      -1.360 -15.608 -36.931  1.00  0.00     0.013 A 
ATOM     17  C   UNL     1       0.252 -17.337 -36.095  1.00  0.00     0.045 C 
ATOM     18  C   UNL     1      -2.170 -14.459 -36.788  1.00  0.00    -0.006 A 
ATOM     19  C   UNL     1      -2.879 -12.529 -35.439  1.00  0.00     0.072 A 
ATOM     20  C   UNL     1      -3.012 -14.010 -37.852  1.00  0.00     0.008 A 
ATOM     21  C   UNL     1      -3.543 -12.004 -36.565  1.00  0.00     0.169 A 
ATOM     22  C   UNL     1      -3.577 -12.720 -37.765  1.00  0.00     0.162 A 
BRANCH  13  23
ATOM     23  O   UNL     1      -1.072 -13.419 -33.362  1.00  0.00    -0.507 OA
ATOM     24  H   UNL     1      -1.233 -12.423 -33.304  1.00  0.00     0.293 HD
ENDBRANCH  13  23
BRANCH  19  25
ATOM     25  C   UNL     1      -3.046 -11.824 -34.152  1.00  0.00     0.264 C 
ATOM     26  O   UNL     1      -2.395 -10.774 -33.912  1.00  0.00    -0.298 OA
ENDBRANCH  19  25
BRANCH  20  27
ATOM     27  C   UNL     1      -3.282 -14.878 -39.096  1.00  0.00     0.017 C 
ATOM     28  C   UNL     1      -4.101 -16.119 -38.728  1.00  0.00     0.012 C 
ATOM     29  C   UNL     1      -2.010 -15.260 -39.878  1.00  0.00     0.012 C 
ENDBRANCH  20  27
BRANCH  21  30
ATOM     30  O   UNL     1      -4.214 -10.775 -36.513  1.00  0.00    -0.504 OA
ATOM     31  H   UNL     1      -4.530 -10.337 -35.658  1.00  0.00     0.293 HD
ENDBRANCH  21  30
BRANCH  22  32
ATOM     32  O   UNL     1      -4.184 -12.147 -38.885  1.00  0.00    -0.504 OA
ATOM     33  H   UNL     1      -4.370 -12.662 -39.737  1.00  0.00     0.293 HD
ENDBRANCH  22  32
ENDBRANCH  11  12
BRANCH  10  34
ATOM     34  O   UNL     1      -1.132 -17.637 -33.104  1.00  0.00    -0.507 OA
ATOM     35  H   UNL     1      -1.929 -17.227 -33.573  1.00  0.00     0.293 HD
ENDBRANCH  10  34
BRANCH   9  36
ATOM     36  C   UNL     1       4.617 -16.943 -30.746  1.00  0.00     0.017 C 
ATOM     37  C   UNL     1       4.968 -16.036 -29.562  1.00  0.00     0.012 C 
ATOM     38  C   UNL     1       5.587 -18.136 -30.845  1.00  0.00     0.012 C 
ENDBRANCH   9  36
BRANCH   6  39
ATOM     39  C   UNL     1      -0.908 -18.877 -30.743  1.00  0.00     0.264 C 
ATOM     40  O   UNL     1      -1.208 -20.010 -31.205  1.00  0.00    -0.298 OA
ENDBRANCH   6  39
BRANCH   8  41
ATOM     41  O   UNL     1       3.548 -18.647 -28.707  1.00  0.00    -0.504 OA
ATOM     42  H   UNL     1       4.084 -17.996 -28.152  1.00  0.00     0.293 HD
ENDBRANCH   8  41
BRANCH   7  43
ATOM     43  O   UNL     1       0.952 -19.800 -28.921  1.00  0.00    -0.504 OA
ATOM     44  H   UNL     1       1.013 -20.796 -29.081  1.00  0.00     0.293 HD
ENDBRANCH   7  43
TORSDOF 11
ENDMDL
MODEL 9
REMARK VINA RESULT:    -6.096      2.561      9.487
REMARK INTER + INTRA:          -9.904
REMARK INTER:                  -8.945
REMARK INTRA:                  -0.959
REMARK UNBOUND:                -0.958
REMARK SMILES Cc1cc2c(C(C)C)c(O)c(O)c(C=O)c2c(O)c1-c1c(C)cc2c(C(C)C)c(O)c(O)c(C=O)c2c1O
REMARK SMILES IDX 1 1 2 2 3 3 4 4 16 5 13 6 11 7 9 8 5 9 17 10 19 11 20 12
REMARK SMILES IDX 37 13 21 14 36 15 23 16 22 17 24 18 33 19 25 20 31 21 29 22
REMARK SMILES IDX 38 23 34 25 35 26 26 27 27 28 28 29 32 30 30 32 18 34 6 36
REMARK SMILES IDX 7 37 8 38 14 39 15 40 10 41 12 43
REMARK H PARENT 38 24 32 31 30 33 18 35 10 42 12 44
REMARK Flexibility Score: inf
ROOT
ATOM      1  C   UNL     1      -1.636 -16.013 -38.308  1.00  0.00     0.045 C 
ATOM      2  C   UNL     1      -1.697 -15.825 -36.811  1.00  0.00    -0.039 A 
ATOM      3  C   UNL     1      -0.935 -16.652 -35.984  1.00  0.00     0.013 A 
ATOM      4  C   UNL     1      -0.941 -16.508 -34.580  1.00  0.00    -0.006 A 
ATOM      5  C   UNL     1      -1.620 -15.393 -34.011  1.00  0.00     0.039 A 
ATOM      6  C   UNL     1      -1.435 -15.107 -32.626  1.00  0.00     0.072 A 
ATOM      7  C   UNL     1      -0.641 -15.954 -31.830  1.00  0.00     0.169 A 
ATOM      8  C   UNL     1      -0.023 -17.089 -32.390  1.00  0.00     0.162 A 
ATOM      9  C   UNL     1      -0.252 -17.435 -33.740  1.00  0.00     0.008 A 
ATOM     10  C   UNL     1      -2.481 -14.618 -34.842  1.00  0.00     0.132 A 
ATOM     11  C   UNL     1      -2.506 -14.829 -36.237  1.00  0.00     0.031 A 
ENDROOT
BRANCH  11  12
ATOM     12  C   UNL     1      -3.375 -13.993 -37.106  1.00  0.00     0.031 A 
ATOM     13  C   UNL     1      -4.590 -14.509 -37.603  1.00  0.00     0.132 A 
ATOM     14  C   UNL     1      -3.003 -12.669 -37.390  1.00  0.00    -0.039 A 
ATOM     15  C   UNL     1      -5.423 -13.715 -38.447  1.00  0.00     0.039 A 
ATOM     16  C   UNL     1      -3.848 -11.866 -38.158  1.00  0.00     0.013 A 
ATOM     17  C   UNL     1      -1.725 -12.084 -36.840  1.00  0.00     0.045 C 
ATOM     18  C   UNL     1      -5.039 -12.366 -38.729  1.00  0.00    -0.006 A 
ATOM     19  C   UNL     1      -6.655 -14.203 -38.975  1.00  0.00     0.072 A 
ATOM     20  C   UNL     1      -5.873 -11.539 -39.544  1.00  0.00     0.008 A 
ATOM     21  C   UNL     1      -7.548 -13.316 -39.606  1.00  0.00     0.169 A 
ATOM     22  C   UNL     1      -7.173 -11.991 -39.853  1.00  0.00     0.162 A 
BRANCH  13  23
ATOM     23  O   UNL     1      -4.988 -15.796 -37.226  1.00  0.00    -0.507 OA
ATOM     24  H   UNL     1      -4.760 -16.222 -36.338  1.00  0.00     0.293 HD
ENDBRANCH  13  23
BRANCH  19  25
ATOM     25  C   UNL     1      -7.030 -15.631 -38.921  1.00  0.00     0.264 C 
ATOM     26  O   UNL     1      -7.600 -16.178 -39.901  1.00  0.00    -0.298 OA
ENDBRANCH  19  25
BRANCH  20  27
ATOM     27  C   UNL     1      -5.403 -10.164 -40.054  1.00  0.00     0.017 C 
ATOM     28  C   UNL     1      -6.251  -9.039 -39.453  1.00  0.00     0.012 C 
ATOM     29  C   UNL     1      -5.339 -10.056 -41.589  1.00  0.00     0.012 C 
ENDBRANCH  20  27
BRANCH  21  30
ATOM     30  O   UNL     1      -8.816 -13.731 -40.032  1.00  0.00    -0.504 OA
ATOM     31  H   UNL     1      -9.417 -13.188 -40.639  1.00  0.00     0.293 HD
ENDBRANCH  21  30
BRANCH  22  32
ATOM     32  O   UNL     1      -8.101 -11.114 -40.419  1.00  0.00    -0.504 OA
ATOM     33  H   UNL     1      -7.899 -10.138 -40.601  1.00  0.00     0.293 HD
ENDBRANCH  22  32
ENDBRANCH  11  12
BRANCH  10  34
ATOM     34  O   UNL     1      -3.343 -13.670 -34.278  1.00  0.00    -0.507 OA
ATOM     35  H   UNL     1      -4.081 -13.203 -34.789  1.00  0.00     0.293 HD
ENDBRANCH  10  34
BRANCH   9  36
ATOM     36  C   UNL     1       0.253 -18.785 -34.280  1.00  0.00     0.017 C 
ATOM     37  C   UNL     1       1.785 -18.824 -34.318  1.00  0.00     0.012 C 
ATOM     38  C   UNL     1      -0.320 -20.004 -33.533  1.00  0.00     0.012 C 
ENDBRANCH   9  36
BRANCH   6  39
ATOM     39  C   UNL     1      -1.948 -13.862 -32.003  1.00  0.00     0.264 C 
ATOM     40  O   UNL     1      -2.923 -13.889 -31.206  1.00  0.00    -0.298 OA
ENDBRANCH   6  39
BRANCH   8  41
ATOM     41  O   UNL     1       0.858 -17.867 -31.635  1.00  0.00    -0.504 OA
ATOM     42  H   UNL     1       0.893 -18.876 -31.648  1.00  0.00     0.293 HD
ENDBRANCH   8  41
BRANCH   7  43
ATOM     43  O   UNL     1      -0.479 -15.634 -30.476  1.00  0.00    -0.504 OA
ATOM     44  H   UNL     1      -0.562 -16.294 -29.716  1.00  0.00     0.293 HD
ENDBRANCH   7  43
TORSDOF 11
ENDMDL
