MODEL 1
REMARK VINA RESULT:    -4.361      0.000      0.000
REMARK INTER + INTRA:          -6.186
REMARK INTER:                  -5.636
REMARK INTRA:                  -0.550
REMARK UNBOUND:                -0.550
REMARK SMILES C=CC(=O)CCCCC
REMARK SMILES IDX 6 1 7 2 8 3 9 4 5 5 3 6 4 7 2 8 1 9
REMARK H PARENT
REMARK Flexibility Score: inf
ROOT
ATOM      1  C   UNL     1      -2.273  16.489  21.421  1.00  0.00     0.008 C 
ENDROOT
BRANCH   1   2
ATOM      2  C   UNL     1      -2.670  16.015  20.016  1.00  0.00     0.000 C 
BRANCH   2   3
ATOM      3  C   UNL     1      -2.941  14.506  20.002  1.00  0.00    -0.003 C 
ATOM      4  C   UNL     1      -3.352  14.007  21.385  1.00  0.00     0.004 C 
ENDBRANCH   2   3
ENDBRANCH   1   2
BRANCH   1   5
ATOM      5  C   UNL     1      -0.863  17.100  21.452  1.00  0.00     0.080 C 
BRANCH   5   6
ATOM      6  C   UNL     1       0.027  16.422  22.462  1.00  0.00     0.155 C 
ATOM      7  O   UNL     1       0.819  17.131  23.137  1.00  0.00    -0.295 OA
BRANCH   6   8
ATOM      8  C   UNL     1       0.000  14.966  22.718  1.00  0.00     0.039 C 
ATOM      9  C   UNL     1       0.637  14.065  21.970  1.00  0.00     0.012 C 
ENDBRANCH   6   8
ENDBRANCH   5   6
ENDBRANCH   1   5
TORSDOF 5
ENDMDL
MODEL 2
REMARK VINA RESULT:    -4.358      1.724      2.323
REMARK INTER + INTRA:          -6.182
REMARK INTER:                  -5.614
REMARK INTRA:                  -0.568
REMARK UNBOUND:                -0.550
REMARK SMILES C=CC(=O)CCCCC
REMARK SMILES IDX 6 1 7 2 8 3 9 4 5 5 3 6 4 7 2 8 1 9
REMARK H PARENT
REMARK Flexibility Score: inf
ROOT
ATOM      1  C   UNL     1      -3.037  14.845  19.831  1.00  0.00     0.008 C 
ENDROOT
BRANCH   1   2
ATOM      2  C   UNL     1      -1.810  13.997  19.468  1.00  0.00     0.000 C 
BRANCH   2   3
ATOM      3  C   UNL     1      -1.702  12.769  20.380  1.00  0.00    -0.003 C 
ATOM      4  C   UNL     1      -3.062  12.397  20.967  1.00  0.00     0.004 C 
ENDBRANCH   2   3
ENDBRANCH   1   2
BRANCH   1   5
ATOM      5  C   UNL     1      -2.660  16.292  20.184  1.00  0.00     0.080 C 
BRANCH   5   6
ATOM      6  C   UNL     1      -1.888  16.378  21.475  1.00  0.00     0.155 C 
ATOM      7  O   UNL     1      -0.850  17.092  21.509  1.00  0.00    -0.295 OA
BRANCH   6   8
ATOM      8  C   UNL     1      -2.301  15.687  22.715  1.00  0.00     0.039 C 
ATOM      9  C   UNL     1      -1.454  15.283  23.662  1.00  0.00     0.012 C 
ENDBRANCH   6   8
ENDBRANCH   5   6
ENDBRANCH   1   5
TORSDOF 5
ENDMDL
MODEL 3
REMARK VINA RESULT:    -4.344      5.612      7.675
REMARK INTER + INTRA:          -6.164
REMARK INTER:                  -5.587
REMARK INTRA:                  -0.577
REMARK UNBOUND:                -0.550
REMARK SMILES C=CC(=O)CCCCC
REMARK SMILES IDX 6 1 7 2 8 3 9 4 5 5 3 6 4 7 2 8 1 9
REMARK H PARENT
REMARK Flexibility Score: inf
ROOT
ATOM      1  C   UNL     1       2.268   8.482  21.584  1.00  0.00     0.008 C 
ENDROOT
BRANCH   1   2
ATOM      2  C   UNL     1       2.831   8.792  20.189  1.00  0.00     0.000 C 
BRANCH   2   3
ATOM      3  C   UNL     1       2.862  10.304  19.934  1.00  0.00    -0.003 C 
ATOM      4  C   UNL     1       3.349  11.061  21.166  1.00  0.00     0.004 C 
ENDBRANCH   2   3
ENDBRANCH   1   2
BRANCH   1   5
ATOM      5  C   UNL     1       0.794   8.054  21.534  1.00  0.00     0.080 C 
BRANCH   5   6
ATOM      6  C   UNL     1      -0.050   8.807  22.531  1.00  0.00     0.155 C 
ATOM      7  O   UNL     1      -0.742   8.149  23.352  1.00  0.00    -0.295 OA
BRANCH   6   8
ATOM      8  C   UNL     1      -0.086  10.283  22.611  1.00  0.00     0.039 C 
ATOM      9  C   UNL     1      -0.482  11.075  21.615  1.00  0.00     0.012 C 
ENDBRANCH   6   8
ENDBRANCH   5   6
ENDBRANCH   1   5
TORSDOF 5
ENDMDL
MODEL 4
REMARK VINA RESULT:    -4.338      5.955      7.194
REMARK INTER + INTRA:          -6.157
REMARK INTER:                  -5.530
REMARK INTRA:                  -0.627
REMARK UNBOUND:                -0.550
REMARK SMILES C=CC(=O)CCCCC
REMARK SMILES IDX 6 1 7 2 8 3 9 4 5 5 3 6 4 7 2 8 1 9
REMARK H PARENT
REMARK Flexibility Score: inf
ROOT
ATOM      1  C   UNL     1       2.495   8.646  21.186  1.00  0.00     0.008 C 
ENDROOT
BRANCH   1   2
ATOM      2  C   UNL     1       1.028   8.958  21.515  1.00  0.00     0.000 C 
BRANCH   2   3
ATOM      3  C   UNL     1       0.901   9.601  22.901  1.00  0.00    -0.003 C 
ATOM      4  C   UNL     1       2.247   9.628  23.621  1.00  0.00     0.004 C 
ENDBRANCH   2   3
ENDBRANCH   1   2
BRANCH   1   5
ATOM      5  C   UNL     1       2.940   9.279  19.859  1.00  0.00     0.080 C 
BRANCH   5   6
ATOM      6  C   UNL     1       2.860  10.783  19.892  1.00  0.00     0.155 C 
ATOM      7  O   UNL     1       2.027  11.358  19.142  1.00  0.00    -0.295 OA
BRANCH   6   8
ATOM      8  C   UNL     1       3.695  11.620  20.780  1.00  0.00     0.039 C 
ATOM      9  C   UNL     1       3.209  12.546  21.607  1.00  0.00     0.012 C 
ENDBRANCH   6   8
ENDBRANCH   5   6
ENDBRANCH   1   5
TORSDOF 5
ENDMDL
MODEL 5
REMARK VINA RESULT:    -4.329      2.213      3.725
REMARK INTER + INTRA:          -6.145
REMARK INTER:                  -5.590
REMARK INTRA:                  -0.555
REMARK UNBOUND:                -0.550
REMARK SMILES C=CC(=O)CCCCC
REMARK SMILES IDX 6 1 7 2 8 3 9 4 5 5 3 6 4 7 2 8 1 9
REMARK H PARENT
REMARK Flexibility Score: inf
ROOT
ATOM      1  C   UNL     1      -2.457  16.526  21.238  1.00  0.00     0.008 C 
ENDROOT
BRANCH   1   2
ATOM      2  C   UNL     1      -0.952  16.407  21.520  1.00  0.00     0.000 C 
BRANCH   2   3
ATOM      3  C   UNL     1      -0.699  15.685  22.850  1.00  0.00    -0.003 C 
ATOM      4  C   UNL     1      -2.010  15.393  23.576  1.00  0.00     0.004 C 
ENDBRANCH   2   3
ENDBRANCH   1   2
BRANCH   1   5
ATOM      5  C   UNL     1      -2.848  15.894  19.894  1.00  0.00     0.080 C 
BRANCH   5   6
ATOM      6  C   UNL     1      -2.739  14.391  19.920  1.00  0.00     0.155 C 
ATOM      7  O   UNL     1      -1.894  13.836  19.168  1.00  0.00    -0.295 OA
BRANCH   6   8
ATOM      8  C   UNL     1      -3.557  13.534  20.804  1.00  0.00     0.039 C 
ATOM      9  C   UNL     1      -3.170  12.339  21.251  1.00  0.00     0.012 C 
ENDBRANCH   6   8
ENDBRANCH   5   6
ENDBRANCH   1   5
TORSDOF 5
ENDMDL
MODEL 6
REMARK VINA RESULT:    -4.302      1.988      2.716
REMARK INTER + INTRA:          -6.110
REMARK INTER:                  -5.775
REMARK INTRA:                  -0.335
REMARK UNBOUND:                -0.550
REMARK SMILES C=CC(=O)CCCCC
REMARK SMILES IDX 6 1 7 2 8 3 9 4 5 5 3 6 4 7 2 8 1 9
REMARK H PARENT
REMARK Flexibility Score: inf
ROOT
ATOM      1  C   UNL     1      -2.302  13.874  22.366  1.00  0.00     0.008 C 
ENDROOT
BRANCH   1   2
ATOM      2  C   UNL     1      -3.712  13.460  21.924  1.00  0.00     0.000 C 
BRANCH   2   3
ATOM      3  C   UNL     1      -3.676  12.756  20.562  1.00  0.00    -0.003 C 
ATOM      4  C   UNL     1      -2.821  13.531  19.563  1.00  0.00     0.004 C 
ENDBRANCH   2   3
ENDBRANCH   1   2
BRANCH   1   5
ATOM      5  C   UNL     1      -2.265  15.302  22.933  1.00  0.00     0.080 C 
BRANCH   5   6
ATOM      6  C   UNL     1      -1.792  16.305  21.913  1.00  0.00     0.155 C 
ATOM      7  O   UNL     1      -2.626  16.761  21.086  1.00  0.00    -0.295 OA
BRANCH   6   8
ATOM      8  C   UNL     1      -0.401  16.803  21.849  1.00  0.00     0.039 C 
ATOM      9  C   UNL     1       0.453  16.764  22.873  1.00  0.00     0.012 C 
ENDBRANCH   6   8
ENDBRANCH   5   6
ENDBRANCH   1   5
TORSDOF 5
ENDMDL
MODEL 7
REMARK VINA RESULT:    -4.256      5.270      6.934
REMARK INTER + INTRA:          -6.051
REMARK INTER:                  -5.444
REMARK INTRA:                  -0.606
REMARK UNBOUND:                -0.550
REMARK SMILES C=CC(=O)CCCCC
REMARK SMILES IDX 6 1 7 2 8 3 9 4 5 5 3 6 4 7 2 8 1 9
REMARK H PARENT
REMARK Flexibility Score: inf
ROOT
ATOM      1  C   UNL     1       2.996  10.558  19.839  1.00  0.00     0.008 C 
ENDROOT
BRANCH   1   2
ATOM      2  C   UNL     1       1.731  11.158  19.209  1.00  0.00     0.000 C 
BRANCH   2   3
ATOM      3  C   UNL     1       1.078  12.176  20.152  1.00  0.00    -0.003 C 
ATOM      4  C   UNL     1      -0.243  11.647  20.703  1.00  0.00     0.004 C 
ENDBRANCH   2   3
ENDBRANCH   1   2
BRANCH   1   5
ATOM      5  C   UNL     1       2.842   9.060  20.140  1.00  0.00     0.080 C 
BRANCH   5   6
ATOM      6  C   UNL     1       2.032   8.811  21.387  1.00  0.00     0.155 C 
ATOM      7  O   UNL     1       1.033   8.047  21.313  1.00  0.00    -0.295 OA
BRANCH   6   8
ATOM      8  C   UNL     1       2.367   9.400  22.701  1.00  0.00     0.039 C 
ATOM      9  C   UNL     1       1.463   9.882  23.554  1.00  0.00     0.012 C 
ENDBRANCH   6   8
ENDBRANCH   5   6
ENDBRANCH   1   5
TORSDOF 5
ENDMDL
MODEL 8
REMARK VINA RESULT:    -4.255      2.370      3.476
REMARK INTER + INTRA:          -6.049
REMARK INTER:                  -5.424
REMARK INTRA:                  -0.625
REMARK UNBOUND:                -0.550
REMARK SMILES C=CC(=O)CCCCC
REMARK SMILES IDX 6 1 7 2 8 3 9 4 5 5 3 6 4 7 2 8 1 9
REMARK H PARENT
REMARK Flexibility Score: inf
ROOT
ATOM      1  C   UNL     1      -2.153  15.493  22.816  1.00  0.00     0.008 C 
ENDROOT
BRANCH   1   2
ATOM      2  C   UNL     1      -2.123  16.395  21.574  1.00  0.00     0.000 C 
BRANCH   2   3
ATOM      3  C   UNL     1      -0.764  17.092  21.435  1.00  0.00    -0.003 C 
ATOM      4  C   UNL     1       0.128  16.804  22.639  1.00  0.00     0.004 C 
ENDBRANCH   2   3
ENDBRANCH   1   2
BRANCH   1   5
ATOM      5  C   UNL     1      -2.741  14.106  22.514  1.00  0.00     0.080 C 
BRANCH   5   6
ATOM      6  C   UNL     1      -1.783  13.240  21.737  1.00  0.00     0.155 C 
ATOM      7  O   UNL     1      -2.216  12.616  20.732  1.00  0.00    -0.295 OA
BRANCH   6   8
ATOM      8  C   UNL     1      -0.351  13.105  22.081  1.00  0.00     0.039 C 
ATOM      9  C   UNL     1       0.646  13.358  21.234  1.00  0.00     0.012 C 
ENDBRANCH   6   8
ENDBRANCH   5   6
ENDBRANCH   1   5
TORSDOF 5
ENDMDL
MODEL 9
REMARK VINA RESULT:    -4.195      4.725      6.353
REMARK INTER + INTRA:          -5.971
REMARK INTER:                  -5.418
REMARK INTRA:                  -0.553
REMARK UNBOUND:                -0.550
REMARK SMILES C=CC(=O)CCCCC
REMARK SMILES IDX 6 1 7 2 8 3 9 4 5 5 3 6 4 7 2 8 1 9
REMARK H PARENT
REMARK Flexibility Score: inf
ROOT
ATOM      1  C   UNL     1       0.837  10.006  23.616  1.00  0.00     0.008 C 
ENDROOT
BRANCH   1   2
ATOM      2  C   UNL     1      -0.199   9.655  22.538  1.00  0.00     0.000 C 
BRANCH   2   3
ATOM      3  C   UNL     1      -1.033  10.885  22.159  1.00  0.00    -0.003 C 
ATOM      4  C   UNL     1      -0.509  11.535  20.882  1.00  0.00     0.004 C 
ENDBRANCH   2   3
ENDBRANCH   1   2
BRANCH   1   5
ATOM      5  C   UNL     1       2.266   9.629  23.194  1.00  0.00     0.080 C 
BRANCH   5   6
ATOM      6  C   UNL     1       2.793  10.531  22.108  1.00  0.00     0.155 C 
ATOM      7  O   UNL     1       3.107  11.714  22.408  1.00  0.00    -0.295 OA
BRANCH   6   8
ATOM      8  C   UNL     1       2.987  10.090  20.710  1.00  0.00     0.039 C 
ATOM      9  C   UNL     1       2.837   8.831  20.298  1.00  0.00     0.012 C 
ENDBRANCH   6   8
ENDBRANCH   5   6
ENDBRANCH   1   5
TORSDOF 5
ENDMDL
