MODEL 1
REMARK VINA RESULT:    -4.034      0.000      0.000
REMARK INTER + INTRA:          -9.278
REMARK INTER:                  -7.336
REMARK INTRA:                  -1.941
REMARK UNBOUND:                -1.941
REMARK SMILES CCCCCCCCCCCCCCCC(=O)[O-]
REMARK SMILES IDX 9 1 10 2 11 3 12 4 13 5 14 6 15 7 16 8 17 9 18 10 8 11 7 12
REMARK SMILES IDX 6 13 5 14 4 15 3 16 2 17 1 18
REMARK H PARENT
REMARK Flexibility Score: inf
ROOT
ATOM      1  C   UNL     1      -8.492  -8.125  14.544  1.00  0.00     0.000 C 
ENDROOT
BRANCH   1   2
ATOM      2  C   UNL     1      -9.085  -6.916  13.810  1.00  0.00     0.000 C 
BRANCH   2   3
ATOM      3  C   UNL     1      -9.521  -5.830  14.801  1.00  0.00     0.000 C 
BRANCH   3   4
ATOM      4  C   UNL     1     -11.047  -5.664  14.801  1.00  0.00     0.000 C 
BRANCH   4   5
ATOM      5  C   UNL     1     -11.494  -4.353  15.484  1.00  0.00     0.000 C 
BRANCH   5   6
ATOM      6  C   UNL     1     -10.689  -3.119  15.035  1.00  0.00     0.006 C 
BRANCH   6   7
ATOM      7  C   UNL     1     -10.873  -2.759  13.552  1.00  0.00     0.053 C 
BRANCH   7   8
ATOM      8  C   UNL     1      -9.715  -1.969  13.021  1.00  0.00     0.041 C 
ATOM      9  O   UNL     1      -9.822  -0.726  12.855  1.00  0.00    -0.550 OA
ATOM     10  O   UNL     1      -8.527  -2.607  12.689  1.00  0.00    -0.550 OA
ENDBRANCH   7   8
ENDBRANCH   6   7
ENDBRANCH   5   6
ENDBRANCH   4   5
ENDBRANCH   3   4
ENDBRANCH   2   3
ENDBRANCH   1   2
BRANCH   1  11
ATOM     11  C   UNL     1      -9.526  -9.255  14.666  1.00  0.00     0.000 C 
BRANCH  11  12
ATOM     12  C   UNL     1      -9.784  -9.668  16.124  1.00  0.00    -0.000 C 
BRANCH  12  13
ATOM     13  C   UNL     1     -10.842  -8.787  16.810  1.00  0.00    -0.000 C 
BRANCH  13  14
ATOM     14  C   UNL     1     -10.246  -7.910  17.924  1.00  0.00    -0.000 C 
BRANCH  14  15
ATOM     15  C   UNL     1      -8.991  -8.531  18.561  1.00  0.00    -0.000 C 
BRANCH  15  16
ATOM     16  C   UNL     1      -7.827  -7.531  18.679  1.00  0.00    -0.000 C 
BRANCH  16  17
ATOM     17  C   UNL     1      -6.713  -7.713  17.632  1.00  0.00    -0.003 C 
ATOM     18  C   UNL     1      -6.408  -9.180  17.333  1.00  0.00     0.004 C 
ENDBRANCH  16  17
ENDBRANCH  15  16
ENDBRANCH  14  15
ENDBRANCH  13  14
ENDBRANCH  12  13
ENDBRANCH  11  12
ENDBRANCH   1  11
TORSDOF 14
ENDMDL
MODEL 2
REMARK VINA RESULT:    -4.030      1.142      3.001
REMARK INTER + INTRA:          -9.270
REMARK INTER:                  -7.169
REMARK INTRA:                  -2.101
REMARK UNBOUND:                -1.941
REMARK SMILES CCCCCCCCCCCCCCCC(=O)[O-]
REMARK SMILES IDX 9 1 10 2 11 3 12 4 13 5 14 6 15 7 16 8 17 9 18 10 8 11 7 12
REMARK SMILES IDX 6 13 5 14 4 15 3 16 2 17 1 18
REMARK H PARENT
REMARK Flexibility Score: inf
ROOT
ATOM      1  C   UNL     1      -6.663  -8.664  15.756  1.00  0.00     0.000 C 
ENDROOT
BRANCH   1   2
ATOM      2  C   UNL     1      -7.532  -7.492  15.282  1.00  0.00     0.000 C 
BRANCH   2   3
ATOM      3  C   UNL     1      -8.090  -7.754  13.878  1.00  0.00     0.000 C 
BRANCH   3   4
ATOM      4  C   UNL     1      -9.406  -6.994  13.657  1.00  0.00     0.000 C 
BRANCH   4   5
ATOM      5  C   UNL     1      -9.902  -6.295  14.942  1.00  0.00     0.000 C 
BRANCH   5   6
ATOM      6  C   UNL     1     -10.659  -4.980  14.674  1.00  0.00     0.006 C 
BRANCH   6   7
ATOM      7  C   UNL     1      -9.787  -3.869  14.071  1.00  0.00     0.053 C 
BRANCH   7   8
ATOM      8  C   UNL     1     -10.606  -2.702  13.611  1.00  0.00     0.041 C 
ATOM      9  O   UNL     1     -11.502  -2.862  12.741  1.00  0.00    -0.550 OA
ATOM     10  O   UNL     1     -10.369  -1.434  14.126  1.00  0.00    -0.550 OA
ENDBRANCH   7   8
ENDBRANCH   6   7
ENDBRANCH   5   6
ENDBRANCH   4   5
ENDBRANCH   3   4
ENDBRANCH   2   3
ENDBRANCH   1   2
BRANCH   1  11
ATOM     11  C   UNL     1      -6.594  -8.712  17.289  1.00  0.00     0.000 C 
BRANCH  11  12
ATOM     12  C   UNL     1      -7.089  -7.414  17.946  1.00  0.00    -0.000 C 
BRANCH  12  13
ATOM     13  C   UNL     1      -8.027  -7.674  19.137  1.00  0.00    -0.000 C 
BRANCH  13  14
ATOM     14  C   UNL     1      -9.126  -8.698  18.809  1.00  0.00    -0.000 C 
BRANCH  14  15
ATOM     15  C   UNL     1     -10.379  -8.049  18.197  1.00  0.00    -0.000 C 
BRANCH  15  16
ATOM     16  C   UNL     1     -11.114  -8.981  17.217  1.00  0.00    -0.000 C 
BRANCH  16  17
ATOM     17  C   UNL     1     -10.195  -9.770  16.266  1.00  0.00    -0.003 C 
ATOM     18  C   UNL     1     -10.937 -10.843  15.471  1.00  0.00     0.004 C 
ENDBRANCH  16  17
ENDBRANCH  15  16
ENDBRANCH  14  15
ENDBRANCH  13  14
ENDBRANCH  12  13
ENDBRANCH  11  12
ENDBRANCH   1  11
TORSDOF 14
ENDMDL
MODEL 3
REMARK VINA RESULT:    -4.017      1.344      2.747
REMARK INTER + INTRA:          -9.246
REMARK INTER:                  -7.541
REMARK INTRA:                  -1.706
REMARK UNBOUND:                -1.941
REMARK SMILES CCCCCCCCCCCCCCCC(=O)[O-]
REMARK SMILES IDX 9 1 10 2 11 3 12 4 13 5 14 6 15 7 16 8 17 9 18 10 8 11 7 12
REMARK SMILES IDX 6 13 5 14 4 15 3 16 2 17 1 18
REMARK H PARENT
REMARK Flexibility Score: inf
ROOT
ATOM      1  C   UNL     1      -8.249  -7.850  15.140  1.00  0.00     0.000 C 
ENDROOT
BRANCH   1   2
ATOM      2  C   UNL     1      -8.671  -6.379  15.248  1.00  0.00     0.000 C 
BRANCH   2   3
ATOM      3  C   UNL     1     -10.131  -6.192  14.818  1.00  0.00     0.000 C 
BRANCH   3   4
ATOM      4  C   UNL     1     -10.398  -4.742  14.390  1.00  0.00     0.000 C 
BRANCH   4   5
ATOM      5  C   UNL     1      -9.095  -3.930  14.226  1.00  0.00     0.000 C 
BRANCH   5   6
ATOM      6  C   UNL     1      -9.241  -2.714  13.290  1.00  0.00     0.006 C 
BRANCH   6   7
ATOM      7  C   UNL     1     -10.697  -2.346  12.967  1.00  0.00     0.053 C 
BRANCH   7   8
ATOM      8  C   UNL     1     -10.998  -0.915  13.296  1.00  0.00     0.041 C 
ATOM      9  O   UNL     1     -10.385  -0.340  14.234  1.00  0.00    -0.550 OA
ATOM     10  O   UNL     1     -11.969  -0.223  12.584  1.00  0.00    -0.550 OA
ENDBRANCH   7   8
ENDBRANCH   6   7
ENDBRANCH   5   6
ENDBRANCH   4   5
ENDBRANCH   3   4
ENDBRANCH   2   3
ENDBRANCH   1   2
BRANCH   1  11
ATOM     11  C   UNL     1      -6.832  -8.057  15.694  1.00  0.00     0.000 C 
BRANCH  11  12
ATOM     12  C   UNL     1      -6.830  -8.572  17.143  1.00  0.00    -0.000 C 
BRANCH  12  13
ATOM     13  C   UNL     1      -6.986  -7.440  18.173  1.00  0.00    -0.000 C 
BRANCH  13  14
ATOM     14  C   UNL     1      -8.028  -7.767  19.255  1.00  0.00    -0.000 C 
BRANCH  14  15
ATOM     15  C   UNL     1      -9.124  -8.724  18.754  1.00  0.00    -0.000 C 
BRANCH  15  16
ATOM     16  C   UNL     1     -10.379  -7.985  18.258  1.00  0.00    -0.000 C 
BRANCH  16  17
ATOM     17  C   UNL     1     -11.337  -8.840  17.409  1.00  0.00    -0.003 C 
ATOM     18  C   UNL     1     -10.654 -10.050  16.773  1.00  0.00     0.004 C 
ENDBRANCH  16  17
ENDBRANCH  15  16
ENDBRANCH  14  15
ENDBRANCH  13  14
ENDBRANCH  12  13
ENDBRANCH  11  12
ENDBRANCH   1  11
TORSDOF 14
ENDMDL
MODEL 4
REMARK VINA RESULT:    -3.992      1.602      2.440
REMARK INTER + INTRA:          -9.201
REMARK INTER:                  -7.363
REMARK INTRA:                  -1.838
REMARK UNBOUND:                -1.941
REMARK SMILES CCCCCCCCCCCCCCCC(=O)[O-]
REMARK SMILES IDX 9 1 10 2 11 3 12 4 13 5 14 6 15 7 16 8 17 9 18 10 8 11 7 12
REMARK SMILES IDX 6 13 5 14 4 15 3 16 2 17 1 18
REMARK H PARENT
REMARK Flexibility Score: inf
ROOT
ATOM      1  C   UNL     1      -6.823  -7.150  14.800  1.00  0.00     0.000 C 
ENDROOT
BRANCH   1   2
ATOM      2  C   UNL     1      -7.507  -6.403  13.648  1.00  0.00     0.000 C 
BRANCH   2   3
ATOM      3  C   UNL     1      -9.029  -6.386  13.831  1.00  0.00     0.000 C 
BRANCH   3   4
ATOM      4  C   UNL     1      -9.510  -5.014  14.326  1.00  0.00     0.000 C 
BRANCH   4   5
ATOM      5  C   UNL     1      -8.456  -3.907  14.101  1.00  0.00     0.000 C 
BRANCH   5   6
ATOM      6  C   UNL     1      -8.853  -2.891  13.014  1.00  0.00     0.006 C 
BRANCH   6   7
ATOM      7  C   UNL     1      -9.558  -1.639  13.557  1.00  0.00     0.053 C 
BRANCH   7   8
ATOM      8  C   UNL     1     -10.889  -1.419  12.904  1.00  0.00     0.041 C 
ATOM      9  O   UNL     1     -11.351  -0.253  12.788  1.00  0.00    -0.550 OA
ATOM     10  O   UNL     1     -11.629  -2.500  12.443  1.00  0.00    -0.550 OA
ENDBRANCH   7   8
ENDBRANCH   6   7
ENDBRANCH   5   6
ENDBRANCH   4   5
ENDBRANCH   3   4
ENDBRANCH   2   3
ENDBRANCH   1   2
BRANCH   1  11
ATOM     11  C   UNL     1      -6.359  -8.544  14.352  1.00  0.00     0.000 C 
BRANCH  11  12
ATOM     12  C   UNL     1      -6.742  -9.648  15.350  1.00  0.00    -0.000 C 
BRANCH  12  13
ATOM     13  C   UNL     1      -8.189 -10.136  15.165  1.00  0.00    -0.000 C 
BRANCH  13  14
ATOM     14  C   UNL     1      -9.016 -10.031  16.457  1.00  0.00    -0.000 C 
BRANCH  14  15
ATOM     15  C   UNL     1      -9.939  -8.801  16.474  1.00  0.00    -0.000 C 
BRANCH  15  16
ATOM     16  C   UNL     1      -9.444  -7.698  17.427  1.00  0.00    -0.000 C 
BRANCH  16  17
ATOM     17  C   UNL     1      -8.534  -8.191  18.566  1.00  0.00    -0.003 C 
ATOM     18  C   UNL     1      -7.281  -7.335  18.743  1.00  0.00     0.004 C 
ENDBRANCH  16  17
ENDBRANCH  15  16
ENDBRANCH  14  15
ENDBRANCH  13  14
ENDBRANCH  12  13
ENDBRANCH  11  12
ENDBRANCH   1  11
TORSDOF 14
ENDMDL
MODEL 5
REMARK VINA RESULT:    -3.949      1.390      2.429
REMARK INTER + INTRA:          -9.122
REMARK INTER:                  -6.702
REMARK INTRA:                  -2.420
REMARK UNBOUND:                -1.941
REMARK SMILES CCCCCCCCCCCCCCCC(=O)[O-]
REMARK SMILES IDX 9 1 10 2 11 3 12 4 13 5 14 6 15 7 16 8 17 9 18 10 8 11 7 12
REMARK SMILES IDX 6 13 5 14 4 15 3 16 2 17 1 18
REMARK H PARENT
REMARK Flexibility Score: inf
ROOT
ATOM      1  C   UNL     1      -7.079  -9.595  14.859  1.00  0.00     0.000 C 
ENDROOT
BRANCH   1   2
ATOM      2  C   UNL     1      -6.545  -8.341  15.562  1.00  0.00     0.000 C 
BRANCH   2   3
ATOM      3  C   UNL     1      -7.368  -7.104  15.184  1.00  0.00     0.000 C 
BRANCH   3   4
ATOM      4  C   UNL     1      -7.910  -7.219  13.752  1.00  0.00     0.000 C 
BRANCH   4   5
ATOM      5  C   UNL     1      -9.383  -6.770  13.644  1.00  0.00     0.000 C 
BRANCH   5   6
ATOM      6  C   UNL     1      -9.887  -6.009  14.884  1.00  0.00     0.006 C 
BRANCH   6   7
ATOM      7  C   UNL     1     -10.779  -4.801  14.557  1.00  0.00     0.053 C 
BRANCH   7   8
ATOM      8  C   UNL     1      -9.976  -3.552  14.356  1.00  0.00     0.041 C 
ATOM      9  O   UNL     1     -10.551  -2.474  14.048  1.00  0.00    -0.550 OA
ATOM     10  O   UNL     1      -8.594  -3.579  14.486  1.00  0.00    -0.550 OA
ENDBRANCH   7   8
ENDBRANCH   6   7
ENDBRANCH   5   6
ENDBRANCH   4   5
ENDBRANCH   3   4
ENDBRANCH   2   3
ENDBRANCH   1   2
BRANCH   1  11
ATOM     11  C   UNL     1      -8.030 -10.377  15.777  1.00  0.00     0.000 C 
BRANCH  11  12
ATOM     12  C   UNL     1      -9.479 -10.385  15.263  1.00  0.00    -0.000 C 
BRANCH  12  13
ATOM     13  C   UNL     1     -10.389  -9.419  16.042  1.00  0.00    -0.000 C 
BRANCH  13  14
ATOM     14  C   UNL     1     -10.778  -9.963  17.426  1.00  0.00    -0.000 C 
BRANCH  14  15
ATOM     15  C   UNL     1     -10.532  -8.946  18.554  1.00  0.00    -0.000 C 
BRANCH  15  16
ATOM     16  C   UNL     1      -9.374  -7.981  18.244  1.00  0.00    -0.000 C 
BRANCH  16  17
ATOM     17  C   UNL     1      -8.046  -8.321  18.945  1.00  0.00    -0.003 C 
ATOM     18  C   UNL     1      -7.130  -7.110  19.111  1.00  0.00     0.004 C 
ENDBRANCH  16  17
ENDBRANCH  15  16
ENDBRANCH  14  15
ENDBRANCH  13  14
ENDBRANCH  12  13
ENDBRANCH  11  12
ENDBRANCH   1  11
TORSDOF 14
ENDMDL
MODEL 6
REMARK VINA RESULT:    -3.933      2.491      4.422
REMARK INTER + INTRA:          -9.094
REMARK INTER:                  -7.755
REMARK INTRA:                  -1.339
REMARK UNBOUND:                -1.941
REMARK SMILES CCCCCCCCCCCCCCCC(=O)[O-]
REMARK SMILES IDX 9 1 10 2 11 3 12 4 13 5 14 6 15 7 16 8 17 9 18 10 8 11 7 12
REMARK SMILES IDX 6 13 5 14 4 15 3 16 2 17 1 18
REMARK H PARENT
REMARK Flexibility Score: inf
ROOT
ATOM      1  C   UNL     1      -8.727  -7.916  18.840  1.00  0.00     0.000 C 
ENDROOT
BRANCH   1   2
ATOM      2  C   UNL     1     -10.064  -8.662  18.762  1.00  0.00     0.000 C 
BRANCH   2   3
ATOM      3  C   UNL     1     -10.563  -8.747  17.314  1.00  0.00     0.000 C 
BRANCH   3   4
ATOM      4  C   UNL     1     -10.612  -7.357  16.665  1.00  0.00     0.000 C 
BRANCH   4   5
ATOM      5  C   UNL     1      -9.898  -7.324  15.296  1.00  0.00     0.000 C 
BRANCH   5   6
ATOM      6  C   UNL     1      -8.704  -6.352  15.247  1.00  0.00     0.006 C 
BRANCH   6   7
ATOM      7  C   UNL     1      -8.441  -5.755  13.856  1.00  0.00     0.053 C 
BRANCH   7   8
ATOM      8  C   UNL     1      -8.097  -4.299  13.928  1.00  0.00     0.041 C 
ATOM      9  O   UNL     1      -8.814  -3.513  14.603  1.00  0.00    -0.550 OA
ATOM     10  O   UNL     1      -7.001  -3.803  13.235  1.00  0.00    -0.550 OA
ENDBRANCH   7   8
ENDBRANCH   6   7
ENDBRANCH   5   6
ENDBRANCH   4   5
ENDBRANCH   3   4
ENDBRANCH   2   3
ENDBRANCH   1   2
BRANCH   1  11
ATOM     11  C   UNL     1      -7.608  -8.722  18.164  1.00  0.00     0.000 C 
BRANCH  11  12
ATOM     12  C   UNL     1      -6.344  -7.885  17.908  1.00  0.00    -0.000 C 
BRANCH  12  13
ATOM     13  C   UNL     1      -6.031  -6.918  19.063  1.00  0.00    -0.000 C 
BRANCH  13  14
ATOM     14  C   UNL     1      -4.551  -6.503  19.100  1.00  0.00    -0.000 C 
BRANCH  14  15
ATOM     15  C   UNL     1      -3.690  -7.284  18.092  1.00  0.00    -0.000 C 
BRANCH  15  16
ATOM     16  C   UNL     1      -2.673  -6.391  17.359  1.00  0.00    -0.000 C 
BRANCH  16  17
ATOM     17  C   UNL     1      -3.137  -4.943  17.127  1.00  0.00    -0.003 C 
ATOM     18  C   UNL     1      -3.159  -4.551  15.650  1.00  0.00     0.004 C 
ENDBRANCH  16  17
ENDBRANCH  15  16
ENDBRANCH  14  15
ENDBRANCH  13  14
ENDBRANCH  12  13
ENDBRANCH  11  12
ENDBRANCH   1  11
TORSDOF 14
ENDMDL
MODEL 7
REMARK VINA RESULT:    -3.904      3.121      6.182
REMARK INTER + INTRA:          -9.041
REMARK INTER:                  -7.406
REMARK INTRA:                  -1.634
REMARK UNBOUND:                -1.941
REMARK SMILES CCCCCCCCCCCCCCCC(=O)[O-]
REMARK SMILES IDX 9 1 10 2 11 3 12 4 13 5 14 6 15 7 16 8 17 9 18 10 8 11 7 12
REMARK SMILES IDX 6 13 5 14 4 15 3 16 2 17 1 18
REMARK H PARENT
REMARK Flexibility Score: inf
ROOT
ATOM      1  C   UNL     1     -11.102  -4.354  14.318  1.00  0.00     0.000 C 
ENDROOT
BRANCH   1   2
ATOM      2  C   UNL     1     -10.964  -5.568  15.245  1.00  0.00     0.000 C 
BRANCH   2   3
ATOM      3  C   UNL     1      -9.890  -6.534  14.731  1.00  0.00     0.000 C 
BRANCH   3   4
ATOM      4  C   UNL     1      -9.881  -7.834  15.548  1.00  0.00     0.000 C 
BRANCH   4   5
ATOM      5  C   UNL     1     -10.362  -7.617  17.000  1.00  0.00     0.000 C 
BRANCH   5   6
ATOM      6  C   UNL     1      -9.657  -8.526  18.024  1.00  0.00     0.006 C 
BRANCH   6   7
ATOM      7  C   UNL     1      -8.909  -7.761  19.127  1.00  0.00     0.053 C 
BRANCH   7   8
ATOM      8  C   UNL     1      -7.465  -7.555  18.785  1.00  0.00     0.041 C 
ATOM      9  O   UNL     1      -6.954  -8.165  17.809  1.00  0.00    -0.550 OA
ATOM     10  O   UNL     1      -6.677  -6.708  19.553  1.00  0.00    -0.550 OA
ENDBRANCH   7   8
ENDBRANCH   6   7
ENDBRANCH   5   6
ENDBRANCH   4   5
ENDBRANCH   3   4
ENDBRANCH   2   3
ENDBRANCH   1   2
BRANCH   1  11
ATOM     11  C   UNL     1     -10.739  -3.056  15.055  1.00  0.00     0.000 C 
BRANCH  11  12
ATOM     12  C   UNL     1      -9.507  -2.358  14.456  1.00  0.00    -0.000 C 
BRANCH  12  13
ATOM     13  C   UNL     1      -9.339  -2.642  12.953  1.00  0.00    -0.000 C 
BRANCH  13  14
ATOM     14  C   UNL     1      -7.976  -3.270  12.621  1.00  0.00    -0.000 C 
BRANCH  14  15
ATOM     15  C   UNL     1      -7.430  -4.144  13.764  1.00  0.00    -0.000 C 
BRANCH  15  16
ATOM     16  C   UNL     1      -6.553  -5.304  13.260  1.00  0.00    -0.000 C 
BRANCH  16  17
ATOM     17  C   UNL     1      -6.209  -6.361  14.324  1.00  0.00    -0.003 C 
ATOM     18  C   UNL     1      -6.510  -7.788  13.869  1.00  0.00     0.004 C 
ENDBRANCH  16  17
ENDBRANCH  15  16
ENDBRANCH  14  15
ENDBRANCH  13  14
ENDBRANCH  12  13
ENDBRANCH  11  12
ENDBRANCH   1  11
TORSDOF 14
ENDMDL
MODEL 8
REMARK VINA RESULT:    -3.861      3.642      6.673
REMARK INTER + INTRA:          -8.962
REMARK INTER:                  -7.297
REMARK INTRA:                  -1.665
REMARK UNBOUND:                -1.941
REMARK SMILES CCCCCCCCCCCCCCCC(=O)[O-]
REMARK SMILES IDX 9 1 10 2 11 3 12 4 13 5 14 6 15 7 16 8 17 9 18 10 8 11 7 12
REMARK SMILES IDX 6 13 5 14 4 15 3 16 2 17 1 18
REMARK H PARENT
REMARK Flexibility Score: inf
ROOT
ATOM      1  C   UNL     1      -6.781  -7.360  15.903  1.00  0.00     0.000 C 
ENDROOT
BRANCH   1   2
ATOM      2  C   UNL     1      -6.563  -8.340  17.062  1.00  0.00     0.000 C 
BRANCH   2   3
ATOM      3  C   UNL     1      -7.257  -7.847  18.338  1.00  0.00     0.000 C 
BRANCH   3   4
ATOM      4  C   UNL     1      -8.383  -8.803  18.757  1.00  0.00     0.000 C 
BRANCH   4   5
ATOM      5  C   UNL     1      -9.769  -8.122  18.731  1.00  0.00     0.000 C 
BRANCH   5   6
ATOM      6  C   UNL     1     -10.368  -7.998  17.317  1.00  0.00     0.006 C 
BRANCH   6   7
ATOM      7  C   UNL     1     -10.536  -9.341  16.590  1.00  0.00     0.053 C 
BRANCH   7   8
ATOM      8  C   UNL     1     -11.317 -10.325  17.407  1.00  0.00     0.041 C 
ATOM      9  O   UNL     1     -10.775 -11.393  17.798  1.00  0.00    -0.550 OA
ATOM     10  O   UNL     1     -12.647 -10.076  17.720  1.00  0.00    -0.550 OA
ENDBRANCH   7   8
ENDBRANCH   6   7
ENDBRANCH   5   6
ENDBRANCH   4   5
ENDBRANCH   3   4
ENDBRANCH   2   3
ENDBRANCH   1   2
BRANCH   1  11
ATOM     11  C   UNL     1      -7.512  -8.041  14.737  1.00  0.00     0.000 C 
BRANCH  11  12
ATOM     12  C   UNL     1      -8.055  -7.036  13.708  1.00  0.00    -0.000 C 
BRANCH  12  13
ATOM     13  C   UNL     1      -9.579  -6.851  13.809  1.00  0.00    -0.000 C 
BRANCH  13  14
ATOM     14  C   UNL     1      -9.968  -5.517  14.467  1.00  0.00    -0.000 C 
BRANCH  14  15
ATOM     15  C   UNL     1      -8.861  -4.455  14.357  1.00  0.00    -0.000 C 
BRANCH  15  16
ATOM     16  C   UNL     1      -9.406  -3.017  14.420  1.00  0.00    -0.000 C 
BRANCH  16  17
ATOM     17  C   UNL     1      -9.308  -2.232  13.099  1.00  0.00    -0.003 C 
ATOM     18  C   UNL     1     -10.512  -1.325  12.851  1.00  0.00     0.004 C 
ENDBRANCH  16  17
ENDBRANCH  15  16
ENDBRANCH  14  15
ENDBRANCH  13  14
ENDBRANCH  12  13
ENDBRANCH  11  12
ENDBRANCH   1  11
TORSDOF 14
ENDMDL
MODEL 9
REMARK VINA RESULT:    -3.844      4.998      7.475
REMARK INTER + INTRA:          -8.932
REMARK INTER:                  -6.622
REMARK INTRA:                  -2.310
REMARK UNBOUND:                -1.941
REMARK SMILES CCCCCCCCCCCCCCCC(=O)[O-]
REMARK SMILES IDX 9 1 10 2 11 3 12 4 13 5 14 6 15 7 16 8 17 9 18 10 8 11 7 12
REMARK SMILES IDX 6 13 5 14 4 15 3 16 2 17 1 18
REMARK H PARENT
REMARK Flexibility Score: inf
ROOT
ATOM      1  C   UNL     1      -2.966  -9.568  16.041  1.00  0.00     0.000 C 
ENDROOT
BRANCH   1   2
ATOM      2  C   UNL     1      -4.478  -9.484  15.800  1.00  0.00     0.000 C 
BRANCH   2   3
ATOM      3  C   UNL     1      -5.230  -9.219  17.110  1.00  0.00     0.000 C 
BRANCH   3   4
ATOM      4  C   UNL     1      -5.976  -7.878  17.057  1.00  0.00     0.000 C 
BRANCH   4   5
ATOM      5  C   UNL     1      -6.034  -7.184  18.435  1.00  0.00     0.000 C 
BRANCH   5   6
ATOM      6  C   UNL     1      -7.317  -7.499  19.229  1.00  0.00     0.006 C 
BRANCH   6   7
ATOM      7  C   UNL     1      -8.527  -7.845  18.349  1.00  0.00     0.053 C 
BRANCH   7   8
ATOM      8  C   UNL     1      -9.198  -9.110  18.792  1.00  0.00     0.041 C 
ATOM      9  O   UNL     1     -10.455  -9.186  18.810  1.00  0.00    -0.550 OA
ATOM     10  O   UNL     1      -8.438 -10.197  19.207  1.00  0.00    -0.550 OA
ENDBRANCH   7   8
ENDBRANCH   6   7
ENDBRANCH   5   6
ENDBRANCH   4   5
ENDBRANCH   3   4
ENDBRANCH   2   3
ENDBRANCH   1   2
BRANCH   1  11
ATOM     11  C   UNL     1      -2.630  -9.323  17.519  1.00  0.00     0.000 C 
BRANCH  11  12
ATOM     12  C   UNL     1      -1.305  -8.567  17.710  1.00  0.00    -0.000 C 
BRANCH  12  13
ATOM     13  C   UNL     1      -1.339  -7.153  17.105  1.00  0.00    -0.000 C 
BRANCH  13  14
ATOM     14  C   UNL     1      -2.523  -6.319  17.622  1.00  0.00    -0.000 C 
BRANCH  14  15
ATOM     15  C   UNL     1      -3.076  -5.352  16.562  1.00  0.00    -0.000 C 
BRANCH  15  16
ATOM     16  C   UNL     1      -2.599  -5.692  15.138  1.00  0.00    -0.000 C 
BRANCH  16  17
ATOM     17  C   UNL     1      -3.662  -6.355  14.244  1.00  0.00    -0.003 C 
ATOM     18  C   UNL     1      -4.959  -5.552  14.160  1.00  0.00     0.004 C 
ENDBRANCH  16  17
ENDBRANCH  15  16
ENDBRANCH  14  15
ENDBRANCH  13  14
ENDBRANCH  12  13
ENDBRANCH  11  12
ENDBRANCH   1  11
TORSDOF 14
ENDMDL
