MODEL 1
REMARK VINA RESULT:    -4.658      0.000      0.000
REMARK INTER + INTRA:         -10.200
REMARK INTER:                  -9.015
REMARK INTRA:                  -1.185
REMARK UNBOUND:                -1.185
REMARK SMILES CCCCCCCCCCCCCCCCCC(=O)[O-]
REMARK SMILES IDX 10 1 11 2 12 3 13 4 14 5 15 6 16 7 17 8 18 9 19 10 20 11
REMARK SMILES IDX 9 12 8 13 7 14 6 15 5 16 4 17 3 18 2 19 1 20
REMARK H PARENT
REMARK Flexibility Score: inf
ROOT
ATOM      1  C   UNL     1     -25.062 -12.155  32.315  1.00  0.00     0.000 C 
ENDROOT
BRANCH   1   2
ATOM      2  C   UNL     1     -23.538 -11.963  32.237  1.00  0.00     0.000 C 
BRANCH   2   3
ATOM      3  C   UNL     1     -22.768 -13.291  32.316  1.00  0.00     0.000 C 
BRANCH   3   4
ATOM      4  C   UNL     1     -21.556 -13.219  33.262  1.00  0.00     0.000 C 
BRANCH   4   5
ATOM      5  C   UNL     1     -21.860 -13.808  34.651  1.00  0.00     0.000 C 
BRANCH   5   6
ATOM      6  C   UNL     1     -21.772 -12.754  35.768  1.00  0.00     0.000 C 
BRANCH   6   7
ATOM      7  C   UNL     1     -23.093 -11.995  35.971  1.00  0.00     0.006 C 
BRANCH   7   8
ATOM      8  C   UNL     1     -23.814 -12.395  37.264  1.00  0.00     0.053 C 
BRANCH   8   9
ATOM      9  C   UNL     1     -22.950 -12.119  38.453  1.00  0.00     0.041 C 
ATOM     10  O   UNL     1     -22.543 -10.950  38.684  1.00  0.00    -0.550 OA
ATOM     11  O   UNL     1     -22.603 -13.151  39.318  1.00  0.00    -0.550 OA
ENDBRANCH   8   9
ENDBRANCH   7   8
ENDBRANCH   6   7
ENDBRANCH   5   6
ENDBRANCH   4   5
ENDBRANCH   3   4
ENDBRANCH   2   3
ENDBRANCH   1   2
BRANCH   1  12
ATOM     12  C   UNL     1     -25.688 -11.454  33.533  1.00  0.00     0.000 C 
BRANCH  12  13
ATOM     13  C   UNL     1     -27.230 -11.404  33.493  1.00  0.00    -0.000 C 
BRANCH  13  14
ATOM     14  C   UNL     1     -27.841 -11.243  34.893  1.00  0.00    -0.000 C 
BRANCH  14  15
ATOM     15  C   UNL     1     -28.204  -9.779  35.171  1.00  0.00    -0.000 C 
BRANCH  15  16
ATOM     16  C   UNL     1     -28.847  -9.126  33.936  1.00  0.00    -0.000 C 
BRANCH  16  17
ATOM     17  C   UNL     1     -30.363  -8.926  34.093  1.00  0.00    -0.000 C 
BRANCH  17  18
ATOM     18  C   UNL     1     -30.920  -7.853  33.142  1.00  0.00    -0.000 C 
BRANCH  18  19
ATOM     19  C   UNL     1     -31.977  -6.961  33.817  1.00  0.00    -0.003 C 
ATOM     20  C   UNL     1     -33.378  -7.568  33.777  1.00  0.00     0.004 C 
ENDBRANCH  18  19
ENDBRANCH  17  18
ENDBRANCH  16  17
ENDBRANCH  15  16
ENDBRANCH  14  15
ENDBRANCH  13  14
ENDBRANCH  12  13
ENDBRANCH   1  12
TORSDOF 16
ENDMDL
MODEL 2
REMARK VINA RESULT:    -4.513      3.825      8.357
REMARK INTER + INTRA:          -9.919
REMARK INTER:                  -9.088
REMARK INTRA:                  -0.831
REMARK UNBOUND:                -1.185
REMARK SMILES CCCCCCCCCCCCCCCCCC(=O)[O-]
REMARK SMILES IDX 10 1 11 2 12 3 13 4 14 5 15 6 16 7 17 8 18 9 19 10 20 11
REMARK SMILES IDX 9 12 8 13 7 14 6 15 5 16 4 17 3 18 2 19 1 20
REMARK H PARENT
REMARK Flexibility Score: inf
ROOT
ATOM      1  C   UNL     1     -23.873 -12.089  31.954  1.00  0.00     0.000 C 
ENDROOT
BRANCH   1   2
ATOM      2  C   UNL     1     -25.395 -12.227  32.125  1.00  0.00     0.000 C 
BRANCH   2   3
ATOM      3  C   UNL     1     -25.908 -11.561  33.413  1.00  0.00     0.000 C 
BRANCH   3   4
ATOM      4  C   UNL     1     -27.440 -11.410  33.433  1.00  0.00     0.000 C 
BRANCH   4   5
ATOM      5  C   UNL     1     -27.923 -10.484  34.563  1.00  0.00     0.000 C 
BRANCH   5   6
ATOM      6  C   UNL     1     -28.539  -9.178  34.031  1.00  0.00     0.000 C 
BRANCH   6   7
ATOM      7  C   UNL     1     -30.020  -9.026  34.412  1.00  0.00     0.006 C 
BRANCH   7   8
ATOM      8  C   UNL     1     -30.804  -8.164  33.413  1.00  0.00     0.053 C 
BRANCH   8   9
ATOM      9  C   UNL     1     -32.231  -8.031  33.842  1.00  0.00     0.041 C 
ATOM     10  O   UNL     1     -32.943  -9.057  34.003  1.00  0.00    -0.550 OA
ATOM     11  O   UNL     1     -32.773  -6.773  34.078  1.00  0.00    -0.550 OA
ENDBRANCH   8   9
ENDBRANCH   7   8
ENDBRANCH   6   7
ENDBRANCH   5   6
ENDBRANCH   4   5
ENDBRANCH   3   4
ENDBRANCH   2   3
ENDBRANCH   1   2
BRANCH   1  12
ATOM     12  C   UNL     1     -23.115 -13.379  32.314  1.00  0.00     0.000 C 
BRANCH  12  13
ATOM     13  C   UNL     1     -21.799 -13.129  33.081  1.00  0.00    -0.000 C 
BRANCH  13  14
ATOM     14  C   UNL     1     -21.751 -13.892  34.413  1.00  0.00    -0.000 C 
BRANCH  14  15
ATOM     15  C   UNL     1     -21.547 -12.933  35.592  1.00  0.00    -0.000 C 
BRANCH  15  16
ATOM     16  C   UNL     1     -22.865 -12.239  35.973  1.00  0.00    -0.000 C 
BRANCH  16  17
ATOM     17  C   UNL     1     -23.228 -12.427  37.455  1.00  0.00    -0.000 C 
BRANCH  17  18
ATOM     18  C   UNL     1     -22.274 -11.673  38.398  1.00  0.00    -0.000 C 
BRANCH  18  19
ATOM     19  C   UNL     1     -22.878 -11.460  39.797  1.00  0.00    -0.003 C 
ATOM     20  C   UNL     1     -23.750 -10.209  39.881  1.00  0.00     0.004 C 
ENDBRANCH  18  19
ENDBRANCH  17  18
ENDBRANCH  16  17
ENDBRANCH  15  16
ENDBRANCH  14  15
ENDBRANCH  13  14
ENDBRANCH  12  13
ENDBRANCH   1  12
TORSDOF 16
ENDMDL
MODEL 3
REMARK VINA RESULT:    -4.355      5.810      9.413
REMARK INTER + INTRA:          -9.613
REMARK INTER:                  -7.139
REMARK INTRA:                  -2.474
REMARK UNBOUND:                -1.185
REMARK SMILES CCCCCCCCCCCCCCCCCC(=O)[O-]
REMARK SMILES IDX 10 1 11 2 12 3 13 4 14 5 15 6 16 7 17 8 18 9 19 10 20 11
REMARK SMILES IDX 9 12 8 13 7 14 6 15 5 16 4 17 3 18 2 19 1 20
REMARK H PARENT
REMARK Flexibility Score: inf
ROOT
ATOM      1  C   UNL     1     -19.761 -10.818  40.204  1.00  0.00     0.000 C 
ENDROOT
BRANCH   1   2
ATOM      2  C   UNL     1     -21.159 -11.330  40.591  1.00  0.00     0.000 C 
BRANCH   2   3
ATOM      3  C   UNL     1     -22.242 -10.918  39.579  1.00  0.00     0.000 C 
BRANCH   3   4
ATOM      4  C   UNL     1     -23.395 -11.934  39.497  1.00  0.00     0.000 C 
BRANCH   4   5
ATOM      5  C   UNL     1     -23.664 -12.399  38.055  1.00  0.00     0.000 C 
BRANCH   5   6
ATOM      6  C   UNL     1     -22.667 -11.800  37.048  1.00  0.00     0.000 C 
BRANCH   6   7
ATOM      7  C   UNL     1     -22.829 -12.386  35.636  1.00  0.00     0.006 C 
BRANCH   7   8
ATOM      8  C   UNL     1     -21.700 -13.357  35.264  1.00  0.00     0.053 C 
BRANCH   8   9
ATOM      9  C   UNL     1     -21.591 -13.488  33.778  1.00  0.00     0.041 C 
ATOM     10  O   UNL     1     -20.706 -14.226  33.270  1.00  0.00    -0.550 OA
ATOM     11  O   UNL     1     -22.476 -12.807  32.950  1.00  0.00    -0.550 OA
ENDBRANCH   8   9
ENDBRANCH   7   8
ENDBRANCH   6   7
ENDBRANCH   5   6
ENDBRANCH   4   5
ENDBRANCH   3   4
ENDBRANCH   2   3
ENDBRANCH   1   2
BRANCH   1  12
ATOM     12  C   UNL     1     -19.142 -11.605  39.036  1.00  0.00     0.000 C 
BRANCH  12  13
ATOM     13  C   UNL     1     -18.967 -13.111  39.329  1.00  0.00    -0.000 C 
BRANCH  13  14
ATOM     14  C   UNL     1     -19.583 -13.990  38.231  1.00  0.00    -0.000 C 
BRANCH  14  15
ATOM     15  C   UNL     1     -20.929 -14.572  38.680  1.00  0.00    -0.000 C 
BRANCH  15  16
ATOM     16  C   UNL     1     -20.777 -15.366  39.988  1.00  0.00    -0.000 C 
BRANCH  16  17
ATOM     17  C   UNL     1     -21.746 -14.894  41.084  1.00  0.00    -0.000 C 
BRANCH  17  18
ATOM     18  C   UNL     1     -21.491 -15.583  42.436  1.00  0.00    -0.000 C 
BRANCH  18  19
ATOM     19  C   UNL     1     -22.601 -15.294  43.461  1.00  0.00    -0.003 C 
ATOM     20  C   UNL     1     -23.703 -14.395  42.904  1.00  0.00     0.004 C 
ENDBRANCH  18  19
ENDBRANCH  17  18
ENDBRANCH  16  17
ENDBRANCH  15  16
ENDBRANCH  14  15
ENDBRANCH  13  14
ENDBRANCH  12  13
ENDBRANCH   1  12
TORSDOF 16
ENDMDL
MODEL 4
REMARK VINA RESULT:    -4.296      4.035      8.949
REMARK INTER + INTRA:          -9.500
REMARK INTER:                  -8.527
REMARK INTRA:                  -0.973
REMARK UNBOUND:                -1.185
REMARK SMILES CCCCCCCCCCCCCCCCCC(=O)[O-]
REMARK SMILES IDX 10 1 11 2 12 3 13 4 14 5 15 6 16 7 17 8 18 9 19 10 20 11
REMARK SMILES IDX 9 12 8 13 7 14 6 15 5 16 4 17 3 18 2 19 1 20
REMARK H PARENT
REMARK Flexibility Score: inf
ROOT
ATOM      1  C   UNL     1     -25.038 -11.603  33.272  1.00  0.00     0.000 C 
ENDROOT
BRANCH   1   2
ATOM      2  C   UNL     1     -26.570 -11.545  33.404  1.00  0.00     0.000 C 
BRANCH   2   3
ATOM      3  C   UNL     1     -27.040 -11.601  34.867  1.00  0.00     0.000 C 
BRANCH   3   4
ATOM      4  C   UNL     1     -28.306 -10.762  35.116  1.00  0.00     0.000 C 
BRANCH   4   5
ATOM      5  C   UNL     1     -28.118  -9.286  34.722  1.00  0.00     0.000 C 
BRANCH   5   6
ATOM      6  C   UNL     1     -29.070  -8.853  33.593  1.00  0.00     0.000 C 
BRANCH   6   7
ATOM      7  C   UNL     1     -30.498  -8.584  34.095  1.00  0.00     0.006 C 
BRANCH   7   8
ATOM      8  C   UNL     1     -31.499  -8.370  32.952  1.00  0.00     0.053 C 
BRANCH   8   9
ATOM      9  C   UNL     1     -32.338  -7.159  33.210  1.00  0.00     0.041 C 
ATOM     10  O   UNL     1     -32.042  -6.368  34.144  1.00  0.00    -0.550 OA
ATOM     11  O   UNL     1     -33.442  -6.892  32.408  1.00  0.00    -0.550 OA
ENDBRANCH   8   9
ENDBRANCH   7   8
ENDBRANCH   6   7
ENDBRANCH   5   6
ENDBRANCH   4   5
ENDBRANCH   3   4
ENDBRANCH   2   3
ENDBRANCH   1   2
BRANCH   1  12
ATOM     12  C   UNL     1     -24.579 -12.114  31.896  1.00  0.00     0.000 C 
BRANCH  12  13
ATOM     13  C   UNL     1     -23.559 -13.270  31.974  1.00  0.00    -0.000 C 
BRANCH  13  14
ATOM     14  C   UNL     1     -22.208 -12.812  32.544  1.00  0.00    -0.000 C 
BRANCH  14  15
ATOM     15  C   UNL     1     -21.620 -13.870  33.485  1.00  0.00    -0.000 C 
BRANCH  15  16
ATOM     16  C   UNL     1     -21.168 -13.237  34.812  1.00  0.00    -0.000 C 
BRANCH  16  17
ATOM     17  C   UNL     1     -22.348 -12.752  35.670  1.00  0.00    -0.000 C 
BRANCH  17  18
ATOM     18  C   UNL     1     -22.037 -12.786  37.176  1.00  0.00    -0.000 C 
BRANCH  18  19
ATOM     19  C   UNL     1     -22.310 -14.165  37.802  1.00  0.00    -0.003 C 
ATOM     20  C   UNL     1     -23.378 -14.119  38.893  1.00  0.00     0.004 C 
ENDBRANCH  18  19
ENDBRANCH  17  18
ENDBRANCH  16  17
ENDBRANCH  15  16
ENDBRANCH  14  15
ENDBRANCH  13  14
ENDBRANCH  12  13
ENDBRANCH   1  12
TORSDOF 16
ENDMDL
MODEL 5
REMARK VINA RESULT:    -4.198      5.770     11.627
REMARK INTER + INTRA:          -9.310
REMARK INTER:                  -8.545
REMARK INTRA:                  -0.765
REMARK UNBOUND:                -1.185
REMARK SMILES CCCCCCCCCCCCCCCCCC(=O)[O-]
REMARK SMILES IDX 10 1 11 2 12 3 13 4 14 5 15 6 16 7 17 8 18 9 19 10 20 11
REMARK SMILES IDX 9 12 8 13 7 14 6 15 5 16 4 17 3 18 2 19 1 20
REMARK H PARENT
REMARK Flexibility Score: inf
ROOT
ATOM      1  C   UNL     1     -31.811  -8.179  34.100  1.00  0.00     0.000 C 
ENDROOT
BRANCH   1   2
ATOM      2  C   UNL     1     -32.320  -6.770  33.752  1.00  0.00     0.000 C 
BRANCH   2   3
ATOM      3  C   UNL     1     -32.838  -6.667  32.308  1.00  0.00     0.000 C 
BRANCH   3   4
ATOM      4  C   UNL     1     -33.928  -7.707  31.993  1.00  0.00     0.000 C 
BRANCH   4   5
ATOM      5  C   UNL     1     -35.211  -7.476  32.811  1.00  0.00     0.000 C 
BRANCH   5   6
ATOM      6  C   UNL     1     -36.397  -7.037  31.934  1.00  0.00     0.000 C 
BRANCH   6   7
ATOM      7  C   UNL     1     -37.750  -7.204  32.644  1.00  0.00     0.006 C 
BRANCH   7   8
ATOM      8  C   UNL     1     -38.200  -5.931  33.371  1.00  0.00     0.053 C 
BRANCH   8   9
ATOM      9  C   UNL     1     -37.992  -6.068  34.846  1.00  0.00     0.041 C 
ATOM     10  O   UNL     1     -38.389  -7.099  35.450  1.00  0.00    -0.550 OA
ATOM     11  O   UNL     1     -37.344  -5.063  35.555  1.00  0.00    -0.550 OA
ENDBRANCH   8   9
ENDBRANCH   7   8
ENDBRANCH   6   7
ENDBRANCH   5   6
ENDBRANCH   4   5
ENDBRANCH   3   4
ENDBRANCH   2   3
ENDBRANCH   1   2
BRANCH   1  12
ATOM     12  C   UNL     1     -30.460  -8.503  33.440  1.00  0.00     0.000 C 
BRANCH  12  13
ATOM     13  C   UNL     1     -29.393  -9.010  34.434  1.00  0.00    -0.000 C 
BRANCH  13  14
ATOM     14  C   UNL     1     -28.100  -9.442  33.725  1.00  0.00    -0.000 C 
BRANCH  14  15
ATOM     15  C   UNL     1     -27.504 -10.693  34.381  1.00  0.00    -0.000 C 
BRANCH  15  16
ATOM     16  C   UNL     1     -27.585 -11.903  33.436  1.00  0.00    -0.000 C 
BRANCH  16  17
ATOM     17  C   UNL     1     -26.349 -12.032  32.530  1.00  0.00    -0.000 C 
BRANCH  17  18
ATOM     18  C   UNL     1     -25.064 -11.528  33.208  1.00  0.00    -0.000 C 
BRANCH  18  19
ATOM     19  C   UNL     1     -23.825 -11.687  32.309  1.00  0.00    -0.003 C 
ATOM     20  C   UNL     1     -23.524 -13.145  31.968  1.00  0.00     0.004 C 
ENDBRANCH  18  19
ENDBRANCH  17  18
ENDBRANCH  16  17
ENDBRANCH  15  16
ENDBRANCH  14  15
ENDBRANCH  13  14
ENDBRANCH  12  13
ENDBRANCH   1  12
TORSDOF 16
ENDMDL
MODEL 6
REMARK VINA RESULT:    -4.191      1.083      2.286
REMARK INTER + INTRA:          -9.297
REMARK INTER:                  -7.989
REMARK INTRA:                  -1.308
REMARK UNBOUND:                -1.185
REMARK SMILES CCCCCCCCCCCCCCCCCC(=O)[O-]
REMARK SMILES IDX 10 1 11 2 12 3 13 4 14 5 15 6 16 7 17 8 18 9 19 10 20 11
REMARK SMILES IDX 9 12 8 13 7 14 6 15 5 16 4 17 3 18 2 19 1 20
REMARK H PARENT
REMARK Flexibility Score: inf
ROOT
ATOM      1  C   UNL     1     -22.986 -13.407  32.083  1.00  0.00     0.000 C 
ENDROOT
BRANCH   1   2
ATOM      2  C   UNL     1     -21.604 -13.018  32.633  1.00  0.00     0.000 C 
BRANCH   2   3
ATOM      3  C   UNL     1     -21.148 -13.927  33.787  1.00  0.00     0.000 C 
BRANCH   3   4
ATOM      4  C   UNL     1     -20.870 -13.147  35.084  1.00  0.00     0.000 C 
BRANCH   4   5
ATOM      5  C   UNL     1     -21.902 -13.453  36.184  1.00  0.00     0.000 C 
BRANCH   5   6
ATOM      6  C   UNL     1     -22.798 -12.243  36.503  1.00  0.00     0.000 C 
BRANCH   6   7
ATOM      7  C   UNL     1     -23.692 -12.477  37.731  1.00  0.00     0.006 C 
BRANCH   7   8
ATOM      8  C   UNL     1     -23.298 -11.601  38.928  1.00  0.00     0.053 C 
BRANCH   8   9
ATOM      9  C   UNL     1     -22.034 -12.101  39.550  1.00  0.00     0.041 C 
ATOM     10  O   UNL     1     -22.004 -13.229  40.108  1.00  0.00    -0.550 OA
ATOM     11  O   UNL     1     -20.880 -11.327  39.503  1.00  0.00    -0.550 OA
ENDBRANCH   8   9
ENDBRANCH   7   8
ENDBRANCH   6   7
ENDBRANCH   5   6
ENDBRANCH   4   5
ENDBRANCH   3   4
ENDBRANCH   2   3
ENDBRANCH   1   2
BRANCH   1  12
ATOM     12  C   UNL     1     -23.907 -12.192  31.875  1.00  0.00     0.000 C 
BRANCH  12  13
ATOM     13  C   UNL     1     -24.402 -11.559  33.193  1.00  0.00    -0.000 C 
BRANCH  13  14
ATOM     14  C   UNL     1     -25.930 -11.632  33.332  1.00  0.00    -0.000 C 
BRANCH  14  15
ATOM     15  C   UNL     1     -26.350 -11.625  34.807  1.00  0.00    -0.000 C 
BRANCH  15  16
ATOM     16  C   UNL     1     -27.812 -11.176  34.962  1.00  0.00    -0.000 C 
BRANCH  16  17
ATOM     17  C   UNL     1     -28.239 -10.163  33.887  1.00  0.00    -0.000 C 
BRANCH  17  18
ATOM     18  C   UNL     1     -29.059  -8.997  34.465  1.00  0.00    -0.000 C 
BRANCH  18  19
ATOM     19  C   UNL     1     -30.181  -8.541  33.517  1.00  0.00    -0.003 C 
ATOM     20  C   UNL     1     -31.564  -8.609  34.160  1.00  0.00     0.004 C 
ENDBRANCH  18  19
ENDBRANCH  17  18
ENDBRANCH  16  17
ENDBRANCH  15  16
ENDBRANCH  14  15
ENDBRANCH  13  14
ENDBRANCH  12  13
ENDBRANCH   1  12
TORSDOF 16
ENDMDL
MODEL 7
REMARK VINA RESULT:    -4.126      4.381      9.544
REMARK INTER + INTRA:          -9.171
REMARK INTER:                  -8.341
REMARK INTRA:                  -0.830
REMARK UNBOUND:                -1.185
REMARK SMILES CCCCCCCCCCCCCCCCCC(=O)[O-]
REMARK SMILES IDX 10 1 11 2 12 3 13 4 14 5 15 6 16 7 17 8 18 9 19 10 20 11
REMARK SMILES IDX 9 12 8 13 7 14 6 15 5 16 4 17 3 18 2 19 1 20
REMARK H PARENT
REMARK Flexibility Score: inf
ROOT
ATOM      1  C   UNL     1     -25.221 -11.254  33.629  1.00  0.00     0.000 C 
ENDROOT
BRANCH   1   2
ATOM      2  C   UNL     1     -26.734 -11.402  33.390  1.00  0.00     0.000 C 
BRANCH   2   3
ATOM      3  C   UNL     1     -27.524 -11.592  34.695  1.00  0.00     0.000 C 
BRANCH   3   4
ATOM      4  C   UNL     1     -28.131 -10.278  35.219  1.00  0.00     0.000 C 
BRANCH   4   5
ATOM      5  C   UNL     1     -28.572  -9.342  34.079  1.00  0.00     0.000 C 
BRANCH   5   6
ATOM      6  C   UNL     1     -30.050  -8.930  34.195  1.00  0.00     0.000 C 
BRANCH   6   7
ATOM      7  C   UNL     1     -30.537  -8.131  32.975  1.00  0.00     0.006 C 
BRANCH   7   8
ATOM      8  C   UNL     1     -31.989  -8.451  32.598  1.00  0.00     0.053 C 
BRANCH   8   9
ATOM      9  C   UNL     1     -32.868  -7.267  32.843  1.00  0.00     0.041 C 
ATOM     10  O   UNL     1     -32.362  -6.133  33.053  1.00  0.00    -0.550 OA
ATOM     11  O   UNL     1     -34.251  -7.409  32.826  1.00  0.00    -0.550 OA
ENDBRANCH   8   9
ENDBRANCH   7   8
ENDBRANCH   6   7
ENDBRANCH   5   6
ENDBRANCH   4   5
ENDBRANCH   3   4
ENDBRANCH   2   3
ENDBRANCH   1   2
BRANCH   1  12
ATOM     12  C   UNL     1     -24.749 -11.969  34.907  1.00  0.00     0.000 C 
BRANCH  12  13
ATOM     13  C   UNL     1     -23.339 -11.545  35.369  1.00  0.00    -0.000 C 
BRANCH  13  14
ATOM     14  C   UNL     1     -22.357 -12.725  35.390  1.00  0.00    -0.000 C 
BRANCH  14  15
ATOM     15  C   UNL     1     -21.929 -13.061  36.824  1.00  0.00    -0.000 C 
BRANCH  15  16
ATOM     16  C   UNL     1     -22.393 -11.973  37.807  1.00  0.00    -0.000 C 
BRANCH  16  17
ATOM     17  C   UNL     1     -22.252 -12.402  39.276  1.00  0.00    -0.000 C 
BRANCH  17  18
ATOM     18  C   UNL     1     -21.799 -11.249  40.188  1.00  0.00    -0.000 C 
BRANCH  18  19
ATOM     19  C   UNL     1     -20.330 -10.857  39.955  1.00  0.00    -0.003 C 
ATOM     20  C   UNL     1     -19.456 -11.069  41.189  1.00  0.00     0.004 C 
ENDBRANCH  18  19
ENDBRANCH  17  18
ENDBRANCH  16  17
ENDBRANCH  15  16
ENDBRANCH  14  15
ENDBRANCH  13  14
ENDBRANCH  12  13
ENDBRANCH   1  12
TORSDOF 16
ENDMDL
MODEL 8
REMARK VINA RESULT:    -3.967      6.137      9.533
REMARK INTER + INTRA:          -8.863
REMARK INTER:                  -6.869
REMARK INTRA:                  -1.994
REMARK UNBOUND:                -1.185
REMARK SMILES CCCCCCCCCCCCCCCCCC(=O)[O-]
REMARK SMILES IDX 10 1 11 2 12 3 13 4 14 5 15 6 16 7 17 8 18 9 19 10 20 11
REMARK SMILES IDX 9 12 8 13 7 14 6 15 5 16 4 17 3 18 2 19 1 20
REMARK H PARENT
REMARK Flexibility Score: inf
ROOT
ATOM      1  C   UNL     1     -24.095 -13.022  38.251  1.00  0.00     0.000 C 
ENDROOT
BRANCH   1   2
ATOM      2  C   UNL     1     -23.511 -14.093  39.188  1.00  0.00     0.000 C 
BRANCH   2   3
ATOM      3  C   UNL     1     -23.028 -13.510  40.526  1.00  0.00     0.000 C 
BRANCH   3   4
ATOM      4  C   UNL     1     -22.437 -14.580  41.461  1.00  0.00     0.000 C 
BRANCH   4   5
ATOM      5  C   UNL     1     -23.144 -14.619  42.828  1.00  0.00     0.000 C 
BRANCH   5   6
ATOM      6  C   UNL     1     -22.700 -15.816  43.686  1.00  0.00     0.000 C 
BRANCH   6   7
ATOM      7  C   UNL     1     -21.323 -15.600  44.334  1.00  0.00     0.006 C 
BRANCH   7   8
ATOM      8  C   UNL     1     -21.402 -14.806  45.645  1.00  0.00     0.053 C 
BRANCH   8   9
ATOM      9  C   UNL     1     -20.278 -13.824  45.732  1.00  0.00     0.041 C 
ATOM     10  O   UNL     1     -19.518 -13.639  44.745  1.00  0.00    -0.550 OA
ATOM     11  O   UNL     1     -20.074 -13.099  46.901  1.00  0.00    -0.550 OA
ENDBRANCH   8   9
ENDBRANCH   7   8
ENDBRANCH   6   7
ENDBRANCH   5   6
ENDBRANCH   4   5
ENDBRANCH   3   4
ENDBRANCH   2   3
ENDBRANCH   1   2
BRANCH   1  12
ATOM     12  C   UNL     1     -23.023 -12.070  37.694  1.00  0.00     0.000 C 
BRANCH  12  13
ATOM     13  C   UNL     1     -22.629 -12.371  36.232  1.00  0.00    -0.000 C 
BRANCH  13  14
ATOM     14  C   UNL     1     -21.582 -13.490  36.132  1.00  0.00    -0.000 C 
BRANCH  14  15
ATOM     15  C   UNL     1     -20.294 -13.106  36.871  1.00  0.00    -0.000 C 
BRANCH  15  16
ATOM     16  C   UNL     1     -20.055 -14.029  38.077  1.00  0.00    -0.000 C 
BRANCH  16  17
ATOM     17  C   UNL     1     -19.526 -13.272  39.307  1.00  0.00    -0.000 C 
BRANCH  17  18
ATOM     18  C   UNL     1     -19.747 -11.753  39.206  1.00  0.00    -0.000 C 
BRANCH  18  19
ATOM     19  C   UNL     1     -20.304 -11.152  40.508  1.00  0.00    -0.003 C 
ATOM     20  C   UNL     1     -19.229 -10.477  41.357  1.00  0.00     0.004 C 
ENDBRANCH  18  19
ENDBRANCH  17  18
ENDBRANCH  16  17
ENDBRANCH  15  16
ENDBRANCH  14  15
ENDBRANCH  13  14
ENDBRANCH  12  13
ENDBRANCH   1  12
TORSDOF 16
ENDMDL
MODEL 9
REMARK VINA RESULT:    -3.926      6.539     10.795
REMARK INTER + INTRA:          -8.784
REMARK INTER:                  -6.690
REMARK INTRA:                  -2.094
REMARK UNBOUND:                -1.185
REMARK SMILES CCCCCCCCCCCCCCCCCC(=O)[O-]
REMARK SMILES IDX 10 1 11 2 12 3 13 4 14 5 15 6 16 7 17 8 18 9 19 10 20 11
REMARK SMILES IDX 9 12 8 13 7 14 6 15 5 16 4 17 3 18 2 19 1 20
REMARK H PARENT
REMARK Flexibility Score: inf
ROOT
ATOM      1  C   UNL     1     -23.409 -14.632  43.128  1.00  0.00     0.000 C 
ENDROOT
BRANCH   1   2
ATOM      2  C   UNL     1     -23.008 -14.135  41.729  1.00  0.00     0.000 C 
BRANCH   2   3
ATOM      3  C   UNL     1     -21.758 -14.846  41.184  1.00  0.00     0.000 C 
BRANCH   3   4
ATOM      4  C   UNL     1     -20.547 -13.904  41.057  1.00  0.00     0.000 C 
BRANCH   4   5
ATOM      5  C   UNL     1     -20.925 -12.431  41.292  1.00  0.00     0.000 C 
BRANCH   5   6
ATOM      6  C   UNL     1     -20.395 -11.504  40.185  1.00  0.00     0.000 C 
BRANCH   6   7
ATOM      7  C   UNL     1     -21.128 -11.700  38.848  1.00  0.00     0.006 C 
BRANCH   7   8
ATOM      8  C   UNL     1     -22.652 -11.589  38.986  1.00  0.00     0.053 C 
BRANCH   8   9
ATOM      9  C   UNL     1     -23.326 -12.717  38.271  1.00  0.00     0.041 C 
ATOM     10  O   UNL     1     -24.543 -12.633  37.959  1.00  0.00    -0.550 OA
ATOM     11  O   UNL     1     -22.608 -13.858  37.934  1.00  0.00    -0.550 OA
ENDBRANCH   8   9
ENDBRANCH   7   8
ENDBRANCH   6   7
ENDBRANCH   5   6
ENDBRANCH   4   5
ENDBRANCH   3   4
ENDBRANCH   2   3
ENDBRANCH   1   2
BRANCH   1  12
ATOM     12  C   UNL     1     -22.651 -15.903  43.548  1.00  0.00     0.000 C 
BRANCH  12  13
ATOM     13  C   UNL     1     -22.121 -15.858  44.996  1.00  0.00    -0.000 C 
BRANCH  13  14
ATOM     14  C   UNL     1     -21.206 -14.649  45.241  1.00  0.00    -0.000 C 
BRANCH  14  15
ATOM     15  C   UNL     1     -21.550 -13.955  46.564  1.00  0.00    -0.000 C 
BRANCH  15  16
ATOM     16  C   UNL     1     -22.991 -14.275  46.996  1.00  0.00    -0.000 C 
BRANCH  16  17
ATOM     17  C   UNL     1     -23.550 -13.254  48.000  1.00  0.00    -0.000 C 
BRANCH  17  18
ATOM     18  C   UNL     1     -24.630 -12.348  47.385  1.00  0.00    -0.000 C 
BRANCH  18  19
ATOM     19  C   UNL     1     -25.705 -13.147  46.628  1.00  0.00    -0.003 C 
ATOM     20  C   UNL     1     -25.899 -12.666  45.191  1.00  0.00     0.004 C 
ENDBRANCH  18  19
ENDBRANCH  17  18
ENDBRANCH  16  17
ENDBRANCH  15  16
ENDBRANCH  14  15
ENDBRANCH  13  14
ENDBRANCH  12  13
ENDBRANCH   1  12
TORSDOF 16
ENDMDL
