MODEL 1
REMARK VINA RESULT:    -6.062      0.000      0.000
REMARK INTER + INTRA:         -13.210
REMARK INTER:                 -11.377
REMARK INTRA:                  -1.833
REMARK UNBOUND:                -1.833
REMARK SMILES CCCCCCCCC=CCCCCCCCC(=O)[O-]
REMARK SMILES IDX 10 1 9 2 11 3 12 4 13 5 14 6 15 7 16 8 17 9 18 10 19 11
REMARK SMILES IDX 20 12 8 13 7 14 6 15 5 16 4 17 3 18 2 19 1 20
REMARK H PARENT
REMARK Flexibility Score: inf
ROOT
ATOM      1  C   UNL     1      12.254   5.393  52.634  1.00  0.00    -0.031 C 
ATOM      2  C   UNL     1      12.142   4.228  53.294  1.00  0.00    -0.031 C 
ENDROOT
BRANCH   1   3
ATOM      3  C   UNL     1      11.274   6.531  52.782  1.00  0.00     0.027 C 
BRANCH   3   4
ATOM      4  C   UNL     1      11.800   7.601  53.748  1.00  0.00     0.004 C 
BRANCH   4   5
ATOM      5  C   UNL     1      11.230   7.456  55.169  1.00  0.00     0.000 C 
BRANCH   5   6
ATOM      6  C   UNL     1       9.695   7.338  55.240  1.00  0.00     0.000 C 
BRANCH   6   7
ATOM      7  C   UNL     1       8.992   8.708  55.225  1.00  0.00     0.000 C 
BRANCH   7   8
ATOM      8  C   UNL     1       7.795   8.740  54.263  1.00  0.00     0.006 C 
BRANCH   8   9
ATOM      9  C   UNL     1       8.097   8.042  52.929  1.00  0.00     0.053 C 
BRANCH   9  10
ATOM     10  C   UNL     1       8.400   9.050  51.869  1.00  0.00     0.041 C 
ATOM     11  O   UNL     1       7.510   9.400  51.052  1.00  0.00    -0.550 OA
ATOM     12  O   UNL     1       9.681   9.571  51.753  1.00  0.00    -0.550 OA
ENDBRANCH   9  10
ENDBRANCH   8   9
ENDBRANCH   7   8
ENDBRANCH   6   7
ENDBRANCH   5   6
ENDBRANCH   4   5
ENDBRANCH   3   4
ENDBRANCH   1   3
BRANCH   2  13
ATOM     13  C   UNL     1      11.071   3.937  54.314  1.00  0.00     0.027 C 
BRANCH  13  14
ATOM     14  C   UNL     1      11.692   3.659  55.687  1.00  0.00     0.004 C 
BRANCH  14  15
ATOM     15  C   UNL     1      13.108   4.239  55.779  1.00  0.00     0.000 C 
BRANCH  15  16
ATOM     16  C   UNL     1      14.128   3.151  56.131  1.00  0.00     0.000 C 
BRANCH  16  17
ATOM     17  C   UNL     1      15.514   3.492  55.561  1.00  0.00    -0.000 C 
BRANCH  17  18
ATOM     18  C   UNL     1      16.444   2.271  55.496  1.00  0.00    -0.000 C 
BRANCH  18  19
ATOM     19  C   UNL     1      15.916   1.081  56.309  1.00  0.00    -0.003 C 
ATOM     20  C   UNL     1      17.050   0.370  57.045  1.00  0.00     0.004 C 
ENDBRANCH  18  19
ENDBRANCH  17  18
ENDBRANCH  16  17
ENDBRANCH  15  16
ENDBRANCH  14  15
ENDBRANCH  13  14
ENDBRANCH   2  13
TORSDOF 15
ENDMDL
MODEL 2
REMARK VINA RESULT:    -5.824      4.310      8.402
REMARK INTER + INTRA:         -12.763
REMARK INTER:                 -10.724
REMARK INTRA:                  -2.039
REMARK UNBOUND:                -1.833
REMARK SMILES CCCCCCCCC=CCCCCCCCC(=O)[O-]
REMARK SMILES IDX 10 1 9 2 11 3 12 4 13 5 14 6 15 7 16 8 17 9 18 10 19 11
REMARK SMILES IDX 20 12 8 13 7 14 6 15 5 16 4 17 3 18 2 19 1 20
REMARK H PARENT
REMARK Flexibility Score: inf
ROOT
ATOM      1  C   UNL     1      11.193   3.537  53.822  1.00  0.00    -0.031 C 
ATOM      2  C   UNL     1      12.087   4.152  53.028  1.00  0.00    -0.031 C 
ENDROOT
BRANCH   1   3
ATOM      3  C   UNL     1      10.463   4.231  54.945  1.00  0.00     0.027 C 
BRANCH   3   4
ATOM      4  C   UNL     1      11.013   3.812  56.314  1.00  0.00     0.004 C 
BRANCH   4   5
ATOM      5  C   UNL     1      12.394   4.419  56.615  1.00  0.00     0.000 C 
BRANCH   5   6
ATOM      6  C   UNL     1      13.552   3.404  56.649  1.00  0.00     0.000 C 
BRANCH   6   7
ATOM      7  C   UNL     1      14.641   3.709  55.606  1.00  0.00     0.000 C 
BRANCH   7   8
ATOM      8  C   UNL     1      15.740   2.636  55.577  1.00  0.00     0.006 C 
BRANCH   8   9
ATOM      9  C   UNL     1      15.527   1.550  56.643  1.00  0.00     0.053 C 
BRANCH   9  10
ATOM     10  C   UNL     1      16.534   0.458  56.485  1.00  0.00     0.041 C 
ATOM     11  O   UNL     1      16.548  -0.247  55.443  1.00  0.00    -0.550 OA
ATOM     12  O   UNL     1      17.429   0.186  57.510  1.00  0.00    -0.550 OA
ENDBRANCH   9  10
ENDBRANCH   8   9
ENDBRANCH   7   8
ENDBRANCH   6   7
ENDBRANCH   5   6
ENDBRANCH   4   5
ENDBRANCH   3   4
ENDBRANCH   1   3
BRANCH   2  13
ATOM     13  C   UNL     1      12.418   5.620  53.110  1.00  0.00     0.027 C 
BRANCH  13  14
ATOM     14  C   UNL     1      11.469   6.440  52.230  1.00  0.00     0.004 C 
BRANCH  14  15
ATOM     15  C   UNL     1      10.947   7.671  52.981  1.00  0.00     0.000 C 
BRANCH  15  16
ATOM     16  C   UNL     1      11.386   7.648  54.450  1.00  0.00     0.000 C 
BRANCH  16  17
ATOM     17  C   UNL     1      10.413   8.451  55.326  1.00  0.00    -0.000 C 
BRANCH  17  18
ATOM     18  C   UNL     1       9.009   7.828  55.376  1.00  0.00    -0.000 C 
BRANCH  18  19
ATOM     19  C   UNL     1       7.892   8.879  55.306  1.00  0.00    -0.003 C 
ATOM     20  C   UNL     1       8.068   9.788  54.092  1.00  0.00     0.004 C 
ENDBRANCH  18  19
ENDBRANCH  17  18
ENDBRANCH  16  17
ENDBRANCH  15  16
ENDBRANCH  14  15
ENDBRANCH  13  14
ENDBRANCH   2  13
TORSDOF 15
ENDMDL
MODEL 3
REMARK VINA RESULT:    -5.751      3.573      7.545
REMARK INTER + INTRA:         -12.626
REMARK INTER:                 -10.412
REMARK INTRA:                  -2.214
REMARK UNBOUND:                -1.833
REMARK SMILES CCCCCCCCC=CCCCCCCCC(=O)[O-]
REMARK SMILES IDX 10 1 9 2 11 3 12 4 13 5 14 6 15 7 16 8 17 9 18 10 19 11
REMARK SMILES IDX 20 12 8 13 7 14 6 15 5 16 4 17 3 18 2 19 1 20
REMARK H PARENT
REMARK Flexibility Score: inf
ROOT
ATOM      1  C   UNL     1      12.164   6.275  52.863  1.00  0.00    -0.031 C 
ATOM      2  C   UNL     1      11.682   7.401  53.418  1.00  0.00    -0.031 C 
ENDROOT
BRANCH   1   3
ATOM      3  C   UNL     1      12.565   5.060  53.662  1.00  0.00     0.027 C 
BRANCH   3   4
ATOM      4  C   UNL     1      11.845   3.800  53.164  1.00  0.00     0.004 C 
BRANCH   4   5
ATOM      5  C   UNL     1      10.815   3.262  54.172  1.00  0.00     0.000 C 
BRANCH   5   6
ATOM      6  C   UNL     1       9.902   4.334  54.797  1.00  0.00     0.000 C 
BRANCH   6   7
ATOM      7  C   UNL     1       9.954   4.335  56.336  1.00  0.00     0.000 C 
BRANCH   7   8
ATOM      8  C   UNL     1      11.386   4.485  56.872  1.00  0.00     0.006 C 
BRANCH   8   9
ATOM      9  C   UNL     1      11.806   3.305  57.760  1.00  0.00     0.053 C 
BRANCH   9  10
ATOM     10  C   UNL     1      13.015   2.632  57.197  1.00  0.00     0.041 C 
ATOM     11  O   UNL     1      13.745   3.230  56.365  1.00  0.00    -0.550 OA
ATOM     12  O   UNL     1      13.313   1.325  57.557  1.00  0.00    -0.550 OA
ENDBRANCH   9  10
ENDBRANCH   8   9
ENDBRANCH   7   8
ENDBRANCH   6   7
ENDBRANCH   5   6
ENDBRANCH   4   5
ENDBRANCH   3   4
ENDBRANCH   1   3
BRANCH   2  13
ATOM     13  C   UNL     1      11.414   7.565  54.893  1.00  0.00     0.027 C 
BRANCH  13  14
ATOM     14  C   UNL     1      11.351   9.049  55.269  1.00  0.00     0.004 C 
BRANCH  14  15
ATOM     15  C   UNL     1       9.930   9.454  55.677  1.00  0.00     0.000 C 
BRANCH  15  16
ATOM     16  C   UNL     1       8.927   8.338  55.362  1.00  0.00     0.000 C 
BRANCH  16  17
ATOM     17  C   UNL     1       7.677   8.903  54.671  1.00  0.00    -0.000 C 
BRANCH  17  18
ATOM     18  C   UNL     1       7.595   8.516  53.186  1.00  0.00    -0.000 C 
BRANCH  18  19
ATOM     19  C   UNL     1       8.605   9.281  52.319  1.00  0.00    -0.003 C 
ATOM     20  C   UNL     1       9.034   8.451  51.111  1.00  0.00     0.004 C 
ENDBRANCH  18  19
ENDBRANCH  17  18
ENDBRANCH  16  17
ENDBRANCH  15  16
ENDBRANCH  14  15
ENDBRANCH  13  14
ENDBRANCH   2  13
TORSDOF 15
ENDMDL
MODEL 4
REMARK VINA RESULT:    -5.610      4.414      8.083
REMARK INTER + INTRA:         -12.362
REMARK INTER:                 -10.330
REMARK INTRA:                  -2.033
REMARK UNBOUND:                -1.833
REMARK SMILES CCCCCCCCC=CCCCCCCCC(=O)[O-]
REMARK SMILES IDX 10 1 9 2 11 3 12 4 13 5 14 6 15 7 16 8 17 9 18 10 19 11
REMARK SMILES IDX 20 12 8 13 7 14 6 15 5 16 4 17 3 18 2 19 1 20
REMARK H PARENT
REMARK Flexibility Score: inf
ROOT
ATOM      1  C   UNL     1      10.202   4.345  55.770  1.00  0.00    -0.031 C 
ATOM      2  C   UNL     1       9.283   5.257  55.410  1.00  0.00    -0.031 C 
ENDROOT
BRANCH   1   3
ATOM      3  C   UNL     1      11.222   4.578  56.858  1.00  0.00     0.027 C 
BRANCH   3   4
ATOM      4  C   UNL     1      11.794   3.254  57.382  1.00  0.00     0.004 C 
BRANCH   4   5
ATOM      5  C   UNL     1      13.210   2.964  56.856  1.00  0.00     0.000 C 
BRANCH   5   6
ATOM      6  C   UNL     1      13.929   4.178  56.236  1.00  0.00     0.000 C 
BRANCH   6   7
ATOM      7  C   UNL     1      15.322   3.826  55.685  1.00  0.00     0.000 C 
BRANCH   7   8
ATOM      8  C   UNL     1      15.521   2.311  55.525  1.00  0.00     0.006 C 
BRANCH   8   9
ATOM      9  C   UNL     1      16.914   1.851  55.982  1.00  0.00     0.053 C 
BRANCH   9  10
ATOM     10  C   UNL     1      16.853   0.461  56.525  1.00  0.00     0.041 C 
ATOM     11  O   UNL     1      17.156   0.235  57.725  1.00  0.00    -0.550 OA
ATOM     12  O   UNL     1      16.505  -0.595  55.694  1.00  0.00    -0.550 OA
ENDBRANCH   9  10
ENDBRANCH   8   9
ENDBRANCH   7   8
ENDBRANCH   6   7
ENDBRANCH   5   6
ENDBRANCH   4   5
ENDBRANCH   3   4
ENDBRANCH   1   3
BRANCH   2  13
ATOM     13  C   UNL     1       9.106   6.590  56.089  1.00  0.00     0.027 C 
BRANCH  13  14
ATOM     14  C   UNL     1       9.700   7.716  55.236  1.00  0.00     0.004 C 
BRANCH  14  15
ATOM     15  C   UNL     1       8.793   8.039  54.043  1.00  0.00     0.000 C 
BRANCH  15  16
ATOM     16  C   UNL     1       9.607   8.166  52.750  1.00  0.00     0.000 C 
BRANCH  16  17
ATOM     17  C   UNL     1      11.067   7.743  52.977  1.00  0.00    -0.000 C 
BRANCH  17  18
ATOM     18  C   UNL     1      11.418   6.426  52.267  1.00  0.00    -0.000 C 
BRANCH  18  19
ATOM     19  C   UNL     1      12.435   5.584  53.051  1.00  0.00    -0.003 C 
ATOM     20  C   UNL     1      12.103   4.096  52.961  1.00  0.00     0.004 C 
ENDBRANCH  18  19
ENDBRANCH  17  18
ENDBRANCH  16  17
ENDBRANCH  15  16
ENDBRANCH  14  15
ENDBRANCH  13  14
ENDBRANCH   2  13
TORSDOF 15
ENDMDL
MODEL 5
REMARK VINA RESULT:    -5.598      1.428      2.429
REMARK INTER + INTRA:         -12.339
REMARK INTER:                 -10.501
REMARK INTRA:                  -1.837
REMARK UNBOUND:                -1.833
REMARK SMILES CCCCCCCCC=CCCCCCCCC(=O)[O-]
REMARK SMILES IDX 10 1 9 2 11 3 12 4 13 5 14 6 15 7 16 8 17 9 18 10 19 11
REMARK SMILES IDX 20 12 8 13 7 14 6 15 5 16 4 17 3 18 2 19 1 20
REMARK H PARENT
REMARK Flexibility Score: inf
ROOT
ATOM      1  C   UNL     1      11.817   3.780  53.590  1.00  0.00    -0.031 C 
ATOM      2  C   UNL     1      12.781   4.518  54.167  1.00  0.00    -0.031 C 
ENDROOT
BRANCH   1   3
ATOM      3  C   UNL     1      10.715   3.099  54.364  1.00  0.00     0.027 C 
BRANCH   3   4
ATOM      4  C   UNL     1       9.497   4.017  54.528  1.00  0.00     0.004 C 
BRANCH   4   5
ATOM      5  C   UNL     1       9.233   4.406  55.993  1.00  0.00     0.000 C 
BRANCH   5   6
ATOM      6  C   UNL     1       9.336   5.914  56.289  1.00  0.00     0.000 C 
BRANCH   6   7
ATOM      7  C   UNL     1       9.935   6.711  55.117  1.00  0.00     0.000 C 
BRANCH   7   8
ATOM      8  C   UNL     1       8.972   7.785  54.588  1.00  0.00     0.006 C 
BRANCH   8   9
ATOM      9  C   UNL     1       8.491   7.490  53.160  1.00  0.00     0.053 C 
BRANCH   9  10
ATOM     10  C   UNL     1       9.210   8.354  52.177  1.00  0.00     0.041 C 
ATOM     11  O   UNL     1       9.396   9.574  52.421  1.00  0.00    -0.550 OA
ATOM     12  O   UNL     1       9.637   7.823  50.967  1.00  0.00    -0.550 OA
ENDBRANCH   9  10
ENDBRANCH   8   9
ENDBRANCH   7   8
ENDBRANCH   6   7
ENDBRANCH   5   6
ENDBRANCH   4   5
ENDBRANCH   3   4
ENDBRANCH   1   3
BRANCH   2  13
ATOM     13  C   UNL     1      12.844   4.817  55.643  1.00  0.00     0.027 C 
BRANCH  13  14
ATOM     14  C   UNL     1      13.562   3.691  56.394  1.00  0.00     0.004 C 
BRANCH  14  15
ATOM     15  C   UNL     1      12.653   3.077  57.465  1.00  0.00     0.000 C 
BRANCH  15  16
ATOM     16  C   UNL     1      13.343   1.902  58.167  1.00  0.00     0.000 C 
BRANCH  16  17
ATOM     17  C   UNL     1      14.005   0.965  57.145  1.00  0.00    -0.000 C 
BRANCH  17  18
ATOM     18  C   UNL     1      15.515   0.803  57.382  1.00  0.00    -0.000 C 
BRANCH  18  19
ATOM     19  C   UNL     1      16.316   0.738  56.074  1.00  0.00    -0.003 C 
ATOM     20  C   UNL     1      16.538   2.134  55.496  1.00  0.00     0.004 C 
ENDBRANCH  18  19
ENDBRANCH  17  18
ENDBRANCH  16  17
ENDBRANCH  15  16
ENDBRANCH  14  15
ENDBRANCH  13  14
ENDBRANCH   2  13
TORSDOF 15
ENDMDL
MODEL 6
REMARK VINA RESULT:    -5.553      1.341      1.937
REMARK INTER + INTRA:         -12.256
REMARK INTER:                 -11.261
REMARK INTRA:                  -0.995
REMARK UNBOUND:                -1.833
REMARK SMILES CCCCCCCCC=CCCCCCCCC(=O)[O-]
REMARK SMILES IDX 10 1 9 2 11 3 12 4 13 5 14 6 15 7 16 8 17 9 18 10 19 11
REMARK SMILES IDX 20 12 8 13 7 14 6 15 5 16 4 17 3 18 2 19 1 20
REMARK H PARENT
REMARK Flexibility Score: inf
ROOT
ATOM      1  C   UNL     1       9.509   4.148  55.264  1.00  0.00    -0.031 C 
ATOM      2  C   UNL     1      10.496   3.578  54.552  1.00  0.00    -0.031 C 
ENDROOT
BRANCH   1   3
ATOM      3  C   UNL     1       9.550   5.578  55.745  1.00  0.00     0.027 C 
BRANCH   3   4
ATOM      4  C   UNL     1       9.321   6.563  54.591  1.00  0.00     0.004 C 
BRANCH   4   5
ATOM      5  C   UNL     1       9.730   8.003  54.944  1.00  0.00     0.000 C 
BRANCH   5   6
ATOM      6  C   UNL     1       8.555   8.982  55.129  1.00  0.00     0.000 C 
BRANCH   6   7
ATOM      7  C   UNL     1       7.480   8.833  54.038  1.00  0.00     0.000 C 
BRANCH   7   8
ATOM      8  C   UNL     1       7.745   9.744  52.829  1.00  0.00     0.006 C 
BRANCH   8   9
ATOM      9  C   UNL     1       7.638   8.992  51.494  1.00  0.00     0.053 C 
BRANCH   9  10
ATOM     10  C   UNL     1       8.995   8.769  50.910  1.00  0.00     0.041 C 
ATOM     11  O   UNL     1       9.494   9.615  50.124  1.00  0.00    -0.550 OA
ATOM     12  O   UNL     1       9.691   7.603  51.197  1.00  0.00    -0.550 OA
ENDBRANCH   9  10
ENDBRANCH   8   9
ENDBRANCH   7   8
ENDBRANCH   6   7
ENDBRANCH   5   6
ENDBRANCH   4   5
ENDBRANCH   3   4
ENDBRANCH   1   3
BRANCH   2  13
ATOM     13  C   UNL     1      11.728   4.309  54.083  1.00  0.00     0.027 C 
BRANCH  13  14
ATOM     14  C   UNL     1      12.743   4.447  55.223  1.00  0.00     0.004 C 
BRANCH  14  15
ATOM     15  C   UNL     1      12.679   3.240  56.166  1.00  0.00     0.000 C 
BRANCH  15  16
ATOM     16  C   UNL     1      14.078   2.852  56.659  1.00  0.00     0.000 C 
BRANCH  16  17
ATOM     17  C   UNL     1      15.141   3.166  55.595  1.00  0.00    -0.000 C 
BRANCH  17  18
ATOM     18  C   UNL     1      16.303   2.161  55.605  1.00  0.00    -0.000 C 
BRANCH  18  19
ATOM     19  C   UNL     1      16.010   0.926  56.468  1.00  0.00    -0.003 C 
ATOM     20  C   UNL     1      16.600  -0.336  55.842  1.00  0.00     0.004 C 
ENDBRANCH  18  19
ENDBRANCH  17  18
ENDBRANCH  16  17
ENDBRANCH  15  16
ENDBRANCH  14  15
ENDBRANCH  13  14
ENDBRANCH   2  13
TORSDOF 15
ENDMDL
MODEL 7
REMARK VINA RESULT:    -5.514      1.505      2.415
REMARK INTER + INTRA:         -12.182
REMARK INTER:                 -10.417
REMARK INTRA:                  -1.765
REMARK UNBOUND:                -1.833
REMARK SMILES CCCCCCCCC=CCCCCCCCC(=O)[O-]
REMARK SMILES IDX 10 1 9 2 11 3 12 4 13 5 14 6 15 7 16 8 17 9 18 10 19 11
REMARK SMILES IDX 20 12 8 13 7 14 6 15 5 16 4 17 3 18 2 19 1 20
REMARK H PARENT
REMARK Flexibility Score: inf
ROOT
ATOM      1  C   UNL     1      10.412   3.950  54.500  1.00  0.00    -0.031 C 
ATOM      2  C   UNL     1      10.294   4.266  55.801  1.00  0.00    -0.031 C 
ENDROOT
BRANCH   1   3
ATOM      3  C   UNL     1      11.737   3.858  53.783  1.00  0.00     0.027 C 
BRANCH   3   4
ATOM      4  C   UNL     1      12.424   5.227  53.696  1.00  0.00     0.004 C 
BRANCH   4   5
ATOM      5  C   UNL     1      11.811   6.136  52.617  1.00  0.00     0.000 C 
BRANCH   5   6
ATOM      6  C   UNL     1      11.265   7.479  53.139  1.00  0.00     0.000 C 
BRANCH   6   7
ATOM      7  C   UNL     1      11.300   7.579  54.675  1.00  0.00     0.000 C 
BRANCH   7   8
ATOM      8  C   UNL     1      10.515   8.791  55.199  1.00  0.00     0.006 C 
BRANCH   8   9
ATOM      9  C   UNL     1       9.574   9.383  54.140  1.00  0.00     0.053 C 
BRANCH   9  10
ATOM     10  C   UNL     1       8.188   8.858  54.319  1.00  0.00     0.041 C 
ATOM     11  O   UNL     1       7.612   8.253  53.378  1.00  0.00    -0.550 OA
ATOM     12  O   UNL     1       7.511   9.076  55.511  1.00  0.00    -0.550 OA
ENDBRANCH   9  10
ENDBRANCH   8   9
ENDBRANCH   7   8
ENDBRANCH   6   7
ENDBRANCH   5   6
ENDBRANCH   4   5
ENDBRANCH   3   4
ENDBRANCH   1   3
BRANCH   2  13
ATOM     13  C   UNL     1      11.465   4.495  56.722  1.00  0.00     0.027 C 
BRANCH  13  14
ATOM     14  C   UNL     1      11.798   3.219  57.502  1.00  0.00     0.004 C 
BRANCH  14  15
ATOM     15  C   UNL     1      13.041   2.530  56.927  1.00  0.00     0.000 C 
BRANCH  15  16
ATOM     16  C   UNL     1      14.209   3.515  56.800  1.00  0.00     0.000 C 
BRANCH  16  17
ATOM     17  C   UNL     1      14.972   3.295  55.485  1.00  0.00    -0.000 C 
BRANCH  17  18
ATOM     18  C   UNL     1      16.344   2.636  55.701  1.00  0.00    -0.000 C 
BRANCH  18  19
ATOM     19  C   UNL     1      16.266   1.103  55.726  1.00  0.00    -0.003 C 
ATOM     20  C   UNL     1      16.971   0.538  56.957  1.00  0.00     0.004 C 
ENDBRANCH  18  19
ENDBRANCH  17  18
ENDBRANCH  16  17
ENDBRANCH  15  16
ENDBRANCH  14  15
ENDBRANCH  13  14
ENDBRANCH   2  13
TORSDOF 15
ENDMDL
MODEL 8
REMARK VINA RESULT:    -5.424      4.293      8.876
REMARK INTER + INTRA:         -12.014
REMARK INTER:                 -10.372
REMARK INTRA:                  -1.642
REMARK UNBOUND:                -1.833
REMARK SMILES CCCCCCCCC=CCCCCCCCC(=O)[O-]
REMARK SMILES IDX 10 1 9 2 11 3 12 4 13 5 14 6 15 7 16 8 17 9 18 10 19 11
REMARK SMILES IDX 20 12 8 13 7 14 6 15 5 16 4 17 3 18 2 19 1 20
REMARK H PARENT
REMARK Flexibility Score: inf
ROOT
ATOM      1  C   UNL     1      11.672   6.559  53.406  1.00  0.00    -0.031 C 
ATOM      2  C   UNL     1      11.741   7.820  53.866  1.00  0.00    -0.031 C 
ENDROOT
BRANCH   1   3
ATOM      3  C   UNL     1      11.290   5.379  54.266  1.00  0.00     0.027 C 
BRANCH   3   4
ATOM      4  C   UNL     1      12.401   4.321  54.289  1.00  0.00     0.004 C 
BRANCH   4   5
ATOM      5  C   UNL     1      12.383   3.463  55.566  1.00  0.00     0.000 C 
BRANCH   5   6
ATOM      6  C   UNL     1      13.662   3.551  56.420  1.00  0.00     0.000 C 
BRANCH   6   7
ATOM      7  C   UNL     1      14.916   3.864  55.583  1.00  0.00     0.000 C 
BRANCH   7   8
ATOM      8  C   UNL     1      15.883   2.672  55.514  1.00  0.00     0.006 C 
BRANCH   8   9
ATOM      9  C   UNL     1      15.542   1.580  56.537  1.00  0.00     0.053 C 
BRANCH   9  10
ATOM     10  C   UNL     1      16.528   0.461  56.456  1.00  0.00     0.041 C 
ATOM     11  O   UNL     1      16.529  -0.314  55.466  1.00  0.00    -0.550 OA
ATOM     12  O   UNL     1      17.420   0.244  57.498  1.00  0.00    -0.550 OA
ENDBRANCH   9  10
ENDBRANCH   8   9
ENDBRANCH   7   8
ENDBRANCH   6   7
ENDBRANCH   5   6
ENDBRANCH   4   5
ENDBRANCH   3   4
ENDBRANCH   1   3
BRANCH   2  13
ATOM     13  C   UNL     1      11.378   8.224  55.272  1.00  0.00     0.027 C 
BRANCH  13  14
ATOM     14  C   UNL     1      10.091   9.056  55.282  1.00  0.00     0.004 C 
BRANCH  14  15
ATOM     15  C   UNL     1       8.853   8.157  55.183  1.00  0.00     0.000 C 
BRANCH  15  16
ATOM     16  C   UNL     1       7.592   8.984  54.906  1.00  0.00     0.000 C 
BRANCH  16  17
ATOM     17  C   UNL     1       7.788   9.888  53.680  1.00  0.00    -0.000 C 
BRANCH  17  18
ATOM     18  C   UNL     1       7.819   9.100  52.362  1.00  0.00    -0.000 C 
BRANCH  18  19
ATOM     19  C   UNL     1       9.145   9.264  51.605  1.00  0.00    -0.003 C 
ATOM     20  C   UNL     1       9.489   8.001  50.818  1.00  0.00     0.004 C 
ENDBRANCH  18  19
ENDBRANCH  17  18
ENDBRANCH  16  17
ENDBRANCH  15  16
ENDBRANCH  14  15
ENDBRANCH  13  14
ENDBRANCH   2  13
TORSDOF 15
ENDMDL
MODEL 9
REMARK VINA RESULT:    -5.342      4.227      8.045
REMARK INTER + INTRA:         -11.860
REMARK INTER:                  -9.642
REMARK INTRA:                  -2.218
REMARK UNBOUND:                -1.833
REMARK SMILES CCCCCCCCC=CCCCCCCCC(=O)[O-]
REMARK SMILES IDX 10 1 9 2 11 3 12 4 13 5 14 6 15 7 16 8 17 9 18 10 19 11
REMARK SMILES IDX 20 12 8 13 7 14 6 15 5 16 4 17 3 18 2 19 1 20
REMARK H PARENT
REMARK Flexibility Score: inf
ROOT
ATOM      1  C   UNL     1      11.884   6.313  52.756  1.00  0.00    -0.031 C 
ATOM      2  C   UNL     1      11.389   7.444  53.286  1.00  0.00    -0.031 C 
ENDROOT
BRANCH   1   3
ATOM      3  C   UNL     1      12.536   5.226  53.575  1.00  0.00     0.027 C 
BRANCH   3   4
ATOM      4  C   UNL     1      11.647   3.979  53.660  1.00  0.00     0.004 C 
BRANCH   4   5
ATOM      5  C   UNL     1      10.425   4.177  54.573  1.00  0.00     0.000 C 
BRANCH   5   6
ATOM      6  C   UNL     1      10.568   3.572  55.983  1.00  0.00     0.000 C 
BRANCH   6   7
ATOM      7  C   UNL     1      11.398   4.458  56.929  1.00  0.00     0.000 C 
BRANCH   7   8
ATOM      8  C   UNL     1      12.574   3.697  57.560  1.00  0.00     0.006 C 
BRANCH   8   9
ATOM      9  C   UNL     1      12.671   2.249  57.060  1.00  0.00     0.053 C 
BRANCH   9  10
ATOM     10  C   UNL     1      13.674   1.485  57.861  1.00  0.00     0.041 C 
ATOM     11  O   UNL     1      13.600   1.462  59.116  1.00  0.00    -0.550 OA
ATOM     12  O   UNL     1      14.721   0.834  57.223  1.00  0.00    -0.550 OA
ENDBRANCH   9  10
ENDBRANCH   8   9
ENDBRANCH   7   8
ENDBRANCH   6   7
ENDBRANCH   5   6
ENDBRANCH   4   5
ENDBRANCH   3   4
ENDBRANCH   1   3
BRANCH   2  13
ATOM     13  C   UNL     1      11.356   7.739  54.764  1.00  0.00     0.027 C 
BRANCH  13  14
ATOM     14  C   UNL     1       9.914   7.930  55.247  1.00  0.00     0.004 C 
BRANCH  14  15
ATOM     15  C   UNL     1       8.912   7.497  54.170  1.00  0.00     0.000 C 
BRANCH  15  16
ATOM     16  C   UNL     1       7.867   8.591  53.918  1.00  0.00     0.000 C 
BRANCH  16  17
ATOM     17  C   UNL     1       8.347   9.566  52.832  1.00  0.00    -0.000 C 
BRANCH  17  18
ATOM     18  C   UNL     1       8.142   9.018  51.411  1.00  0.00    -0.000 C 
BRANCH  18  19
ATOM     19  C   UNL     1       9.407   9.122  50.548  1.00  0.00    -0.003 C 
ATOM     20  C   UNL     1       9.851   7.747  50.054  1.00  0.00     0.004 C 
ENDBRANCH  18  19
ENDBRANCH  17  18
ENDBRANCH  16  17
ENDBRANCH  15  16
ENDBRANCH  14  15
ENDBRANCH  13  14
ENDBRANCH   2  13
TORSDOF 15
ENDMDL
