MODEL 1
REMARK VINA RESULT:    -3.830      0.000      0.000
REMARK INTER + INTRA:          -4.910
REMARK INTER:                  -4.725
REMARK INTRA:                  -0.185
REMARK UNBOUND:                -0.185
REMARK SMILES C=CC[C@@H](C)C(=O)CC
REMARK SMILES IDX 4 1 5 2 6 3 7 4 8 5 9 6 3 7 2 8 1 9
REMARK H PARENT
REMARK Flexibility Score: inf
ROOT
ATOM      1  C   UNL     1      25.926  54.956   0.072  1.00  0.00     0.057 C 
ATOM      2  C   UNL     1      26.631  54.525   1.366  1.00  0.00     0.016 C 
ENDROOT
BRANCH   1   3
ATOM      3  C   UNL     1      26.943  55.492  -0.914  1.00  0.00     0.135 C 
ATOM      4  O   UNL     1      26.687  55.495  -2.109  1.00  0.00    -0.299 OA
BRANCH   3   5
ATOM      5  C   UNL     1      28.268  56.036  -0.447  1.00  0.00     0.072 C 
ATOM      6  C   UNL     1      29.141  56.427  -1.634  1.00  0.00     0.012 C 
ENDBRANCH   3   5
ENDBRANCH   1   3
BRANCH   1   7
ATOM      7  C   UNL     1      25.139  53.792  -0.565  1.00  0.00     0.038 C 
BRANCH   7   8
ATOM      8  C   UNL     1      25.137  52.560   0.301  1.00  0.00    -0.034 C 
ATOM      9  C   UNL     1      24.001  51.957   0.666  1.00  0.00     0.004 C 
ENDBRANCH   7   8
ENDBRANCH   1   7
TORSDOF 4
ENDMDL
MODEL 2
REMARK VINA RESULT:    -3.732      2.214      3.752
REMARK INTER + INTRA:          -4.790
REMARK INTER:                  -4.555
REMARK INTRA:                  -0.235
REMARK UNBOUND:                -0.185
REMARK SMILES C=CC[C@@H](C)C(=O)CC
REMARK SMILES IDX 4 1 5 2 6 3 7 4 8 5 9 6 3 7 2 8 1 9
REMARK H PARENT
REMARK Flexibility Score: inf
ROOT
ATOM      1  C   UNL     1      24.322  51.671  -0.170  1.00  0.00     0.057 C 
ATOM      2  C   UNL     1      23.317  52.204  -1.201  1.00  0.00     0.016 C 
ENDROOT
BRANCH   1   3
ATOM      3  C   UNL     1      25.192  52.805   0.333  1.00  0.00     0.135 C 
ATOM      4  O   UNL     1      25.787  52.688   1.394  1.00  0.00    -0.299 OA
BRANCH   3   5
ATOM      5  C   UNL     1      25.348  54.077  -0.459  1.00  0.00     0.072 C 
ATOM      6  C   UNL     1      26.348  55.012   0.212  1.00  0.00     0.012 C 
ENDBRANCH   3   5
ENDBRANCH   1   3
BRANCH   1   7
ATOM      7  C   UNL     1      23.614  50.985   1.016  1.00  0.00     0.038 C 
BRANCH   7   8
ATOM      8  C   UNL     1      22.371  51.718   1.445  1.00  0.00    -0.034 C 
ATOM      9  C   UNL     1      21.252  51.070   1.783  1.00  0.00     0.004 C 
ENDBRANCH   7   8
ENDBRANCH   1   7
TORSDOF 4
ENDMDL
MODEL 3
REMARK VINA RESULT:    -3.710      2.312      4.732
REMARK INTER + INTRA:          -4.762
REMARK INTER:                  -4.573
REMARK INTRA:                  -0.189
REMARK UNBOUND:                -0.185
REMARK SMILES C=CC[C@@H](C)C(=O)CC
REMARK SMILES IDX 4 1 5 2 6 3 7 4 8 5 9 6 3 7 2 8 1 9
REMARK H PARENT
REMARK Flexibility Score: inf
ROOT
ATOM      1  C   UNL     1      25.570  53.014   0.207  1.00  0.00     0.057 C 
ATOM      2  C   UNL     1      25.929  53.227   1.685  1.00  0.00     0.016 C 
ENDROOT
BRANCH   1   3
ATOM      3  C   UNL     1      24.196  52.385   0.099  1.00  0.00     0.135 C 
ATOM      4  O   UNL     1      23.701  51.839   1.073  1.00  0.00    -0.299 OA
BRANCH   3   5
ATOM      5  C   UNL     1      23.419  52.429  -1.191  1.00  0.00     0.072 C 
ATOM      6  C   UNL     1      22.884  51.047  -1.547  1.00  0.00     0.012 C 
ENDBRANCH   3   5
ENDBRANCH   1   3
BRANCH   1   7
ATOM      7  C   UNL     1      25.608  54.336  -0.587  1.00  0.00     0.038 C 
BRANCH   7   8
ATOM      8  C   UNL     1      26.513  55.359   0.047  1.00  0.00    -0.034 C 
ATOM      9  C   UNL     1      27.644  55.760  -0.542  1.00  0.00     0.004 C 
ENDBRANCH   7   8
ENDBRANCH   1   7
TORSDOF 4
ENDMDL
MODEL 4
REMARK VINA RESULT:    -3.611      2.938      4.471
REMARK INTER + INTRA:          -4.640
REMARK INTER:                  -4.469
REMARK INTRA:                  -0.171
REMARK UNBOUND:                -0.185
REMARK SMILES C=CC[C@@H](C)C(=O)CC
REMARK SMILES IDX 4 1 5 2 6 3 7 4 8 5 9 6 3 7 2 8 1 9
REMARK H PARENT
REMARK Flexibility Score: inf
ROOT
ATOM      1  C   UNL     1      23.258  51.939  -0.427  1.00  0.00     0.057 C 
ATOM      2  C   UNL     1      22.284  51.276   0.558  1.00  0.00     0.016 C 
ENDROOT
BRANCH   1   3
ATOM      3  C   UNL     1      24.508  52.379   0.305  1.00  0.00     0.135 C 
ATOM      4  O   UNL     1      24.902  51.741   1.270  1.00  0.00    -0.299 OA
BRANCH   3   5
ATOM      5  C   UNL     1      25.287  53.589  -0.141  1.00  0.00     0.072 C 
ATOM      6  C   UNL     1      26.011  54.231   1.037  1.00  0.00     0.012 C 
ENDBRANCH   3   5
ENDBRANCH   1   3
BRANCH   1   7
ATOM      7  C   UNL     1      23.631  50.992  -1.586  1.00  0.00     0.038 C 
BRANCH   7   8
ATOM      8  C   UNL     1      22.688  51.113  -2.753  1.00  0.00    -0.034 C 
ATOM      9  C   UNL     1      21.909  50.098  -3.137  1.00  0.00     0.004 C 
ENDBRANCH   7   8
ENDBRANCH   1   7
TORSDOF 4
ENDMDL
MODEL 5
REMARK VINA RESULT:    -3.609     10.991     12.679
REMARK INTER + INTRA:          -4.638
REMARK INTER:                  -4.459
REMARK INTRA:                  -0.179
REMARK UNBOUND:                -0.185
REMARK SMILES C=CC[C@@H](C)C(=O)CC
REMARK SMILES IDX 4 1 5 2 6 3 7 4 8 5 9 6 3 7 2 8 1 9
REMARK H PARENT
REMARK Flexibility Score: inf
ROOT
ATOM      1  C   UNL     1      29.022  60.417   8.953  1.00  0.00     0.057 C 
ATOM      2  C   UNL     1      29.886  60.321   7.687  1.00  0.00     0.016 C 
ENDROOT
BRANCH   1   3
ATOM      3  C   UNL     1      29.242  59.195   9.819  1.00  0.00     0.135 C 
ATOM      4  O   UNL     1      30.189  58.455   9.593  1.00  0.00    -0.299 OA
BRANCH   3   5
ATOM      5  C   UNL     1      28.319  58.876  10.966  1.00  0.00     0.072 C 
ATOM      6  C   UNL     1      27.645  57.525  10.758  1.00  0.00     0.012 C 
ENDBRANCH   3   5
ENDBRANCH   1   3
BRANCH   1   7
ATOM      7  C   UNL     1      29.330  61.697   9.758  1.00  0.00     0.038 C 
BRANCH   7   8
ATOM      8  C   UNL     1      30.409  62.530   9.120  1.00  0.00    -0.034 C 
ATOM      9  C   UNL     1      30.867  63.647   9.693  1.00  0.00     0.004 C 
ENDBRANCH   7   8
ENDBRANCH   1   7
TORSDOF 4
ENDMDL
MODEL 6
REMARK VINA RESULT:    -3.586      3.441      5.613
REMARK INTER + INTRA:          -4.610
REMARK INTER:                  -4.193
REMARK INTRA:                  -0.417
REMARK UNBOUND:                -0.185
REMARK SMILES C=CC[C@@H](C)C(=O)CC
REMARK SMILES IDX 4 1 5 2 6 3 7 4 8 5 9 6 3 7 2 8 1 9
REMARK H PARENT
REMARK Flexibility Score: inf
ROOT
ATOM      1  C   UNL     1      24.346  51.934  -0.316  1.00  0.00     0.057 C 
ATOM      2  C   UNL     1      25.244  53.164  -0.118  1.00  0.00     0.016 C 
ENDROOT
BRANCH   1   3
ATOM      3  C   UNL     1      23.838  51.448   1.025  1.00  0.00     0.135 C 
ATOM      4  O   UNL     1      24.607  50.901   1.802  1.00  0.00    -0.299 OA
BRANCH   3   5
ATOM      5  C   UNL     1      22.398  51.636   1.427  1.00  0.00     0.072 C 
ATOM      6  C   UNL     1      21.716  50.289   1.636  1.00  0.00     0.012 C 
ENDBRANCH   3   5
ENDBRANCH   1   3
BRANCH   1   7
ATOM      7  C   UNL     1      23.158  52.238  -1.252  1.00  0.00     0.038 C 
BRANCH   7   8
ATOM      8  C   UNL     1      22.975  51.182  -2.309  1.00  0.00    -0.034 C 
ATOM      9  C   UNL     1      22.222  50.098  -2.099  1.00  0.00     0.004 C 
ENDBRANCH   7   8
ENDBRANCH   1   7
TORSDOF 4
ENDMDL
MODEL 7
REMARK VINA RESULT:    -3.488      2.827      5.909
REMARK INTER + INTRA:          -4.488
REMARK INTER:                  -4.275
REMARK INTRA:                  -0.214
REMARK UNBOUND:                -0.185
REMARK SMILES C=CC[C@@H](C)C(=O)CC
REMARK SMILES IDX 4 1 5 2 6 3 7 4 8 5 9 6 3 7 2 8 1 9
REMARK H PARENT
REMARK Flexibility Score: inf
ROOT
ATOM      1  C   UNL     1      23.699  52.276  -0.128  1.00  0.00     0.057 C 
ATOM      2  C   UNL     1      23.235  51.698  -1.473  1.00  0.00     0.016 C 
ENDROOT
BRANCH   1   3
ATOM      3  C   UNL     1      23.231  51.385   1.003  1.00  0.00     0.135 C 
ATOM      4  O   UNL     1      23.972  50.514   1.435  1.00  0.00    -0.299 OA
BRANCH   3   5
ATOM      5  C   UNL     1      21.866  51.558   1.618  1.00  0.00     0.072 C 
ATOM      6  C   UNL     1      21.049  50.278   1.488  1.00  0.00     0.012 C 
ENDBRANCH   3   5
ENDBRANCH   1   3
BRANCH   1   7
ATOM      7  C   UNL     1      25.233  52.435  -0.074  1.00  0.00     0.038 C 
BRANCH   7   8
ATOM      8  C   UNL     1      25.653  53.809   0.375  1.00  0.00    -0.034 C 
ATOM      9  C   UNL     1      26.009  54.757  -0.498  1.00  0.00     0.004 C 
ENDBRANCH   7   8
ENDBRANCH   1   7
TORSDOF 4
ENDMDL
MODEL 8
REMARK VINA RESULT:    -3.341      4.409      6.249
REMARK INTER + INTRA:          -4.307
REMARK INTER:                  -3.993
REMARK INTRA:                  -0.315
REMARK UNBOUND:                -0.185
REMARK SMILES C=CC[C@@H](C)C(=O)CC
REMARK SMILES IDX 4 1 5 2 6 3 7 4 8 5 9 6 3 7 2 8 1 9
REMARK H PARENT
REMARK Flexibility Score: inf
ROOT
ATOM      1  C   UNL     1      22.814  51.548  -0.248  1.00  0.00     0.057 C 
ATOM      2  C   UNL     1      24.078  52.336  -0.620  1.00  0.00     0.016 C 
ENDROOT
BRANCH   1   3
ATOM      3  C   UNL     1      22.919  50.132  -0.774  1.00  0.00     0.135 C 
ATOM      4  O   UNL     1      23.776  49.382  -0.330  1.00  0.00    -0.299 OA
BRANCH   3   5
ATOM      5  C   UNL     1      21.975  49.622  -1.832  1.00  0.00     0.072 C 
ATOM      6  C   UNL     1      22.164  50.386  -3.137  1.00  0.00     0.012 C 
ENDBRANCH   3   5
ENDBRANCH   1   3
BRANCH   1   7
ATOM      7  C   UNL     1      22.582  51.528   1.277  1.00  0.00     0.038 C 
BRANCH   7   8
ATOM      8  C   UNL     1      21.127  51.382   1.634  1.00  0.00    -0.034 C 
ATOM      9  C   UNL     1      20.662  50.299   2.264  1.00  0.00     0.004 C 
ENDBRANCH   7   8
ENDBRANCH   1   7
TORSDOF 4
ENDMDL
MODEL 9
REMARK VINA RESULT:    -3.264      4.200      5.329
REMARK INTER + INTRA:          -4.213
REMARK INTER:                  -3.853
REMARK INTRA:                  -0.360
REMARK UNBOUND:                -0.185
REMARK SMILES C=CC[C@@H](C)C(=O)CC
REMARK SMILES IDX 4 1 5 2 6 3 7 4 8 5 9 6 3 7 2 8 1 9
REMARK H PARENT
REMARK Flexibility Score: inf
ROOT
ATOM      1  C   UNL     1      23.449  51.468   1.295  1.00  0.00     0.057 C 
ATOM      2  C   UNL     1      23.903  50.033   1.596  1.00  0.00     0.016 C 
ENDROOT
BRANCH   1   3
ATOM      3  C   UNL     1      24.037  51.927  -0.023  1.00  0.00     0.135 C 
ATOM      4  O   UNL     1      25.243  52.094  -0.123  1.00  0.00    -0.299 OA
BRANCH   3   5
ATOM      5  C   UNL     1      23.161  52.172  -1.224  1.00  0.00     0.072 C 
ATOM      6  C   UNL     1      23.166  50.962  -2.152  1.00  0.00     0.012 C 
ENDBRANCH   3   5
ENDBRANCH   1   3
BRANCH   1   7
ATOM      7  C   UNL     1      21.911  51.583   1.254  1.00  0.00     0.038 C 
BRANCH   7   8
ATOM      8  C   UNL     1      21.232  50.244   1.364  1.00  0.00    -0.034 C 
ATOM      9  C   UNL     1      20.047  50.102   1.966  1.00  0.00     0.004 C 
ENDBRANCH   7   8
ENDBRANCH   1   7
TORSDOF 4
ENDMDL
