MODEL 1
REMARK VINA RESULT:    -3.825      0.000      0.000
REMARK INTER + INTRA:          -4.950
REMARK INTER:                  -5.390
REMARK INTRA:                   0.440
REMARK UNBOUND:                 0.440
REMARK SMILES CC1=CCC(=C(C)C)C(=O)CC(C)=CCC1
REMARK SMILES IDX 12 1 14 2 13 3 15 4 16 5 2 6 1 7 3 8 11 10 9 11 10 12 5 13
REMARK SMILES IDX 6 14 7 15 8 16 4 17
REMARK H PARENT
REMARK Flexibility Score: 60.00
ROOT
ATOM      1  C   UNL     1     -12.872   3.117 -15.389  1.00  0.00    -0.070 C 
ATOM      2  C   UNL     1     -13.567   4.025 -16.109  1.00  0.00    -0.027 C 
ATOM      3  C   UNL     1     -13.651   2.130 -14.557  1.00  0.00     0.039 C 
ENDROOT
BRANCH   2   4
ATOM      4  C   UNL     1     -12.973   5.029 -17.073  1.00  0.00     0.032 C 
BRANCH   4   5
ATOM      5  C   UNL     1     -11.683   5.716 -16.580  1.00  0.00     0.034 C 
BRANCH   5   6
ATOM      6  C   UNL     1     -11.915   6.650 -15.407  1.00  0.00    -0.077 C 
ATOM      7  C   UNL     1     -12.936   7.747 -15.575  1.00  0.00     0.039 C 
ATOM      8  C   UNL     1     -11.316   6.522 -14.196  1.00  0.00    -0.023 CG0
ATOM      9  G   UNL     1     -10.253   5.515 -13.805  1.00  0.00     0.000 G0
ENDBRANCH   5   6
ENDBRANCH   4   5
ENDBRANCH   2   4
BRANCH   1  10
ATOM     10  C   UNL     1     -11.364   2.985 -15.451  1.00  0.00     0.111 C 
BRANCH  10  11
ATOM     11  C   UNL     1     -10.746   3.032 -14.078  1.00  0.00     0.163 C 
ATOM     12  O   UNL     1     -10.117   2.015 -13.675  1.00  0.00    -0.294 OA
BRANCH  11  13
ATOM     13  C   UNL     1     -10.800   4.249 -13.216  1.00  0.00    -0.002 C 
ATOM     14  C   UNL     1     -11.261   4.176 -11.930  1.00  0.00    -0.069 C 
ATOM     15  C   UNL     1     -11.875   2.905 -11.389  1.00  0.00     0.039 C 
ATOM     16  C   UNL     1     -11.181   5.353 -10.984  1.00  0.00     0.039 C 
BRANCH  13  17
ATOM     17  C   UNL     1     -10.236   5.537 -13.795  1.00  0.00     0.066 CG0
ATOM     18  G   UNL     1     -11.324   6.511 -14.202  1.00  0.00     0.000 G0
ENDBRANCH  13  17
ENDBRANCH  11  13
ENDBRANCH  10  11
ENDBRANCH   1  10
TORSDOF 0
ENDMDL
MODEL 2
REMARK VINA RESULT:    -3.640      1.650      3.887
REMARK INTER + INTRA:          -4.689
REMARK INTER:                  -6.083
REMARK INTRA:                   1.394
REMARK UNBOUND:                 0.440
REMARK SMILES CC1=CCC(=C(C)C)C(=O)CC(C)=CCC1
REMARK SMILES IDX 12 1 14 2 13 3 15 4 16 5 2 6 1 7 3 8 11 10 9 11 10 12 5 13
REMARK SMILES IDX 6 14 7 15 8 16 4 17
REMARK H PARENT
REMARK Flexibility Score: 60.00
ROOT
ATOM      1  C   UNL     1     -12.302   2.740 -15.122  1.00  0.00    -0.070 C 
ATOM      2  C   UNL     1     -11.295   2.352 -14.308  1.00  0.00    -0.027 C 
ATOM      3  C   UNL     1     -13.709   2.361 -14.733  1.00  0.00     0.039 C 
ENDROOT
BRANCH   2   4
ATOM      4  C   UNL     1      -9.836   2.716 -14.475  1.00  0.00     0.032 C 
BRANCH   4   5
ATOM      5  C   UNL     1      -9.307   3.751 -13.460  1.00  0.00     0.034 C 
BRANCH   5   6
ATOM      6  C   UNL     1     -10.401   4.612 -12.858  1.00  0.00    -0.077 C 
ATOM      7  C   UNL     1     -10.745   4.394 -11.406  1.00  0.00     0.039 C 
ATOM      8  C   UNL     1     -11.042   5.608 -13.518  1.00  0.00    -0.023 CG0
ATOM      9  G   UNL     1     -10.875   5.993 -14.975  1.00  0.00     0.000 G0
ENDBRANCH   5   6
ENDBRANCH   4   5
ENDBRANCH   2   4
BRANCH   1  10
ATOM     10  C   UNL     1     -12.095   3.611 -16.344  1.00  0.00     0.111 C 
BRANCH  10  11
ATOM     11  C   UNL     1     -12.851   4.909 -16.235  1.00  0.00     0.163 C 
ATOM     12  O   UNL     1     -14.061   4.923 -16.590  1.00  0.00    -0.294 OA
BRANCH  11  13
ATOM     13  C   UNL     1     -12.239   6.148 -15.669  1.00  0.00    -0.002 C 
ATOM     14  C   UNL     1     -12.908   7.341 -15.712  1.00  0.00    -0.069 C 
ATOM     15  C   UNL     1     -14.211   7.483 -16.466  1.00  0.00     0.039 C 
ATOM     16  C   UNL     1     -12.387   8.575 -15.011  1.00  0.00     0.039 C 
BRANCH  13  17
ATOM     17  C   UNL     1     -10.898   6.004 -14.968  1.00  0.00     0.066 CG0
ATOM     18  G   UNL     1     -11.049   5.602 -13.514  1.00  0.00     0.000 G0
ENDBRANCH  13  17
ENDBRANCH  11  13
ENDBRANCH  10  11
ENDBRANCH   1  10
TORSDOF 0
ENDMDL
MODEL 3
REMARK VINA RESULT:    -3.560      1.947      3.584
REMARK INTER + INTRA:          -4.577
REMARK INTER:                  -5.718
REMARK INTRA:                   1.141
REMARK UNBOUND:                 0.440
REMARK SMILES CC1=CCC(=C(C)C)C(=O)CC(C)=CCC1
REMARK SMILES IDX 12 1 14 2 13 3 15 4 16 5 2 6 1 7 3 8 11 10 9 11 10 12 5 13
REMARK SMILES IDX 6 14 7 15 8 16 4 17
REMARK H PARENT
REMARK Flexibility Score: 60.00
ROOT
ATOM      1  C   UNL     1     -13.009   5.545 -16.390  1.00  0.00    -0.070 C 
ATOM      2  C   UNL     1     -13.622   4.346 -16.511  1.00  0.00    -0.027 C 
ATOM      3  C   UNL     1     -13.874   6.780 -16.366  1.00  0.00     0.039 C 
ENDROOT
BRANCH   2   4
ATOM      4  C   UNL     1     -12.939   2.997 -16.458  1.00  0.00     0.032 C 
BRANCH   4   5
ATOM      5  C   UNL     1     -13.541   2.005 -15.441  1.00  0.00     0.034 C 
BRANCH   5   6
ATOM      6  C   UNL     1     -13.434   2.483 -14.005  1.00  0.00    -0.077 C 
ATOM      7  C   UNL     1     -14.625   2.269 -13.104  1.00  0.00     0.039 C 
ATOM      8  C   UNL     1     -12.318   3.027 -13.460  1.00  0.00    -0.023 CG0
ATOM      9  G   UNL     1     -11.019   3.351 -14.171  1.00  0.00     0.000 G0
ENDBRANCH   5   6
ENDBRANCH   4   5
ENDBRANCH   2   4
BRANCH   1  10
ATOM     10  C   UNL     1     -11.516   5.698 -16.186  1.00  0.00     0.111 C 
BRANCH  10  11
ATOM     11  C   UNL     1     -11.170   5.877 -14.731  1.00  0.00     0.163 C 
ATOM     12  O   UNL     1     -11.467   6.972 -14.180  1.00  0.00    -0.294 OA
BRANCH  11  13
ATOM     13  C   UNL     1     -10.550   4.791 -13.916  1.00  0.00    -0.002 C 
ATOM     14  C   UNL     1      -9.667   5.085 -12.913  1.00  0.00    -0.069 C 
ATOM     15  C   UNL     1      -9.168   6.497 -12.698  1.00  0.00     0.039 C 
ATOM     16  C   UNL     1      -9.145   4.025 -11.970  1.00  0.00     0.039 C 
BRANCH  13  17
ATOM     17  C   UNL     1     -11.014   3.368 -14.185  1.00  0.00     0.066 CG0
ATOM     18  G   UNL     1     -12.307   3.038 -13.465  1.00  0.00     0.000 G0
ENDBRANCH  13  17
ENDBRANCH  11  13
ENDBRANCH  10  11
ENDBRANCH   1  10
TORSDOF 0
ENDMDL
MODEL 4
REMARK VINA RESULT:    -3.517      3.175      6.053
REMARK INTER + INTRA:          -4.516
REMARK INTER:                  -4.908
REMARK INTRA:                   0.391
REMARK UNBOUND:                 0.440
REMARK SMILES CC1=CCC(=C(C)C)C(=O)CC(C)=CCC1
REMARK SMILES IDX 12 1 14 2 13 3 15 4 16 5 2 6 1 7 3 8 11 10 9 11 10 12 5 13
REMARK SMILES IDX 6 14 7 15 8 16 4 17
REMARK H PARENT
REMARK Flexibility Score: 60.00
ROOT
ATOM      1  C   UNL     1     -14.754   2.076 -10.842  1.00  0.00    -0.070 C 
ATOM      2  C   UNL     1     -14.588   1.206  -9.821  1.00  0.00    -0.027 C 
ATOM      3  C   UNL     1     -15.853   3.102 -10.721  1.00  0.00     0.039 C 
ENDROOT
BRANCH   2   4
ATOM      4  C   UNL     1     -13.487   0.173  -9.713  1.00  0.00     0.032 C 
BRANCH   4   5
ATOM      5  C   UNL     1     -12.120   0.728  -9.259  1.00  0.00     0.034 C 
BRANCH   5   6
ATOM      6  C   UNL     1     -10.947   0.091  -9.981  1.00  0.00    -0.077 C 
ATOM      7  C   UNL     1     -10.697  -1.378  -9.751  1.00  0.00     0.039 C 
ATOM      8  C   UNL     1     -10.153   0.738 -10.870  1.00  0.00    -0.023 CG0
ATOM      9  G   UNL     1     -10.207   2.207 -11.243  1.00  0.00     0.000 G0
ENDBRANCH   5   6
ENDBRANCH   4   5
ENDBRANCH   2   4
BRANCH   1  10
ATOM     10  C   UNL     1     -13.838   2.130 -12.047  1.00  0.00     0.111 C 
BRANCH  10  11
ATOM     11  C   UNL     1     -12.603   2.944 -11.769  1.00  0.00     0.163 C 
ATOM     12  O   UNL     1     -12.717   3.966 -11.038  1.00  0.00    -0.294 OA
BRANCH  11  13
ATOM     13  C   UNL     1     -11.254   2.552 -12.274  1.00  0.00    -0.002 C 
ATOM     14  C   UNL     1     -10.975   2.572 -13.613  1.00  0.00    -0.069 C 
ATOM     15  C   UNL     1     -12.057   2.836 -14.636  1.00  0.00     0.039 C 
ATOM     16  C   UNL     1      -9.578   2.333 -14.143  1.00  0.00     0.039 C 
BRANCH  13  17
ATOM     17  C   UNL     1     -10.191   2.227 -11.237  1.00  0.00     0.066 CG0
ATOM     18  G   UNL     1     -10.163   0.754 -10.882  1.00  0.00     0.000 G0
ENDBRANCH  13  17
ENDBRANCH  11  13
ENDBRANCH  10  11
ENDBRANCH   1  10
TORSDOF 0
ENDMDL
MODEL 5
REMARK VINA RESULT:    -3.465     15.736     17.551
REMARK INTER + INTRA:          -4.442
REMARK INTER:                  -4.975
REMARK INTRA:                   0.533
REMARK UNBOUND:                 0.440
REMARK SMILES CC1=CCC(=C(C)C)C(=O)CC(C)=CCC1
REMARK SMILES IDX 12 1 14 2 13 3 15 4 16 5 2 6 1 7 3 8 11 10 9 11 10 12 5 13
REMARK SMILES IDX 6 14 7 15 8 16 4 17
REMARK H PARENT
REMARK Flexibility Score: 60.00
ROOT
ATOM      1  C   UNL     1     -28.173   5.920 -19.780  1.00  0.00    -0.070 C 
ATOM      2  C   UNL     1     -29.124   6.880 -19.767  1.00  0.00    -0.027 C 
ATOM      3  C   UNL     1     -28.590   4.510 -19.441  1.00  0.00     0.039 C 
ENDROOT
BRANCH   2   4
ATOM      4  C   UNL     1     -28.924   8.325 -20.169  1.00  0.00     0.032 C 
BRANCH   4   5
ATOM      5  C   UNL     1     -29.124   8.613 -21.672  1.00  0.00     0.034 C 
BRANCH   5   6
ATOM      6  C   UNL     1     -28.225   9.719 -22.193  1.00  0.00    -0.077 C 
ATOM      7  C   UNL     1     -28.568  11.138 -21.814  1.00  0.00     0.039 C 
ATOM      8  C   UNL     1     -27.098   9.512 -22.919  1.00  0.00    -0.023 CG0
ATOM      9  G   UNL     1     -26.570   8.185 -23.428  1.00  0.00     0.000 G0
ENDBRANCH   5   6
ENDBRANCH   4   5
ENDBRANCH   2   4
BRANCH   1  10
ATOM     10  C   UNL     1     -26.742   6.172 -20.206  1.00  0.00     0.111 C 
BRANCH  10  11
ATOM     11  C   UNL     1     -26.619   6.280 -21.703  1.00  0.00     0.163 C 
ATOM     12  O   UNL     1     -27.243   5.444 -22.412  1.00  0.00    -0.294 OA
BRANCH  11  13
ATOM     13  C   UNL     1     -25.842   7.368 -22.367  1.00  0.00    -0.002 C 
ATOM     14  C   UNL     1     -24.520   7.564 -22.074  1.00  0.00    -0.069 C 
ATOM     15  C   UNL     1     -23.842   6.796 -20.961  1.00  0.00     0.039 C 
ATOM     16  C   UNL     1     -23.668   8.550 -22.841  1.00  0.00     0.039 C 
BRANCH  13  17
ATOM     17  C   UNL     1     -26.554   8.175 -23.440  1.00  0.00     0.066 CG0
ATOM     18  G   UNL     1     -27.100   9.486 -22.909  1.00  0.00     0.000 G0
ENDBRANCH  13  17
ENDBRANCH  11  13
ENDBRANCH  10  11
ENDBRANCH   1  10
TORSDOF 0
ENDMDL
MODEL 6
REMARK VINA RESULT:    -3.386      2.418      4.250
REMARK INTER + INTRA:          -4.331
REMARK INTER:                  -4.582
REMARK INTRA:                   0.251
REMARK UNBOUND:                 0.440
REMARK SMILES CC1=CCC(=C(C)C)C(=O)CC(C)=CCC1
REMARK SMILES IDX 12 1 14 2 13 3 15 4 16 5 2 6 1 7 3 8 11 10 9 11 10 12 5 13
REMARK SMILES IDX 6 14 7 15 8 16 4 17
REMARK H PARENT
REMARK Flexibility Score: 60.00
ROOT
ATOM      1  C   UNL     1     -13.250   3.108 -15.523  1.00  0.00    -0.070 C 
ATOM      2  C   UNL     1     -14.527   2.885 -15.141  1.00  0.00    -0.027 C 
ATOM      3  C   UNL     1     -12.994   4.209 -16.522  1.00  0.00     0.039 C 
ENDROOT
BRANCH   2   4
ATOM      4  C   UNL     1     -14.973   1.898 -14.085  1.00  0.00     0.032 C 
BRANCH   4   5
ATOM      5  C   UNL     1     -15.394   2.531 -12.742  1.00  0.00     0.034 C 
BRANCH   5   6
ATOM      6  C   UNL     1     -14.689   1.920 -11.546  1.00  0.00    -0.077 C 
ATOM      7  C   UNL     1     -15.380   0.786 -10.829  1.00  0.00     0.039 C 
ATOM      8  C   UNL     1     -13.452   2.278 -11.120  1.00  0.00    -0.023 CG0
ATOM      9  G   UNL     1     -12.585   3.393 -11.670  1.00  0.00     0.000 G0
ENDBRANCH   5   6
ENDBRANCH   4   5
ENDBRANCH   2   4
BRANCH   1  10
ATOM     10  C   UNL     1     -12.065   2.375 -14.930  1.00  0.00     0.111 C 
BRANCH  10  11
ATOM     11  C   UNL     1     -11.346   3.215 -13.908  1.00  0.00     0.163 C 
ATOM     12  O   UNL     1     -10.742   4.249 -14.308  1.00  0.00    -0.294 OA
BRANCH  11  13
ATOM     13  C   UNL     1     -11.376   2.903 -12.449  1.00  0.00    -0.002 C 
ATOM     14  C   UNL     1     -10.322   2.272 -11.846  1.00  0.00    -0.069 C 
ATOM     15  C   UNL     1      -9.166   1.729 -12.657  1.00  0.00     0.039 C 
ATOM     16  C   UNL     1     -10.253   2.083 -10.348  1.00  0.00     0.039 C 
BRANCH  13  17
ATOM     17  C   UNL     1     -12.574   3.400 -11.656  1.00  0.00     0.066 CG0
ATOM     18  G   UNL     1     -13.440   2.264 -11.148  1.00  0.00     0.000 G0
ENDBRANCH  13  17
ENDBRANCH  11  13
ENDBRANCH  10  11
ENDBRANCH   1  10
TORSDOF 0
ENDMDL
MODEL 7
REMARK VINA RESULT:    -3.360      2.248      3.626
REMARK INTER + INTRA:          -4.294
REMARK INTER:                  -4.532
REMARK INTRA:                   0.238
REMARK UNBOUND:                 0.440
REMARK SMILES CC1=CCC(=C(C)C)C(=O)CC(C)=CCC1
REMARK SMILES IDX 12 1 14 2 13 3 15 4 16 5 2 6 1 7 3 8 11 10 9 11 10 12 5 13
REMARK SMILES IDX 6 14 7 15 8 16 4 17
REMARK H PARENT
REMARK Flexibility Score: 60.00
ROOT
ATOM      1  C   UNL     1     -15.487   1.947 -11.877  1.00  0.00    -0.070 C 
ATOM      2  C   UNL     1     -15.794   1.888 -13.192  1.00  0.00    -0.027 C 
ATOM      3  C   UNL     1     -16.107   0.922 -10.961  1.00  0.00     0.039 C 
ENDROOT
BRANCH   2   4
ATOM      4  C   UNL     1     -15.202   2.762 -14.276  1.00  0.00     0.032 C 
BRANCH   4   5
ATOM      5  C   UNL     1     -14.004   2.141 -15.027  1.00  0.00     0.034 C 
BRANCH   5   6
ATOM      6  C   UNL     1     -12.896   3.138 -15.312  1.00  0.00    -0.077 C 
ATOM      7  C   UNL     1     -13.061   4.047 -16.504  1.00  0.00     0.039 C 
ATOM      8  C   UNL     1     -11.803   3.313 -14.528  1.00  0.00    -0.023 CG0
ATOM      9  G   UNL     1     -11.422   2.510 -13.300  1.00  0.00     0.000 G0
ENDBRANCH   5   6
ENDBRANCH   4   5
ENDBRANCH   2   4
BRANCH   1  10
ATOM     10  C   UNL     1     -14.486   2.927 -11.300  1.00  0.00     0.111 C 
BRANCH  10  11
ATOM     11  C   UNL     1     -13.084   2.378 -11.341  1.00  0.00     0.163 C 
ATOM     12  O   UNL     1     -12.878   1.239 -10.838  1.00  0.00    -0.294 OA
BRANCH  11  13
ATOM     13  C   UNL     1     -11.959   3.101 -12.003  1.00  0.00    -0.002 C 
ATOM     14  C   UNL     1     -11.397   4.204 -11.421  1.00  0.00    -0.069 C 
ATOM     15  C   UNL     1     -11.990   4.821 -10.175  1.00  0.00     0.039 C 
ATOM     16  C   UNL     1     -10.158   4.863 -11.986  1.00  0.00     0.039 C 
BRANCH  13  17
ATOM     17  C   UNL     1     -11.412   2.505 -13.290  1.00  0.00     0.066 CG0
ATOM     18  G   UNL     1     -11.815   3.305 -14.513  1.00  0.00     0.000 G0
ENDBRANCH  13  17
ENDBRANCH  11  13
ENDBRANCH  10  11
ENDBRANCH   1  10
TORSDOF 0
ENDMDL
MODEL 8
REMARK VINA RESULT:    -3.334      1.933      3.592
REMARK INTER + INTRA:          -4.258
REMARK INTER:                  -4.701
REMARK INTRA:                   0.443
REMARK UNBOUND:                 0.440
REMARK SMILES CC1=CCC(=C(C)C)C(=O)CC(C)=CCC1
REMARK SMILES IDX 12 1 14 2 13 3 15 4 16 5 2 6 1 7 3 8 11 10 9 11 10 12 5 13
REMARK SMILES IDX 6 14 7 15 8 16 4 17
REMARK H PARENT
REMARK Flexibility Score: 60.00
ROOT
ATOM      1  C   UNL     1     -11.876   7.114 -14.999  1.00  0.00    -0.070 C 
ATOM      2  C   UNL     1     -12.530   6.723 -16.115  1.00  0.00    -0.027 C 
ATOM      3  C   UNL     1     -11.428   8.552 -14.911  1.00  0.00     0.039 C 
ENDROOT
BRANCH   2   4
ATOM      4  C   UNL     1     -13.139   5.357 -16.348  1.00  0.00     0.032 C 
BRANCH   4   5
ATOM      5  C   UNL     1     -12.129   4.254 -16.728  1.00  0.00     0.034 C 
BRANCH   5   6
ATOM      6  C   UNL     1     -12.106   3.100 -15.744  1.00  0.00    -0.077 C 
ATOM      7  C   UNL     1     -13.300   2.178 -15.717  1.00  0.00     0.039 C 
ATOM      8  C   UNL     1     -11.058   2.802 -14.937  1.00  0.00    -0.023 CG0
ATOM      9  G   UNL     1      -9.772   3.589 -14.782  1.00  0.00     0.000 G0
ENDBRANCH   5   6
ENDBRANCH   4   5
ENDBRANCH   2   4
BRANCH   1  10
ATOM     10  C   UNL     1     -11.656   6.210 -13.804  1.00  0.00     0.111 C 
BRANCH  10  11
ATOM     11  C   UNL     1     -10.202   5.853 -13.637  1.00  0.00     0.163 C 
ATOM     12  O   UNL     1      -9.367   6.793 -13.541  1.00  0.00    -0.294 OA
BRANCH  11  13
ATOM     13  C   UNL     1      -9.732   4.440 -13.523  1.00  0.00    -0.002 C 
ATOM     14  C   UNL     1      -9.367   3.920 -12.312  1.00  0.00    -0.069 C 
ATOM     15  C   UNL     1      -9.275   4.793 -11.080  1.00  0.00     0.039 C 
ATOM     16  C   UNL     1      -9.038   2.455 -12.137  1.00  0.00     0.039 C 
BRANCH  13  17
ATOM     17  C   UNL     1      -9.770   3.591 -14.784  1.00  0.00     0.066 CG0
ATOM     18  G   UNL     1     -11.061   2.807 -14.911  1.00  0.00     0.000 G0
ENDBRANCH  13  17
ENDBRANCH  11  13
ENDBRANCH  10  11
ENDBRANCH   1  10
TORSDOF 0
ENDMDL
MODEL 9
REMARK VINA RESULT:    -3.292     16.286     18.384
REMARK INTER + INTRA:          -4.199
REMARK INTER:                  -5.074
REMARK INTRA:                   0.875
REMARK UNBOUND:                 0.440
REMARK SMILES CC1=CCC(=C(C)C)C(=O)CC(C)=CCC1
REMARK SMILES IDX 12 1 14 2 13 3 15 4 16 5 2 6 1 7 3 8 11 10 9 11 10 12 5 13
REMARK SMILES IDX 6 14 7 15 8 16 4 17
REMARK H PARENT
REMARK Flexibility Score: 60.00
ROOT
ATOM      1  C   UNL     1     -25.599   6.999 -21.979  1.00  0.00    -0.070 C 
ATOM      2  C   UNL     1     -26.526   6.180 -21.436  1.00  0.00    -0.027 C 
ATOM      3  C   UNL     1     -24.216   6.995 -21.379  1.00  0.00     0.039 C 
ENDROOT
BRANCH   2   4
ATOM      4  C   UNL     1     -27.932   5.971 -21.955  1.00  0.00     0.032 C 
BRANCH   4   5
ATOM      5  C   UNL     1     -29.047   6.553 -21.060  1.00  0.00     0.034 C 
BRANCH   5   6
ATOM      6  C   UNL     1     -28.625   7.810 -20.321  1.00  0.00    -0.077 C 
ATOM      7  C   UNL     1     -28.397   7.706 -18.834  1.00  0.00     0.039 C 
ATOM      8  C   UNL     1     -28.373   9.001 -20.919  1.00  0.00    -0.023 CG0
ATOM      9  G   UNL     1     -28.549   9.342 -22.386  1.00  0.00     0.000 G0
ENDBRANCH   5   6
ENDBRANCH   4   5
ENDBRANCH   2   4
BRANCH   1  10
ATOM     10  C   UNL     1     -25.855   7.844 -23.210  1.00  0.00     0.111 C 
BRANCH  10  11
ATOM     11  C   UNL     1     -26.017   9.300 -22.861  1.00  0.00     0.163 C 
ATOM     12  O   UNL     1     -24.994   9.941 -22.496  1.00  0.00    -0.294 OA
BRANCH  11  13
ATOM     13  C   UNL     1     -27.321  10.015 -22.990  1.00  0.00    -0.002 C 
ATOM     14  C   UNL     1     -27.412  11.185 -23.691  1.00  0.00    -0.069 C 
ATOM     15  C   UNL     1     -26.176  11.877 -24.224  1.00  0.00     0.039 C 
ATOM     16  C   UNL     1     -28.741  11.849 -23.973  1.00  0.00     0.039 C 
BRANCH  13  17
ATOM     17  C   UNL     1     -28.546   9.339 -22.395  1.00  0.00     0.066 CG0
ATOM     18  G   UNL     1     -28.367   9.011 -20.925  1.00  0.00     0.000 G0
ENDBRANCH  13  17
ENDBRANCH  11  13
ENDBRANCH  10  11
ENDBRANCH   1  10
TORSDOF 0
ENDMDL
