MODEL 1
REMARK VINA RESULT:    -3.216      0.000      0.000
REMARK INTER + INTRA:          -5.325
REMARK INTER:                  -4.908
REMARK INTRA:                  -0.417
REMARK UNBOUND:                -0.417
REMARK SMILES CC1=CCC[C@H](C)C(=O)C[C@H](C(C)C)C(=O)C1
REMARK SMILES IDX 8 1 9 2 6 3 7 4 5 5 4 6 3 7 2 8 1 9 10 11 11 12 15 13 16 14
REMARK SMILES IDX 17 15 12 17 13 18 14 19
REMARK H PARENT
REMARK Flexibility Score: 70.00
ROOT
ATOM      1  C   UNL     1       0.087   9.698  19.273  1.00  0.00     0.136 C 
ATOM      2  O   UNL     1      -0.878   8.971  19.463  1.00  0.00    -0.299 OA
ENDROOT
BRANCH   1   3
ATOM      3  C   UNL     1       1.424   9.036  18.977  1.00  0.00     0.053 C 
ATOM      4  C   UNL     1       1.685   7.763  19.800  1.00  0.00     0.016 C 
BRANCH   3   5
ATOM      5  C   UNL     1       1.647   8.843  17.462  1.00  0.00     0.015 C 
BRANCH   5   6
ATOM      6  C   UNL     1       2.682   9.807  16.850  1.00  0.00     0.028 C 
BRANCH   6   7
ATOM      7  C   UNL     1       2.075  10.753  15.843  1.00  0.00    -0.028 C 
ATOM      8  C   UNL     1       1.885  12.083  16.032  1.00  0.00    -0.070 CG0
ATOM      9  C   UNL     1       1.221  12.861  14.922  1.00  0.00     0.039 C 
ATOM     10  G   UNL     1       2.356  12.836  17.269  1.00  0.00     0.000 G0
ENDBRANCH   6   7
ENDBRANCH   5   6
ENDBRANCH   3   5
ENDBRANCH   1   3
BRANCH   1  11
ATOM     11  C   UNL     1      -0.126  11.199  19.326  1.00  0.00     0.087 C 
BRANCH  11  12
ATOM     12  C   UNL     1       1.211  11.982  19.458  1.00  0.00     0.066 C 
BRANCH  12  13
ATOM     13  C   UNL     1       1.304  13.008  18.338  1.00  0.00     0.140 C 
ATOM     14  O   UNL     1       0.540  13.964  18.318  1.00  0.00    -0.299 OA
BRANCH  13  15
ATOM     15  C   UNL     1       2.353  12.868  17.264  1.00  0.00     0.106 CG0
ATOM     16  G   UNL     1       1.890  12.073  16.050  1.00  0.00     0.000 G0
ENDBRANCH  13  15
ENDBRANCH  12  13
BRANCH  12  17
ATOM     17  C   UNL     1       1.392  12.655  20.859  1.00  0.00    -0.006 C 
ATOM     18  C   UNL     1       2.882  12.904  21.170  1.00  0.00     0.008 C 
ATOM     19  C   UNL     1       0.790  11.813  22.003  1.00  0.00     0.008 C 
ENDBRANCH  12  17
ENDBRANCH  11  12
ENDBRANCH   1  11
TORSDOF 1
ENDMDL
MODEL 2
REMARK VINA RESULT:    -3.215      1.804      3.792
REMARK INTER + INTRA:          -5.323
REMARK INTER:                  -4.873
REMARK INTRA:                  -0.450
REMARK UNBOUND:                -0.417
REMARK SMILES CC1=CCC[C@H](C)C(=O)C[C@H](C(C)C)C(=O)C1
REMARK SMILES IDX 8 1 9 2 6 3 7 4 5 5 4 6 3 7 2 8 1 9 10 11 11 12 15 13 16 14
REMARK SMILES IDX 17 15 12 17 13 18 14 19
REMARK H PARENT
REMARK Flexibility Score: 70.00
ROOT
ATOM      1  C   UNL     1       0.934  11.450  20.210  1.00  0.00     0.136 C 
ATOM      2  O   UNL     1       1.192  11.971  21.287  1.00  0.00    -0.299 OA
ENDROOT
BRANCH   1   3
ATOM      3  C   UNL     1      -0.326  11.902  19.490  1.00  0.00     0.053 C 
ATOM      4  C   UNL     1      -1.544  12.075  20.413  1.00  0.00     0.016 C 
BRANCH   3   5
ATOM      5  C   UNL     1      -0.064  13.125  18.584  1.00  0.00     0.015 C 
BRANCH   5   6
ATOM      6  C   UNL     1       0.209  12.770  17.109  1.00  0.00     0.028 C 
BRANCH   6   7
ATOM      7  C   UNL     1       1.645  13.005  16.709  1.00  0.00    -0.028 C 
ATOM      8  C   UNL     1       2.513  12.044  16.302  1.00  0.00    -0.070 CG0
ATOM      9  C   UNL     1       3.926  12.466  15.983  1.00  0.00     0.039 C 
ATOM     10  G   UNL     1       2.123  10.586  16.097  1.00  0.00     0.000 G0
ENDBRANCH   6   7
ENDBRANCH   5   6
ENDBRANCH   3   5
ENDBRANCH   1   3
BRANCH   1  11
ATOM     11  C   UNL     1       1.899  10.412  19.668  1.00  0.00     0.087 C 
BRANCH  11  12
ATOM     12  C   UNL     1       1.330   9.667  18.428  1.00  0.00     0.066 C 
BRANCH  12  13
ATOM     13  C   UNL     1       2.358   9.700  17.307  1.00  0.00     0.140 C 
ATOM     14  O   UNL     1       3.365   9.007  17.378  1.00  0.00    -0.299 OA
BRANCH  13  15
ATOM     15  C   UNL     1       2.131  10.564  16.092  1.00  0.00     0.106 CG0
ATOM     16  G   UNL     1       2.495  12.028  16.300  1.00  0.00     0.000 G0
ENDBRANCH  13  15
ENDBRANCH  12  13
BRANCH  12  17
ATOM     17  C   UNL     1       0.886   8.200  18.745  1.00  0.00    -0.006 C 
ATOM     18  C   UNL     1      -0.622   8.129  19.061  1.00  0.00     0.008 C 
ATOM     19  C   UNL     1       1.660   7.590  19.932  1.00  0.00     0.008 C 
ENDBRANCH  12  17
ENDBRANCH  11  12
ENDBRANCH   1  11
TORSDOF 1
ENDMDL
MODEL 3
REMARK VINA RESULT:    -3.152      2.851      4.657
REMARK INTER + INTRA:          -5.227
REMARK INTER:                  -4.901
REMARK INTRA:                  -0.325
REMARK UNBOUND:                -0.417
REMARK SMILES CC1=CCC[C@H](C)C(=O)C[C@H](C(C)C)C(=O)C1
REMARK SMILES IDX 8 1 9 2 6 3 7 4 5 5 4 6 3 7 2 8 1 9 10 11 11 12 15 13 16 14
REMARK SMILES IDX 17 15 12 17 13 18 14 19
REMARK H PARENT
REMARK Flexibility Score: 70.00
ROOT
ATOM      1  C   UNL     1       2.834  10.693  18.305  1.00  0.00     0.136 C 
ATOM      2  O   UNL     1       3.863  10.762  17.647  1.00  0.00    -0.299 OA
ENDROOT
BRANCH   1   3
ATOM      3  C   UNL     1       1.696   9.850  17.752  1.00  0.00     0.053 C 
ATOM      4  C   UNL     1       1.762   9.633  16.231  1.00  0.00     0.016 C 
BRANCH   3   5
ATOM      5  C   UNL     1       1.509   8.541  18.551  1.00  0.00     0.015 C 
BRANCH   5   6
ATOM      6  C   UNL     1       0.119   8.394  19.202  1.00  0.00     0.028 C 
BRANCH   6   7
ATOM      7  C   UNL     1       0.196   8.095  20.679  1.00  0.00    -0.028 C 
ATOM      8  C   UNL     1       0.076   9.011  21.673  1.00  0.00    -0.070 CG0
ATOM      9  C   UNL     1       0.224   8.527  23.095  1.00  0.00     0.039 C 
ATOM     10  G   UNL     1      -0.257  10.478  21.433  1.00  0.00     0.000 G0
ENDBRANCH   6   7
ENDBRANCH   5   6
ENDBRANCH   3   5
ENDBRANCH   1   3
BRANCH   1  11
ATOM     11  C   UNL     1       2.780  11.434  19.628  1.00  0.00     0.087 C 
BRANCH  11  12
ATOM     12  C   UNL     1       1.346  11.928  19.970  1.00  0.00     0.066 C 
BRANCH  12  13
ATOM     13  C   UNL     1       0.936  11.378  21.328  1.00  0.00     0.140 C 
ATOM     14  O   UNL     1       1.573  11.681  22.330  1.00  0.00    -0.299 OA
BRANCH  13  15
ATOM     15  C   UNL     1      -0.271  10.483  21.454  1.00  0.00     0.106 CG0
ATOM     16  G   UNL     1       0.073   9.013  21.663  1.00  0.00     0.000 G0
ENDBRANCH  13  15
ENDBRANCH  12  13
BRANCH  12  17
ATOM     17  C   UNL     1       1.208  13.487  19.925  1.00  0.00    -0.006 C 
ATOM     18  C   UNL     1       0.510  13.948  18.630  1.00  0.00     0.008 C 
ATOM     19  C   UNL     1       2.569  14.205  20.027  1.00  0.00     0.008 C 
ENDBRANCH  12  17
ENDBRANCH  11  12
ENDBRANCH   1  11
TORSDOF 1
ENDMDL
MODEL 4
REMARK VINA RESULT:    -3.141      3.856      6.127
REMARK INTER + INTRA:          -5.211
REMARK INTER:                  -4.733
REMARK INTRA:                  -0.478
REMARK UNBOUND:                -0.417
REMARK SMILES CC1=CCC[C@H](C)C(=O)C[C@H](C(C)C)C(=O)C1
REMARK SMILES IDX 8 1 9 2 6 3 7 4 5 5 4 6 3 7 2 8 1 9 10 11 11 12 15 13 16 14
REMARK SMILES IDX 17 15 12 17 13 18 14 19
REMARK H PARENT
REMARK Flexibility Score: 70.00
ROOT
ATOM      1  C   UNL     1       0.924  14.609  20.752  1.00  0.00     0.136 C 
ATOM      2  O   UNL     1       0.044  14.130  21.455  1.00  0.00    -0.299 OA
ENDROOT
BRANCH   1   3
ATOM      3  C   UNL     1       1.443  15.992  21.114  1.00  0.00     0.053 C 
ATOM      4  C   UNL     1       0.402  17.112  20.946  1.00  0.00     0.016 C 
BRANCH   3   5
ATOM      5  C   UNL     1       2.139  16.003  22.492  1.00  0.00     0.015 C 
BRANCH   5   6
ATOM      6  C   UNL     1       3.592  15.490  22.468  1.00  0.00     0.028 C 
BRANCH   6   7
ATOM      7  C   UNL     1       3.703  14.036  22.854  1.00  0.00    -0.028 C 
ATOM      8  C   UNL     1       4.205  13.051  22.066  1.00  0.00    -0.070 CG0
ATOM      9  C   UNL     1       4.196  11.643  22.611  1.00  0.00     0.039 C 
ATOM     10  G   UNL     1       4.826  13.299  20.697  1.00  0.00     0.000 G0
ENDBRANCH   6   7
ENDBRANCH   5   6
ENDBRANCH   3   5
ENDBRANCH   1   3
BRANCH   1  11
ATOM     11  C   UNL     1       1.443  13.781  19.591  1.00  0.00     0.087 C 
BRANCH  11  12
ATOM     12  C   UNL     1       2.872  14.211  19.152  1.00  0.00     0.066 C 
BRANCH  12  13
ATOM     13  C   UNL     1       3.862  13.118  19.527  1.00  0.00     0.140 C 
ATOM     14  O   UNL     1       3.910  12.084  18.873  1.00  0.00    -0.299 OA
BRANCH  13  15
ATOM     15  C   UNL     1       4.806  13.312  20.687  1.00  0.00     0.106 CG0
ATOM     16  G   UNL     1       4.175  13.042  22.047  1.00  0.00     0.000 G0
ENDBRANCH  13  15
ENDBRANCH  12  13
BRANCH  12  17
ATOM     17  C   UNL     1       2.965  14.562  17.630  1.00  0.00    -0.006 C 
ATOM     18  C   UNL     1       4.304  15.252  17.297  1.00  0.00     0.008 C 
ATOM     19  C   UNL     1       1.816  15.478  17.161  1.00  0.00     0.008 C 
ENDBRANCH  12  17
ENDBRANCH  11  12
ENDBRANCH   1  11
TORSDOF 1
ENDMDL
MODEL 5
REMARK VINA RESULT:    -3.113      2.031      4.553
REMARK INTER + INTRA:          -5.167
REMARK INTER:                  -4.720
REMARK INTRA:                  -0.447
REMARK UNBOUND:                -0.417
REMARK SMILES CC1=CCC[C@H](C)C(=O)C[C@H](C(C)C)C(=O)C1
REMARK SMILES IDX 8 1 9 2 6 3 7 4 5 5 4 6 3 7 2 8 1 9 10 11 11 12 15 13 16 14
REMARK SMILES IDX 17 15 12 17 13 18 14 19
REMARK H PARENT
REMARK Flexibility Score: 70.00
ROOT
ATOM      1  C   UNL     1       0.028  12.822  17.221  1.00  0.00     0.136 C 
ATOM      2  O   UNL     1      -1.063  13.374  17.173  1.00  0.00    -0.299 OA
ENDROOT
BRANCH   1   3
ATOM      3  C   UNL     1       1.084  13.256  16.217  1.00  0.00     0.053 C 
ATOM      4  C   UNL     1       0.618  13.188  14.753  1.00  0.00     0.016 C 
BRANCH   3   5
ATOM      5  C   UNL     1       1.716  14.613  16.597  1.00  0.00     0.015 C 
BRANCH   5   6
ATOM      6  C   UNL     1       3.146  14.505  17.162  1.00  0.00     0.028 C 
BRANCH   6   7
ATOM      7  C   UNL     1       3.219  14.842  18.631  1.00  0.00    -0.028 C 
ATOM      8  C   UNL     1       3.405  13.947  19.633  1.00  0.00    -0.070 CG0
ATOM      9  C   UNL     1       3.408  14.469  21.049  1.00  0.00     0.039 C 
ATOM     10  G   UNL     1       3.667  12.464  19.403  1.00  0.00     0.000 G0
ENDBRANCH   6   7
ENDBRANCH   5   6
ENDBRANCH   3   5
ENDBRANCH   1   3
BRANCH   1  11
ATOM     11  C   UNL     1       0.250  11.767  18.288  1.00  0.00     0.087 C 
BRANCH  11  12
ATOM     12  C   UNL     1       1.692  11.184  18.251  1.00  0.00     0.066 C 
BRANCH  12  13
ATOM     13  C   UNL     1       2.431  11.595  19.516  1.00  0.00     0.140 C 
ATOM     14  O   UNL     1       2.035  11.211  20.610  1.00  0.00    -0.299 OA
BRANCH  13  15
ATOM     15  C   UNL     1       3.668  12.454  19.430  1.00  0.00     0.106 CG0
ATOM     16  G   UNL     1       3.404  13.938  19.649  1.00  0.00     0.000 G0
ENDBRANCH  13  15
ENDBRANCH  12  13
BRANCH  12  17
ATOM     17  C   UNL     1       1.721   9.631  18.058  1.00  0.00    -0.006 C 
ATOM     18  C   UNL     1       1.882   9.257  16.571  1.00  0.00     0.008 C 
ATOM     19  C   UNL     1       0.450   8.944  18.598  1.00  0.00     0.008 C 
ENDBRANCH  12  17
ENDBRANCH  11  12
ENDBRANCH   1  11
TORSDOF 1
ENDMDL
MODEL 6
REMARK VINA RESULT:    -3.063      1.892      4.064
REMARK INTER + INTRA:          -5.091
REMARK INTER:                  -4.643
REMARK INTRA:                  -0.448
REMARK UNBOUND:                -0.417
REMARK SMILES CC1=CCC[C@H](C)C(=O)C[C@H](C(C)C)C(=O)C1
REMARK SMILES IDX 8 1 9 2 6 3 7 4 5 5 4 6 3 7 2 8 1 9 10 11 11 12 15 13 16 14
REMARK SMILES IDX 17 15 12 17 13 18 14 19
REMARK H PARENT
REMARK Flexibility Score: 70.00
ROOT
ATOM      1  C   UNL     1       2.240  11.376  20.698  1.00  0.00     0.136 C 
ATOM      2  O   UNL     1       2.810  10.744  21.578  1.00  0.00    -0.299 OA
ENDROOT
BRANCH   1   3
ATOM      3  C   UNL     1       1.130  12.327  21.116  1.00  0.00     0.053 C 
ATOM      4  C   UNL     1       0.124  11.714  22.105  1.00  0.00     0.016 C 
BRANCH   3   5
ATOM      5  C   UNL     1       1.684  13.694  21.572  1.00  0.00     0.015 C 
BRANCH   5   6
ATOM      6  C   UNL     1       2.260  14.553  20.429  1.00  0.00     0.028 C 
BRANCH   6   7
ATOM      7  C   UNL     1       1.225  14.915  19.393  1.00  0.00    -0.028 C 
ATOM      8  C   UNL     1       1.218  14.482  18.106  1.00  0.00    -0.070 CG0
ATOM      9  C   UNL     1       0.120  14.988  17.203  1.00  0.00     0.039 C 
ATOM     10  G   UNL     1       2.217  13.477  17.548  1.00  0.00     0.000 G0
ENDBRANCH   6   7
ENDBRANCH   5   6
ENDBRANCH   3   5
ENDBRANCH   1   3
BRANCH   1  11
ATOM     11  C   UNL     1       2.698  11.179  19.265  1.00  0.00     0.087 C 
BRANCH  11  12
ATOM     12  C   UNL     1       1.505  11.060  18.275  1.00  0.00     0.066 C 
BRANCH  12  13
ATOM     13  C   UNL     1       1.642  12.123  17.195  1.00  0.00     0.140 C 
ATOM     14  O   UNL     1       1.255  11.893  16.056  1.00  0.00    -0.299 OA
BRANCH  13  15
ATOM     15  C   UNL     1       2.227  13.473  17.526  1.00  0.00     0.106 CG0
ATOM     16  G   UNL     1       1.219  14.455  18.110  1.00  0.00     0.000 G0
ENDBRANCH  13  15
ENDBRANCH  12  13
BRANCH  12  17
ATOM     17  C   UNL     1       1.368   9.632  17.649  1.00  0.00    -0.006 C 
ATOM     18  C   UNL     1       0.497   8.716  18.533  1.00  0.00     0.008 C 
ATOM     19  C   UNL     1       2.732   8.946  17.433  1.00  0.00     0.008 C 
ENDBRANCH  12  17
ENDBRANCH  11  12
ENDBRANCH   1  11
TORSDOF 1
ENDMDL
MODEL 7
REMARK VINA RESULT:    -3.020      2.492      4.508
REMARK INTER + INTRA:          -5.025
REMARK INTER:                  -4.722
REMARK INTRA:                  -0.303
REMARK UNBOUND:                -0.417
REMARK SMILES CC1=CCC[C@H](C)C(=O)C[C@H](C(C)C)C(=O)C1
REMARK SMILES IDX 8 1 9 2 6 3 7 4 5 5 4 6 3 7 2 8 1 9 10 11 11 12 15 13 16 14
REMARK SMILES IDX 17 15 12 17 13 18 14 19
REMARK H PARENT
REMARK Flexibility Score: 70.00
ROOT
ATOM      1  C   UNL     1       2.044  10.978  18.117  1.00  0.00     0.136 C 
ATOM      2  O   UNL     1       2.927  10.908  18.960  1.00  0.00    -0.299 OA
ENDROOT
BRANCH   1   3
ATOM      3  C   UNL     1       1.586   9.684  17.463  1.00  0.00     0.053 C 
ATOM      4  C   UNL     1       2.549   9.154  16.387  1.00  0.00     0.016 C 
BRANCH   3   5
ATOM      5  C   UNL     1       1.189   8.620  18.509  1.00  0.00     0.015 C 
BRANCH   5   6
ATOM      6  C   UNL     1      -0.181   8.867  19.170  1.00  0.00     0.028 C 
BRANCH   6   7
ATOM      7  C   UNL     1      -0.068   9.218  20.633  1.00  0.00    -0.028 C 
ATOM      8  C   UNL     1      -0.427  10.404  21.186  1.00  0.00    -0.070 CG0
ATOM      9  C   UNL     1      -0.199  10.586  22.667  1.00  0.00     0.039 C 
ATOM     10  G   UNL     1      -1.096  11.530  20.407  1.00  0.00     0.000 G0
ENDBRANCH   6   7
ENDBRANCH   5   6
ENDBRANCH   3   5
ENDBRANCH   1   3
BRANCH   1  11
ATOM     11  C   UNL     1       1.460  12.343  17.804  1.00  0.00     0.087 C 
BRANCH  11  12
ATOM     12  C   UNL     1      -0.042  12.446  18.194  1.00  0.00     0.066 C 
BRANCH  12  13
ATOM     13  C   UNL     1      -0.167  12.469  19.710  1.00  0.00     0.140 C 
ATOM     14  O   UNL     1       0.490  13.267  20.367  1.00  0.00    -0.299 OA
BRANCH  13  15
ATOM     15  C   UNL     1      -1.118  11.531  20.410  1.00  0.00     0.106 CG0
ATOM     16  G   UNL     1      -0.426  10.412  21.178  1.00  0.00     0.000 G0
ENDBRANCH  13  15
ENDBRANCH  12  13
BRANCH  12  17
ATOM     17  C   UNL     1      -0.760  13.678  17.548  1.00  0.00    -0.006 C 
ATOM     18  C   UNL     1      -2.267  13.679  17.873  1.00  0.00     0.008 C 
ATOM     19  C   UNL     1      -0.592  13.725  16.016  1.00  0.00     0.008 C 
ENDBRANCH  12  17
ENDBRANCH  11  12
ENDBRANCH   1  11
TORSDOF 1
ENDMDL
MODEL 8
REMARK VINA RESULT:    -2.989      3.701      6.458
REMARK INTER + INTRA:          -4.978
REMARK INTER:                  -4.833
REMARK INTRA:                  -0.145
REMARK UNBOUND:                -0.417
REMARK SMILES CC1=CCC[C@H](C)C(=O)C[C@H](C(C)C)C(=O)C1
REMARK SMILES IDX 8 1 9 2 6 3 7 4 5 5 4 6 3 7 2 8 1 9 10 11 11 12 15 13 16 14
REMARK SMILES IDX 17 15 12 17 13 18 14 19
REMARK H PARENT
REMARK Flexibility Score: 70.00
ROOT
ATOM      1  C   UNL     1       0.622  14.433  21.046  1.00  0.00     0.136 C 
ATOM      2  O   UNL     1       0.166  14.321  19.916  1.00  0.00    -0.299 OA
ENDROOT
BRANCH   1   3
ATOM      3  C   UNL     1       1.347  15.725  21.390  1.00  0.00     0.053 C 
ATOM      4  C   UNL     1       0.458  16.977  21.318  1.00  0.00     0.016 C 
BRANCH   3   5
ATOM      5  C   UNL     1       2.135  15.607  22.714  1.00  0.00     0.015 C 
BRANCH   5   6
ATOM      6  C   UNL     1       3.572  15.076  22.546  1.00  0.00     0.028 C 
BRANCH   6   7
ATOM      7  C   UNL     1       3.971  14.119  23.642  1.00  0.00    -0.028 C 
ATOM      8  C   UNL     1       3.877  12.767  23.577  1.00  0.00    -0.070 CG0
ATOM      9  C   UNL     1       4.287  11.976  24.795  1.00  0.00     0.039 C 
ATOM     10  G   UNL     1       3.439  12.011  22.329  1.00  0.00     0.000 G0
ENDBRANCH   6   7
ENDBRANCH   5   6
ENDBRANCH   3   5
ENDBRANCH   1   3
BRANCH   1  11
ATOM     11  C   UNL     1       0.412  13.289  22.019  1.00  0.00     0.087 C 
BRANCH  11  12
ATOM     12  C   UNL     1       0.958  11.939  21.471  1.00  0.00     0.066 C 
BRANCH  12  13
ATOM     13  C   UNL     1       2.051  11.427  22.397  1.00  0.00     0.140 C 
ATOM     14  O   UNL     1       1.807  10.531  23.195  1.00  0.00    -0.299 OA
BRANCH  13  15
ATOM     15  C   UNL     1       3.444  11.998  22.319  1.00  0.00     0.106 CG0
ATOM     16  G   UNL     1       3.869  12.759  23.569  1.00  0.00     0.000 G0
ENDBRANCH  13  15
ENDBRANCH  12  13
BRANCH  12  17
ATOM     17  C   UNL     1      -0.161  10.864  21.266  1.00  0.00    -0.006 C 
ATOM     18  C   UNL     1      -0.440  10.628  19.768  1.00  0.00     0.008 C 
ATOM     19  C   UNL     1      -1.487  11.250  21.953  1.00  0.00     0.008 C 
ENDBRANCH  12  17
ENDBRANCH  11  12
ENDBRANCH   1  11
TORSDOF 1
ENDMDL
MODEL 9
REMARK VINA RESULT:    -2.871      2.623      4.842
REMARK INTER + INTRA:          -4.798
REMARK INTER:                  -4.563
REMARK INTRA:                  -0.235
REMARK UNBOUND:                -0.417
REMARK SMILES CC1=CCC[C@H](C)C(=O)C[C@H](C(C)C)C(=O)C1
REMARK SMILES IDX 8 1 9 2 6 3 7 4 5 5 4 6 3 7 2 8 1 9 10 11 11 12 15 13 16 14
REMARK SMILES IDX 17 15 12 17 13 18 14 19
REMARK H PARENT
REMARK Flexibility Score: 70.00
ROOT
ATOM      1  C   UNL     1       0.961  14.340  21.481  1.00  0.00     0.136 C 
ATOM      2  O   UNL     1      -0.193  13.936  21.525  1.00  0.00    -0.299 OA
ENDROOT
BRANCH   1   3
ATOM      3  C   UNL     1       1.210  15.805  21.802  1.00  0.00     0.053 C 
ATOM      4  C   UNL     1       2.538  16.066  22.533  1.00  0.00     0.016 C 
BRANCH   3   5
ATOM      5  C   UNL     1       1.002  16.708  20.567  1.00  0.00     0.015 C 
BRANCH   5   6
ATOM      6  C   UNL     1       2.236  16.816  19.650  1.00  0.00     0.028 C 
BRANCH   6   7
ATOM      7  C   UNL     1       1.996  16.232  18.279  1.00  0.00    -0.028 C 
ATOM      8  C   UNL     1       2.586  15.113  17.788  1.00  0.00    -0.070 CG0
ATOM      9  C   UNL     1       2.252  14.707  16.374  1.00  0.00     0.039 C 
ATOM     10  G   UNL     1       3.515  14.222  18.603  1.00  0.00     0.000 G0
ENDBRANCH   6   7
ENDBRANCH   5   6
ENDBRANCH   3   5
ENDBRANCH   1   3
BRANCH   1  11
ATOM     11  C   UNL     1       2.053  13.347  21.131  1.00  0.00     0.087 C 
BRANCH  11  12
ATOM     12  C   UNL     1       1.791  12.632  19.775  1.00  0.00     0.066 C 
BRANCH  12  13
ATOM     13  C   UNL     1       2.988  12.839  18.859  1.00  0.00     0.140 C 
ATOM     14  O   UNL     1       3.508  11.879  18.304  1.00  0.00    -0.299 OA
BRANCH  13  15
ATOM     15  C   UNL     1       3.522  14.227  18.607  1.00  0.00     0.106 CG0
ATOM     16  G   UNL     1       2.590  15.105  17.781  1.00  0.00     0.000 G0
ENDBRANCH  13  15
ENDBRANCH  12  13
BRANCH  12  17
ATOM     17  C   UNL     1       1.459  11.112  19.938  1.00  0.00    -0.006 C 
ATOM     18  C   UNL     1       0.272  10.701  19.043  1.00  0.00     0.008 C 
ATOM     19  C   UNL     1       1.123  10.731  21.395  1.00  0.00     0.008 C 
ENDBRANCH  12  17
ENDBRANCH  11  12
ENDBRANCH   1  11
TORSDOF 1
ENDMDL
