MODEL 1
REMARK VINA RESULT:    -4.348      0.000      0.000
REMARK INTER + INTRA:         -10.027
REMARK INTER:                  -7.652
REMARK INTRA:                  -2.375
REMARK UNBOUND:                -2.375
REMARK SMILES CCCCCCCCCCCCCCC(=O)[O-]
REMARK SMILES IDX 9 1 10 2 11 3 12 4 13 5 14 6 15 7 16 8 17 9 8 10 7 11 6 12
REMARK SMILES IDX 5 13 4 14 3 15 2 16 1 17
REMARK H PARENT
REMARK Flexibility Score: inf
ROOT
ATOM      1  C   UNL     1      17.293 -33.857  19.023  1.00  0.00     0.000 C 
ENDROOT
BRANCH   1   2
ATOM      2  C   UNL     1      16.458 -35.109  19.332  1.00  0.00     0.000 C 
BRANCH   2   3
ATOM      3  C   UNL     1      15.213 -34.799  20.179  1.00  0.00     0.000 C 
BRANCH   3   4
ATOM      4  C   UNL     1      14.516 -33.496  19.748  1.00  0.00     0.000 C 
BRANCH   4   5
ATOM      5  C   UNL     1      14.057 -32.650  20.948  1.00  0.00     0.006 C 
BRANCH   5   6
ATOM      6  C   UNL     1      13.228 -31.428  20.529  1.00  0.00     0.053 C 
BRANCH   6   7
ATOM      7  C   UNL     1      13.179 -30.426  21.638  1.00  0.00     0.041 C 
ATOM      8  O   UNL     1      14.189 -29.723  21.902  1.00  0.00    -0.550 OA
ATOM      9  O   UNL     1      12.033 -30.305  22.416  1.00  0.00    -0.550 OA
ENDBRANCH   6   7
ENDBRANCH   5   6
ENDBRANCH   4   5
ENDBRANCH   3   4
ENDBRANCH   2   3
ENDBRANCH   1   2
BRANCH   1  10
ATOM     10  C   UNL     1      18.636 -33.896  19.764  1.00  0.00     0.000 C 
BRANCH  10  11
ATOM     11  C   UNL     1      18.896 -32.575  20.502  1.00  0.00    -0.000 C 
BRANCH  11  12
ATOM     12  C   UNL     1      17.659 -31.664  20.535  1.00  0.00    -0.000 C 
BRANCH  12  13
ATOM     13  C   UNL     1      17.238 -31.290  21.967  1.00  0.00    -0.000 C 
BRANCH  13  14
ATOM     14  C   UNL     1      17.684 -32.331  23.006  1.00  0.00    -0.000 C 
BRANCH  14  15
ATOM     15  C   UNL     1      16.520 -32.844  23.865  1.00  0.00    -0.000 C 
BRANCH  15  16
ATOM     16  C   UNL     1      16.189 -34.302  23.526  1.00  0.00    -0.003 C 
ATOM     17  C   UNL     1      17.446 -35.079  23.143  1.00  0.00     0.004 C 
ENDBRANCH  15  16
ENDBRANCH  14  15
ENDBRANCH  13  14
ENDBRANCH  12  13
ENDBRANCH  11  12
ENDBRANCH  10  11
ENDBRANCH   1  10
TORSDOF 13
ENDMDL
MODEL 2
REMARK VINA RESULT:    -4.311      1.194      3.070
REMARK INTER + INTRA:          -9.963
REMARK INTER:                  -7.726
REMARK INTRA:                  -2.237
REMARK UNBOUND:                -2.375
REMARK SMILES CCCCCCCCCCCCCCC(=O)[O-]
REMARK SMILES IDX 9 1 10 2 11 3 12 4 13 5 14 6 15 7 16 8 17 9 8 10 7 11 6 12
REMARK SMILES IDX 5 13 4 14 3 15 2 16 1 17
REMARK H PARENT
REMARK Flexibility Score: inf
ROOT
ATOM      1  C   UNL     1      18.791 -32.095  20.458  1.00  0.00     0.000 C 
ENDROOT
BRANCH   1   2
ATOM      2  C   UNL     1      18.170 -31.607  21.775  1.00  0.00     0.000 C 
BRANCH   2   3
ATOM      3  C   UNL     1      16.864 -30.824  21.563  1.00  0.00     0.000 C 
BRANCH   3   4
ATOM      4  C   UNL     1      16.170 -30.466  22.889  1.00  0.00     0.000 C 
BRANCH   4   5
ATOM      5  C   UNL     1      14.837 -29.728  22.676  1.00  0.00     0.006 C 
BRANCH   5   6
ATOM      6  C   UNL     1      13.619 -30.594  23.022  1.00  0.00     0.053 C 
BRANCH   6   7
ATOM      7  C   UNL     1      12.686 -30.672  21.855  1.00  0.00     0.041 C 
ATOM      8  O   UNL     1      11.470 -30.379  21.995  1.00  0.00    -0.550 OA
ATOM      9  O   UNL     1      13.149 -31.116  20.623  1.00  0.00    -0.550 OA
ENDBRANCH   6   7
ENDBRANCH   5   6
ENDBRANCH   4   5
ENDBRANCH   3   4
ENDBRANCH   2   3
ENDBRANCH   1   2
BRANCH   1  10
ATOM     10  C   UNL     1      18.889 -33.626  20.430  1.00  0.00     0.000 C 
BRANCH  10  11
ATOM     11  C   UNL     1      18.421 -34.183  19.078  1.00  0.00    -0.000 C 
BRANCH  11  12
ATOM     12  C   UNL     1      16.891 -34.184  18.937  1.00  0.00    -0.000 C 
BRANCH  12  13
ATOM     13  C   UNL     1      16.185 -34.811  20.152  1.00  0.00    -0.000 C 
BRANCH  13  14
ATOM     14  C   UNL     1      15.039 -33.938  20.686  1.00  0.00    -0.000 C 
BRANCH  14  15
ATOM     15  C   UNL     1      14.971 -33.926  22.220  1.00  0.00    -0.000 C 
BRANCH  15  16
ATOM     16  C   UNL     1      16.261 -34.485  22.830  1.00  0.00    -0.003 C 
ATOM     17  C   UNL     1      16.367 -34.138  24.312  1.00  0.00     0.004 C 
ENDBRANCH  15  16
ENDBRANCH  14  15
ENDBRANCH  13  14
ENDBRANCH  12  13
ENDBRANCH  11  12
ENDBRANCH  10  11
ENDBRANCH   1  10
TORSDOF 13
ENDMDL
MODEL 3
REMARK VINA RESULT:    -4.238      1.888      4.713
REMARK INTER + INTRA:          -9.835
REMARK INTER:                  -8.501
REMARK INTRA:                  -1.333
REMARK UNBOUND:                -2.375
REMARK SMILES CCCCCCCCCCCCCCC(=O)[O-]
REMARK SMILES IDX 9 1 10 2 11 3 12 4 13 5 14 6 15 7 16 8 17 9 8 10 7 11 6 12
REMARK SMILES IDX 5 13 4 14 3 15 2 16 1 17
REMARK H PARENT
REMARK Flexibility Score: inf
ROOT
ATOM      1  C   UNL     1      16.032 -35.085  19.848  1.00  0.00     0.000 C 
ENDROOT
BRANCH   1   2
ATOM      2  C   UNL     1      16.832 -34.063  19.027  1.00  0.00     0.000 C 
BRANCH   2   3
ATOM      3  C   UNL     1      18.351 -34.205  19.217  1.00  0.00     0.000 C 
BRANCH   3   4
ATOM      4  C   UNL     1      18.932 -33.121  20.143  1.00  0.00     0.000 C 
BRANCH   4   5
ATOM      5  C   UNL     1      17.908 -32.026  20.484  1.00  0.00     0.006 C 
BRANCH   5   6
ATOM      6  C   UNL     1      18.304 -31.208  21.720  1.00  0.00     0.053 C 
BRANCH   6   7
ATOM      7  C   UNL     1      17.242 -31.303  22.770  1.00  0.00     0.041 C 
ATOM      8  O   UNL     1      16.670 -30.263  23.187  1.00  0.00    -0.550 OA
ATOM      9  O   UNL     1      16.921 -32.536  23.324  1.00  0.00    -0.550 OA
ENDBRANCH   6   7
ENDBRANCH   5   6
ENDBRANCH   4   5
ENDBRANCH   3   4
ENDBRANCH   2   3
ENDBRANCH   1   2
BRANCH   1  10
ATOM     10  C   UNL     1      15.090 -34.382  20.834  1.00  0.00     0.000 C 
BRANCH  10  11
ATOM     11  C   UNL     1      14.318 -33.248  20.145  1.00  0.00    -0.000 C 
BRANCH  11  12
ATOM     12  C   UNL     1      14.058 -32.057  21.081  1.00  0.00    -0.000 C 
BRANCH  12  13
ATOM     13  C   UNL     1      12.779 -31.285  20.713  1.00  0.00    -0.000 C 
BRANCH  13  14
ATOM     14  C   UNL     1      12.122 -30.615  21.930  1.00  0.00    -0.000 C 
BRANCH  14  15
ATOM     15  C   UNL     1      13.118 -30.347  23.066  1.00  0.00    -0.000 C 
BRANCH  15  16
ATOM     16  C   UNL     1      13.005 -28.901  23.565  1.00  0.00    -0.003 C 
ATOM     17  C   UNL     1      11.588 -28.363  23.381  1.00  0.00     0.004 C 
ENDBRANCH  15  16
ENDBRANCH  14  15
ENDBRANCH  13  14
ENDBRANCH  12  13
ENDBRANCH  11  12
ENDBRANCH  10  11
ENDBRANCH   1  10
TORSDOF 13
ENDMDL
MODEL 4
REMARK VINA RESULT:    -4.227      1.595      3.522
REMARK INTER + INTRA:          -9.814
REMARK INTER:                  -8.216
REMARK INTRA:                  -1.598
REMARK UNBOUND:                -2.375
REMARK SMILES CCCCCCCCCCCCCCC(=O)[O-]
REMARK SMILES IDX 9 1 10 2 11 3 12 4 13 5 14 6 15 7 16 8 17 9 8 10 7 11 6 12
REMARK SMILES IDX 5 13 4 14 3 15 2 16 1 17
REMARK H PARENT
REMARK Flexibility Score: inf
ROOT
ATOM      1  C   UNL     1      15.206 -34.293  20.693  1.00  0.00     0.000 C 
ENDROOT
BRANCH   1   2
ATOM      2  C   UNL     1      15.922 -34.478  22.039  1.00  0.00     0.000 C 
BRANCH   2   3
ATOM      3  C   UNL     1      15.245 -33.706  23.184  1.00  0.00     0.000 C 
BRANCH   3   4
ATOM      4  C   UNL     1      15.885 -32.328  23.425  1.00  0.00     0.000 C 
BRANCH   4   5
ATOM      5  C   UNL     1      15.000 -31.173  22.927  1.00  0.00     0.006 C 
BRANCH   5   6
ATOM      6  C   UNL     1      13.510 -31.401  23.213  1.00  0.00     0.053 C 
BRANCH   6   7
ATOM      7  C   UNL     1      12.675 -30.850  22.101  1.00  0.00     0.041 C 
ATOM      8  O   UNL     1      11.845 -29.932  22.328  1.00  0.00    -0.550 OA
ATOM      9  O   UNL     1      12.778 -31.386  20.823  1.00  0.00    -0.550 OA
ENDBRANCH   6   7
ENDBRANCH   5   6
ENDBRANCH   4   5
ENDBRANCH   3   4
ENDBRANCH   2   3
ENDBRANCH   1   2
BRANCH   1  10
ATOM     10  C   UNL     1      16.068 -34.814  19.536  1.00  0.00     0.000 C 
BRANCH  10  11
ATOM     11  C   UNL     1      17.056 -33.740  19.058  1.00  0.00    -0.000 C 
BRANCH  11  12
ATOM     12  C   UNL     1      18.492 -34.002  19.540  1.00  0.00    -0.000 C 
BRANCH  12  13
ATOM     13  C   UNL     1      19.080 -32.814  20.321  1.00  0.00    -0.000 C 
BRANCH  13  14
ATOM     14  C   UNL     1      18.041 -31.716  20.599  1.00  0.00    -0.000 C 
BRANCH  14  15
ATOM     15  C   UNL     1      18.613 -30.556  21.425  1.00  0.00    -0.000 C 
BRANCH  15  16
ATOM     16  C   UNL     1      18.039 -29.214  20.956  1.00  0.00    -0.003 C 
ATOM     17  C   UNL     1      19.123 -28.140  20.896  1.00  0.00     0.004 C 
ENDBRANCH  15  16
ENDBRANCH  14  15
ENDBRANCH  13  14
ENDBRANCH  12  13
ENDBRANCH  11  12
ENDBRANCH  10  11
ENDBRANCH   1  10
TORSDOF 13
ENDMDL
MODEL 5
REMARK VINA RESULT:    -4.225      3.040      5.787
REMARK INTER + INTRA:          -9.810
REMARK INTER:                  -8.826
REMARK INTRA:                  -0.984
REMARK UNBOUND:                -2.375
REMARK SMILES CCCCCCCCCCCCCCC(=O)[O-]
REMARK SMILES IDX 9 1 10 2 11 3 12 4 13 5 14 6 15 7 16 8 17 9 8 10 7 11 6 12
REMARK SMILES IDX 5 13 4 14 3 15 2 16 1 17
REMARK H PARENT
REMARK Flexibility Score: inf
ROOT
ATOM      1  C   UNL     1      13.694 -32.043  20.867  1.00  0.00     0.000 C 
ENDROOT
BRANCH   1   2
ATOM      2  C   UNL     1      14.232 -33.183  19.988  1.00  0.00     0.000 C 
BRANCH   2   3
ATOM      3  C   UNL     1      15.016 -34.233  20.790  1.00  0.00     0.000 C 
BRANCH   3   4
ATOM      4  C   UNL     1      16.006 -35.024  19.916  1.00  0.00     0.000 C 
BRANCH   4   5
ATOM      5  C   UNL     1      16.791 -34.120  18.951  1.00  0.00     0.006 C 
BRANCH   5   6
ATOM      6  C   UNL     1      18.277 -34.009  19.318  1.00  0.00     0.053 C 
BRANCH   6   7
ATOM      7  C   UNL     1      18.451 -33.159  20.536  1.00  0.00     0.041 C 
ATOM      8  O   UNL     1      18.803 -33.679  21.627  1.00  0.00    -0.550 OA
ATOM      9  O   UNL     1      18.177 -31.798  20.479  1.00  0.00    -0.550 OA
ENDBRANCH   6   7
ENDBRANCH   5   6
ENDBRANCH   4   5
ENDBRANCH   3   4
ENDBRANCH   2   3
ENDBRANCH   1   2
BRANCH   1  10
ATOM     10  C   UNL     1      14.840 -31.186  21.417  1.00  0.00     0.000 C 
BRANCH  10  11
ATOM     11  C   UNL     1      14.822 -31.162  22.952  1.00  0.00    -0.000 C 
BRANCH  11  12
ATOM     12  C   UNL     1      13.517 -30.580  23.518  1.00  0.00    -0.000 C 
BRANCH  12  13
ATOM     13  C   UNL     1      13.327 -29.095  23.159  1.00  0.00    -0.000 C 
BRANCH  13  14
ATOM     14  C   UNL     1      11.992 -28.530  23.667  1.00  0.00    -0.000 C 
BRANCH  14  15
ATOM     15  C   UNL     1      11.960 -26.995  23.662  1.00  0.00    -0.000 C 
BRANCH  15  16
ATOM     16  C   UNL     1      13.380 -26.418  23.670  1.00  0.00    -0.003 C 
ATOM     17  C   UNL     1      13.778 -25.951  25.068  1.00  0.00     0.004 C 
ENDBRANCH  15  16
ENDBRANCH  14  15
ENDBRANCH  13  14
ENDBRANCH  12  13
ENDBRANCH  11  12
ENDBRANCH  10  11
ENDBRANCH   1  10
TORSDOF 13
ENDMDL
MODEL 6
REMARK VINA RESULT:    -4.224      2.836      5.587
REMARK INTER + INTRA:          -9.809
REMARK INTER:                  -8.248
REMARK INTRA:                  -1.561
REMARK UNBOUND:                -2.375
REMARK SMILES CCCCCCCCCCCCCCC(=O)[O-]
REMARK SMILES IDX 9 1 10 2 11 3 12 4 13 5 14 6 15 7 16 8 17 9 8 10 7 11 6 12
REMARK SMILES IDX 5 13 4 14 3 15 2 16 1 17
REMARK H PARENT
REMARK Flexibility Score: inf
ROOT
ATOM      1  C   UNL     1      16.995 -29.587  21.600  1.00  0.00     0.000 C 
ENDROOT
BRANCH   1   2
ATOM      2  C   UNL     1      17.165 -30.958  20.928  1.00  0.00     0.000 C 
BRANCH   2   3
ATOM      3  C   UNL     1      17.890 -31.975  21.824  1.00  0.00     0.000 C 
BRANCH   3   4
ATOM      4  C   UNL     1      16.920 -32.778  22.709  1.00  0.00     0.000 C 
BRANCH   4   5
ATOM      5  C   UNL     1      16.449 -34.078  22.037  1.00  0.00     0.006 C 
BRANCH   5   6
ATOM      6  C   UNL     1      14.979 -34.021  21.600  1.00  0.00     0.053 C 
BRANCH   6   7
ATOM      7  C   UNL     1      14.881 -33.730  20.136  1.00  0.00     0.041 C 
ATOM      8  O   UNL     1      15.830 -34.030  19.366  1.00  0.00    -0.550 OA
ATOM      9  O   UNL     1      13.762 -33.081  19.629  1.00  0.00    -0.550 OA
ENDBRANCH   6   7
ENDBRANCH   5   6
ENDBRANCH   4   5
ENDBRANCH   3   4
ENDBRANCH   2   3
ENDBRANCH   1   2
BRANCH   1  10
ATOM     10  C   UNL     1      15.652 -29.500  22.338  1.00  0.00     0.000 C 
BRANCH  10  11
ATOM     11  C   UNL     1      14.506 -30.015  21.457  1.00  0.00    -0.000 C 
BRANCH  11  12
ATOM     12  C   UNL     1      13.342 -30.590  22.279  1.00  0.00    -0.000 C 
BRANCH  12  13
ATOM     13  C   UNL     1      12.958 -29.693  23.469  1.00  0.00    -0.000 C 
BRANCH  13  14
ATOM     14  C   UNL     1      11.908 -28.634  23.097  1.00  0.00    -0.000 C 
BRANCH  14  15
ATOM     15  C   UNL     1      11.705 -27.590  24.204  1.00  0.00    -0.000 C 
BRANCH  15  16
ATOM     16  C   UNL     1      13.042 -26.966  24.620  1.00  0.00    -0.003 C 
ATOM     17  C   UNL     1      13.491 -25.904  23.620  1.00  0.00     0.004 C 
ENDBRANCH  15  16
ENDBRANCH  14  15
ENDBRANCH  13  14
ENDBRANCH  12  13
ENDBRANCH  11  12
ENDBRANCH  10  11
ENDBRANCH   1  10
TORSDOF 13
ENDMDL
MODEL 7
REMARK VINA RESULT:    -4.197      1.340      3.116
REMARK INTER + INTRA:          -9.761
REMARK INTER:                  -7.700
REMARK INTRA:                  -2.061
REMARK UNBOUND:                -2.375
REMARK SMILES CCCCCCCCCCCCCCC(=O)[O-]
REMARK SMILES IDX 9 1 10 2 11 3 12 4 13 5 14 6 15 7 16 8 17 9 8 10 7 11 6 12
REMARK SMILES IDX 5 13 4 14 3 15 2 16 1 17
REMARK H PARENT
REMARK Flexibility Score: inf
ROOT
ATOM      1  C   UNL     1      18.334 -31.489  20.858  1.00  0.00     0.000 C 
ENDROOT
BRANCH   1   2
ATOM      2  C   UNL     1      18.254 -31.279  22.378  1.00  0.00     0.000 C 
BRANCH   2   3
ATOM      3  C   UNL     1      16.871 -30.795  22.840  1.00  0.00     0.000 C 
BRANCH   3   4
ATOM      4  C   UNL     1      16.178 -29.904  21.792  1.00  0.00     0.000 C 
BRANCH   4   5
ATOM      5  C   UNL     1      14.731 -30.343  21.511  1.00  0.00     0.006 C 
BRANCH   5   6
ATOM      6  C   UNL     1      13.924 -30.581  22.794  1.00  0.00     0.053 C 
BRANCH   6   7
ATOM      7  C   UNL     1      12.581 -29.930  22.694  1.00  0.00     0.041 C 
ATOM      8  O   UNL     1      11.708 -30.394  21.915  1.00  0.00    -0.550 OA
ATOM      9  O   UNL     1      12.311 -28.779  23.423  1.00  0.00    -0.550 OA
ENDBRANCH   6   7
ENDBRANCH   5   6
ENDBRANCH   4   5
ENDBRANCH   3   4
ENDBRANCH   2   3
ENDBRANCH   1   2
BRANCH   1  10
ATOM     10  C   UNL     1      19.415 -32.518  20.502  1.00  0.00     0.000 C 
BRANCH  10  11
ATOM     11  C   UNL     1      18.798 -33.904  20.264  1.00  0.00    -0.000 C 
BRANCH  11  12
ATOM     12  C   UNL     1      18.039 -33.993  18.931  1.00  0.00    -0.000 C 
BRANCH  12  13
ATOM     13  C   UNL     1      16.530 -34.221  19.124  1.00  0.00    -0.000 C 
BRANCH  13  14
ATOM     14  C   UNL     1      16.191 -34.801  20.507  1.00  0.00    -0.000 C 
BRANCH  14  15
ATOM     15  C   UNL     1      15.048 -34.046  21.200  1.00  0.00    -0.000 C 
BRANCH  15  16
ATOM     16  C   UNL     1      15.259 -34.006  22.718  1.00  0.00    -0.003 C 
ATOM     17  C   UNL     1      16.597 -34.631  23.106  1.00  0.00     0.004 C 
ENDBRANCH  15  16
ENDBRANCH  14  15
ENDBRANCH  13  14
ENDBRANCH  12  13
ENDBRANCH  11  12
ENDBRANCH  10  11
ENDBRANCH   1  10
TORSDOF 13
ENDMDL
MODEL 8
REMARK VINA RESULT:    -4.197      1.685      3.530
REMARK INTER + INTRA:          -9.761
REMARK INTER:                  -8.180
REMARK INTRA:                  -1.581
REMARK UNBOUND:                -2.375
REMARK SMILES CCCCCCCCCCCCCCC(=O)[O-]
REMARK SMILES IDX 9 1 10 2 11 3 12 4 13 5 14 6 15 7 16 8 17 9 8 10 7 11 6 12
REMARK SMILES IDX 5 13 4 14 3 15 2 16 1 17
REMARK H PARENT
REMARK Flexibility Score: inf
ROOT
ATOM      1  C   UNL     1      17.792 -29.940  21.074  1.00  0.00     0.000 C 
ENDROOT
BRANCH   1   2
ATOM      2  C   UNL     1      16.427 -29.516  21.638  1.00  0.00     0.000 C 
BRANCH   2   3
ATOM      3  C   UNL     1      15.475 -30.704  21.848  1.00  0.00     0.000 C 
BRANCH   3   4
ATOM      4  C   UNL     1      14.139 -30.527  21.104  1.00  0.00     0.000 C 
BRANCH   4   5
ATOM      5  C   UNL     1      12.922 -30.749  22.018  1.00  0.00     0.006 C 
BRANCH   5   6
ATOM      6  C   UNL     1      13.118 -30.155  23.420  1.00  0.00     0.053 C 
BRANCH   6   7
ATOM      7  C   UNL     1      12.675 -28.727  23.448  1.00  0.00     0.041 C 
ATOM      8  O   UNL     1      13.527 -27.800  23.481  1.00  0.00    -0.550 OA
ATOM      9  O   UNL     1      11.321 -28.419  23.488  1.00  0.00    -0.550 OA
ENDBRANCH   6   7
ENDBRANCH   5   6
ENDBRANCH   4   5
ENDBRANCH   3   4
ENDBRANCH   2   3
ENDBRANCH   1   2
BRANCH   1  10
ATOM     10  C   UNL     1      17.751 -31.388  20.568  1.00  0.00     0.000 C 
BRANCH  10  11
ATOM     11  C   UNL     1      19.125 -32.059  20.708  1.00  0.00    -0.000 C 
BRANCH  11  12
ATOM     12  C   UNL     1      19.058 -33.584  20.525  1.00  0.00    -0.000 C 
BRANCH  12  13
ATOM     13  C   UNL     1      18.468 -33.991  19.163  1.00  0.00    -0.000 C 
BRANCH  13  14
ATOM     14  C   UNL     1      17.213 -34.866  19.301  1.00  0.00    -0.000 C 
BRANCH  14  15
ATOM     15  C   UNL     1      15.915 -34.048  19.255  1.00  0.00    -0.000 C 
BRANCH  15  16
ATOM     16  C   UNL     1      14.979 -34.442  20.403  1.00  0.00    -0.003 C 
ATOM     17  C   UNL     1      15.681 -34.326  21.753  1.00  0.00     0.004 C 
ENDBRANCH  15  16
ENDBRANCH  14  15
ENDBRANCH  13  14
ENDBRANCH  12  13
ENDBRANCH  11  12
ENDBRANCH  10  11
ENDBRANCH   1  10
TORSDOF 13
ENDMDL
MODEL 9
REMARK VINA RESULT:    -4.106      2.906      5.194
REMARK INTER + INTRA:          -9.602
REMARK INTER:                  -7.679
REMARK INTRA:                  -1.923
REMARK UNBOUND:                -2.375
REMARK SMILES CCCCCCCCCCCCCCC(=O)[O-]
REMARK SMILES IDX 9 1 10 2 11 3 12 4 13 5 14 6 15 7 16 8 17 9 8 10 7 11 6 12
REMARK SMILES IDX 5 13 4 14 3 15 2 16 1 17
REMARK H PARENT
REMARK Flexibility Score: inf
ROOT
ATOM      1  C   UNL     1      16.957 -30.348  22.892  1.00  0.00     0.000 C 
ENDROOT
BRANCH   1   2
ATOM      2  C   UNL     1      17.875 -31.538  22.572  1.00  0.00     0.000 C 
BRANCH   2   3
ATOM      3  C   UNL     1      18.736 -31.304  21.320  1.00  0.00     0.000 C 
BRANCH   3   4
ATOM      4  C   UNL     1      19.001 -32.602  20.537  1.00  0.00     0.000 C 
BRANCH   4   5
ATOM      5  C   UNL     1      17.720 -33.195  19.928  1.00  0.00     0.006 C 
BRANCH   5   6
ATOM      6  C   UNL     1      17.984 -34.466  19.110  1.00  0.00     0.053 C 
BRANCH   6   7
ATOM      7  C   UNL     1      17.091 -35.575  19.566  1.00  0.00     0.041 C 
ATOM      8  O   UNL     1      15.842 -35.469  19.453  1.00  0.00    -0.550 OA
ATOM      9  O   UNL     1      17.635 -36.705  20.163  1.00  0.00    -0.550 OA
ENDBRANCH   6   7
ENDBRANCH   5   6
ENDBRANCH   4   5
ENDBRANCH   3   4
ENDBRANCH   2   3
ENDBRANCH   1   2
BRANCH   1  10
ATOM     10  C   UNL     1      16.564 -29.597  21.613  1.00  0.00     0.000 C 
BRANCH  10  11
ATOM     11  C   UNL     1      15.042 -29.411  21.529  1.00  0.00    -0.000 C 
BRANCH  11  12
ATOM     12  C   UNL     1      14.420 -29.016  22.878  1.00  0.00    -0.000 C 
BRANCH  12  13
ATOM     13  C   UNL     1      13.071 -29.711  23.134  1.00  0.00    -0.000 C 
BRANCH  13  14
ATOM     14  C   UNL     1      13.102 -31.208  22.785  1.00  0.00    -0.000 C 
BRANCH  14  15
ATOM     15  C   UNL     1      13.758 -32.056  23.883  1.00  0.00    -0.000 C 
BRANCH  15  16
ATOM     16  C   UNL     1      14.634 -33.157  23.275  1.00  0.00    -0.003 C 
ATOM     17  C   UNL     1      14.593 -33.116  21.749  1.00  0.00     0.004 C 
ENDBRANCH  15  16
ENDBRANCH  14  15
ENDBRANCH  13  14
ENDBRANCH  12  13
ENDBRANCH  11  12
ENDBRANCH  10  11
ENDBRANCH   1  10
TORSDOF 13
ENDMDL
