MODEL 1
REMARK VINA RESULT:    -4.253      0.000      0.000
REMARK INTER + INTRA:          -5.630
REMARK INTER:                  -5.744
REMARK INTRA:                   0.114
REMARK UNBOUND:                 0.114
REMARK SMILES O=c1c(-c2ccc(O)cc2)coc2c([C@H]3O[C@H](CO)[C@H](O)[C@H](O)[C@@H]3O)c(O)ccc12
REMARK SMILES IDX 3 1 11 2 12 3 13 4 30 5 2 6 1 7 29 8 28 9 26 10 14 11 4 12
REMARK SMILES IDX 5 13 6 14 7 15 10 16 9 17 8 18 15 20 24 21 16 22 22 23 17 24
REMARK SMILES IDX 20 25 25 26 23 28 18 30 19 31 21 33 27 35
REMARK H PARENT 8 19 25 27 23 29 19 32 21 34 27 36
REMARK Flexibility Score: inf
ROOT
ATOM      1  C   UNL     1       8.992  16.464 166.387  1.00  0.00     0.065 A 
ATOM      2  C   UNL     1       9.926  15.500 165.984  1.00  0.00     0.208 A 
ATOM      3  O   UNL     1      10.687  15.693 164.914  1.00  0.00    -0.463 OA
ATOM      4  C   UNL     1      10.621  16.788 164.161  1.00  0.00     0.147 A 
ATOM      5  C   UNL     1       9.712  17.817 164.502  1.00  0.00     0.066 A 
ATOM      6  C   UNL     1       8.894  17.647 165.633  1.00  0.00     0.200 A 
ATOM      7  O   UNL     1       8.091  18.558 165.981  1.00  0.00    -0.288 OA
ATOM      8  C   UNL     1       9.656  18.980 163.718  1.00  0.00     0.020 A 
ATOM      9  C   UNL     1      10.496  19.125 162.615  1.00  0.00     0.047 A 
ATOM     10  C   UNL     1      11.400  18.113 162.270  1.00  0.00     0.125 A 
ATOM     11  C   UNL     1      11.460  16.923 163.030  1.00  0.00     0.069 A 
ENDROOT
BRANCH   1  12
ATOM     12  C   UNL     1       8.147  16.222 167.584  1.00  0.00    -0.011 A 
ATOM     13  C   UNL     1       6.979  16.974 167.800  1.00  0.00     0.013 A 
ATOM     14  C   UNL     1       6.182  16.736 168.925  1.00  0.00     0.047 A 
ATOM     15  C   UNL     1       6.540  15.740 169.842  1.00  0.00     0.115 A 
ATOM     16  C   UNL     1       8.495  15.220 168.507  1.00  0.00     0.013 A 
ATOM     17  C   UNL     1       7.697  14.984 169.630  1.00  0.00     0.047 A 
BRANCH  15  18
ATOM     18  O   UNL     1       5.755  15.494 170.966  1.00  0.00    -0.508 OA
ATOM     19  H   UNL     1       5.260  14.616 171.084  1.00  0.00     0.293 HD
ENDBRANCH  15  18
ENDBRANCH   1  12
BRANCH  11  20
ATOM     20  C   UNL     1      12.457  15.827 162.674  1.00  0.00     0.188 C 
ATOM     21  C   UNL     1      11.716  14.615 162.068  1.00  0.00     0.179 C 
ATOM     22  O   UNL     1      13.177  15.460 163.843  1.00  0.00    -0.362 OA
ATOM     23  C   UNL     1      12.716  13.501 161.725  1.00  0.00     0.177 C 
ATOM     24  C   UNL     1      14.181  14.486 163.593  1.00  0.00     0.176 C 
ATOM     25  C   UNL     1      13.595  13.197 162.950  1.00  0.00     0.177 C 
BRANCH  21  26
ATOM     26  O   UNL     1      11.022  15.011 160.911  1.00  0.00    -0.387 OA
ATOM     27  H   UNL     1      10.549  15.854 161.135  1.00  0.00     0.211 HD
ENDBRANCH  21  26
BRANCH  23  28
ATOM     28  O   UNL     1      13.497  13.882 160.619  1.00  0.00    -0.387 OA
ATOM     29  H   UNL     1      12.996  13.616 159.804  1.00  0.00     0.211 HD
ENDBRANCH  23  28
BRANCH  24  30
ATOM     30  C   UNL     1      15.404  15.095 162.863  1.00  0.00     0.191 C 
BRANCH  30  31
ATOM     31  O   UNL     1      16.535  14.281 163.014  1.00  0.00    -0.394 OA
ATOM     32  H   UNL     1      16.205  13.356 163.157  1.00  0.00     0.210 HD
ENDBRANCH  30  31
ENDBRANCH  24  30
BRANCH  25  33
ATOM     33  O   UNL     1      14.609  12.290 162.603  1.00  0.00    -0.388 OA
ATOM     34  H   UNL     1      15.252  12.784 162.030  1.00  0.00     0.211 HD
ENDBRANCH  25  33
ENDBRANCH  11  20
BRANCH  10  35
ATOM     35  O   UNL     1      12.243  18.296 161.172  1.00  0.00    -0.507 OA
ATOM     36  H   UNL     1      12.610  17.512 160.646  1.00  0.00     0.293 HD
ENDBRANCH  10  35
TORSDOF 9
ENDMDL
MODEL 2
REMARK VINA RESULT:    -2.685      0.995      1.929
REMARK INTER + INTRA:          -3.512
REMARK INTER:                  -3.383
REMARK INTRA:                  -0.130
REMARK UNBOUND:                 0.114
REMARK SMILES O=c1c(-c2ccc(O)cc2)coc2c([C@H]3O[C@H](CO)[C@H](O)[C@H](O)[C@@H]3O)c(O)ccc12
REMARK SMILES IDX 3 1 11 2 12 3 13 4 30 5 2 6 1 7 29 8 28 9 26 10 14 11 4 12
REMARK SMILES IDX 5 13 6 14 7 15 10 16 9 17 8 18 15 20 24 21 16 22 22 23 17 24
REMARK SMILES IDX 20 25 25 26 23 28 18 30 19 31 21 33 27 35
REMARK H PARENT 8 19 25 27 23 29 19 32 21 34 27 36
REMARK Flexibility Score: inf
ROOT
ATOM      1  C   UNL     1       8.628  16.311 166.674  1.00  0.00     0.065 A 
ATOM      2  C   UNL     1       9.620  15.395 166.295  1.00  0.00     0.208 A 
ATOM      3  O   UNL     1      10.422  15.645 165.268  1.00  0.00    -0.463 OA
ATOM      4  C   UNL     1      10.348  16.756 164.540  1.00  0.00     0.147 A 
ATOM      5  C   UNL     1       9.383  17.739 164.859  1.00  0.00     0.066 A 
ATOM      6  C   UNL     1       8.518  17.508 165.945  1.00  0.00     0.200 A 
ATOM      7  O   UNL     1       7.664  18.377 166.274  1.00  0.00    -0.288 OA
ATOM      8  C   UNL     1       9.317  18.918 164.101  1.00  0.00     0.020 A 
ATOM      9  C   UNL     1      10.202  19.125 163.045  1.00  0.00     0.047 A 
ATOM     10  C   UNL     1      11.163  18.159 162.721  1.00  0.00     0.125 A 
ATOM     11  C   UNL     1      11.234  16.952 163.454  1.00  0.00     0.069 A 
ENDROOT
BRANCH   1  12
ATOM     12  C   UNL     1       7.737  16.005 167.822  1.00  0.00    -0.011 A 
ATOM     13  C   UNL     1       6.354  16.245 167.739  1.00  0.00     0.013 A 
ATOM     14  C   UNL     1       5.519  15.946 168.821  1.00  0.00     0.047 A 
ATOM     15  C   UNL     1       6.054  15.400 169.994  1.00  0.00     0.115 A 
ATOM     16  C   UNL     1       8.265  15.451 169.002  1.00  0.00     0.013 A 
ATOM     17  C   UNL     1       7.428  15.154 170.081  1.00  0.00     0.047 A 
BRANCH  15  18
ATOM     18  O   UNL     1       5.232  15.099 171.078  1.00  0.00    -0.508 OA
ATOM     19  H   UNL     1       5.603  15.025 172.019  1.00  0.00     0.293 HD
ENDBRANCH  15  18
ENDBRANCH   1  12
BRANCH  11  20
ATOM     20  C   UNL     1      12.291  15.906 163.122  1.00  0.00     0.188 C 
ATOM     21  C   UNL     1      13.662  16.345 163.680  1.00  0.00     0.179 C 
ATOM     22  O   UNL     1      12.338  15.728 161.713  1.00  0.00    -0.362 OA
ATOM     23  C   UNL     1      14.733  15.300 163.332  1.00  0.00     0.177 C 
ATOM     24  C   UNL     1      13.254  14.717 161.313  1.00  0.00     0.176 C 
ATOM     25  C   UNL     1      14.694  15.000 161.824  1.00  0.00     0.177 C 
BRANCH  21  26
ATOM     26  O   UNL     1      13.581  16.503 165.075  1.00  0.00    -0.387 OA
ATOM     27  H   UNL     1      12.681  16.872 165.269  1.00  0.00     0.211 HD
ENDBRANCH  21  26
BRANCH  23  28
ATOM     28  O   UNL     1      14.529  14.133 164.089  1.00  0.00    -0.387 OA
ATOM     29  H   UNL     1      13.547  14.001 164.160  1.00  0.00     0.211 HD
ENDBRANCH  23  28
BRANCH  24  30
ATOM     30  C   UNL     1      12.710  13.298 161.612  1.00  0.00     0.191 C 
BRANCH  30  31
ATOM     31  O   UNL     1      13.479  12.663 162.597  1.00  0.00    -0.394 OA
ATOM     32  H   UNL     1      13.569  11.713 162.321  1.00  0.00     0.210 HD
ENDBRANCH  30  31
ENDBRANCH  24  30
BRANCH  25  33
ATOM     33  O   UNL     1      15.564  13.939 161.521  1.00  0.00    -0.388 OA
ATOM     34  H   UNL     1      16.126  14.237 160.759  1.00  0.00     0.211 HD
ENDBRANCH  25  33
ENDBRANCH  11  20
BRANCH  10  35
ATOM     35  O   UNL     1      12.049  18.402 161.670  1.00  0.00    -0.507 OA
ATOM     36  H   UNL     1      12.275  19.343 161.370  1.00  0.00     0.293 HD
ENDBRANCH  10  35
TORSDOF 9
ENDMDL
MODEL 3
REMARK VINA RESULT:    -1.471      1.683      7.708
REMARK INTER + INTRA:          -1.873
REMARK INTER:                  -2.371
REMARK INTRA:                   0.498
REMARK UNBOUND:                 0.114
REMARK SMILES O=c1c(-c2ccc(O)cc2)coc2c([C@H]3O[C@H](CO)[C@H](O)[C@H](O)[C@@H]3O)c(O)ccc12
REMARK SMILES IDX 3 1 11 2 12 3 13 4 30 5 2 6 1 7 29 8 28 9 26 10 14 11 4 12
REMARK SMILES IDX 5 13 6 14 7 15 10 16 9 17 8 18 15 20 24 21 16 22 22 23 17 24
REMARK SMILES IDX 20 25 25 26 23 28 18 30 19 31 21 33 27 35
REMARK H PARENT 8 19 25 27 23 29 19 32 21 34 27 36
REMARK Flexibility Score: inf
ROOT
ATOM      1  C   UNL     1      12.194  15.528 164.027  1.00  0.00     0.065 A 
ATOM      2  C   UNL     1      11.383  14.902 164.985  1.00  0.00     0.208 A 
ATOM      3  O   UNL     1      10.264  15.474 165.410  1.00  0.00    -0.463 OA
ATOM      4  C   UNL     1       9.837  16.654 164.970  1.00  0.00     0.147 A 
ATOM      5  C   UNL     1      10.588  17.351 163.995  1.00  0.00     0.066 A 
ATOM      6  C   UNL     1      11.778  16.772 163.519  1.00  0.00     0.200 A 
ATOM      7  O   UNL     1      12.458  17.354 162.628  1.00  0.00    -0.288 OA
ATOM      8  C   UNL     1      10.128  18.588 163.518  1.00  0.00     0.020 A 
ATOM      9  C   UNL     1       8.933  19.125 163.996  1.00  0.00     0.047 A 
ATOM     10  C   UNL     1       8.181  18.443 164.960  1.00  0.00     0.125 A 
ATOM     11  C   UNL     1       8.635  17.206 165.473  1.00  0.00     0.069 A 
ENDROOT
BRANCH   1  12
ATOM     12  C   UNL     1      13.446  14.871 163.573  1.00  0.00    -0.011 A 
ATOM     13  C   UNL     1      13.485  13.484 163.344  1.00  0.00     0.013 A 
ATOM     14  C   UNL     1      14.665  12.873 162.908  1.00  0.00     0.047 A 
ATOM     15  C   UNL     1      15.816  13.640 162.690  1.00  0.00     0.115 A 
ATOM     16  C   UNL     1      14.604  15.634 163.345  1.00  0.00     0.013 A 
ATOM     17  C   UNL     1      15.782  15.021 162.909  1.00  0.00     0.047 A 
BRANCH  15  18
ATOM     18  O   UNL     1      16.997  13.042 162.255  1.00  0.00    -0.508 OA
ATOM     19  H   UNL     1      17.437  12.295 162.782  1.00  0.00     0.293 HD
ENDBRANCH  15  18
ENDBRANCH   1  12
BRANCH  11  20
ATOM     20  C   UNL     1       7.811  16.447 166.506  1.00  0.00     0.188 C 
ATOM     21  C   UNL     1       6.305  16.608 166.203  1.00  0.00     0.179 C 
ATOM     22  O   UNL     1       8.133  16.934 167.802  1.00  0.00    -0.362 OA
ATOM     23  C   UNL     1       5.472  15.858 167.253  1.00  0.00     0.177 C 
ATOM     24  C   UNL     1       7.459  16.234 168.840  1.00  0.00     0.176 C 
ATOM     25  C   UNL     1       5.915  16.280 168.665  1.00  0.00     0.177 C 
BRANCH  21  26
ATOM     26  O   UNL     1       6.022  16.110 164.919  1.00  0.00    -0.387 OA
ATOM     27  H   UNL     1       6.378  16.771 164.271  1.00  0.00     0.211 HD
ENDBRANCH  21  26
BRANCH  23  28
ATOM     28  O   UNL     1       5.606  14.471 167.070  1.00  0.00    -0.387 OA
ATOM     29  H   UNL     1       5.689  14.313 166.093  1.00  0.00     0.211 HD
ENDBRANCH  23  28
BRANCH  24  30
ATOM     30  C   UNL     1       8.060  14.826 169.069  1.00  0.00     0.191 C 
BRANCH  30  31
ATOM     31  O   UNL     1       9.178  14.618 168.248  1.00  0.00    -0.394 OA
ATOM     32  H   UNL     1       9.397  15.494 167.836  1.00  0.00     0.210 HD
ENDBRANCH  30  31
ENDBRANCH  24  30
BRANCH  25  33
ATOM     33  O   UNL     1       5.265  15.491 169.629  1.00  0.00    -0.388 OA
ATOM     34  H   UNL     1       4.333  15.363 169.314  1.00  0.00     0.211 HD
ENDBRANCH  25  33
ENDBRANCH  11  20
BRANCH  10  35
ATOM     35  O   UNL     1       6.978  18.995 165.405  1.00  0.00    -0.507 OA
ATOM     36  H   UNL     1       6.202  19.160 164.775  1.00  0.00     0.293 HD
ENDBRANCH  10  35
TORSDOF 9
ENDMDL
