MODEL 1
REMARK VINA RESULT:    -4.595      0.000      0.000
REMARK INTER + INTRA:          -5.521
REMARK INTER:                  -5.400
REMARK INTRA:                  -0.120
REMARK UNBOUND:                -0.120
REMARK SMILES O=C([O-])C=Cc1ccc(O)c(O)c1
REMARK SMILES IDX 6 1 13 2 7 3 11 4 8 5 9 6 5 7 4 8 2 9 1 10 3 11 12 12 10 14
REMARK H PARENT 12 13 10 15
REMARK Flexibility Score: inf
ROOT
ATOM      1  C   UNL     1       0.512   7.577   3.455  1.00  0.00    -0.022 A 
ATOM      2  C   UNL     1       0.729   8.609   2.521  1.00  0.00     0.058 A 
ATOM      3  C   UNL     1       0.772   6.251   3.071  1.00  0.00     0.012 A 
ATOM      4  C   UNL     1       1.218   8.324   1.240  1.00  0.00     0.157 A 
ATOM      5  C   UNL     1       1.262   5.963   1.794  1.00  0.00     0.051 A 
ATOM      6  C   UNL     1       1.490   6.995   0.876  1.00  0.00     0.157 A 
ENDROOT
BRANCH   1   7
ATOM      7  C   UNL     1      -0.016   7.830   4.818  1.00  0.00     0.010 C 
ATOM      8  C   UNL     1       0.505   8.731   5.663  1.00  0.00     0.025 C 
BRANCH   8   9
ATOM      9  C   UNL     1      -0.038   8.947   7.015  1.00  0.00     0.064 C 
ATOM     10  O   UNL     1      -1.175   9.463   7.186  1.00  0.00    -0.545 OA
ATOM     11  O   UNL     1       0.717   8.578   8.120  1.00  0.00    -0.545 OA
ENDBRANCH   8   9
ENDBRANCH   1   7
BRANCH   4  12
ATOM     12  O   UNL     1       1.423   9.372   0.344  1.00  0.00    -0.504 OA
ATOM     13  H   UNL     1       2.332   9.798   0.212  1.00  0.00     0.293 HD
ENDBRANCH   4  12
BRANCH   6  14
ATOM     14  O   UNL     1       1.980   6.704  -0.397  1.00  0.00    -0.504 OA
ATOM     15  H   UNL     1       2.574   7.353  -0.899  1.00  0.00     0.293 HD
ENDBRANCH   6  14
TORSDOF 4
ENDMDL
MODEL 2
REMARK VINA RESULT:    -4.467      0.906      0.958
REMARK INTER + INTRA:          -5.370
REMARK INTER:                  -5.223
REMARK INTRA:                  -0.148
REMARK UNBOUND:                -0.120
REMARK SMILES O=C([O-])C=Cc1ccc(O)c(O)c1
REMARK SMILES IDX 6 1 13 2 7 3 11 4 8 5 9 6 5 7 4 8 2 9 1 10 3 11 12 12 10 14
REMARK H PARENT 12 13 10 15
REMARK Flexibility Score: inf
ROOT
ATOM      1  C   UNL     1       1.356   7.670   3.144  1.00  0.00    -0.022 A 
ATOM      2  C   UNL     1       1.947   8.335   2.051  1.00  0.00     0.058 A 
ATOM      3  C   UNL     1       0.817   6.389   2.945  1.00  0.00     0.012 A 
ATOM      4  C   UNL     1       2.020   7.721   0.795  1.00  0.00     0.157 A 
ATOM      5  C   UNL     1       0.889   5.772   1.694  1.00  0.00     0.051 A 
ATOM      6  C   UNL     1       1.492   6.432   0.615  1.00  0.00     0.157 A 
ENDROOT
BRANCH   1   7
ATOM      7  C   UNL     1       1.245   8.286   4.489  1.00  0.00     0.010 C 
ATOM      8  C   UNL     1       0.300   7.958   5.383  1.00  0.00     0.025 C 
BRANCH   8   9
ATOM      9  C   UNL     1       0.214   8.599   6.706  1.00  0.00     0.064 C 
ATOM     10  O   UNL     1      -0.838   9.183   7.080  1.00  0.00    -0.545 OA
ATOM     11  O   UNL     1       1.312   8.561   7.555  1.00  0.00    -0.545 OA
ENDBRANCH   8   9
ENDBRANCH   1   7
BRANCH   4  12
ATOM     12  O   UNL     1       2.615   8.409  -0.262  1.00  0.00    -0.504 OA
ATOM     13  H   UNL     1       3.375   8.013  -0.801  1.00  0.00     0.293 HD
ENDBRANCH   4  12
BRANCH   6  14
ATOM     14  O   UNL     1       1.564   5.813  -0.632  1.00  0.00    -0.504 OA
ATOM     15  H   UNL     1       1.758   4.824  -0.723  1.00  0.00     0.293 HD
ENDBRANCH   6  14
TORSDOF 4
ENDMDL
MODEL 3
REMARK VINA RESULT:    -4.248      4.830      6.843
REMARK INTER + INTRA:          -5.114
REMARK INTER:                  -4.967
REMARK INTRA:                  -0.146
REMARK UNBOUND:                -0.120
REMARK SMILES O=C([O-])C=Cc1ccc(O)c(O)c1
REMARK SMILES IDX 6 1 13 2 7 3 11 4 8 5 9 6 5 7 4 8 2 9 1 10 3 11 12 12 10 14
REMARK H PARENT 12 13 10 15
REMARK Flexibility Score: inf
ROOT
ATOM      1  C   UNL     1       5.110   5.863   2.044  1.00  0.00    -0.022 A 
ATOM      2  C   UNL     1       6.143   4.928   1.835  1.00  0.00     0.058 A 
ATOM      3  C   UNL     1       5.149   6.670   3.192  1.00  0.00     0.012 A 
ATOM      4  C   UNL     1       7.204   4.821   2.742  1.00  0.00     0.157 A 
ATOM      5  C   UNL     1       6.208   6.568   4.099  1.00  0.00     0.051 A 
ATOM      6  C   UNL     1       7.240   5.647   3.877  1.00  0.00     0.157 A 
ENDROOT
BRANCH   1   7
ATOM      7  C   UNL     1       3.960   6.003   1.117  1.00  0.00     0.010 C 
ATOM      8  C   UNL     1       2.709   6.276   1.517  1.00  0.00     0.025 C 
BRANCH   8   9
ATOM      9  C   UNL     1       1.589   6.397   0.569  1.00  0.00     0.064 C 
ATOM     10  O   UNL     1       1.540   5.693  -0.475  1.00  0.00    -0.545 OA
ATOM     11  O   UNL     1       0.570   7.303   0.829  1.00  0.00    -0.545 OA
ENDBRANCH   8   9
ENDBRANCH   1   7
BRANCH   4  12
ATOM     12  O   UNL     1       8.210   3.886   2.501  1.00  0.00    -0.504 OA
ATOM     13  H   UNL     1       8.827   3.558   3.234  1.00  0.00     0.293 HD
ENDBRANCH   4  12
BRANCH   6  14
ATOM     14  O   UNL     1       8.295   5.548   4.783  1.00  0.00    -0.504 OA
ATOM     15  H   UNL     1       9.221   5.892   4.560  1.00  0.00     0.293 HD
ENDBRANCH   6  14
TORSDOF 4
ENDMDL
MODEL 4
REMARK VINA RESULT:    -4.121      4.335      5.404
REMARK INTER + INTRA:          -4.964
REMARK INTER:                  -4.842
REMARK INTRA:                  -0.122
REMARK UNBOUND:                -0.120
REMARK SMILES O=C([O-])C=Cc1ccc(O)c(O)c1
REMARK SMILES IDX 6 1 13 2 7 3 11 4 8 5 9 6 5 7 4 8 2 9 1 10 3 11 12 12 10 14
REMARK H PARENT 12 13 10 15
REMARK Flexibility Score: inf
ROOT
ATOM      1  C   UNL     1       4.579   6.373   2.353  1.00  0.00    -0.022 A 
ATOM      2  C   UNL     1       5.060   6.079   1.062  1.00  0.00     0.058 A 
ATOM      3  C   UNL     1       5.354   6.005   3.465  1.00  0.00     0.012 A 
ATOM      4  C   UNL     1       6.300   5.454   0.887  1.00  0.00     0.157 A 
ATOM      5  C   UNL     1       6.592   5.382   3.294  1.00  0.00     0.051 A 
ATOM      6  C   UNL     1       7.072   5.106   2.007  1.00  0.00     0.157 A 
ENDROOT
BRANCH   1   7
ATOM      7  C   UNL     1       3.266   7.024   2.588  1.00  0.00     0.010 C 
ATOM      8  C   UNL     1       2.087   6.410   2.406  1.00  0.00     0.025 C 
BRANCH   8   9
ATOM      9  C   UNL     1       0.802   7.091   2.637  1.00  0.00     0.064 C 
ATOM     10  O   UNL     1       0.388   7.986   1.853  1.00  0.00    -0.545 OA
ATOM     11  O   UNL     1       0.035   6.743   3.741  1.00  0.00    -0.545 OA
ENDBRANCH   8   9
ENDBRANCH   1   7
BRANCH   4  12
ATOM     12  O   UNL     1       6.745   5.182  -0.406  1.00  0.00    -0.504 OA
ATOM     13  H   UNL     1       7.558   4.605  -0.585  1.00  0.00     0.293 HD
ENDBRANCH   4  12
BRANCH   6  14
ATOM     14  O   UNL     1       8.310   4.486   1.840  1.00  0.00    -0.504 OA
ATOM     15  H   UNL     1       8.385   3.528   1.519  1.00  0.00     0.293 HD
ENDBRANCH   6  14
TORSDOF 4
ENDMDL
MODEL 5
REMARK VINA RESULT:    -4.064      4.752      6.311
REMARK INTER + INTRA:          -4.898
REMARK INTER:                  -4.760
REMARK INTRA:                  -0.137
REMARK UNBOUND:                -0.120
REMARK SMILES O=C([O-])C=Cc1ccc(O)c(O)c1
REMARK SMILES IDX 6 1 13 2 7 3 11 4 8 5 9 6 5 7 4 8 2 9 1 10 3 11 12 12 10 14
REMARK H PARENT 12 13 10 15
REMARK Flexibility Score: inf
ROOT
ATOM      1  C   UNL     1       5.076   6.071   1.729  1.00  0.00    -0.022 A 
ATOM      2  C   UNL     1       5.851   5.161   2.475  1.00  0.00     0.058 A 
ATOM      3  C   UNL     1       5.655   6.700   0.615  1.00  0.00     0.012 A 
ATOM      4  C   UNL     1       7.167   4.868   2.100  1.00  0.00     0.157 A 
ATOM      5  C   UNL     1       6.968   6.409   0.237  1.00  0.00     0.051 A 
ATOM      6  C   UNL     1       7.728   5.492   0.974  1.00  0.00     0.157 A 
ENDROOT
BRANCH   1   7
ATOM      7  C   UNL     1       3.681   6.421   2.096  1.00  0.00     0.010 C 
ATOM      8  C   UNL     1       2.647   6.351   1.245  1.00  0.00     0.025 C 
BRANCH   8   9
ATOM      9  C   UNL     1       1.277   6.718   1.640  1.00  0.00     0.064 C 
ATOM     10  O   UNL     1       0.600   7.538   0.964  1.00  0.00    -0.545 OA
ATOM     11  O   UNL     1       0.721   6.153   2.780  1.00  0.00    -0.545 OA
ENDBRANCH   8   9
ENDBRANCH   1   7
BRANCH   4  12
ATOM     12  O   UNL     1       7.903   3.960   2.860  1.00  0.00    -0.504 OA
ATOM     13  H   UNL     1       7.772   3.865   3.860  1.00  0.00     0.293 HD
ENDBRANCH   4  12
BRANCH   6  14
ATOM     14  O   UNL     1       9.038   5.203   0.592  1.00  0.00    -0.504 OA
ATOM     15  H   UNL     1       9.659   4.669   1.188  1.00  0.00     0.293 HD
ENDBRANCH   6  14
TORSDOF 4
ENDMDL
MODEL 6
REMARK VINA RESULT:    -4.057      3.403      6.188
REMARK INTER + INTRA:          -4.889
REMARK INTER:                  -4.762
REMARK INTRA:                  -0.127
REMARK UNBOUND:                -0.120
REMARK SMILES O=C([O-])C=Cc1ccc(O)c(O)c1
REMARK SMILES IDX 6 1 13 2 7 3 11 4 8 5 9 6 5 7 4 8 2 9 1 10 3 11 12 12 10 14
REMARK H PARENT 12 13 10 15
REMARK Flexibility Score: inf
ROOT
ATOM      1  C   UNL     1       3.128   6.784   2.255  1.00  0.00    -0.022 A 
ATOM      2  C   UNL     1       3.164   7.591   3.409  1.00  0.00     0.058 A 
ATOM      3  C   UNL     1       1.909   6.197   1.876  1.00  0.00     0.012 A 
ATOM      4  C   UNL     1       2.001   7.826   4.153  1.00  0.00     0.157 A 
ATOM      5  C   UNL     1       0.747   6.432   2.615  1.00  0.00     0.051 A 
ATOM      6  C   UNL     1       0.786   7.248   3.753  1.00  0.00     0.157 A 
ENDROOT
BRANCH   1   7
ATOM      7  C   UNL     1       4.336   6.496   1.442  1.00  0.00     0.010 C 
ATOM      8  C   UNL     1       5.309   5.656   1.825  1.00  0.00     0.025 C 
BRANCH   8   9
ATOM      9  C   UNL     1       6.500   5.404   0.998  1.00  0.00     0.064 C 
ATOM     10  O   UNL     1       6.424   5.363  -0.259  1.00  0.00    -0.545 OA
ATOM     11  O   UNL     1       7.729   5.207   1.613  1.00  0.00    -0.545 OA
ENDBRANCH   8   9
ENDBRANCH   1   7
BRANCH   4  12
ATOM     12  O   UNL     1       2.075   8.633   5.288  1.00  0.00    -0.504 OA
ATOM     13  H   UNL     1       2.957   8.860   5.731  1.00  0.00     0.293 HD
ENDBRANCH   4  12
BRANCH   6  14
ATOM     14  O   UNL     1      -0.376   7.481   4.487  1.00  0.00    -0.504 OA
ATOM     15  H   UNL     1      -0.638   6.891   5.268  1.00  0.00     0.293 HD
ENDBRANCH   6  14
TORSDOF 4
ENDMDL
MODEL 7
REMARK VINA RESULT:    -4.045      2.444      5.996
REMARK INTER + INTRA:          -4.875
REMARK INTER:                  -4.752
REMARK INTRA:                  -0.123
REMARK UNBOUND:                -0.120
REMARK SMILES O=C([O-])C=Cc1ccc(O)c(O)c1
REMARK SMILES IDX 6 1 13 2 7 3 11 4 8 5 9 6 5 7 4 8 2 9 1 10 3 11 12 12 10 14
REMARK H PARENT 12 13 10 15
REMARK Flexibility Score: inf
ROOT
ATOM      1  C   UNL     1       2.136   7.136   3.152  1.00  0.00    -0.022 A 
ATOM      2  C   UNL     1       2.682   7.793   4.272  1.00  0.00     0.058 A 
ATOM      3  C   UNL     1       0.748   6.930   3.098  1.00  0.00     0.012 A 
ATOM      4  C   UNL     1       1.855   8.256   5.303  1.00  0.00     0.157 A 
ATOM      5  C   UNL     1      -0.081   7.392   4.123  1.00  0.00     0.051 A 
ATOM      6  C   UNL     1       0.467   8.059   5.227  1.00  0.00     0.157 A 
ENDROOT
BRANCH   1   7
ATOM      7  C   UNL     1       2.974   6.617   2.043  1.00  0.00     0.010 C 
ATOM      8  C   UNL     1       4.309   6.506   2.107  1.00  0.00     0.025 C 
BRANCH   8   9
ATOM      9  C   UNL     1       5.110   5.998   0.981  1.00  0.00     0.064 C 
ATOM     10  O   UNL     1       5.322   4.765   0.834  1.00  0.00    -0.545 OA
ATOM     11  O   UNL     1       5.644   6.895   0.064  1.00  0.00    -0.545 OA
ENDBRANCH   8   9
ENDBRANCH   1   7
BRANCH   4  12
ATOM     12  O   UNL     1       2.431   8.905   6.394  1.00  0.00    -0.504 OA
ATOM     13  H   UNL     1       2.820   9.838   6.322  1.00  0.00     0.293 HD
ENDBRANCH   4  12
BRANCH   6  14
ATOM     14  O   UNL     1      -0.364   8.520   6.248  1.00  0.00    -0.504 OA
ATOM     15  H   UNL     1      -1.313   8.183   6.354  1.00  0.00     0.293 HD
ENDBRANCH   6  14
TORSDOF 4
ENDMDL
MODEL 8
REMARK VINA RESULT:    -3.984      1.517      5.990
REMARK INTER + INTRA:          -4.804
REMARK INTER:                  -4.661
REMARK INTRA:                  -0.142
REMARK UNBOUND:                -0.120
REMARK SMILES O=C([O-])C=Cc1ccc(O)c(O)c1
REMARK SMILES IDX 6 1 13 2 7 3 11 4 8 5 9 6 5 7 4 8 2 9 1 10 3 11 12 12 10 14
REMARK H PARENT 12 13 10 15
REMARK Flexibility Score: inf
ROOT
ATOM      1  C   UNL     1       0.834   7.464   3.994  1.00  0.00    -0.022 A 
ATOM      2  C   UNL     1       1.303   7.276   5.309  1.00  0.00     0.058 A 
ATOM      3  C   UNL     1      -0.030   8.540   3.731  1.00  0.00     0.012 A 
ATOM      4  C   UNL     1       0.937   8.158   6.332  1.00  0.00     0.157 A 
ATOM      5  C   UNL     1      -0.396   9.424   4.749  1.00  0.00     0.051 A 
ATOM      6  C   UNL     1       0.087   9.240   6.051  1.00  0.00     0.157 A 
ENDROOT
BRANCH   1   7
ATOM      7  C   UNL     1       1.186   6.548   2.881  1.00  0.00     0.010 C 
ATOM      8  C   UNL     1       1.411   6.956   1.623  1.00  0.00     0.025 C 
BRANCH   8   9
ATOM      9  C   UNL     1       1.746   6.016   0.541  1.00  0.00     0.064 C 
ATOM     10  O   UNL     1       2.924   5.598   0.381  1.00  0.00    -0.545 OA
ATOM     11  O   UNL     1       0.748   5.585  -0.322  1.00  0.00    -0.545 OA
ENDBRANCH   8   9
ENDBRANCH   1   7
BRANCH   4  12
ATOM     12  O   UNL     1       1.424   7.942   7.620  1.00  0.00    -0.504 OA
ATOM     13  H   UNL     1       0.809   7.761   8.405  1.00  0.00     0.293 HD
ENDBRANCH   4  12
BRANCH   6  14
ATOM     14  O   UNL     1      -0.280  10.125   7.064  1.00  0.00    -0.504 OA
ATOM     15  H   UNL     1      -0.285  11.127   6.918  1.00  0.00     0.293 HD
ENDBRANCH   6  14
TORSDOF 4
ENDMDL
MODEL 9
REMARK VINA RESULT:    -3.903     14.617     15.599
REMARK INTER + INTRA:          -4.708
REMARK INTER:                  -4.559
REMARK INTRA:                  -0.149
REMARK UNBOUND:                -0.120
REMARK SMILES O=C([O-])C=Cc1ccc(O)c(O)c1
REMARK SMILES IDX 6 1 13 2 7 3 11 4 8 5 9 6 5 7 4 8 2 9 1 10 3 11 12 12 10 14
REMARK H PARENT 12 13 10 15
REMARK Flexibility Score: inf
ROOT
ATOM      1  C   UNL     1      -3.990   2.269  -9.747  1.00  0.00    -0.022 A 
ATOM      2  C   UNL     1      -2.651   2.593  -9.452  1.00  0.00     0.058 A 
ATOM      3  C   UNL     1      -4.325   0.927  -9.988  1.00  0.00     0.012 A 
ATOM      4  C   UNL     1      -1.674   1.593  -9.376  1.00  0.00     0.157 A 
ATOM      5  C   UNL     1      -3.353  -0.074  -9.912  1.00  0.00     0.051 A 
ATOM      6  C   UNL     1      -2.027   0.252  -9.603  1.00  0.00     0.157 A 
ENDROOT
BRANCH   1   7
ATOM      7  C   UNL     1      -5.057   3.296  -9.850  1.00  0.00     0.010 C 
ATOM      8  C   UNL     1      -6.351   3.054  -9.594  1.00  0.00     0.025 C 
BRANCH   8   9
ATOM      9  C   UNL     1      -7.384   4.095  -9.719  1.00  0.00     0.064 C 
ATOM     10  O   UNL     1      -7.098   5.253 -10.124  1.00  0.00    -0.545 OA
ATOM     11  O   UNL     1      -8.697   3.796  -9.381  1.00  0.00    -0.545 OA
ENDBRANCH   8   9
ENDBRANCH   1   7
BRANCH   4  12
ATOM     12  O   UNL     1      -0.360   1.950  -9.078  1.00  0.00    -0.504 OA
ATOM     13  H   UNL     1       0.387   1.871  -9.758  1.00  0.00     0.293 HD
ENDBRANCH   4  12
BRANCH   6  14
ATOM     14  O   UNL     1      -1.059  -0.749  -9.525  1.00  0.00    -0.504 OA
ATOM     15  H   UNL     1      -0.599  -0.977  -8.653  1.00  0.00     0.293 HD
ENDBRANCH   6  14
TORSDOF 4
ENDMDL
