MODEL 1
REMARK VINA RESULT:    -7.416      0.000      0.000
REMARK INTER + INTRA:         -11.948
REMARK INTER:                 -10.884
REMARK INTRA:                  -1.064
REMARK UNBOUND:                -1.064
REMARK SMILES Cc1cc2c(C(C)C)c(O)c(O)c(C=O)c2c(O)c1-c1c(C)cc2c(C(C)C)c(O)c(O)c(C=O)c2c1O
REMARK SMILES IDX 1 1 2 2 3 3 4 4 16 5 13 6 11 7 9 8 5 9 17 10 19 11 20 12
REMARK SMILES IDX 37 13 21 14 36 15 23 16 22 17 24 18 33 19 25 20 31 21 29 22
REMARK SMILES IDX 38 23 34 25 35 26 26 27 27 28 28 29 32 30 30 32 18 34 6 36
REMARK SMILES IDX 7 37 8 38 14 39 15 40 10 41 12 43
REMARK H PARENT 38 24 32 31 30 33 18 35 10 42 12 44
REMARK Flexibility Score: inf
ROOT
ATOM      1  C   UNL     1      21.421 -27.036  26.079  1.00  0.00     0.045 C 
ATOM      2  C   UNL     1      21.921 -26.064  25.038  1.00  0.00    -0.039 A 
ATOM      3  C   UNL     1      21.849 -26.411  23.688  1.00  0.00     0.013 A 
ATOM      4  C   UNL     1      22.262 -25.527  22.666  1.00  0.00    -0.006 A 
ATOM      5  C   UNL     1      22.841 -24.274  23.034  1.00  0.00     0.039 A 
ATOM      6  C   UNL     1      23.308 -23.403  22.004  1.00  0.00     0.072 A 
ATOM      7  C   UNL     1      23.362 -23.860  20.673  1.00  0.00     0.169 A 
ATOM      8  C   UNL     1      22.823 -25.103  20.328  1.00  0.00     0.162 A 
ATOM      9  C   UNL     1      22.145 -25.888  21.287  1.00  0.00     0.008 A 
ATOM     10  C   UNL     1      22.984 -23.958  24.418  1.00  0.00     0.132 A 
ATOM     11  C   UNL     1      22.499 -24.838  25.408  1.00  0.00     0.031 A 
ENDROOT
BRANCH  11  12
ATOM     12  C   UNL     1      22.633 -24.491  26.847  1.00  0.00     0.031 A 
ATOM     13  C   UNL     1      21.614 -23.763  27.499  1.00  0.00     0.132 A 
ATOM     14  C   UNL     1      23.761 -24.920  27.566  1.00  0.00    -0.039 A 
ATOM     15  C   UNL     1      21.745 -23.407  28.875  1.00  0.00     0.039 A 
ATOM     16  C   UNL     1      23.857 -24.636  28.929  1.00  0.00     0.013 A 
ATOM     17  C   UNL     1      24.851 -25.722  26.898  1.00  0.00     0.045 C 
ATOM     18  C   UNL     1      22.891 -23.855  29.601  1.00  0.00    -0.006 A 
ATOM     19  C   UNL     1      20.741 -22.665  29.565  1.00  0.00     0.072 A 
ATOM     20  C   UNL     1      23.028 -23.543  30.990  1.00  0.00     0.008 A 
ATOM     21  C   UNL     1      20.800 -22.543  30.967  1.00  0.00     0.169 A 
ATOM     22  C   UNL     1      21.913 -23.010  31.672  1.00  0.00     0.162 A 
BRANCH  13  23
ATOM     23  O   UNL     1      20.453 -23.432  26.791  1.00  0.00    -0.507 OA
ATOM     24  H   UNL     1      20.155 -22.483  26.604  1.00  0.00     0.293 HD
ENDBRANCH  13  23
BRANCH  19  25
ATOM     25  C   UNL     1      19.642 -21.973  28.860  1.00  0.00     0.264 C 
ATOM     26  O   UNL     1      19.841 -20.852  28.318  1.00  0.00    -0.298 OA
ENDBRANCH  19  25
BRANCH  20  27
ATOM     27  C   UNL     1      24.335 -23.810  31.758  1.00  0.00     0.017 C 
ATOM     28  C   UNL     1      25.445 -22.864  31.289  1.00  0.00     0.012 C 
ATOM     29  C   UNL     1      24.796 -25.279  31.712  1.00  0.00     0.012 C 
ENDBRANCH  20  27
BRANCH  21  30
ATOM     30  O   UNL     1      19.773 -21.926  31.693  1.00  0.00    -0.504 OA
ATOM     31  H   UNL     1      19.903 -21.109  32.275  1.00  0.00     0.293 HD
ENDBRANCH  21  30
BRANCH  22  32
ATOM     32  O   UNL     1      21.917 -22.939  33.067  1.00  0.00    -0.504 OA
ATOM     33  H   UNL     1      21.851 -22.065  33.575  1.00  0.00     0.293 HD
ENDBRANCH  22  32
ENDBRANCH  11  12
BRANCH  10  34
ATOM     34  O   UNL     1      23.645 -22.789  24.810  1.00  0.00    -0.507 OA
ATOM     35  H   UNL     1      23.192 -22.006  25.265  1.00  0.00     0.293 HD
ENDBRANCH  10  34
BRANCH   9  36
ATOM     36  C   UNL     1      21.339 -27.118  20.833  1.00  0.00     0.017 C 
ATOM     37  C   UNL     1      19.837 -26.819  20.840  1.00  0.00     0.012 C 
ATOM     38  C   UNL     1      21.659 -28.400  21.626  1.00  0.00     0.012 C 
ENDBRANCH   9  36
BRANCH   6  39
ATOM     39  C   UNL     1      23.707 -22.006  22.270  1.00  0.00     0.264 C 
ATOM     40  O   UNL     1      24.922 -21.710  22.422  1.00  0.00    -0.298 OA
ENDBRANCH   6  39
BRANCH   8  41
ATOM     41  O   UNL     1      22.952 -25.563  19.016  1.00  0.00    -0.504 OA
ATOM     42  H   UNL     1      23.592 -25.153  18.348  1.00  0.00     0.293 HD
ENDBRANCH   8  41
BRANCH   7  43
ATOM     43  O   UNL     1      23.925 -23.083  19.653  1.00  0.00    -0.504 OA
ATOM     44  H   UNL     1      23.523 -22.221  19.310  1.00  0.00     0.293 HD
ENDBRANCH   7  43
TORSDOF 11
ENDMDL
MODEL 2
REMARK VINA RESULT:    -7.383      0.111      8.873
REMARK INTER + INTRA:         -11.900
REMARK INTER:                 -10.823
REMARK INTRA:                  -1.077
REMARK UNBOUND:                -1.064
REMARK SMILES Cc1cc2c(C(C)C)c(O)c(O)c(C=O)c2c(O)c1-c1c(C)cc2c(C(C)C)c(O)c(O)c(C=O)c2c1O
REMARK SMILES IDX 1 1 2 2 3 3 4 4 16 5 13 6 11 7 9 8 5 9 17 10 19 11 20 12
REMARK SMILES IDX 37 13 21 14 36 15 23 16 22 17 24 18 33 19 25 20 31 21 29 22
REMARK SMILES IDX 38 23 34 25 35 26 26 27 27 28 28 29 32 30 30 32 18 34 6 36
REMARK SMILES IDX 7 37 8 38 14 39 15 40 10 41 12 43
REMARK H PARENT 38 24 32 31 30 33 18 35 10 42 12 44
REMARK Flexibility Score: inf
ROOT
ATOM      1  C   UNL     1      24.801 -25.681  26.896  1.00  0.00     0.045 C 
ATOM      2  C   UNL     1      23.703 -24.866  27.538  1.00  0.00    -0.039 A 
ATOM      3  C   UNL     1      23.781 -24.568  28.899  1.00  0.00     0.013 A 
ATOM      4  C   UNL     1      22.807 -23.776  29.547  1.00  0.00    -0.006 A 
ATOM      5  C   UNL     1      21.672 -23.334  28.800  1.00  0.00     0.039 A 
ATOM      6  C   UNL     1      20.661 -22.580  29.466  1.00  0.00     0.072 A 
ATOM      7  C   UNL     1      20.701 -22.441  30.868  1.00  0.00     0.169 A 
ATOM      8  C   UNL     1      21.801 -22.906  31.594  1.00  0.00     0.162 A 
ATOM      9  C   UNL     1      22.924 -23.451  30.935  1.00  0.00     0.008 A 
ATOM     10  C   UNL     1      21.560 -23.708  27.427  1.00  0.00     0.132 A 
ATOM     11  C   UNL     1      22.586 -24.445  26.799  1.00  0.00     0.031 A 
ENDROOT
BRANCH  11  12
ATOM     12  C   UNL     1      22.470 -24.812  25.363  1.00  0.00     0.031 A 
ATOM     13  C   UNL     1      22.974 -23.948  24.367  1.00  0.00     0.132 A 
ATOM     14  C   UNL     1      21.890 -26.039  25.002  1.00  0.00    -0.039 A 
ATOM     15  C   UNL     1      22.847 -24.283  22.985  1.00  0.00     0.039 A 
ATOM     16  C   UNL     1      21.830 -26.402  23.655  1.00  0.00     0.013 A 
ATOM     17  C   UNL     1      21.368 -26.992  26.050  1.00  0.00     0.045 C 
ATOM     18  C   UNL     1      22.263 -25.537  22.627  1.00  0.00    -0.006 A 
ATOM     19  C   UNL     1      23.336 -23.431  21.950  1.00  0.00     0.072 A 
ATOM     20  C   UNL     1      22.159 -25.912  21.251  1.00  0.00     0.008 A 
ATOM     21  C   UNL     1      23.404 -23.905  20.627  1.00  0.00     0.169 A 
ATOM     22  C   UNL     1      22.855 -25.147  20.290  1.00  0.00     0.162 A 
BRANCH  13  23
ATOM     23  O   UNL     1      23.638 -22.777  24.753  1.00  0.00    -0.507 OA
ATOM     24  H   UNL     1      23.385 -22.224  25.562  1.00  0.00     0.293 HD
ENDBRANCH  13  23
BRANCH  19  25
ATOM     25  C   UNL     1      23.745 -22.034  22.202  1.00  0.00     0.264 C 
ATOM     26  O   UNL     1      24.964 -21.745  22.346  1.00  0.00    -0.298 OA
ENDBRANCH  19  25
BRANCH  20  27
ATOM     27  C   UNL     1      21.347 -27.142  20.804  1.00  0.00     0.017 C 
ATOM     28  C   UNL     1      19.846 -26.837  20.816  1.00  0.00     0.012 C 
ATOM     29  C   UNL     1      21.665 -28.421  21.600  1.00  0.00     0.012 C 
ENDBRANCH  20  27
BRANCH  21  30
ATOM     30  O   UNL     1      23.986 -23.146  19.604  1.00  0.00    -0.504 OA
ATOM     31  H   UNL     1      23.657 -23.137  18.648  1.00  0.00     0.293 HD
ENDBRANCH  21  30
BRANCH  22  32
ATOM     32  O   UNL     1      22.995 -25.625  18.986  1.00  0.00    -0.504 OA
ATOM     33  H   UNL     1      22.213 -25.735  18.351  1.00  0.00     0.293 HD
ENDBRANCH  22  32
ENDBRANCH  11  12
BRANCH  10  34
ATOM     34  O   UNL     1      20.409 -23.384  26.700  1.00  0.00    -0.507 OA
ATOM     35  H   UNL     1      19.822 -22.583  26.896  1.00  0.00     0.293 HD
ENDBRANCH  10  34
BRANCH   9  36
ATOM     36  C   UNL     1      24.218 -23.713  31.725  1.00  0.00     0.017 C 
ATOM     37  C   UNL     1      25.327 -22.749  31.293  1.00  0.00     0.012 C 
ATOM     38  C   UNL     1      24.697 -25.177  31.671  1.00  0.00     0.012 C 
ENDBRANCH   9  36
BRANCH   6  39
ATOM     39  C   UNL     1      19.576 -21.891  28.736  1.00  0.00     0.264 C 
ATOM     40  O   UNL     1      19.787 -20.778  28.186  1.00  0.00    -0.298 OA
ENDBRANCH   6  39
BRANCH   8  41
ATOM     41  O   UNL     1      21.784 -22.820  32.988  1.00  0.00    -0.504 OA
ATOM     42  H   UNL     1      20.935 -22.887  33.535  1.00  0.00     0.293 HD
ENDBRANCH   8  41
BRANCH   7  43
ATOM     43  O   UNL     1      19.666 -21.812  31.571  1.00  0.00    -0.504 OA
ATOM     44  H   UNL     1      18.690 -21.866  31.313  1.00  0.00     0.293 HD
ENDBRANCH   7  43
TORSDOF 11
ENDMDL
MODEL 3
REMARK VINA RESULT:    -7.345      1.571      2.960
REMARK INTER + INTRA:         -11.845
REMARK INTER:                 -10.653
REMARK INTRA:                  -1.191
REMARK UNBOUND:                -1.064
REMARK SMILES Cc1cc2c(C(C)C)c(O)c(O)c(C=O)c2c(O)c1-c1c(C)cc2c(C(C)C)c(O)c(O)c(C=O)c2c1O
REMARK SMILES IDX 1 1 2 2 3 3 4 4 16 5 13 6 11 7 9 8 5 9 17 10 19 11 20 12
REMARK SMILES IDX 37 13 21 14 36 15 23 16 22 17 24 18 33 19 25 20 31 21 29 22
REMARK SMILES IDX 38 23 34 25 35 26 26 27 27 28 28 29 32 30 30 32 18 34 6 36
REMARK SMILES IDX 7 37 8 38 14 39 15 40 10 41 12 43
REMARK H PARENT 38 24 32 31 30 33 18 35 10 42 12 44
REMARK Flexibility Score: inf
ROOT
ATOM      1  C   UNL     1      21.357 -26.950  26.277  1.00  0.00     0.045 C 
ATOM      2  C   UNL     1      21.875 -25.984  25.238  1.00  0.00    -0.039 A 
ATOM      3  C   UNL     1      21.928 -26.382  23.902  1.00  0.00     0.013 A 
ATOM      4  C   UNL     1      22.364 -25.510  22.879  1.00  0.00    -0.006 A 
ATOM      5  C   UNL     1      22.835 -24.210  23.239  1.00  0.00     0.039 A 
ATOM      6  C   UNL     1      23.326 -23.348  22.213  1.00  0.00     0.072 A 
ATOM      7  C   UNL     1      23.510 -23.846  20.909  1.00  0.00     0.169 A 
ATOM      8  C   UNL     1      23.076 -25.133  20.575  1.00  0.00     0.162 A 
ATOM      9  C   UNL     1      22.376 -25.925  21.510  1.00  0.00     0.008 A 
ATOM     10  C   UNL     1      22.851 -23.837  24.616  1.00  0.00     0.132 A 
ATOM     11  C   UNL     1      22.346 -24.711  25.601  1.00  0.00     0.031 A 
ENDROOT
BRANCH  11  12
ATOM     12  C   UNL     1      22.348 -24.306  27.032  1.00  0.00     0.031 A 
ATOM     13  C   UNL     1      23.419 -24.678  27.873  1.00  0.00     0.132 A 
ATOM     14  C   UNL     1      21.298 -23.521  27.535  1.00  0.00    -0.039 A 
ATOM     15  C   UNL     1      23.417 -24.312  29.252  1.00  0.00     0.039 A 
ATOM     16  C   UNL     1      21.330 -23.099  28.866  1.00  0.00     0.013 A 
ATOM     17  C   UNL     1      20.155 -23.088  26.649  1.00  0.00     0.045 C 
ATOM     18  C   UNL     1      22.350 -23.506  29.754  1.00  0.00    -0.006 A 
ATOM     19  C   UNL     1      24.477 -24.677  30.135  1.00  0.00     0.072 A 
ATOM     20  C   UNL     1      22.344 -23.094  31.124  1.00  0.00     0.008 A 
ATOM     21  C   UNL     1      24.552 -24.098  31.417  1.00  0.00     0.169 A 
ATOM     22  C   UNL     1      23.515 -23.287  31.889  1.00  0.00     0.162 A 
BRANCH  13  23
ATOM     23  O   UNL     1      24.503 -25.374  27.327  1.00  0.00    -0.507 OA
ATOM     24  H   UNL     1      24.470 -26.348  27.053  1.00  0.00     0.293 HD
ENDBRANCH  13  23
BRANCH  19  25
ATOM     25  C   UNL     1      25.497 -25.683  29.774  1.00  0.00     0.264 C 
ATOM     26  O   UNL     1      26.675 -25.325  29.505  1.00  0.00    -0.298 OA
ENDBRANCH  19  25
BRANCH  20  27
ATOM     27  C   UNL     1      21.119 -22.416  31.764  1.00  0.00     0.017 C 
ATOM     28  C   UNL     1      21.325 -20.902  31.865  1.00  0.00     0.012 C 
ATOM     29  C   UNL     1      20.712 -23.018  33.122  1.00  0.00     0.012 C 
ENDBRANCH  20  27
BRANCH  21  30
ATOM     30  O   UNL     1      25.637 -24.337  32.267  1.00  0.00    -0.504 OA
ATOM     31  H   UNL     1      26.605 -24.304  31.974  1.00  0.00     0.293 HD
ENDBRANCH  21  30
BRANCH  22  32
ATOM     32  O   UNL     1      23.644 -22.670  33.134  1.00  0.00    -0.504 OA
ATOM     33  H   UNL     1      23.821 -21.678  33.244  1.00  0.00     0.293 HD
ENDBRANCH  22  32
ENDBRANCH  11  12
BRANCH  10  34
ATOM     34  O   UNL     1      23.407 -22.615  25.010  1.00  0.00    -0.507 OA
ATOM     35  H   UNL     1      23.851 -21.963  24.374  1.00  0.00     0.293 HD
ENDBRANCH  10  34
BRANCH   9  36
ATOM     36  C   UNL     1      21.685 -27.219  21.047  1.00  0.00     0.017 C 
ATOM     37  C   UNL     1      20.196 -26.978  20.784  1.00  0.00     0.012 C 
ATOM     38  C   UNL     1      21.900 -28.415  21.995  1.00  0.00     0.012 C 
ENDBRANCH   9  36
BRANCH   6  39
ATOM     39  C   UNL     1      23.617 -21.919  22.452  1.00  0.00     0.264 C 
ATOM     40  O   UNL     1      24.798 -21.537  22.664  1.00  0.00    -0.298 OA
ENDBRANCH   6  39
BRANCH   8  41
ATOM     41  O   UNL     1      23.334 -25.629  19.295  1.00  0.00    -0.504 OA
ATOM     42  H   UNL     1      23.702 -26.557  19.127  1.00  0.00     0.293 HD
ENDBRANCH   8  41
BRANCH   7  43
ATOM     43  O   UNL     1      24.101 -23.070  19.904  1.00  0.00    -0.504 OA
ATOM     44  H   UNL     1      24.495 -22.151  20.056  1.00  0.00     0.293 HD
ENDBRANCH   7  43
TORSDOF 11
ENDMDL
MODEL 4
REMARK VINA RESULT:    -7.345      4.588      8.507
REMARK INTER + INTRA:         -11.844
REMARK INTER:                 -10.802
REMARK INTRA:                  -1.042
REMARK UNBOUND:                -1.064
REMARK SMILES Cc1cc2c(C(C)C)c(O)c(O)c(C=O)c2c(O)c1-c1c(C)cc2c(C(C)C)c(O)c(O)c(C=O)c2c1O
REMARK SMILES IDX 1 1 2 2 3 3 4 4 16 5 13 6 11 7 9 8 5 9 17 10 19 11 20 12
REMARK SMILES IDX 37 13 21 14 36 15 23 16 22 17 24 18 33 19 25 20 31 21 29 22
REMARK SMILES IDX 38 23 34 25 35 26 26 27 27 28 28 29 32 30 30 32 18 34 6 36
REMARK SMILES IDX 7 37 8 38 14 39 15 40 10 41 12 43
REMARK H PARENT 38 24 32 31 30 33 18 35 10 42 12 44
REMARK Flexibility Score: inf
ROOT
ATOM      1  C   UNL     1      24.198 -29.943  24.099  1.00  0.00     0.045 C 
ATOM      2  C   UNL     1      22.851 -30.410  23.598  1.00  0.00    -0.039 A 
ATOM      3  C   UNL     1      22.581 -31.778  23.537  1.00  0.00     0.013 A 
ATOM      4  C   UNL     1      21.327 -32.274  23.116  1.00  0.00    -0.006 A 
ATOM      5  C   UNL     1      20.337 -31.347  22.668  1.00  0.00     0.039 A 
ATOM      6  C   UNL     1      19.089 -31.849  22.192  1.00  0.00     0.072 A 
ATOM      7  C   UNL     1      18.921 -33.235  21.998  1.00  0.00     0.169 A 
ATOM      8  C   UNL     1      19.911 -34.132  22.410  1.00  0.00     0.162 A 
ATOM      9  C   UNL     1      21.058 -33.678  23.096  1.00  0.00     0.008 A 
ATOM     10  C   UNL     1      20.647 -29.954  22.659  1.00  0.00     0.132 A 
ATOM     11  C   UNL     1      21.887 -29.493  23.149  1.00  0.00     0.031 A 
ENDROOT
BRANCH  11  12
ATOM     12  C   UNL     1      22.194 -28.038  23.155  1.00  0.00     0.031 A 
ATOM     13  C   UNL     1      22.557 -27.385  21.958  1.00  0.00     0.132 A 
ATOM     14  C   UNL     1      22.085 -27.307  24.350  1.00  0.00    -0.039 A 
ATOM     15  C   UNL     1      22.875 -25.993  21.959  1.00  0.00     0.039 A 
ATOM     16  C   UNL     1      22.323 -25.932  24.340  1.00  0.00     0.013 A 
ATOM     17  C   UNL     1      21.671 -27.978  25.637  1.00  0.00     0.045 C 
ATOM     18  C   UNL     1      22.753 -25.256  23.176  1.00  0.00    -0.006 A 
ATOM     19  C   UNL     1      23.255 -25.301  20.771  1.00  0.00     0.072 A 
ATOM     20  C   UNL     1      23.029 -23.853  23.196  1.00  0.00     0.008 A 
ATOM     21  C   UNL     1      23.326 -23.895  20.772  1.00  0.00     0.169 A 
ATOM     22  C   UNL     1      23.178 -23.179  21.964  1.00  0.00     0.162 A 
BRANCH  13  23
ATOM     23  O   UNL     1      22.562 -28.110  20.760  1.00  0.00    -0.507 OA
ATOM     24  H   UNL     1      22.076 -28.988  20.628  1.00  0.00     0.293 HD
ENDBRANCH  13  23
BRANCH  19  25
ATOM     25  C   UNL     1      23.623 -26.007  19.526  1.00  0.00     0.264 C 
ATOM     26  O   UNL     1      23.249 -25.561  18.408  1.00  0.00    -0.298 OA
ENDBRANCH  19  25
BRANCH  20  27
ATOM     27  C   UNL     1      23.126 -23.062  24.514  1.00  0.00     0.017 C 
ATOM     28  C   UNL     1      21.863 -22.226  24.741  1.00  0.00     0.012 C 
ATOM     29  C   UNL     1      24.396 -22.199  24.631  1.00  0.00     0.012 C 
ENDBRANCH  20  27
BRANCH  21  30
ATOM     30  O   UNL     1      23.579 -23.172  19.600  1.00  0.00    -0.504 OA
ATOM     31  H   UNL     1      24.099 -22.305  19.569  1.00  0.00     0.293 HD
ENDBRANCH  21  30
BRANCH  22  32
ATOM     32  O   UNL     1      23.184 -21.784  21.929  1.00  0.00    -0.504 OA
ATOM     33  H   UNL     1      22.778 -21.211  22.659  1.00  0.00     0.293 HD
ENDBRANCH  22  32
ENDBRANCH  11  12
BRANCH  10  34
ATOM     34  O   UNL     1      19.740 -29.032  22.124  1.00  0.00    -0.507 OA
ATOM     35  H   UNL     1      19.929 -28.458  21.312  1.00  0.00     0.293 HD
ENDBRANCH  10  34
BRANCH   9  36
ATOM     36  C   UNL     1      21.999 -34.696  23.765  1.00  0.00     0.017 C 
ATOM     37  C   UNL     1      22.054 -34.476  25.279  1.00  0.00     0.012 C 
ATOM     38  C   UNL     1      23.412 -34.735  23.153  1.00  0.00     0.012 C 
ENDBRANCH   9  36
BRANCH   6  39
ATOM     39  C   UNL     1      17.931 -30.971  21.926  1.00  0.00     0.264 C 
ATOM     40  O   UNL     1      17.591 -30.708  20.742  1.00  0.00    -0.298 OA
ENDBRANCH   6  39
BRANCH   8  41
ATOM     41  O   UNL     1      19.751 -35.493  22.143  1.00  0.00    -0.504 OA
ATOM     42  H   UNL     1      19.643 -35.864  21.207  1.00  0.00     0.293 HD
ENDBRANCH   8  41
BRANCH   7  43
ATOM     43  O   UNL     1      17.758 -33.758  21.421  1.00  0.00    -0.504 OA
ATOM     44  H   UNL     1      17.152 -33.241  20.797  1.00  0.00     0.293 HD
ENDBRANCH   7  43
TORSDOF 11
ENDMDL
MODEL 5
REMARK VINA RESULT:    -7.341      4.567      8.772
REMARK INTER + INTRA:         -11.838
REMARK INTER:                 -10.793
REMARK INTRA:                  -1.045
REMARK UNBOUND:                -1.064
REMARK SMILES Cc1cc2c(C(C)C)c(O)c(O)c(C=O)c2c(O)c1-c1c(C)cc2c(C(C)C)c(O)c(O)c(C=O)c2c1O
REMARK SMILES IDX 1 1 2 2 3 3 4 4 16 5 13 6 11 7 9 8 5 9 17 10 19 11 20 12
REMARK SMILES IDX 37 13 21 14 36 15 23 16 22 17 24 18 33 19 25 20 31 21 29 22
REMARK SMILES IDX 38 23 34 25 35 26 26 27 27 28 28 29 32 30 30 32 18 34 6 36
REMARK SMILES IDX 7 37 8 38 14 39 15 40 10 41 12 43
REMARK H PARENT 38 24 32 31 30 33 18 35 10 42 12 44
REMARK Flexibility Score: inf
ROOT
ATOM      1  C   UNL     1      21.669 -27.977  25.642  1.00  0.00     0.045 C 
ATOM      2  C   UNL     1      22.087 -27.301  24.358  1.00  0.00    -0.039 A 
ATOM      3  C   UNL     1      22.332 -25.928  24.357  1.00  0.00     0.013 A 
ATOM      4  C   UNL     1      22.765 -25.247  23.198  1.00  0.00    -0.006 A 
ATOM      5  C   UNL     1      22.880 -25.976  21.975  1.00  0.00     0.039 A 
ATOM      6  C   UNL     1      23.265 -25.279  20.791  1.00  0.00     0.072 A 
ATOM      7  C   UNL     1      23.346 -23.872  20.802  1.00  0.00     0.169 A 
ATOM      8  C   UNL     1      23.199 -23.165  21.999  1.00  0.00     0.162 A 
ATOM      9  C   UNL     1      23.047 -23.845  23.227  1.00  0.00     0.008 A 
ATOM     10  C   UNL     1      22.552 -27.365  21.965  1.00  0.00     0.132 A 
ATOM     11  C   UNL     1      22.187 -28.024  23.157  1.00  0.00     0.031 A 
ENDROOT
BRANCH  11  12
ATOM     12  C   UNL     1      21.867 -29.476  23.141  1.00  0.00     0.031 A 
ATOM     13  C   UNL     1      20.620 -29.922  22.653  1.00  0.00     0.132 A 
ATOM     14  C   UNL     1      22.824 -30.406  23.580  1.00  0.00    -0.039 A 
ATOM     15  C   UNL     1      20.297 -31.312  22.655  1.00  0.00     0.039 A 
ATOM     16  C   UNL     1      22.539 -31.770  23.514  1.00  0.00     0.013 A 
ATOM     17  C   UNL     1      24.175 -29.954  24.080  1.00  0.00     0.045 C 
ATOM     18  C   UNL     1      21.279 -32.251  23.095  1.00  0.00    -0.006 A 
ATOM     19  C   UNL     1      19.043 -31.800  22.179  1.00  0.00     0.072 A 
ATOM     20  C   UNL     1      20.993 -33.652  23.070  1.00  0.00     0.008 A 
ATOM     21  C   UNL     1      18.860 -33.181  21.978  1.00  0.00     0.169 A 
ATOM     22  C   UNL     1      19.840 -34.092  22.385  1.00  0.00     0.162 A 
BRANCH  13  23
ATOM     23  O   UNL     1      19.720 -28.987  22.128  1.00  0.00    -0.507 OA
ATOM     24  H   UNL     1      19.490 -28.109  22.576  1.00  0.00     0.293 HD
ENDBRANCH  13  23
BRANCH  19  25
ATOM     25  C   UNL     1      17.894 -30.909  21.918  1.00  0.00     0.264 C 
ATOM     26  O   UNL     1      17.571 -30.617  20.735  1.00  0.00    -0.298 OA
ENDBRANCH  19  25
BRANCH  20  27
ATOM     27  C   UNL     1      21.926 -34.683  23.733  1.00  0.00     0.017 C 
ATOM     28  C   UNL     1      22.048 -34.420  25.237  1.00  0.00     0.012 C 
ATOM     29  C   UNL     1      23.312 -34.787  23.069  1.00  0.00     0.012 C 
ENDBRANCH  20  27
BRANCH  21  30
ATOM     30  O   UNL     1      17.690 -33.690  21.401  1.00  0.00    -0.504 OA
ATOM     31  H   UNL     1      17.616 -33.985  20.436  1.00  0.00     0.293 HD
ENDBRANCH  21  30
BRANCH  22  32
ATOM     32  O   UNL     1      19.666 -35.450  22.114  1.00  0.00    -0.504 OA
ATOM     33  H   UNL     1      19.769 -36.172  22.817  1.00  0.00     0.293 HD
ENDBRANCH  22  32
ENDBRANCH  11  12
BRANCH  10  34
ATOM     34  O   UNL     1      22.549 -28.081  20.762  1.00  0.00    -0.507 OA
ATOM     35  H   UNL     1      23.006 -27.767  19.915  1.00  0.00     0.293 HD
ENDBRANCH  10  34
BRANCH   9  36
ATOM     36  C   UNL     1      23.149 -23.063  24.548  1.00  0.00     0.017 C 
ATOM     37  C   UNL     1      21.897 -22.212  24.777  1.00  0.00     0.012 C 
ATOM     38  C   UNL     1      24.432 -22.218  24.676  1.00  0.00     0.012 C 
ENDBRANCH   9  36
BRANCH   6  39
ATOM     39  C   UNL     1      23.629 -25.980  19.542  1.00  0.00     0.264 C 
ATOM     40  O   UNL     1      23.258 -25.526  18.427  1.00  0.00    -0.298 OA
ENDBRANCH   6  39
BRANCH   8  41
ATOM     41  O   UNL     1      23.213 -21.769  21.972  1.00  0.00    -0.504 OA
ATOM     42  H   UNL     1      22.875 -21.198  22.737  1.00  0.00     0.293 HD
ENDBRANCH   8  41
BRANCH   7  43
ATOM     43  O   UNL     1      23.603 -23.144  19.634  1.00  0.00    -0.504 OA
ATOM     44  H   UNL     1      23.401 -22.159  19.524  1.00  0.00     0.293 HD
ENDBRANCH   7  43
TORSDOF 11
ENDMDL
MODEL 6
REMARK VINA RESULT:    -7.305      1.576      8.921
REMARK INTER + INTRA:         -11.785
REMARK INTER:                 -10.548
REMARK INTRA:                  -1.237
REMARK UNBOUND:                -1.064
REMARK SMILES Cc1cc2c(C(C)C)c(O)c(O)c(C=O)c2c(O)c1-c1c(C)cc2c(C(C)C)c(O)c(O)c(C=O)c2c1O
REMARK SMILES IDX 1 1 2 2 3 3 4 4 16 5 13 6 11 7 9 8 5 9 17 10 19 11 20 12
REMARK SMILES IDX 37 13 21 14 36 15 23 16 22 17 24 18 33 19 25 20 31 21 29 22
REMARK SMILES IDX 38 23 34 25 35 26 26 27 27 28 28 29 32 30 30 32 18 34 6 36
REMARK SMILES IDX 7 37 8 38 14 39 15 40 10 41 12 43
REMARK H PARENT 38 24 32 31 30 33 18 35 10 42 12 44
REMARK Flexibility Score: inf
ROOT
ATOM      1  C   UNL     1      20.200 -23.122  26.673  1.00  0.00     0.045 C 
ATOM      2  C   UNL     1      21.363 -23.558  27.532  1.00  0.00    -0.039 A 
ATOM      3  C   UNL     1      21.434 -23.126  28.857  1.00  0.00     0.013 A 
ATOM      4  C   UNL     1      22.475 -23.533  29.721  1.00  0.00    -0.006 A 
ATOM      5  C   UNL     1      23.524 -24.349  29.196  1.00  0.00     0.039 A 
ATOM      6  C   UNL     1      24.604 -24.716  30.054  1.00  0.00     0.072 A 
ATOM      7  C   UNL     1      24.716 -24.129  31.329  1.00  0.00     0.169 A 
ATOM      8  C   UNL     1      23.698 -23.305  31.821  1.00  0.00     0.162 A 
ATOM      9  C   UNL     1      22.509 -23.109  31.087  1.00  0.00     0.008 A 
ATOM     10  C   UNL     1      23.486 -24.723  27.820  1.00  0.00     0.132 A 
ATOM     11  C   UNL     1      22.396 -24.351  27.006  1.00  0.00     0.031 A 
ENDROOT
BRANCH  11  12
ATOM     12  C   UNL     1      22.356 -24.762  25.577  1.00  0.00     0.031 A 
ATOM     13  C   UNL     1      22.853 -23.900  24.577  1.00  0.00     0.132 A 
ATOM     14  C   UNL     1      21.854 -26.027  25.230  1.00  0.00    -0.039 A 
ATOM     15  C   UNL     1      22.798 -24.278  23.201  1.00  0.00     0.039 A 
ATOM     16  C   UNL     1      21.866 -26.429  23.894  1.00  0.00     0.013 A 
ATOM     17  C   UNL     1      21.342 -26.978  26.285  1.00  0.00     0.045 C 
ATOM     18  C   UNL     1      22.294 -25.570  22.858  1.00  0.00    -0.006 A 
ATOM     19  C   UNL     1      23.281 -23.429  22.161  1.00  0.00     0.072 A 
ATOM     20  C   UNL     1      22.263 -25.987  21.490  1.00  0.00     0.008 A 
ATOM     21  C   UNL     1      23.426 -23.935  20.855  1.00  0.00     0.169 A 
ATOM     22  C   UNL     1      22.955 -25.212  20.535  1.00  0.00     0.162 A 
BRANCH  13  23
ATOM     23  O   UNL     1      23.440 -22.686  24.953  1.00  0.00    -0.507 OA
ATOM     24  H   UNL     1      23.963 -22.091  24.324  1.00  0.00     0.293 HD
ENDBRANCH  13  23
BRANCH  19  25
ATOM     25  C   UNL     1      23.608 -22.007  22.388  1.00  0.00     0.264 C 
ATOM     26  O   UNL     1      24.804 -21.650  22.571  1.00  0.00    -0.298 OA
ENDBRANCH  19  25
BRANCH  20  27
ATOM     27  C   UNL     1      21.534 -27.269  21.048  1.00  0.00     0.017 C 
ATOM     28  C   UNL     1      20.040 -27.002  20.840  1.00  0.00     0.012 C 
ATOM     29  C   UNL     1      21.762 -28.470  21.985  1.00  0.00     0.012 C 
ENDBRANCH  20  27
BRANCH  21  30
ATOM     30  O   UNL     1      24.007 -23.174  19.834  1.00  0.00    -0.504 OA
ATOM     31  H   UNL     1      24.372 -22.239  19.962  1.00  0.00     0.293 HD
ENDBRANCH  21  30
BRANCH  22  32
ATOM     32  O   UNL     1      23.171 -25.717  19.251  1.00  0.00    -0.504 OA
ATOM     33  H   UNL     1      24.093 -25.925  18.887  1.00  0.00     0.293 HD
ENDBRANCH  22  32
ENDBRANCH  11  12
BRANCH  10  34
ATOM     34  O   UNL     1      24.553 -25.427  27.251  1.00  0.00    -0.507 OA
ATOM     35  H   UNL     1      24.886 -26.321  27.589  1.00  0.00     0.293 HD
ENDBRANCH  10  34
BRANCH   9  36
ATOM     36  C   UNL     1      21.306 -22.419  31.754  1.00  0.00     0.017 C 
ATOM     37  C   UNL     1      21.541 -20.910  31.875  1.00  0.00     0.012 C 
ATOM     38  C   UNL     1      20.907 -23.034  33.110  1.00  0.00     0.012 C 
ENDBRANCH   9  36
BRANCH   6  39
ATOM     39  C   UNL     1      25.606 -25.733  29.673  1.00  0.00     0.264 C 
ATOM     40  O   UNL     1      26.775 -25.386  29.357  1.00  0.00    -0.298 OA
ENDBRANCH   6  39
BRANCH   8  41
ATOM     41  O   UNL     1      23.865 -22.679  33.058  1.00  0.00    -0.504 OA
ATOM     42  H   UNL     1      24.757 -22.628  33.535  1.00  0.00     0.293 HD
ENDBRANCH   8  41
BRANCH   7  43
ATOM     43  O   UNL     1      25.822 -24.370  32.153  1.00  0.00    -0.504 OA
ATOM     44  H   UNL     1      26.438 -25.167  32.056  1.00  0.00     0.293 HD
ENDBRANCH   7  43
TORSDOF 11
ENDMDL
MODEL 7
REMARK VINA RESULT:    -7.271      5.261      9.766
REMARK INTER + INTRA:         -11.736
REMARK INTER:                 -10.463
REMARK INTRA:                  -1.272
REMARK UNBOUND:                -1.064
REMARK SMILES Cc1cc2c(C(C)C)c(O)c(O)c(C=O)c2c(O)c1-c1c(C)cc2c(C(C)C)c(O)c(O)c(C=O)c2c1O
REMARK SMILES IDX 1 1 2 2 3 3 4 4 16 5 13 6 11 7 9 8 5 9 17 10 19 11 20 12
REMARK SMILES IDX 37 13 21 14 36 15 23 16 22 17 24 18 33 19 25 20 31 21 29 22
REMARK SMILES IDX 38 23 34 25 35 26 26 27 27 28 28 29 32 30 30 32 18 34 6 36
REMARK SMILES IDX 7 37 8 38 14 39 15 40 10 41 12 43
REMARK H PARENT 38 24 32 31 30 33 18 35 10 42 12 44
REMARK Flexibility Score: inf
ROOT
ATOM      1  C   UNL     1      22.589 -28.979  26.810  1.00  0.00     0.045 C 
ATOM      2  C   UNL     1      23.869 -29.548  26.246  1.00  0.00    -0.039 A 
ATOM      3  C   UNL     1      24.980 -29.690  27.079  1.00  0.00     0.013 A 
ATOM      4  C   UNL     1      26.191 -30.253  26.620  1.00  0.00    -0.006 A 
ATOM      5  C   UNL     1      26.302 -30.616  25.243  1.00  0.00     0.039 A 
ATOM      6  C   UNL     1      27.542 -31.135  24.765  1.00  0.00     0.072 A 
ATOM      7  C   UNL     1      28.678 -31.110  25.599  1.00  0.00     0.169 A 
ATOM      8  C   UNL     1      28.566 -30.721  26.937  1.00  0.00     0.162 A 
ATOM      9  C   UNL     1      27.306 -30.423  27.500  1.00  0.00     0.008 A 
ATOM     10  C   UNL     1      25.188 -30.397  24.378  1.00  0.00     0.132 A 
ATOM     11  C   UNL     1      23.973 -29.893  24.888  1.00  0.00     0.031 A 
ENDROOT
BRANCH  11  12
ATOM     12  C   UNL     1      22.811 -29.687  23.984  1.00  0.00     0.031 A 
ATOM     13  C   UNL     1      22.644 -28.456  23.313  1.00  0.00     0.132 A 
ATOM     14  C   UNL     1      21.899 -30.734  23.770  1.00  0.00    -0.039 A 
ATOM     15  C   UNL     1      21.520 -28.242  22.460  1.00  0.00     0.039 A 
ATOM     16  C   UNL     1      20.840 -30.552  22.880  1.00  0.00     0.013 A 
ATOM     17  C   UNL     1      22.072 -32.068  24.454  1.00  0.00     0.045 C 
ATOM     18  C   UNL     1      20.602 -29.315  22.242  1.00  0.00    -0.006 A 
ATOM     19  C   UNL     1      21.312 -27.009  21.774  1.00  0.00     0.072 A 
ATOM     20  C   UNL     1      19.488 -29.138  21.362  1.00  0.00     0.008 A 
ATOM     21  C   UNL     1      20.331 -26.924  20.767  1.00  0.00     0.169 A 
ATOM     22  C   UNL     1      19.455 -27.991  20.541  1.00  0.00     0.162 A 
BRANCH  13  23
ATOM     23  O   UNL     1      23.618 -27.461  23.462  1.00  0.00    -0.507 OA
ATOM     24  H   UNL     1      23.628 -26.596  22.936  1.00  0.00     0.293 HD
ENDBRANCH  13  23
BRANCH  19  25
ATOM     25  C   UNL     1      22.067 -25.782  22.103  1.00  0.00     0.264 C 
ATOM     26  O   UNL     1      22.969 -25.363  21.327  1.00  0.00    -0.298 OA
ENDBRANCH  19  25
BRANCH  20  27
ATOM     27  C   UNL     1      18.358 -30.179  21.264  1.00  0.00     0.017 C 
ATOM     28  C   UNL     1      17.562 -30.244  22.570  1.00  0.00     0.012 C 
ATOM     29  C   UNL     1      18.835 -31.578  20.829  1.00  0.00     0.012 C 
ENDBRANCH  20  27
BRANCH  21  30
ATOM     30  O   UNL     1      20.176 -25.771  19.989  1.00  0.00    -0.504 OA
ATOM     31  H   UNL     1      20.837 -25.005  19.973  1.00  0.00     0.293 HD
ENDBRANCH  21  30
BRANCH  22  32
ATOM     32  O   UNL     1      18.536 -27.910  19.493  1.00  0.00    -0.504 OA
ATOM     33  H   UNL     1      18.032 -27.061  19.265  1.00  0.00     0.293 HD
ENDBRANCH  22  32
ENDBRANCH  11  12
BRANCH  10  34
ATOM     34  O   UNL     1      25.302 -30.639  23.004  1.00  0.00    -0.507 OA
ATOM     35  H   UNL     1      25.735 -29.999  22.350  1.00  0.00     0.293 HD
ENDBRANCH  10  34
BRANCH   9  36
ATOM     36  C   UNL     1      27.173 -30.254  29.023  1.00  0.00     0.017 C 
ATOM     37  C   UNL     1      27.707 -28.889  29.470  1.00  0.00     0.012 C 
ATOM     38  C   UNL     1      27.810 -31.398  29.836  1.00  0.00     0.012 C 
ENDBRANCH   9  36
BRANCH   6  39
ATOM     39  C   UNL     1      27.683 -31.745  23.427  1.00  0.00     0.264 C 
ATOM     40  O   UNL     1      27.297 -32.927  23.224  1.00  0.00    -0.298 OA
ENDBRANCH   6  39
BRANCH   8  41
ATOM     41  O   UNL     1      29.718 -30.637  27.722  1.00  0.00    -0.504 OA
ATOM     42  H   UNL     1      29.845 -29.937  28.443  1.00  0.00     0.293 HD
ENDBRANCH   8  41
BRANCH   7  43
ATOM     43  O   UNL     1      29.940 -31.497  25.130  1.00  0.00    -0.504 OA
ATOM     44  H   UNL     1      30.811 -31.094  25.448  1.00  0.00     0.293 HD
ENDBRANCH   7  43
TORSDOF 11
ENDMDL
MODEL 8
REMARK VINA RESULT:    -7.252      5.259      7.716
REMARK INTER + INTRA:         -11.708
REMARK INTER:                 -10.425
REMARK INTRA:                  -1.283
REMARK UNBOUND:                -1.064
REMARK SMILES Cc1cc2c(C(C)C)c(O)c(O)c(C=O)c2c(O)c1-c1c(C)cc2c(C(C)C)c(O)c(O)c(C=O)c2c1O
REMARK SMILES IDX 1 1 2 2 3 3 4 4 16 5 13 6 11 7 9 8 5 9 17 10 19 11 20 12
REMARK SMILES IDX 37 13 21 14 36 15 23 16 22 17 24 18 33 19 25 20 31 21 29 22
REMARK SMILES IDX 38 23 34 25 35 26 26 27 27 28 28 29 32 30 30 32 18 34 6 36
REMARK SMILES IDX 7 37 8 38 14 39 15 40 10 41 12 43
REMARK H PARENT 38 24 32 31 30 33 18 35 10 42 12 44
REMARK Flexibility Score: inf
ROOT
ATOM      1  C   UNL     1      22.066 -32.083  24.475  1.00  0.00     0.045 C 
ATOM      2  C   UNL     1      21.888 -30.749  23.789  1.00  0.00    -0.039 A 
ATOM      3  C   UNL     1      20.829 -30.575  22.897  1.00  0.00     0.013 A 
ATOM      4  C   UNL     1      20.586 -29.340  22.257  1.00  0.00    -0.006 A 
ATOM      5  C   UNL     1      21.499 -28.262  22.474  1.00  0.00     0.039 A 
ATOM      6  C   UNL     1      21.285 -27.030  21.787  1.00  0.00     0.072 A 
ATOM      7  C   UNL     1      20.304 -26.952  20.779  1.00  0.00     0.169 A 
ATOM      8  C   UNL     1      19.437 -28.025  20.551  1.00  0.00     0.162 A 
ATOM      9  C   UNL     1      19.474 -29.172  21.374  1.00  0.00     0.008 A 
ATOM     10  C   UNL     1      22.624 -28.470  23.328  1.00  0.00     0.132 A 
ATOM     11  C   UNL     1      22.795 -29.698  24.000  1.00  0.00     0.031 A 
ENDROOT
BRANCH  11  12
ATOM     12  C   UNL     1      23.959 -29.899  24.904  1.00  0.00     0.031 A 
ATOM     13  C   UNL     1      25.173 -30.407  24.393  1.00  0.00     0.132 A 
ATOM     14  C   UNL     1      23.859 -29.547  26.260  1.00  0.00    -0.039 A 
ATOM     15  C   UNL     1      26.288 -30.623  25.258  1.00  0.00     0.039 A 
ATOM     16  C   UNL     1      24.970 -29.689  27.092  1.00  0.00     0.013 A 
ATOM     17  C   UNL     1      22.580 -28.976  26.823  1.00  0.00     0.045 C 
ATOM     18  C   UNL     1      26.180 -30.255  26.634  1.00  0.00    -0.006 A 
ATOM     19  C   UNL     1      27.528 -31.144  24.781  1.00  0.00     0.072 A 
ATOM     20  C   UNL     1      27.295 -30.426  27.512  1.00  0.00     0.008 A 
ATOM     21  C   UNL     1      28.665 -31.117  25.611  1.00  0.00     0.169 A 
ATOM     22  C   UNL     1      28.555 -30.727  26.950  1.00  0.00     0.162 A 
BRANCH  13  23
ATOM     23  O   UNL     1      25.284 -30.657  23.021  1.00  0.00    -0.507 OA
ATOM     24  H   UNL     1      26.151 -30.899  22.557  1.00  0.00     0.293 HD
ENDBRANCH  13  23
BRANCH  19  25
ATOM     25  C   UNL     1      27.667 -31.757  23.444  1.00  0.00     0.264 C 
ATOM     26  O   UNL     1      27.291 -32.944  23.246  1.00  0.00    -0.298 OA
ENDBRANCH  19  25
BRANCH  20  27
ATOM     27  C   UNL     1      27.163 -30.253  29.037  1.00  0.00     0.017 C 
ATOM     28  C   UNL     1      27.710 -28.892  29.479  1.00  0.00     0.012 C 
ATOM     29  C   UNL     1      27.791 -31.400  29.851  1.00  0.00     0.012 C 
ENDBRANCH  20  27
BRANCH  21  30
ATOM     30  O   UNL     1      29.925 -31.507  25.143  1.00  0.00    -0.504 OA
ATOM     31  H   UNL     1      30.799 -31.137  25.492  1.00  0.00     0.293 HD
ENDBRANCH  21  30
BRANCH  22  32
ATOM     32  O   UNL     1      29.707 -30.644  27.734  1.00  0.00    -0.504 OA
ATOM     33  H   UNL     1      29.868 -29.898  28.401  1.00  0.00     0.293 HD
ENDBRANCH  22  32
ENDBRANCH  11  12
BRANCH  10  34
ATOM     34  O   UNL     1      23.593 -27.471  23.473  1.00  0.00    -0.507 OA
ATOM     35  H   UNL     1      24.584 -27.654  23.572  1.00  0.00     0.293 HD
ENDBRANCH  10  34
BRANCH   9  36
ATOM     36  C   UNL     1      18.350 -30.218  21.274  1.00  0.00     0.017 C 
ATOM     37  C   UNL     1      17.538 -30.273  22.571  1.00  0.00     0.012 C 
ATOM     38  C   UNL     1      18.837 -31.620  20.858  1.00  0.00     0.012 C 
ENDBRANCH   9  36
BRANCH   6  39
ATOM     39  C   UNL     1      22.033 -25.799  22.117  1.00  0.00     0.264 C 
ATOM     40  O   UNL     1      22.924 -25.368  21.338  1.00  0.00    -0.298 OA
ENDBRANCH   6  39
BRANCH   8  41
ATOM     41  O   UNL     1      18.520 -27.950  19.501  1.00  0.00    -0.504 OA
ATOM     42  H   UNL     1      18.431 -28.668  18.793  1.00  0.00     0.293 HD
ENDBRANCH   8  41
BRANCH   7  43
ATOM     43  O   UNL     1      20.144 -25.800  19.999  1.00  0.00    -0.504 OA
ATOM     44  H   UNL     1      19.257 -25.343  19.838  1.00  0.00     0.293 HD
ENDBRANCH   7  43
TORSDOF 11
ENDMDL
MODEL 9
REMARK VINA RESULT:    -6.912      5.289      8.832
REMARK INTER + INTRA:         -11.208
REMARK INTER:                 -10.009
REMARK INTRA:                  -1.199
REMARK UNBOUND:                -1.064
REMARK SMILES Cc1cc2c(C(C)C)c(O)c(O)c(C=O)c2c(O)c1-c1c(C)cc2c(C(C)C)c(O)c(O)c(C=O)c2c1O
REMARK SMILES IDX 1 1 2 2 3 3 4 4 16 5 13 6 11 7 9 8 5 9 17 10 19 11 20 12
REMARK SMILES IDX 37 13 21 14 36 15 23 16 22 17 24 18 33 19 25 20 31 21 29 22
REMARK SMILES IDX 38 23 34 25 35 26 26 27 27 28 28 29 32 30 30 32 18 34 6 36
REMARK SMILES IDX 7 37 8 38 14 39 15 40 10 41 12 43
REMARK H PARENT 38 24 32 31 30 33 18 35 10 42 12 44
REMARK Flexibility Score: inf
ROOT
ATOM      1  C   UNL     1      19.056 -30.453  23.481  1.00  0.00     0.045 C 
ATOM      2  C   UNL     1      20.233 -31.392  23.374  1.00  0.00    -0.039 A 
ATOM      3  C   UNL     1      20.005 -32.765  23.266  1.00  0.00     0.013 A 
ATOM      4  C   UNL     1      21.064 -33.689  23.123  1.00  0.00    -0.006 A 
ATOM      5  C   UNL     1      22.408 -33.207  23.167  1.00  0.00     0.039 A 
ATOM      6  C   UNL     1      23.479 -34.146  23.076  1.00  0.00     0.072 A 
ATOM      7  C   UNL     1      23.205 -35.527  23.130  1.00  0.00     0.169 A 
ATOM      8  C   UNL     1      21.885 -35.988  23.120  1.00  0.00     0.162 A 
ATOM      9  C   UNL     1      20.807 -35.089  22.976  1.00  0.00     0.008 A 
ATOM     10  C   UNL     1      22.636 -31.811  23.356  1.00  0.00     0.132 A 
ATOM     11  C   UNL     1      21.552 -30.912  23.430  1.00  0.00     0.031 A 
ENDROOT
BRANCH  11  12
ATOM     12  C   UNL     1      21.800 -29.456  23.606  1.00  0.00     0.031 A 
ATOM     13  C   UNL     1      21.932 -28.618  22.478  1.00  0.00     0.132 A 
ATOM     14  C   UNL     1      21.865 -28.911  24.899  1.00  0.00    -0.039 A 
ATOM     15  C   UNL     1      22.192 -27.223  22.638  1.00  0.00     0.039 A 
ATOM     16  C   UNL     1      22.045 -27.536  25.058  1.00  0.00     0.013 A 
ATOM     17  C   UNL     1      21.698 -29.782  26.120  1.00  0.00     0.045 C 
ATOM     18  C   UNL     1      22.248 -26.676  23.956  1.00  0.00    -0.006 A 
ATOM     19  C   UNL     1      22.342 -26.347  21.522  1.00  0.00     0.072 A 
ATOM     20  C   UNL     1      22.469 -25.275  24.143  1.00  0.00     0.008 A 
ATOM     21  C   UNL     1      22.358 -24.953  21.724  1.00  0.00     0.169 A 
ATOM     22  C   UNL     1      22.384 -24.426  23.019  1.00  0.00     0.162 A 
BRANCH  13  23
ATOM     23  O   UNL     1      21.765 -29.164  21.200  1.00  0.00    -0.507 OA
ATOM     24  H   UNL     1      22.523 -29.326  20.550  1.00  0.00     0.293 HD
ENDBRANCH  13  23
BRANCH  19  25
ATOM     25  C   UNL     1      22.522 -26.844  20.143  1.00  0.00     0.264 C 
ATOM     26  O   UNL     1      23.586 -26.600  19.512  1.00  0.00    -0.298 OA
ENDBRANCH  19  25
BRANCH  20  27
ATOM     27  C   UNL     1      22.755 -24.676  25.532  1.00  0.00     0.017 C 
ATOM     28  C   UNL     1      23.877 -25.445  26.236  1.00  0.00     0.012 C 
ATOM     29  C   UNL     1      21.509 -24.558  26.428  1.00  0.00     0.012 C 
ENDBRANCH  20  27
BRANCH  21  30
ATOM     30  O   UNL     1      22.384 -24.057  20.649  1.00  0.00    -0.504 OA
ATOM     31  H   UNL     1      22.166 -24.311  19.694  1.00  0.00     0.293 HD
ENDBRANCH  21  30
BRANCH  22  32
ATOM     32  O   UNL     1      22.332 -23.041  23.193  1.00  0.00    -0.504 OA
ATOM     33  H   UNL     1      21.551 -22.570  23.635  1.00  0.00     0.293 HD
ENDBRANCH  22  32
ENDBRANCH  11  12
BRANCH  10  34
ATOM     34  O   UNL     1      23.938 -31.324  23.513  1.00  0.00    -0.507 OA
ATOM     35  H   UNL     1      24.732 -31.644  22.972  1.00  0.00     0.293 HD
ENDBRANCH  10  34
BRANCH   9  36
ATOM     36  C   UNL     1      19.393 -35.632  22.707  1.00  0.00     0.017 C 
ATOM     37  C   UNL     1      18.787 -34.982  21.459  1.00  0.00     0.012 C 
ATOM     38  C   UNL     1      18.441 -35.521  23.914  1.00  0.00     0.012 C 
ENDBRANCH   9  36
BRANCH   6  39
ATOM     39  C   UNL     1      24.883 -33.729  22.885  1.00  0.00     0.264 C 
ATOM     40  O   UNL     1      25.708 -33.818  23.832  1.00  0.00    -0.298 OA
ENDBRANCH   6  39
BRANCH   8  41
ATOM     41  O   UNL     1      21.640 -37.357  23.245  1.00  0.00    -0.504 OA
ATOM     42  H   UNL     1      21.557 -37.823  24.140  1.00  0.00     0.293 HD
ENDBRANCH   8  41
BRANCH   7  43
ATOM     43  O   UNL     1      24.234 -36.476  23.166  1.00  0.00    -0.504 OA
ATOM     44  H   UNL     1      24.091 -37.461  23.351  1.00  0.00     0.293 HD
ENDBRANCH   7  43
TORSDOF 11
ENDMDL
