MODEL 1
REMARK VINA RESULT:    -2.835      0.000      0.000
REMARK INTER + INTRA:          -2.835
REMARK INTER:                  -2.835
REMARK INTRA:                   0.000
REMARK UNBOUND:                 0.000
REMARK SMILES CC(=O)[O-]
REMARK SMILES IDX 1 1 2 2 3 3 4 4
REMARK H PARENT
REMARK Flexibility Score: inf
ROOT
ATOM      1  C   UNL     1      -5.728 -11.128   4.746  1.00  0.00     0.063 C 
ATOM      2  C   UNL     1      -5.166 -10.736   3.422  1.00  0.00     0.038 C 
ATOM      3  O   UNL     1      -5.904 -10.720   2.402  1.00  0.00    -0.550 OA
ATOM      4  O   UNL     1      -3.840 -10.335   3.319  1.00  0.00    -0.550 OA
ENDROOT
TORSDOF 0
ENDMDL
MODEL 2
REMARK VINA RESULT:    -2.635      1.444      1.974
REMARK INTER + INTRA:          -2.635
REMARK INTER:                  -2.635
REMARK INTRA:                   0.000
REMARK UNBOUND:                 0.000
REMARK SMILES CC(=O)[O-]
REMARK SMILES IDX 1 1 2 2 3 3 4 4
REMARK H PARENT
REMARK Flexibility Score: inf
ROOT
ATOM      1  C   UNL     1      -6.086 -11.377   2.566  1.00  0.00     0.063 C 
ATOM      2  C   UNL     1      -5.169 -10.925   3.652  1.00  0.00     0.038 C 
ATOM      3  O   UNL     1      -4.089 -10.346   3.366  1.00  0.00    -0.550 OA
ATOM      4  O   UNL     1      -5.529 -11.094   4.982  1.00  0.00    -0.550 OA
ENDROOT
TORSDOF 0
ENDMDL
MODEL 3
REMARK VINA RESULT:    -2.592     13.474     13.938
REMARK INTER + INTRA:          -2.592
REMARK INTER:                  -2.592
REMARK INTRA:                   0.000
REMARK UNBOUND:                 0.000
REMARK SMILES CC(=O)[O-]
REMARK SMILES IDX 1 1 2 2 3 3 4 4
REMARK H PARENT
REMARK Flexibility Score: inf
ROOT
ATOM      1  C   UNL     1     -10.846  -1.659  -6.125  1.00  0.00     0.063 C 
ATOM      2  C   UNL     1     -10.151  -0.967  -5.001  1.00  0.00     0.038 C 
ATOM      3  O   UNL     1     -10.758  -0.097  -4.323  1.00  0.00    -0.550 OA
ATOM      4  O   UNL     1      -8.850  -1.319  -4.666  1.00  0.00    -0.550 OA
ENDROOT
TORSDOF 0
ENDMDL
MODEL 4
REMARK VINA RESULT:    -2.382     18.602     19.085
REMARK INTER + INTRA:          -2.382
REMARK INTER:                  -2.382
REMARK INTRA:                   0.000
REMARK UNBOUND:                 0.000
REMARK SMILES CC(=O)[O-]
REMARK SMILES IDX 1 1 2 2 3 3 4 4
REMARK H PARENT
REMARK Flexibility Score: inf
ROOT
ATOM      1  C   UNL     1       6.122   4.037   1.123  1.00  0.00     0.063 C 
ATOM      2  C   UNL     1       5.176   4.982   0.465  1.00  0.00     0.038 C 
ATOM      3  O   UNL     1       5.549   5.663  -0.525  1.00  0.00    -0.550 OA
ATOM      4  O   UNL     1       3.863   5.075   0.909  1.00  0.00    -0.550 OA
ENDROOT
TORSDOF 0
ENDMDL
MODEL 5
REMARK VINA RESULT:    -2.362     18.577     19.065
REMARK INTER + INTRA:          -2.362
REMARK INTER:                  -2.362
REMARK INTRA:                   0.000
REMARK UNBOUND:                 0.000
REMARK SMILES CC(=O)[O-]
REMARK SMILES IDX 1 1 2 2 3 3 4 4
REMARK H PARENT
REMARK Flexibility Score: inf
ROOT
ATOM      1  C   UNL     1       6.046   4.027   1.131  1.00  0.00     0.063 C 
ATOM      2  C   UNL     1       5.104   4.977   0.473  1.00  0.00     0.038 C 
ATOM      3  O   UNL     1       3.908   5.050   0.859  1.00  0.00    -0.550 OA
ATOM      4  O   UNL     1       5.556   5.823  -0.531  1.00  0.00    -0.550 OA
ENDROOT
TORSDOF 0
ENDMDL
MODEL 6
REMARK VINA RESULT:    -2.297     18.447     18.970
REMARK INTER + INTRA:          -2.297
REMARK INTER:                  -2.297
REMARK INTRA:                   0.000
REMARK UNBOUND:                 0.000
REMARK SMILES CC(=O)[O-]
REMARK SMILES IDX 1 1 2 2 3 3 4 4
REMARK H PARENT
REMARK Flexibility Score: inf
ROOT
ATOM      1  C   UNL     1       5.545   4.276   1.043  1.00  0.00     0.063 C 
ATOM      2  C   UNL     1       4.552   5.319   1.428  1.00  0.00     0.038 C 
ATOM      3  O   UNL     1       3.700   5.080   2.323  1.00  0.00    -0.550 OA
ATOM      4  O   UNL     1       4.599   6.576   0.839  1.00  0.00    -0.550 OA
ENDROOT
TORSDOF 0
ENDMDL
MODEL 7
REMARK VINA RESULT:    -2.296      1.946      2.159
REMARK INTER + INTRA:          -2.296
REMARK INTER:                  -2.296
REMARK INTRA:                   0.000
REMARK UNBOUND:                 0.000
REMARK SMILES CC(=O)[O-]
REMARK SMILES IDX 1 1 2 2 3 3 4 4
REMARK H PARENT
REMARK Flexibility Score: inf
ROOT
ATOM      1  C   UNL     1      -4.944 -10.633   3.316  1.00  0.00     0.063 C 
ATOM      2  C   UNL     1      -6.154 -11.376   2.863  1.00  0.00     0.038 C 
ATOM      3  O   UNL     1      -6.483 -11.368   1.649  1.00  0.00    -0.550 OA
ATOM      4  O   UNL     1      -6.891 -12.125   3.772  1.00  0.00    -0.550 OA
ENDROOT
TORSDOF 0
ENDMDL
MODEL 8
REMARK VINA RESULT:    -2.287     18.462     18.992
REMARK INTER + INTRA:          -2.287
REMARK INTER:                  -2.287
REMARK INTRA:                   0.000
REMARK UNBOUND:                 0.000
REMARK SMILES CC(=O)[O-]
REMARK SMILES IDX 1 1 2 2 3 3 4 4
REMARK H PARENT
REMARK Flexibility Score: inf
ROOT
ATOM      1  C   UNL     1       5.467   4.287   1.008  1.00  0.00     0.063 C 
ATOM      2  C   UNL     1       4.550   5.397   1.395  1.00  0.00     0.038 C 
ATOM      3  O   UNL     1       4.595   6.496   0.783  1.00  0.00    -0.550 OA
ATOM      4  O   UNL     1       3.607   5.204   2.396  1.00  0.00    -0.550 OA
ENDROOT
TORSDOF 0
ENDMDL
MODEL 9
REMARK VINA RESULT:    -2.145     18.940     19.415
REMARK INTER + INTRA:          -2.145
REMARK INTER:                  -2.145
REMARK INTRA:                   0.000
REMARK UNBOUND:                 0.000
REMARK SMILES CC(=O)[O-]
REMARK SMILES IDX 1 1 2 2 3 3 4 4
REMARK H PARENT
REMARK Flexibility Score: inf
ROOT
ATOM      1  C   UNL     1       4.823   4.680   1.444  1.00  0.00     0.063 C 
ATOM      2  C   UNL     1       6.175   4.764   0.822  1.00  0.00     0.038 C 
ATOM      3  O   UNL     1       7.122   4.068   1.272  1.00  0.00    -0.550 OA
ATOM      4  O   UNL     1       6.380   5.571  -0.290  1.00  0.00    -0.550 OA
ENDROOT
TORSDOF 0
ENDMDL
