MODEL 1
REMARK VINA RESULT:    -4.084      0.000      0.000
REMARK INTER + INTRA:          -4.815
REMARK INTER:                  -4.681
REMARK INTRA:                  -0.135
REMARK UNBOUND:                -0.135
REMARK SMILES O=C([O-])C=Cc1ccc(O)cc1
REMARK SMILES IDX 6 1 7 2 12 3 8 4 11 5 9 6 5 7 4 8 2 9 1 10 3 11 10 12
REMARK H PARENT 10 13
REMARK Flexibility Score: inf
ROOT
ATOM      1  C   UNL     1      15.403  -6.197  12.879  1.00  0.00    -0.025 A 
ATOM      2  C   UNL     1      15.335  -6.515  11.513  1.00  0.00     0.012 A 
ATOM      3  C   UNL     1      15.321  -7.239  13.825  1.00  0.00     0.012 A 
ATOM      4  C   UNL     1      15.212  -7.844  11.096  1.00  0.00     0.047 A 
ATOM      5  C   UNL     1      15.197  -8.568  13.405  1.00  0.00     0.047 A 
ATOM      6  C   UNL     1      15.146  -8.874  12.042  1.00  0.00     0.115 A 
ENDROOT
BRANCH   1   7
ATOM      7  C   UNL     1      15.522  -4.770  13.272  1.00  0.00     0.010 C 
ATOM      8  C   UNL     1      16.504  -4.291  14.048  1.00  0.00     0.025 C 
BRANCH   8   9
ATOM      9  C   UNL     1      16.596  -2.865  14.407  1.00  0.00     0.064 C 
ATOM     10  O   UNL     1      16.878  -1.992  13.544  1.00  0.00    -0.545 OA
ATOM     11  O   UNL     1      16.365  -2.477  15.720  1.00  0.00    -0.545 OA
ENDBRANCH   8   9
ENDBRANCH   1   7
BRANCH   6  12
ATOM     12  O   UNL     1      15.024 -10.202  11.639  1.00  0.00    -0.508 OA
ATOM     13  H   UNL     1      14.826 -10.941  12.305  1.00  0.00     0.293 HD
ENDBRANCH   6  12
TORSDOF 3
ENDMDL
MODEL 2
REMARK VINA RESULT:    -4.069      0.376      1.443
REMARK INTER + INTRA:          -4.798
REMARK INTER:                  -4.660
REMARK INTRA:                  -0.138
REMARK UNBOUND:                -0.135
REMARK SMILES O=C([O-])C=Cc1ccc(O)cc1
REMARK SMILES IDX 6 1 7 2 12 3 8 4 11 5 9 6 5 7 4 8 2 9 1 10 3 11 10 12
REMARK H PARENT 10 13
REMARK Flexibility Score: inf
ROOT
ATOM      1  C   UNL     1      15.333  -6.122  13.048  1.00  0.00    -0.025 A 
ATOM      2  C   UNL     1      15.292  -7.053  14.100  1.00  0.00     0.012 A 
ATOM      3  C   UNL     1      15.329  -6.597  11.720  1.00  0.00     0.012 A 
ATOM      4  C   UNL     1      15.223  -8.424  13.835  1.00  0.00     0.047 A 
ATOM      5  C   UNL     1      15.260  -7.969  11.459  1.00  0.00     0.047 A 
ATOM      6  C   UNL     1      15.204  -8.885  12.513  1.00  0.00     0.115 A 
ENDROOT
BRANCH   1   7
ATOM      7  C   UNL     1      15.416  -4.678  13.380  1.00  0.00     0.010 C 
ATOM      8  C   UNL     1      16.447  -4.122  14.031  1.00  0.00     0.025 C 
BRANCH   8   9
ATOM      9  C   UNL     1      16.500  -2.681  14.333  1.00  0.00     0.064 C 
ATOM     10  O   UNL     1      17.096  -1.876  13.569  1.00  0.00    -0.545 OA
ATOM     11  O   UNL     1      15.879  -2.201  15.479  1.00  0.00    -0.545 OA
ENDBRANCH   8   9
ENDBRANCH   1   7
BRANCH   6  12
ATOM     12  O   UNL     1      15.136 -10.249  12.237  1.00  0.00    -0.508 OA
ATOM     13  H   UNL     1      15.970 -10.793  12.049  1.00  0.00     0.293 HD
ENDBRANCH   6  12
TORSDOF 3
ENDMDL
MODEL 3
REMARK VINA RESULT:    -3.965      1.787      5.757
REMARK INTER + INTRA:          -4.679
REMARK INTER:                  -4.544
REMARK INTRA:                  -0.135
REMARK UNBOUND:                -0.135
REMARK SMILES O=C([O-])C=Cc1ccc(O)cc1
REMARK SMILES IDX 6 1 7 2 12 3 8 4 11 5 9 6 5 7 4 8 2 9 1 10 3 11 10 12
REMARK H PARENT 10 13
REMARK Flexibility Score: inf
ROOT
ATOM      1  C   UNL     1      15.804  -4.928  14.090  1.00  0.00    -0.025 A 
ATOM      2  C   UNL     1      14.870  -5.091  15.127  1.00  0.00     0.012 A 
ATOM      3  C   UNL     1      16.522  -3.718  14.007  1.00  0.00     0.012 A 
ATOM      4  C   UNL     1      14.673  -4.081  16.073  1.00  0.00     0.047 A 
ATOM      5  C   UNL     1      16.323  -2.709  14.955  1.00  0.00     0.047 A 
ATOM      6  C   UNL     1      15.402  -2.888  15.992  1.00  0.00     0.115 A 
ENDROOT
BRANCH   1   7
ATOM      7  C   UNL     1      15.970  -6.024  13.103  1.00  0.00     0.010 C 
ATOM      8  C   UNL     1      15.250  -6.129  11.978  1.00  0.00     0.025 C 
BRANCH   8   9
ATOM      9  C   UNL     1      15.451  -7.226  11.016  1.00  0.00     0.064 C 
ATOM     10  O   UNL     1      15.813  -6.997   9.831  1.00  0.00    -0.545 OA
ATOM     11  O   UNL     1      15.240  -8.536  11.424  1.00  0.00    -0.545 OA
ENDBRANCH   8   9
ENDBRANCH   1   7
BRANCH   6  12
ATOM     12  O   UNL     1      15.214  -1.875  16.929  1.00  0.00    -0.508 OA
ATOM     13  H   UNL     1      15.141  -0.903  16.649  1.00  0.00     0.293 HD
ENDBRANCH   6  12
TORSDOF 3
ENDMDL
MODEL 4
REMARK VINA RESULT:    -3.874     11.798     14.542
REMARK INTER + INTRA:          -4.575
REMARK INTER:                  -4.433
REMARK INTRA:                  -0.141
REMARK UNBOUND:                -0.135
REMARK SMILES O=C([O-])C=Cc1ccc(O)cc1
REMARK SMILES IDX 6 1 7 2 12 3 8 4 11 5 9 6 5 7 4 8 2 9 1 10 3 11 10 12
REMARK H PARENT 10 13
REMARK Flexibility Score: inf
ROOT
ATOM      1  C   UNL     1      13.217 -17.546  20.026  1.00  0.00    -0.025 A 
ATOM      2  C   UNL     1      13.181 -16.411  19.199  1.00  0.00     0.012 A 
ATOM      3  C   UNL     1      14.442 -18.222  20.199  1.00  0.00     0.012 A 
ATOM      4  C   UNL     1      14.343 -15.945  18.578  1.00  0.00     0.047 A 
ATOM      5  C   UNL     1      15.603 -17.753  19.575  1.00  0.00     0.047 A 
ATOM      6  C   UNL     1      15.559 -16.613  18.767  1.00  0.00     0.115 A 
ENDROOT
BRANCH   1   7
ATOM      7  C   UNL     1      11.954 -18.008  20.655  1.00  0.00     0.010 C 
ATOM      8  C   UNL     1      10.833 -18.270  19.969  1.00  0.00     0.025 C 
BRANCH   8   9
ATOM      9  C   UNL     1       9.602 -18.738  20.627  1.00  0.00     0.064 C 
ATOM     10  O   UNL     1       9.125 -19.879  20.385  1.00  0.00    -0.545 OA
ATOM     11  O   UNL     1       8.955 -17.908  21.533  1.00  0.00    -0.545 OA
ENDBRANCH   8   9
ENDBRANCH   1   7
BRANCH   6  12
ATOM     12  O   UNL     1      16.724 -16.159  18.154  1.00  0.00    -0.508 OA
ATOM     13  H   UNL     1      17.523 -16.768  18.020  1.00  0.00     0.293 HD
ENDBRANCH   6  12
TORSDOF 3
ENDMDL
MODEL 5
REMARK VINA RESULT:    -3.838     14.187     15.245
REMARK INTER + INTRA:          -4.533
REMARK INTER:                  -4.384
REMARK INTRA:                  -0.149
REMARK UNBOUND:                -0.135
REMARK SMILES O=C([O-])C=Cc1ccc(O)cc1
REMARK SMILES IDX 6 1 7 2 12 3 8 4 11 5 9 6 5 7 4 8 2 9 1 10 3 11 10 12
REMARK H PARENT 10 13
REMARK Flexibility Score: inf
ROOT
ATOM      1  C   UNL     1      13.606 -18.015  20.354  1.00  0.00    -0.025 A 
ATOM      2  C   UNL     1      13.964 -17.911  21.708  1.00  0.00     0.012 A 
ATOM      3  C   UNL     1      14.627 -18.088  19.385  1.00  0.00     0.012 A 
ATOM      4  C   UNL     1      15.309 -17.904  22.091  1.00  0.00     0.047 A 
ATOM      5  C   UNL     1      15.971 -18.080  19.770  1.00  0.00     0.047 A 
ATOM      6  C   UNL     1      16.316 -17.992  21.122  1.00  0.00     0.115 A 
ENDROOT
BRANCH   1   7
ATOM      7  C   UNL     1      12.165 -18.008  19.998  1.00  0.00     0.010 C 
ATOM      8  C   UNL     1      11.184 -18.333  20.851  1.00  0.00     0.025 C 
BRANCH   8   9
ATOM      9  C   UNL     1       9.764 -18.303  20.464  1.00  0.00     0.064 C 
ATOM     10  O   UNL     1       9.053 -19.342  20.509  1.00  0.00    -0.545 OA
ATOM     11  O   UNL     1       9.197 -17.106  20.045  1.00  0.00    -0.545 OA
ENDBRANCH   8   9
ENDBRANCH   1   7
BRANCH   6  12
ATOM     12  O   UNL     1      17.659 -17.986  21.491  1.00  0.00    -0.508 OA
ATOM     13  H   UNL     1      18.021 -17.316  22.160  1.00  0.00     0.293 HD
ENDBRANCH   6  12
TORSDOF 3
ENDMDL
MODEL 6
REMARK VINA RESULT:    -3.774     14.063     14.750
REMARK INTER + INTRA:          -4.460
REMARK INTER:                  -4.324
REMARK INTRA:                  -0.136
REMARK UNBOUND:                -0.135
REMARK SMILES O=C([O-])C=Cc1ccc(O)cc1
REMARK SMILES IDX 6 1 7 2 12 3 8 4 11 5 9 6 5 7 4 8 2 9 1 10 3 11 10 12
REMARK H PARENT 10 13
REMARK Flexibility Score: inf
ROOT
ATOM      1  C   UNL     1      12.279 -17.891  20.059  1.00  0.00    -0.025 A 
ATOM      2  C   UNL     1      11.149 -18.373  20.740  1.00  0.00     0.012 A 
ATOM      3  C   UNL     1      12.258 -17.855  18.650  1.00  0.00     0.012 A 
ATOM      4  C   UNL     1      10.015 -18.788  20.035  1.00  0.00     0.047 A 
ATOM      5  C   UNL     1      11.123 -18.272  17.947  1.00  0.00     0.047 A 
ATOM      6  C   UNL     1       9.998 -18.735  18.636  1.00  0.00     0.115 A 
ENDROOT
BRANCH   1   7
ATOM      7  C   UNL     1      13.462 -17.472  20.851  1.00  0.00     0.010 C 
ATOM      8  C   UNL     1      14.550 -18.234  21.025  1.00  0.00     0.025 C 
BRANCH   8   9
ATOM      9  C   UNL     1      15.710 -17.779  21.809  1.00  0.00     0.064 C 
ATOM     10  O   UNL     1      15.562 -17.192  22.914  1.00  0.00    -0.545 OA
ATOM     11  O   UNL     1      16.992 -18.004  21.324  1.00  0.00    -0.545 OA
ENDBRANCH   8   9
ENDBRANCH   1   7
BRANCH   6  12
ATOM     12  O   UNL     1       8.875 -19.146  17.922  1.00  0.00    -0.508 OA
ATOM     13  H   UNL     1       8.011 -18.615  17.944  1.00  0.00     0.293 HD
ENDBRANCH   6  12
TORSDOF 3
ENDMDL
MODEL 7
REMARK VINA RESULT:    -3.617      9.152     12.082
REMARK INTER + INTRA:          -4.281
REMARK INTER:                  -4.143
REMARK INTRA:                  -0.138
REMARK UNBOUND:                -0.135
REMARK SMILES O=C([O-])C=Cc1ccc(O)cc1
REMARK SMILES IDX 6 1 7 2 12 3 8 4 11 5 9 6 5 7 4 8 2 9 1 10 3 11 10 12
REMARK H PARENT 10 13
REMARK Flexibility Score: inf
ROOT
ATOM      1  C   UNL     1      17.232 -14.367  19.569  1.00  0.00    -0.025 A 
ATOM      2  C   UNL     1      16.366 -13.298  19.284  1.00  0.00     0.012 A 
ATOM      3  C   UNL     1      18.622 -14.137  19.559  1.00  0.00     0.012 A 
ATOM      4  C   UNL     1      16.873 -12.022  19.019  1.00  0.00     0.047 A 
ATOM      5  C   UNL     1      19.127 -12.860  19.292  1.00  0.00     0.047 A 
ATOM      6  C   UNL     1      18.256 -11.799  19.025  1.00  0.00     0.115 A 
ENDROOT
BRANCH   1   7
ATOM      7  C   UNL     1      16.645 -15.705  19.834  1.00  0.00     0.010 C 
ATOM      8  C   UNL     1      16.015 -16.439  18.907  1.00  0.00     0.025 C 
BRANCH   8   9
ATOM      9  C   UNL     1      15.455 -17.768  19.204  1.00  0.00     0.064 C 
ATOM     10  O   UNL     1      16.203 -18.748  19.465  1.00  0.00    -0.545 OA
ATOM     11  O   UNL     1      14.078 -17.944  19.199  1.00  0.00    -0.545 OA
ENDBRANCH   8   9
ENDBRANCH   1   7
BRANCH   6  12
ATOM     12  O   UNL     1      18.773 -10.533  18.762  1.00  0.00    -0.508 OA
ATOM     13  H   UNL     1      18.985 -10.234  17.816  1.00  0.00     0.293 HD
ENDBRANCH   6  12
TORSDOF 3
ENDMDL
MODEL 8
REMARK VINA RESULT:    -3.578     13.797     14.573
REMARK INTER + INTRA:          -4.236
REMARK INTER:                  -4.084
REMARK INTRA:                  -0.152
REMARK UNBOUND:                -0.135
REMARK SMILES O=C([O-])C=Cc1ccc(O)cc1
REMARK SMILES IDX 6 1 7 2 12 3 8 4 11 5 9 6 5 7 4 8 2 9 1 10 3 11 10 12
REMARK H PARENT 10 13
REMARK Flexibility Score: inf
ROOT
ATOM      1  C   UNL     1      13.512 -17.951  20.029  1.00  0.00    -0.025 A 
ATOM      2  C   UNL     1      14.626 -18.004  19.175  1.00  0.00     0.012 A 
ATOM      3  C   UNL     1      13.722 -17.975  21.423  1.00  0.00     0.012 A 
ATOM      4  C   UNL     1      15.922 -18.054  19.698  1.00  0.00     0.047 A 
ATOM      5  C   UNL     1      15.020 -18.026  21.942  1.00  0.00     0.047 A 
ATOM      6  C   UNL     1      16.122 -18.062  21.084  1.00  0.00     0.115 A 
ENDROOT
BRANCH   1   7
ATOM      7  C   UNL     1      12.156 -17.910  19.426  1.00  0.00     0.010 C 
ATOM      8  C   UNL     1      11.927 -17.945  18.106  1.00  0.00     0.025 C 
BRANCH   8   9
ATOM      9  C   UNL     1      10.565 -17.913  17.545  1.00  0.00     0.064 C 
ATOM     10  O   UNL     1      10.239 -18.658  16.582  1.00  0.00    -0.545 OA
ATOM     11  O   UNL     1       9.624 -17.049  18.088  1.00  0.00    -0.545 OA
ENDBRANCH   8   9
ENDBRANCH   1   7
BRANCH   6  12
ATOM     12  O   UNL     1      17.408 -18.112  21.616  1.00  0.00    -0.508 OA
ATOM     13  H   UNL     1      17.642 -17.632  22.479  1.00  0.00     0.293 HD
ENDBRANCH   6  12
TORSDOF 3
ENDMDL
MODEL 9
REMARK VINA RESULT:    -3.568      8.166     10.857
REMARK INTER + INTRA:          -4.224
REMARK INTER:                  -4.085
REMARK INTRA:                  -0.138
REMARK UNBOUND:                -0.135
REMARK SMILES O=C([O-])C=Cc1ccc(O)cc1
REMARK SMILES IDX 6 1 7 2 12 3 8 4 11 5 9 6 5 7 4 8 2 9 1 10 3 11 10 12
REMARK H PARENT 10 13
REMARK Flexibility Score: inf
ROOT
ATOM      1  C   UNL     1      18.535 -12.267  19.209  1.00  0.00    -0.025 A 
ATOM      2  C   UNL     1      19.615 -11.891  20.025  1.00  0.00     0.012 A 
ATOM      3  C   UNL     1      17.925 -11.291  18.396  1.00  0.00     0.012 A 
ATOM      4  C   UNL     1      20.093 -10.578  20.012  1.00  0.00     0.047 A 
ATOM      5  C   UNL     1      18.405  -9.977  18.386  1.00  0.00     0.047 A 
ATOM      6  C   UNL     1      19.490  -9.617  19.190  1.00  0.00     0.115 A 
ENDROOT
BRANCH   1   7
ATOM      7  C   UNL     1      18.057 -13.672  19.266  1.00  0.00     0.010 C 
ATOM      8  C   UNL     1      16.762 -14.019  19.264  1.00  0.00     0.025 C 
BRANCH   8   9
ATOM      9  C   UNL     1      16.326 -15.425  19.309  1.00  0.00     0.064 C 
ATOM     10  O   UNL     1      16.291 -16.062  20.396  1.00  0.00    -0.545 OA
ATOM     11  O   UNL     1      15.945 -16.059  18.134  1.00  0.00    -0.545 OA
ENDBRANCH   8   9
ENDBRANCH   1   7
BRANCH   6  12
ATOM     12  O   UNL     1      19.958  -8.305  19.168  1.00  0.00    -0.508 OA
ATOM     13  H   UNL     1      19.910  -7.713  19.990  1.00  0.00     0.293 HD
ENDBRANCH   6  12
TORSDOF 3
ENDMDL
