MODEL 1
REMARK VINA RESULT:    -4.607      0.000      0.000
REMARK INTER + INTRA:          -6.006
REMARK INTER:                  -7.030
REMARK INTRA:                   1.024
REMARK UNBOUND:                 1.024
REMARK SMILES CC1=CCC[C@@H](C)C(=O)C[C@H](C(C)C)C(=O)C1
REMARK SMILES IDX 8 1 9 2 6 3 7 4 5 5 4 6 3 7 2 8 1 9 10 11 11 12 15 13 16 14
REMARK SMILES IDX 17 15 12 17 13 18 14 19
REMARK H PARENT
REMARK Flexibility Score: 70.00
ROOT
ATOM      1  C   UNL     1      32.298  21.326   7.321  1.00  0.00     0.136 C 
ATOM      2  O   UNL     1      33.431  21.723   7.092  1.00  0.00    -0.299 OA
ENDROOT
BRANCH   1   3
ATOM      3  C   UNL     1      31.798  20.100   6.581  1.00  0.00     0.053 C 
ATOM      4  C   UNL     1      32.361  20.086   5.155  1.00  0.00     0.016 C 
BRANCH   3   5
ATOM      5  C   UNL     1      30.253  19.981   6.559  1.00  0.00     0.015 C 
BRANCH   5   6
ATOM      6  C   UNL     1      29.537  20.174   5.193  1.00  0.00     0.028 C 
BRANCH   6   7
ATOM      7  C   UNL     1      28.243  20.958   5.228  1.00  0.00    -0.028 C 
ATOM      8  C   UNL     1      27.726  21.605   6.304  1.00  0.00    -0.070 CG0
ATOM      9  C   UNL     1      26.408  22.316   6.128  1.00  0.00     0.039 C 
ATOM     10  G   UNL     1      28.359  21.600   7.684  1.00  0.00     0.000 G0
ENDBRANCH   6   7
ENDBRANCH   5   6
ENDBRANCH   3   5
ENDBRANCH   1   3
BRANCH   1  11
ATOM     11  C   UNL     1      31.438  22.115   8.286  1.00  0.00     0.087 C 
BRANCH  11  12
ATOM     12  C   UNL     1      30.512  23.131   7.572  1.00  0.00     0.066 C 
BRANCH  12  13
ATOM     13  C   UNL     1      29.052  22.925   7.936  1.00  0.00     0.140 C 
ATOM     14  O   UNL     1      28.434  23.808   8.513  1.00  0.00    -0.299 OA
BRANCH  13  15
ATOM     15  C   UNL     1      28.374  21.605   7.682  1.00  0.00     0.106 CG0
ATOM     16  G   UNL     1      27.726  21.596   6.309  1.00  0.00     0.000 G0
ENDBRANCH  13  15
ENDBRANCH  12  13
BRANCH  12  17
ATOM     17  C   UNL     1      30.989  24.605   7.750  1.00  0.00    -0.006 C 
ATOM     18  C   UNL     1      32.183  24.683   8.713  1.00  0.00     0.008 C 
ATOM     19  C   UNL     1      31.332  25.328   6.435  1.00  0.00     0.008 C 
ENDBRANCH  12  17
ENDBRANCH  11  12
ENDBRANCH   1  11
TORSDOF 1
ENDMDL
MODEL 2
REMARK VINA RESULT:    -4.259      3.228      5.397
REMARK INTER + INTRA:          -5.475
REMARK INTER:                  -5.991
REMARK INTRA:                   0.516
REMARK UNBOUND:                 1.024
REMARK SMILES CC1=CCC[C@@H](C)C(=O)C[C@H](C(C)C)C(=O)C1
REMARK SMILES IDX 8 1 9 2 6 3 7 4 5 5 4 6 3 7 2 8 1 9 10 11 11 12 15 13 16 14
REMARK SMILES IDX 17 15 12 17 13 18 14 19
REMARK H PARENT
REMARK Flexibility Score: 70.00
ROOT
ATOM      1  C   UNL     1      27.315  22.497   5.636  1.00  0.00     0.136 C 
ATOM      2  O   UNL     1      27.515  21.929   4.572  1.00  0.00    -0.299 OA
ENDROOT
BRANCH   1   3
ATOM      3  C   UNL     1      28.243  22.201   6.799  1.00  0.00     0.053 C 
ATOM      4  C   UNL     1      29.701  22.390   6.365  1.00  0.00     0.016 C 
BRANCH   3   5
ATOM      5  C   UNL     1      28.034  20.792   7.411  1.00  0.00     0.015 C 
BRANCH   5   6
ATOM      6  C   UNL     1      26.927  19.896   6.789  1.00  0.00     0.028 C 
BRANCH   6   7
ATOM      7  C   UNL     1      25.576  19.942   7.471  1.00  0.00    -0.028 C 
ATOM      8  C   UNL     1      24.391  20.247   6.884  1.00  0.00    -0.070 CG0
ATOM      9  C   UNL     1      23.158  20.252   7.753  1.00  0.00     0.039 C 
ATOM     10  G   UNL     1      24.241  20.644   5.426  1.00  0.00     0.000 G0
ENDBRANCH   6   7
ENDBRANCH   5   6
ENDBRANCH   3   5
ENDBRANCH   1   3
BRANCH   1  11
ATOM     11  C   UNL     1      26.118  23.418   5.749  1.00  0.00     0.087 C 
BRANCH  11  12
ATOM     12  C   UNL     1      25.002  23.079   4.730  1.00  0.00     0.066 C 
BRANCH  12  13
ATOM     13  C   UNL     1      23.961  22.141   5.316  1.00  0.00     0.140 C 
ATOM     14  O   UNL     1      22.923  22.591   5.779  1.00  0.00    -0.299 OA
BRANCH  13  15
ATOM     15  C   UNL     1      24.229  20.663   5.422  1.00  0.00     0.106 CG0
ATOM     16  G   UNL     1      24.394  20.255   6.875  1.00  0.00     0.000 G0
ENDBRANCH  13  15
ENDBRANCH  12  13
BRANCH  12  17
ATOM     17  C   UNL     1      24.384  24.350   4.072  1.00  0.00    -0.006 C 
ATOM     18  C   UNL     1      24.295  25.503   5.083  1.00  0.00     0.008 C 
ATOM     19  C   UNL     1      25.110  24.828   2.801  1.00  0.00     0.008 C 
ENDBRANCH  12  17
ENDBRANCH  11  12
ENDBRANCH   1  11
TORSDOF 1
ENDMDL
MODEL 3
REMARK VINA RESULT:    -4.123      1.806      4.405
REMARK INTER + INTRA:          -5.268
REMARK INTER:                  -6.451
REMARK INTRA:                   1.183
REMARK UNBOUND:                 1.024
REMARK SMILES CC1=CCC[C@@H](C)C(=O)C[C@H](C(C)C)C(=O)C1
REMARK SMILES IDX 8 1 9 2 6 3 7 4 5 5 4 6 3 7 2 8 1 9 10 11 11 12 15 13 16 14
REMARK SMILES IDX 17 15 12 17 13 18 14 19
REMARK H PARENT
REMARK Flexibility Score: 70.00
ROOT
ATOM      1  C   UNL     1      28.918  23.643   8.217  1.00  0.00     0.136 C 
ATOM      2  O   UNL     1      28.334  24.691   8.457  1.00  0.00    -0.299 OA
ENDROOT
BRANCH   1   3
ATOM      3  C   UNL     1      30.433  23.633   8.264  1.00  0.00     0.053 C 
ATOM      4  C   UNL     1      31.000  24.210   6.961  1.00  0.00     0.016 C 
BRANCH   3   5
ATOM      5  C   UNL     1      31.033  22.232   8.547  1.00  0.00     0.015 C 
BRANCH   5   6
ATOM      6  C   UNL     1      32.393  21.886   7.879  1.00  0.00     0.028 C 
BRANCH   6   7
ATOM      7  C   UNL     1      32.314  21.198   6.533  1.00  0.00    -0.028 C 
ATOM      8  C   UNL     1      31.255  20.499   6.051  1.00  0.00    -0.070 CG0
ATOM      9  C   UNL     1      31.390  19.875   4.684  1.00  0.00     0.039 C 
ATOM     10  G   UNL     1      29.972  20.255   6.826  1.00  0.00     0.000 G0
ENDBRANCH   6   7
ENDBRANCH   5   6
ENDBRANCH   3   5
ENDBRANCH   1   3
BRANCH   1  11
ATOM     11  C   UNL     1      28.096  22.431   7.830  1.00  0.00     0.087 C 
BRANCH  11  12
ATOM     12  C   UNL     1      28.170  22.115   6.315  1.00  0.00     0.066 C 
BRANCH  12  13
ATOM     13  C   UNL     1      28.765  20.744   6.048  1.00  0.00     0.140 C 
ATOM     14  O   UNL     1      28.235  19.992   5.244  1.00  0.00    -0.299 OA
BRANCH  13  15
ATOM     15  C   UNL     1      29.955  20.256   6.832  1.00  0.00     0.106 CG0
ATOM     16  G   UNL     1      31.239  20.508   6.063  1.00  0.00     0.000 G0
ENDBRANCH  13  15
ENDBRANCH  12  13
BRANCH  12  17
ATOM     17  C   UNL     1      26.811  22.349   5.587  1.00  0.00    -0.006 C 
ATOM     18  C   UNL     1      26.050  23.529   6.210  1.00  0.00     0.008 C 
ATOM     19  C   UNL     1      26.928  22.550   4.065  1.00  0.00     0.008 C 
ENDBRANCH  12  17
ENDBRANCH  11  12
ENDBRANCH   1  11
TORSDOF 1
ENDMDL
MODEL 4
REMARK VINA RESULT:    -3.969      1.361      2.029
REMARK INTER + INTRA:          -5.033
REMARK INTER:                  -5.887
REMARK INTRA:                   0.854
REMARK UNBOUND:                 1.024
REMARK SMILES CC1=CCC[C@@H](C)C(=O)C[C@H](C(C)C)C(=O)C1
REMARK SMILES IDX 8 1 9 2 6 3 7 4 5 5 4 6 3 7 2 8 1 9 10 11 11 12 15 13 16 14
REMARK SMILES IDX 17 15 12 17 13 18 14 19
REMARK H PARENT
REMARK Flexibility Score: 70.00
ROOT
ATOM      1  C   UNL     1      31.518  22.094   8.370  1.00  0.00     0.136 C 
ATOM      2  O   UNL     1      32.119  22.780   9.184  1.00  0.00    -0.299 OA
ENDROOT
BRANCH   1   3
ATOM      3  C   UNL     1      32.320  21.333   7.332  1.00  0.00     0.053 C 
ATOM      4  C   UNL     1      33.670  22.025   7.106  1.00  0.00     0.016 C 
BRANCH   3   5
ATOM      5  C   UNL     1      31.571  21.147   5.988  1.00  0.00     0.015 C 
BRANCH   5   6
ATOM      6  C   UNL     1      30.692  19.875   5.828  1.00  0.00     0.028 C 
BRANCH   6   7
ATOM      7  C   UNL     1      29.511  20.001   4.889  1.00  0.00    -0.028 C 
ATOM      8  C   UNL     1      28.274  20.458   5.212  1.00  0.00    -0.070 CG0
ATOM      9  C   UNL     1      27.230  20.486   4.125  1.00  0.00     0.039 C 
ATOM     10  G   UNL     1      27.862  20.881   6.611  1.00  0.00     0.000 G0
ENDBRANCH   6   7
ENDBRANCH   5   6
ENDBRANCH   3   5
ENDBRANCH   1   3
BRANCH   1  11
ATOM     11  C   UNL     1      30.003  22.090   8.408  1.00  0.00     0.087 C 
BRANCH  11  12
ATOM     12  C   UNL     1      29.372  22.950   7.285  1.00  0.00     0.066 C 
BRANCH  12  13
ATOM     13  C   UNL     1      28.055  22.373   6.797  1.00  0.00     0.140 C 
ATOM     14  O   UNL     1      27.095  23.107   6.613  1.00  0.00    -0.299 OA
BRANCH  13  15
ATOM     15  C   UNL     1      27.883  20.887   6.624  1.00  0.00     0.106 CG0
ATOM     16  G   UNL     1      28.264  20.467   5.215  1.00  0.00     0.000 G0
ENDBRANCH  13  15
ENDBRANCH  12  13
BRANCH  12  17
ATOM     17  C   UNL     1      29.279  24.459   7.666  1.00  0.00    -0.006 C 
ATOM     18  C   UNL     1      28.409  24.656   8.918  1.00  0.00     0.008 C 
ATOM     19  C   UNL     1      30.639  25.153   7.864  1.00  0.00     0.008 C 
ENDBRANCH  12  17
ENDBRANCH  11  12
ENDBRANCH   1  11
TORSDOF 1
ENDMDL
MODEL 5
REMARK VINA RESULT:    -3.730      1.605      3.814
REMARK INTER + INTRA:          -4.668
REMARK INTER:                  -5.043
REMARK INTRA:                   0.374
REMARK UNBOUND:                 1.024
REMARK SMILES CC1=CCC[C@@H](C)C(=O)C[C@H](C(C)C)C(=O)C1
REMARK SMILES IDX 8 1 9 2 6 3 7 4 5 5 4 6 3 7 2 8 1 9 10 11 11 12 15 13 16 14
REMARK SMILES IDX 17 15 12 17 13 18 14 19
REMARK H PARENT
REMARK Flexibility Score: 70.00
ROOT
ATOM      1  C   UNL     1      31.549  23.774   7.836  1.00  0.00     0.136 C 
ATOM      2  O   UNL     1      32.096  23.556   8.907  1.00  0.00    -0.299 OA
ENDROOT
BRANCH   1   3
ATOM      3  C   UNL     1      30.733  25.043   7.685  1.00  0.00     0.053 C 
ATOM      4  C   UNL     1      31.517  26.237   8.245  1.00  0.00     0.016 C 
BRANCH   3   5
ATOM      5  C   UNL     1      29.331  24.956   8.338  1.00  0.00     0.015 C 
BRANCH   5   6
ATOM      6  C   UNL     1      28.689  23.547   8.476  1.00  0.00     0.028 C 
BRANCH   6   7
ATOM      7  C   UNL     1      27.577  23.228   7.501  1.00  0.00    -0.028 C 
ATOM      8  C   UNL     1      27.700  22.524   6.347  1.00  0.00    -0.070 CG0
ATOM      9  C   UNL     1      26.462  22.332   5.506  1.00  0.00     0.039 C 
ATOM     10  G   UNL     1      29.014  21.975   5.821  1.00  0.00     0.000 G0
ENDBRANCH   6   7
ENDBRANCH   5   6
ENDBRANCH   3   5
ENDBRANCH   1   3
BRANCH   1  11
ATOM     11  C   UNL     1      31.669  22.734   6.740  1.00  0.00     0.087 C 
BRANCH  11  12
ATOM     12  C   UNL     1      31.170  21.336   7.182  1.00  0.00     0.066 C 
BRANCH  12  13
ATOM     13  C   UNL     1      29.716  21.105   6.809  1.00  0.00     0.140 C 
ATOM     14  O   UNL     1      29.112  20.145   7.265  1.00  0.00    -0.299 OA
BRANCH  13  15
ATOM     15  C   UNL     1      29.030  21.992   5.805  1.00  0.00     0.106 CG0
ATOM     16  G   UNL     1      27.711  22.502   6.359  1.00  0.00     0.000 G0
ENDBRANCH  13  15
ENDBRANCH  12  13
BRANCH  12  17
ATOM     17  C   UNL     1      32.116  20.187   6.716  1.00  0.00    -0.006 C 
ATOM     18  C   UNL     1      31.906  19.875   5.226  1.00  0.00     0.008 C 
ATOM     19  C   UNL     1      33.609  20.439   6.990  1.00  0.00     0.008 C 
ENDBRANCH  12  17
ENDBRANCH  11  12
ENDBRANCH   1  11
TORSDOF 1
ENDMDL
MODEL 6
REMARK VINA RESULT:    -3.709      1.750      3.192
REMARK INTER + INTRA:          -4.636
REMARK INTER:                  -5.203
REMARK INTRA:                   0.566
REMARK UNBOUND:                 1.024
REMARK SMILES CC1=CCC[C@@H](C)C(=O)C[C@H](C(C)C)C(=O)C1
REMARK SMILES IDX 8 1 9 2 6 3 7 4 5 5 4 6 3 7 2 8 1 9 10 11 11 12 15 13 16 14
REMARK SMILES IDX 17 15 12 17 13 18 14 19
REMARK H PARENT
REMARK Flexibility Score: 70.00
ROOT
ATOM      1  C   UNL     1      30.060  20.101   5.193  1.00  0.00     0.136 C 
ATOM      2  O   UNL     1      30.985  19.881   4.424  1.00  0.00    -0.299 OA
ENDROOT
BRANCH   1   3
ATOM      3  C   UNL     1      28.644  20.051   4.653  1.00  0.00     0.053 C 
ATOM      4  C   UNL     1      28.671  19.875   3.130  1.00  0.00     0.016 C 
BRANCH   3   5
ATOM      5  C   UNL     1      27.790  21.283   5.045  1.00  0.00     0.015 C 
BRANCH   5   6
ATOM      6  C   UNL     1      27.301  21.379   6.518  1.00  0.00     0.028 C 
BRANCH   6   7
ATOM      7  C   UNL     1      27.324  22.761   7.135  1.00  0.00    -0.028 C 
ATOM      8  C   UNL     1      28.273  23.248   7.974  1.00  0.00    -0.070 CG0
ATOM      9  C   UNL     1      28.096  24.654   8.492  1.00  0.00     0.039 C 
ATOM     10  G   UNL     1      29.462  22.446   8.472  1.00  0.00     0.000 G0
ENDBRANCH   6   7
ENDBRANCH   5   6
ENDBRANCH   3   5
ENDBRANCH   1   3
BRANCH   1  11
ATOM     11  C   UNL     1      30.385  20.471   6.625  1.00  0.00     0.087 C 
BRANCH  11  12
ATOM     12  C   UNL     1      31.279  21.732   6.732  1.00  0.00     0.066 C 
BRANCH  12  13
ATOM     13  C   UNL     1      30.698  22.763   7.683  1.00  0.00     0.140 C 
ATOM     14  O   UNL     1      31.277  23.824   7.863  1.00  0.00    -0.299 OA
BRANCH  13  15
ATOM     15  C   UNL     1      29.461  22.460   8.485  1.00  0.00     0.106 CG0
ATOM     16  G   UNL     1      28.275  23.244   7.952  1.00  0.00     0.000 G0
ENDBRANCH  13  15
ENDBRANCH  12  13
BRANCH  12  17
ATOM     17  C   UNL     1      32.769  21.386   7.034  1.00  0.00    -0.006 C 
ATOM     18  C   UNL     1      33.054  19.901   6.762  1.00  0.00     0.008 C 
ATOM     19  C   UNL     1      33.792  22.258   6.283  1.00  0.00     0.008 C 
ENDBRANCH  12  17
ENDBRANCH  11  12
ENDBRANCH   1  11
TORSDOF 1
ENDMDL
MODEL 7
REMARK VINA RESULT:    -3.703      3.695      6.910
REMARK INTER + INTRA:          -4.628
REMARK INTER:                  -4.401
REMARK INTRA:                  -0.227
REMARK UNBOUND:                 1.024
REMARK SMILES CC1=CCC[C@@H](C)C(=O)C[C@H](C(C)C)C(=O)C1
REMARK SMILES IDX 8 1 9 2 6 3 7 4 5 5 4 6 3 7 2 8 1 9 10 11 11 12 15 13 16 14
REMARK SMILES IDX 17 15 12 17 13 18 14 19
REMARK H PARENT
REMARK Flexibility Score: 70.00
ROOT
ATOM      1  C   UNL     1      24.104  23.348   5.239  1.00  0.00     0.136 C 
ATOM      2  O   UNL     1      22.994  23.395   4.730  1.00  0.00    -0.299 OA
ENDROOT
BRANCH   1   3
ATOM      3  C   UNL     1      25.205  24.212   4.656  1.00  0.00     0.053 C 
ATOM      4  C   UNL     1      24.734  25.669   4.569  1.00  0.00     0.016 C 
BRANCH   3   5
ATOM      5  C   UNL     1      25.712  23.719   3.277  1.00  0.00     0.015 C 
BRANCH   5   6
ATOM      6  C   UNL     1      26.349  22.303   3.212  1.00  0.00     0.028 C 
BRANCH   6   7
ATOM      7  C   UNL     1      27.495  22.048   4.168  1.00  0.00    -0.028 C 
ATOM      8  C   UNL     1      27.621  20.985   5.003  1.00  0.00    -0.070 CG0
ATOM      9  C   UNL     1      28.840  20.931   5.890  1.00  0.00     0.039 C 
ATOM     10  G   UNL     1      26.584  19.886   5.144  1.00  0.00     0.000 G0
ENDBRANCH   6   7
ENDBRANCH   5   6
ENDBRANCH   3   5
ENDBRANCH   1   3
BRANCH   1  11
ATOM     11  C   UNL     1      24.331  22.384   6.386  1.00  0.00     0.087 C 
BRANCH  11  12
ATOM     12  C   UNL     1      24.296  20.901   5.939  1.00  0.00     0.066 C 
BRANCH  12  13
ATOM     13  C   UNL     1      25.600  20.184   6.242  1.00  0.00     0.140 C 
ATOM     14  O   UNL     1      25.900  19.919   7.396  1.00  0.00    -0.299 OA
BRANCH  13  15
ATOM     15  C   UNL     1      26.581  19.875   5.142  1.00  0.00     0.106 CG0
ATOM     16  G   UNL     1      27.597  20.996   5.005  1.00  0.00     0.000 G0
ENDBRANCH  13  15
ENDBRANCH  12  13
BRANCH  12  17
ATOM     17  C   UNL     1      23.040  20.145   6.470  1.00  0.00    -0.006 C 
ATOM     18  C   UNL     1      22.602  20.699   7.834  1.00  0.00     0.008 C 
ATOM     19  C   UNL     1      21.843  20.137   5.502  1.00  0.00     0.008 C 
ENDBRANCH  12  17
ENDBRANCH  11  12
ENDBRANCH   1  11
TORSDOF 1
ENDMDL
MODEL 8
REMARK VINA RESULT:    -3.617      3.653      6.599
REMARK INTER + INTRA:          -4.496
REMARK INTER:                  -4.243
REMARK INTRA:                  -0.254
REMARK UNBOUND:                 1.024
REMARK SMILES CC1=CCC[C@@H](C)C(=O)C[C@H](C(C)C)C(=O)C1
REMARK SMILES IDX 8 1 9 2 6 3 7 4 5 5 4 6 3 7 2 8 1 9 10 11 11 12 15 13 16 14
REMARK SMILES IDX 17 15 12 17 13 18 14 19
REMARK H PARENT
REMARK Flexibility Score: 70.00
ROOT
ATOM      1  C   UNL     1      23.460  22.397   5.669  1.00  0.00     0.136 C 
ATOM      2  O   UNL     1      23.181  23.208   6.540  1.00  0.00    -0.299 OA
ENDROOT
BRANCH   1   3
ATOM      3  C   UNL     1      23.348  20.920   5.994  1.00  0.00     0.053 C 
ATOM      4  C   UNL     1      21.905  20.578   6.385  1.00  0.00     0.016 C 
BRANCH   3   5
ATOM      5  C   UNL     1      24.336  20.453   7.093  1.00  0.00     0.015 C 
BRANCH   5   6
ATOM      6  C   UNL     1      25.711  19.894   6.631  1.00  0.00     0.028 C 
BRANCH   6   7
ATOM      7  C   UNL     1      26.882  20.847   6.735  1.00  0.00    -0.028 C 
ATOM      8  C   UNL     1      27.359  21.643   5.743  1.00  0.00    -0.070 CG0
ATOM      9  C   UNL     1      28.553  22.510   6.053  1.00  0.00     0.039 C 
ATOM     10  G   UNL     1      26.805  21.664   4.330  1.00  0.00     0.000 G0
ENDBRANCH   6   7
ENDBRANCH   5   6
ENDBRANCH   3   5
ENDBRANCH   1   3
BRANCH   1  11
ATOM     11  C   UNL     1      23.958  22.913   4.335  1.00  0.00     0.087 C 
BRANCH  11  12
ATOM     12  C   UNL     1      25.237  23.777   4.466  1.00  0.00     0.066 C 
BRANCH  12  13
ATOM     13  C   UNL     1      26.458  23.078   3.893  1.00  0.00     0.140 C 
ATOM     14  O   UNL     1      27.125  23.623   3.027  1.00  0.00    -0.299 OA
BRANCH  13  15
ATOM     15  C   UNL     1      26.807  21.674   4.309  1.00  0.00     0.106 CG0
ATOM     16  G   UNL     1      27.342  21.658   5.730  1.00  0.00     0.000 G0
ENDBRANCH  13  15
ENDBRANCH  12  13
BRANCH  12  17
ATOM     17  C   UNL     1      25.043  25.224   3.918  1.00  0.00    -0.006 C 
ATOM     18  C   UNL     1      23.985  25.251   2.804  1.00  0.00     0.008 C 
ATOM     19  C   UNL     1      24.695  26.272   4.991  1.00  0.00     0.008 C 
ENDBRANCH  12  17
ENDBRANCH  11  12
ENDBRANCH   1  11
TORSDOF 1
ENDMDL
MODEL 9
REMARK VINA RESULT:    -3.276      3.804      6.157
REMARK INTER + INTRA:          -3.976
REMARK INTER:                  -5.340
REMARK INTRA:                   1.364
REMARK UNBOUND:                 1.024
REMARK SMILES CC1=CCC[C@@H](C)C(=O)C[C@H](C(C)C)C(=O)C1
REMARK SMILES IDX 8 1 9 2 6 3 7 4 5 5 4 6 3 7 2 8 1 9 10 11 11 12 15 13 16 14
REMARK SMILES IDX 17 15 12 17 13 18 14 19
REMARK H PARENT
REMARK Flexibility Score: 70.00
ROOT
ATOM      1  C   UNL     1      26.720  20.283   5.857  1.00  0.00     0.136 C 
ATOM      2  O   UNL     1      27.091  20.245   7.021  1.00  0.00    -0.299 OA
ENDROOT
BRANCH   1   3
ATOM      3  C   UNL     1      27.738  20.618   4.784  1.00  0.00     0.053 C 
ATOM      4  C   UNL     1      29.157  20.433   5.335  1.00  0.00     0.016 C 
BRANCH   3   5
ATOM      5  C   UNL     1      27.563  22.038   4.190  1.00  0.00     0.015 C 
BRANCH   5   6
ATOM      6  C   UNL     1      26.304  22.301   3.316  1.00  0.00     0.028 C 
BRANCH   6   7
ATOM      7  C   UNL     1      25.615  23.631   3.531  1.00  0.00    -0.028 C 
ATOM      8  C   UNL     1      25.097  24.086   4.701  1.00  0.00    -0.070 CG0
ATOM      9  C   UNL     1      24.433  25.440   4.694  1.00  0.00     0.039 C 
ATOM     10  G   UNL     1      25.089  23.291   5.994  1.00  0.00     0.000 G0
ENDBRANCH   6   7
ENDBRANCH   5   6
ENDBRANCH   3   5
ENDBRANCH   1   3
BRANCH   1  11
ATOM     11  C   UNL     1      25.253  20.051   5.559  1.00  0.00     0.087 C 
BRANCH  11  12
ATOM     12  C   UNL     1      24.316  20.840   6.509  1.00  0.00     0.066 C 
BRANCH  12  13
ATOM     13  C   UNL     1      24.025  22.237   5.991  1.00  0.00     0.140 C 
ATOM     14  O   UNL     1      22.940  22.491   5.490  1.00  0.00    -0.299 OA
BRANCH  13  15
ATOM     15  C   UNL     1      25.094  23.298   5.997  1.00  0.00     0.106 CG0
ATOM     16  G   UNL     1      25.083  24.072   4.691  1.00  0.00     0.000 G0
ENDBRANCH  13  15
ENDBRANCH  12  13
BRANCH  12  17
ATOM     17  C   UNL     1      23.030  20.041   6.881  1.00  0.00    -0.006 C 
ATOM     18  C   UNL     1      22.328  20.668   8.096  1.00  0.00     0.008 C 
ATOM     19  C   UNL     1      22.025  19.875   5.727  1.00  0.00     0.008 C 
ENDBRANCH  12  17
ENDBRANCH  11  12
ENDBRANCH   1  11
TORSDOF 1
ENDMDL
