MODEL 1
REMARK VINA RESULT:    -5.978      0.000      0.000
REMARK INTER + INTRA:          -6.153
REMARK INTER:                  -6.153
REMARK INTRA:                   0.000
REMARK UNBOUND:                 0.000
REMARK SMILES C=C1CCC[C@]2(C)C[C@]3(O)OC(=O)C(C)=C3C[C@H]12
REMARK SMILES IDX 15 1 14 2 16 3 17 4 18 5 2 6 1 7 3 8 4 9 5 10 6 11 8 12 9 13
REMARK SMILES IDX 11 14 12 15 13 16 7 17 10 18
REMARK H PARENT 10 19
REMARK Flexibility Score: inf
ROOT
ATOM      1  C   UNL     1      -4.000  -2.638  -1.146  1.00  0.00     0.052 C 
ATOM      2  C   UNL     1      -5.291  -2.160  -0.553  1.00  0.00     0.040 C 
ATOM      3  C   UNL     1      -5.777  -2.409   0.666  1.00  0.00     0.012 C 
ATOM      4  C   UNL     1      -5.207  -3.327   1.712  1.00  0.00     0.047 C 
ATOM      5  C   UNL     1      -6.298  -4.317   2.221  1.00  0.00     0.025 C 
ATOM      6  C   UNL     1      -6.592  -5.498   1.283  1.00  0.00    -0.073 C 
ATOM      7  C   UNL     1      -5.950  -5.731   0.123  1.00  0.00     0.008 C 
ATOM      8  C   UNL     1      -7.638  -6.481   1.742  1.00  0.00     0.031 C 
ATOM      9  C   UNL     1      -8.946  -5.748   2.015  1.00  0.00     0.005 C 
ATOM     10  C   UNL     1      -8.736  -4.608   3.020  1.00  0.00     0.008 C 
ATOM     11  C   UNL     1      -7.637  -3.578   2.604  1.00  0.00    -0.019 C 
ATOM     12  C   UNL     1      -8.153  -2.721   1.398  1.00  0.00     0.092 C 
ATOM     13  C   UNL     1      -7.105  -1.723   0.860  1.00  0.00     0.235 C 
ATOM     14  O   UNL     1      -7.429  -1.265  -0.452  1.00  0.00    -0.426 OA
ATOM     15  C   UNL     1      -6.334  -1.463  -1.272  1.00  0.00     0.336 C 
ATOM     16  O   UNL     1      -6.287  -1.111  -2.479  1.00  0.00    -0.246 OA
ATOM     17  C   UNL     1      -7.414  -2.675   3.847  1.00  0.00     0.012 C 
ENDROOT
BRANCH  13  18
ATOM     18  O   UNL     1      -6.949  -0.620   1.713  1.00  0.00    -0.353 OA
ATOM     19  H   UNL     1      -7.821  -0.480   2.166  1.00  0.00     0.215 HD
ENDBRANCH  13  18
TORSDOF 1
ENDMDL
MODEL 2
REMARK VINA RESULT:    -5.956      3.804      5.175
REMARK INTER + INTRA:          -6.130
REMARK INTER:                  -6.130
REMARK INTRA:                   0.000
REMARK UNBOUND:                 0.000
REMARK SMILES C=C1CCC[C@]2(C)C[C@]3(O)OC(=O)C(C)=C3C[C@H]12
REMARK SMILES IDX 15 1 14 2 16 3 17 4 18 5 2 6 1 7 3 8 4 9 5 10 6 11 8 12 9 13
REMARK SMILES IDX 11 14 12 15 13 16 7 17 10 18
REMARK H PARENT 10 19
REMARK Flexibility Score: inf
ROOT
ATOM      1  C   UNL     1      -8.350  -1.649  -4.355  1.00  0.00     0.052 C 
ATOM      2  C   UNL     1      -7.514  -1.339  -3.150  1.00  0.00     0.040 C 
ATOM      3  C   UNL     1      -6.182  -1.324  -3.055  1.00  0.00     0.012 C 
ATOM      4  C   UNL     1      -5.183  -1.727  -4.104  1.00  0.00     0.047 C 
ATOM      5  C   UNL     1      -4.165  -2.752  -3.521  1.00  0.00     0.025 C 
ATOM      6  C   UNL     1      -4.687  -4.192  -3.404  1.00  0.00    -0.073 C 
ATOM      7  C   UNL     1      -5.906  -4.598  -3.805  1.00  0.00     0.008 C 
ATOM      8  C   UNL     1      -3.730  -5.215  -2.847  1.00  0.00     0.031 C 
ATOM      9  C   UNL     1      -3.241  -4.769  -1.475  1.00  0.00     0.005 C 
ATOM     10  C   UNL     1      -2.623  -3.367  -1.543  1.00  0.00     0.008 C 
ATOM     11  C   UNL     1      -3.567  -2.275  -2.142  1.00  0.00    -0.019 C 
ATOM     12  C   UNL     1      -4.717  -1.962  -1.126  1.00  0.00     0.092 C 
ATOM     13  C   UNL     1      -5.751  -0.949  -1.661  1.00  0.00     0.235 C 
ATOM     14  O   UNL     1      -6.971  -0.991  -0.921  1.00  0.00    -0.426 OA
ATOM     15  C   UNL     1      -8.019  -1.156  -1.807  1.00  0.00     0.336 C 
ATOM     16  O   UNL     1      -9.231  -1.177  -1.468  1.00  0.00    -0.246 OA
ATOM     17  C   UNL     1      -2.678  -1.019  -2.350  1.00  0.00     0.012 C 
ENDROOT
BRANCH  13  18
ATOM     18  O   UNL     1      -5.249   0.361  -1.656  1.00  0.00    -0.353 OA
ATOM     19  H   UNL     1      -4.334   0.320  -2.038  1.00  0.00     0.215 HD
ENDBRANCH  13  18
TORSDOF 1
ENDMDL
MODEL 3
REMARK VINA RESULT:    -5.862      4.075      7.541
REMARK INTER + INTRA:          -6.033
REMARK INTER:                  -6.033
REMARK INTRA:                   0.000
REMARK UNBOUND:                 0.000
REMARK SMILES C=C1CCC[C@]2(C)C[C@]3(O)OC(=O)C(C)=C3C[C@H]12
REMARK SMILES IDX 15 1 14 2 16 3 17 4 18 5 2 6 1 7 3 8 4 9 5 10 6 11 8 12 9 13
REMARK SMILES IDX 11 14 12 15 13 16 7 17 10 18
REMARK H PARENT 10 19
REMARK Flexibility Score: inf
ROOT
ATOM      1  C   UNL     1      -5.297  -2.551  -0.799  1.00  0.00     0.052 C 
ATOM      2  C   UNL     1      -3.979  -2.228  -1.435  1.00  0.00     0.040 C 
ATOM      3  C   UNL     1      -3.619  -1.101  -2.055  1.00  0.00     0.012 C 
ATOM      4  C   UNL     1      -4.484   0.088  -2.372  1.00  0.00     0.047 C 
ATOM      5  C   UNL     1      -4.365   0.460  -3.881  1.00  0.00     0.025 C 
ATOM      6  C   UNL     1      -5.170  -0.434  -4.836  1.00  0.00    -0.073 C 
ATOM      7  C   UNL     1      -5.970  -1.444  -4.445  1.00  0.00     0.008 C 
ATOM      8  C   UNL     1      -5.085  -0.104  -6.304  1.00  0.00     0.031 C 
ATOM      9  C   UNL     1      -3.628  -0.115  -6.750  1.00  0.00     0.005 C 
ATOM     10  C   UNL     1      -2.784   0.833  -5.888  1.00  0.00     0.008 C 
ATOM     11  C   UNL     1      -2.864   0.551  -4.353  1.00  0.00    -0.019 C 
ATOM     12  C   UNL     1      -2.107  -0.781  -4.026  1.00  0.00     0.092 C 
ATOM     13  C   UNL     1      -2.195  -1.190  -2.541  1.00  0.00     0.235 C 
ATOM     14  O   UNL     1      -1.871  -2.567  -2.346  1.00  0.00    -0.426 OA
ATOM     15  C   UNL     1      -2.896  -3.165  -1.636  1.00  0.00     0.336 C 
ATOM     16  O   UNL     1      -2.882  -4.365  -1.259  1.00  0.00    -0.246 OA
ATOM     17  C   UNL     1      -2.158   1.751  -3.667  1.00  0.00     0.012 C 
ENDROOT
BRANCH  13  18
ATOM     18  O   UNL     1      -1.367  -0.399  -1.731  1.00  0.00    -0.353 OA
ATOM     19  H   UNL     1      -1.363   0.512  -2.127  1.00  0.00     0.215 HD
ENDBRANCH  13  18
TORSDOF 1
ENDMDL
MODEL 4
REMARK VINA RESULT:    -5.811      5.721      8.621
REMARK INTER + INTRA:          -5.981
REMARK INTER:                  -5.981
REMARK INTRA:                   0.000
REMARK UNBOUND:                 0.000
REMARK SMILES C=C1CCC[C@]2(C)C[C@]3(O)OC(=O)C(C)=C3C[C@H]12
REMARK SMILES IDX 15 1 14 2 16 3 17 4 18 5 2 6 1 7 3 8 4 9 5 10 6 11 8 12 9 13
REMARK SMILES IDX 11 14 12 15 13 16 7 17 10 18
REMARK H PARENT 10 19
REMARK Flexibility Score: inf
ROOT
ATOM      1  C   UNL     1      -3.788  -2.842  -2.435  1.00  0.00     0.052 C 
ATOM      2  C   UNL     1      -2.588  -2.051  -2.860  1.00  0.00     0.040 C 
ATOM      3  C   UNL     1      -2.452  -0.723  -2.906  1.00  0.00     0.012 C 
ATOM      4  C   UNL     1      -3.509   0.316  -2.651  1.00  0.00     0.047 C 
ATOM      5  C   UNL     1      -3.567   1.334  -3.830  1.00  0.00     0.025 C 
ATOM      6  C   UNL     1      -4.300   0.834  -5.084  1.00  0.00    -0.073 C 
ATOM      7  C   UNL     1      -4.905  -0.364  -5.190  1.00  0.00     0.008 C 
ATOM      8  C   UNL     1      -4.381   1.791  -6.246  1.00  0.00     0.031 C 
ATOM      9  C   UNL     1      -2.978   2.227  -6.652  1.00  0.00     0.005 C 
ATOM     10  C   UNL     1      -2.223   2.822  -5.457  1.00  0.00     0.008 C 
ATOM     11  C   UNL     1      -2.138   1.879  -4.214  1.00  0.00    -0.019 C 
ATOM     12  C   UNL     1      -1.165   0.690  -4.524  1.00  0.00     0.092 C 
ATOM     13  C   UNL     1      -1.074  -0.344  -3.383  1.00  0.00     0.235 C 
ATOM     14  O   UNL     1      -0.532  -1.586  -3.830  1.00  0.00    -0.426 OA
ATOM     15  C   UNL     1      -1.395  -2.602  -3.464  1.00  0.00     0.336 C 
ATOM     16  O   UNL     1      -1.171  -3.823  -3.669  1.00  0.00    -0.246 OA
ATOM     17  C   UNL     1      -1.570   2.750  -3.062  1.00  0.00     0.012 C 
ENDROOT
BRANCH  13  18
ATOM     18  O   UNL     1      -0.314   0.134  -2.305  1.00  0.00    -0.353 OA
ATOM     19  H   UNL     1      -0.930   0.655  -1.726  1.00  0.00     0.215 HD
ENDBRANCH  13  18
TORSDOF 1
ENDMDL
MODEL 5
REMARK VINA RESULT:    -5.801      6.887      9.857
REMARK INTER + INTRA:          -5.970
REMARK INTER:                  -5.970
REMARK INTRA:                   0.000
REMARK UNBOUND:                 0.000
REMARK SMILES C=C1CCC[C@]2(C)C[C@]3(O)OC(=O)C(C)=C3C[C@H]12
REMARK SMILES IDX 15 1 14 2 16 3 17 4 18 5 2 6 1 7 3 8 4 9 5 10 6 11 8 12 9 13
REMARK SMILES IDX 11 14 12 15 13 16 7 17 10 18
REMARK H PARENT 10 19
REMARK Flexibility Score: inf
ROOT
ATOM      1  C   UNL     1      -3.656   1.496  -4.260  1.00  0.00     0.052 C 
ATOM      2  C   UNL     1      -2.420   1.015  -3.562  1.00  0.00     0.040 C 
ATOM      3  C   UNL     1      -1.161   1.042  -4.006  1.00  0.00     0.012 C 
ATOM      4  C   UNL     1      -0.679   1.455  -5.370  1.00  0.00     0.047 C 
ATOM      5  C   UNL     1       0.238   0.353  -5.980  1.00  0.00     0.025 C 
ATOM      6  C   UNL     1      -0.504  -0.860  -6.563  1.00  0.00    -0.073 C 
ATOM      7  C   UNL     1      -1.843  -0.986  -6.612  1.00  0.00     0.008 C 
ATOM      8  C   UNL     1       0.348  -1.947  -7.167  1.00  0.00     0.031 C 
ATOM      9  C   UNL     1       1.350  -2.449  -6.134  1.00  0.00     0.005 C 
ATOM     10  C   UNL     1       2.189  -1.291  -5.578  1.00  0.00     0.008 C 
ATOM     11  C   UNL     1       1.349  -0.123  -4.967  1.00  0.00    -0.019 C 
ATOM     12  C   UNL     1       0.697  -0.594  -3.622  1.00  0.00     0.092 C 
ATOM     13  C   UNL     1      -0.220   0.468  -2.979  1.00  0.00     0.235 C 
ATOM     14  O   UNL     1      -1.102  -0.103  -2.014  1.00  0.00    -0.426 OA
ATOM     15  C   UNL     1      -2.396   0.274  -2.320  1.00  0.00     0.336 C 
ATOM     16  O   UNL     1      -3.400  -0.027  -1.623  1.00  0.00    -0.246 OA
ATOM     17  C   UNL     1       2.358   1.026  -4.701  1.00  0.00     0.012 C 
ENDROOT
BRANCH  13  18
ATOM     18  O   UNL     1       0.517   1.501  -2.382  1.00  0.00    -0.353 OA
ATOM     19  H   UNL     1       0.877   2.062  -3.118  1.00  0.00     0.215 HD
ENDBRANCH  13  18
TORSDOF 1
ENDMDL
MODEL 6
REMARK VINA RESULT:    -5.785      9.108     10.919
REMARK INTER + INTRA:          -5.954
REMARK INTER:                  -5.954
REMARK INTRA:                   0.000
REMARK UNBOUND:                 0.000
REMARK SMILES C=C1CCC[C@]2(C)C[C@]3(O)OC(=O)C(C)=C3C[C@H]12
REMARK SMILES IDX 15 1 14 2 16 3 17 4 18 5 2 6 1 7 3 8 4 9 5 10 6 11 8 12 9 13
REMARK SMILES IDX 11 14 12 15 13 16 7 17 10 18
REMARK H PARENT 10 19
REMARK Flexibility Score: inf
ROOT
ATOM      1  C   UNL     1      -0.333  -2.008  -4.342  1.00  0.00     0.052 C 
ATOM      2  C   UNL     1       0.771  -1.003  -4.215  1.00  0.00     0.040 C 
ATOM      3  C   UNL     1       0.762   0.147  -3.536  1.00  0.00     0.012 C 
ATOM      4  C   UNL     1      -0.400   0.781  -2.821  1.00  0.00     0.047 C 
ATOM      5  C   UNL     1      -0.576   2.261  -3.273  1.00  0.00     0.025 C 
ATOM      6  C   UNL     1      -1.260   2.447  -4.637  1.00  0.00    -0.073 C 
ATOM      7  C   UNL     1      -1.732   1.442  -5.398  1.00  0.00     0.008 C 
ATOM      8  C   UNL     1      -1.453   3.865  -5.109  1.00  0.00     0.031 C 
ATOM      9  C   UNL     1      -0.108   4.582  -5.145  1.00  0.00     0.005 C 
ATOM     10  C   UNL     1       0.587   4.511  -3.779  1.00  0.00     0.008 C 
ATOM     11  C   UNL     1       0.783   3.060  -3.232  1.00  0.00    -0.019 C 
ATOM     12  C   UNL     1       1.876   2.324  -4.078  1.00  0.00     0.092 C 
ATOM     13  C   UNL     1       2.087   0.853  -3.664  1.00  0.00     0.235 C 
ATOM     14  O   UNL     1       2.758   0.103  -4.677  1.00  0.00    -0.426 OA
ATOM     15  C   UNL     1       2.012  -1.027  -4.956  1.00  0.00     0.336 C 
ATOM     16  O   UNL     1       2.366  -1.918  -5.770  1.00  0.00    -0.246 OA
ATOM     17  C   UNL     1       1.261   3.226  -1.764  1.00  0.00     0.012 C 
ENDROOT
BRANCH  13  18
ATOM     18  O   UNL     1       2.799   0.746  -2.459  1.00  0.00    -0.353 OA
ATOM     19  H   UNL     1       3.126  -0.189  -2.399  1.00  0.00     0.215 HD
ENDBRANCH  13  18
TORSDOF 1
ENDMDL
MODEL 7
REMARK VINA RESULT:    -5.782      8.449     11.743
REMARK INTER + INTRA:          -5.951
REMARK INTER:                  -5.951
REMARK INTRA:                   0.000
REMARK UNBOUND:                 0.000
REMARK SMILES C=C1CCC[C@]2(C)C[C@]3(O)OC(=O)C(C)=C3C[C@H]12
REMARK SMILES IDX 15 1 14 2 16 3 17 4 18 5 2 6 1 7 3 8 4 9 5 10 6 11 8 12 9 13
REMARK SMILES IDX 11 14 12 15 13 16 7 17 10 18
REMARK H PARENT 10 19
REMARK Flexibility Score: inf
ROOT
ATOM      1  C   UNL     1      -2.629   1.323  -3.560  1.00  0.00     0.052 C 
ATOM      2  C   UNL     1      -1.216   1.654  -3.186  1.00  0.00     0.040 C 
ATOM      3  C   UNL     1      -0.682   2.859  -2.974  1.00  0.00     0.012 C 
ATOM      4  C   UNL     1      -1.336   4.199  -3.170  1.00  0.00     0.047 C 
ATOM      5  C   UNL     1      -0.441   5.118  -4.056  1.00  0.00     0.025 C 
ATOM      6  C   UNL     1      -0.498   4.822  -5.562  1.00  0.00    -0.073 C 
ATOM      7  C   UNL     1      -1.282   3.885  -6.128  1.00  0.00     0.008 C 
ATOM      8  C   UNL     1       0.350   5.691  -6.454  1.00  0.00     0.031 C 
ATOM      9  C   UNL     1       1.805   5.622  -6.006  1.00  0.00     0.005 C 
ATOM     10  C   UNL     1       1.941   5.997  -4.525  1.00  0.00     0.008 C 
ATOM     11  C   UNL     1       1.056   5.143  -3.561  1.00  0.00    -0.019 C 
ATOM     12  C   UNL     1       1.628   3.687  -3.476  1.00  0.00     0.092 C 
ATOM     13  C   UNL     1       0.774   2.740  -2.607  1.00  0.00     0.235 C 
ATOM     14  O   UNL     1       1.065   1.368  -2.868  1.00  0.00    -0.426 OA
ATOM     15  C   UNL     1      -0.120   0.711  -3.147  1.00  0.00     0.336 C 
ATOM     16  O   UNL     1      -0.203  -0.525  -3.368  1.00  0.00    -0.246 OA
ATOM     17  C   UNL     1       1.150   5.838  -2.176  1.00  0.00     0.012 C 
ENDROOT
BRANCH  13  18
ATOM     18  O   UNL     1       0.941   2.998  -1.237  1.00  0.00    -0.353 OA
ATOM     19  H   UNL     1       1.831   3.424  -1.130  1.00  0.00     0.215 HD
ENDBRANCH  13  18
TORSDOF 1
ENDMDL
MODEL 8
REMARK VINA RESULT:    -5.756      7.060     10.476
REMARK INTER + INTRA:          -5.924
REMARK INTER:                  -5.924
REMARK INTRA:                   0.000
REMARK UNBOUND:                 0.000
REMARK SMILES C=C1CCC[C@]2(C)C[C@]3(O)OC(=O)C(C)=C3C[C@H]12
REMARK SMILES IDX 15 1 14 2 16 3 17 4 18 5 2 6 1 7 3 8 4 9 5 10 6 11 8 12 9 13
REMARK SMILES IDX 11 14 12 15 13 16 7 17 10 18
REMARK H PARENT 10 19
REMARK Flexibility Score: inf
ROOT
ATOM      1  C   UNL     1      -4.226   0.008  -3.785  1.00  0.00     0.052 C 
ATOM      2  C   UNL     1      -2.954   0.710  -3.416  1.00  0.00     0.040 C 
ATOM      3  C   UNL     1      -2.576   1.950  -3.736  1.00  0.00     0.012 C 
ATOM      4  C   UNL     1      -3.281   2.918  -4.646  1.00  0.00     0.047 C 
ATOM      5  C   UNL     1      -2.299   3.467  -5.724  1.00  0.00     0.025 C 
ATOM      6  C   UNL     1      -2.015   2.509  -6.891  1.00  0.00    -0.073 C 
ATOM      7  C   UNL     1      -2.584   1.299  -7.043  1.00  0.00     0.008 C 
ATOM      8  C   UNL     1      -1.072   3.005  -7.958  1.00  0.00     0.031 C 
ATOM      9  C   UNL     1       0.258   3.398  -7.325  1.00  0.00     0.005 C 
ATOM     10  C   UNL     1       0.049   4.427  -6.206  1.00  0.00     0.008 C 
ATOM     11  C   UNL     1      -0.946   3.971  -5.091  1.00  0.00    -0.019 C 
ATOM     12  C   UNL     1      -0.287   2.838  -4.233  1.00  0.00     0.092 C 
ATOM     13  C   UNL     1      -1.224   2.264  -3.149  1.00  0.00     0.235 C 
ATOM     14  O   UNL     1      -0.775   0.996  -2.672  1.00  0.00    -0.426 OA
ATOM     15  C   UNL     1      -1.818   0.093  -2.769  1.00  0.00     0.336 C 
ATOM     16  O   UNL     1      -1.753  -1.100  -2.376  1.00  0.00    -0.246 OA
ATOM     17  C   UNL     1      -1.200   5.228  -4.215  1.00  0.00     0.012 C 
ENDROOT
BRANCH  13  18
ATOM     18  O   UNL     1      -1.370   3.143  -2.066  1.00  0.00    -0.353 OA
ATOM     19  H   UNL     1      -2.258   2.958  -1.662  1.00  0.00     0.215 HD
ENDBRANCH  13  18
TORSDOF 1
ENDMDL
MODEL 9
REMARK VINA RESULT:    -5.734      9.542     11.872
REMARK INTER + INTRA:          -5.902
REMARK INTER:                  -5.902
REMARK INTRA:                   0.000
REMARK UNBOUND:                 0.000
REMARK SMILES C=C1CCC[C@]2(C)C[C@]3(O)OC(=O)C(C)=C3C[C@H]12
REMARK SMILES IDX 15 1 14 2 16 3 17 4 18 5 2 6 1 7 3 8 4 9 5 10 6 11 8 12 9 13
REMARK SMILES IDX 11 14 12 15 13 16 7 17 10 18
REMARK H PARENT 10 19
REMARK Flexibility Score: inf
ROOT
ATOM      1  C   UNL     1      -0.875   4.837  -5.051  1.00  0.00     0.052 C 
ATOM      2  C   UNL     1      -0.449   3.823  -4.032  1.00  0.00     0.040 C 
ATOM      3  C   UNL     1       0.780   3.598  -3.559  1.00  0.00     0.012 C 
ATOM      4  C   UNL     1       2.067   4.229  -4.013  1.00  0.00     0.047 C 
ATOM      5  C   UNL     1       3.128   3.133  -4.334  1.00  0.00     0.025 C 
ATOM      6  C   UNL     1       2.945   2.429  -5.687  1.00  0.00    -0.073 C 
ATOM      7  C   UNL     1       1.989   2.733  -6.584  1.00  0.00     0.008 C 
ATOM      8  C   UNL     1       3.953   1.365  -6.036  1.00  0.00     0.031 C 
ATOM      9  C   UNL     1       3.980   0.303  -4.943  1.00  0.00     0.005 C 
ATOM     10  C   UNL     1       4.250   0.936  -3.572  1.00  0.00     0.008 C 
ATOM     11  C   UNL     1       3.248   2.068  -3.177  1.00  0.00    -0.019 C 
ATOM     12  C   UNL     1       1.848   1.442  -2.862  1.00  0.00     0.092 C 
ATOM     13  C   UNL     1       0.764   2.492  -2.537  1.00  0.00     0.235 C 
ATOM     14  O   UNL     1      -0.553   1.955  -2.659  1.00  0.00    -0.426 OA
ATOM     15  C   UNL     1      -1.289   2.778  -3.492  1.00  0.00     0.336 C 
ATOM     16  O   UNL     1      -2.507   2.602  -3.756  1.00  0.00    -0.246 OA
ATOM     17  C   UNL     1       3.840   2.728  -1.902  1.00  0.00     0.012 C 
ENDROOT
BRANCH  13  18
ATOM     18  O   UNL     1       0.928   3.031  -1.252  1.00  0.00    -0.353 OA
ATOM     19  H   UNL     1       1.901   3.189  -1.128  1.00  0.00     0.215 HD
ENDBRANCH  13  18
TORSDOF 1
ENDMDL
