MODEL 1
REMARK VINA RESULT:    -2.313      0.000      0.000
REMARK INTER + INTRA:          -2.959
REMARK INTER:                  -2.854
REMARK INTRA:                  -0.106
REMARK UNBOUND:                -0.106
REMARK SMILES CCCCCC(=O)[O-]
REMARK SMILES IDX 4 1 5 2 6 3 7 4 8 5 3 6 2 7 1 8
REMARK H PARENT
REMARK Flexibility Score: inf
ROOT
ATOM      1  C   UNL     1      12.142  -7.144   0.493  1.00  0.00     0.006 C 
ENDROOT
BRANCH   1   2
ATOM      2  C   UNL     1      13.097  -7.910   1.417  1.00  0.00     0.053 C 
BRANCH   2   3
ATOM      3  C   UNL     1      12.439  -9.149   1.936  1.00  0.00     0.041 C 
ATOM      4  O   UNL     1      11.954  -9.993   1.135  1.00  0.00    -0.550 OA
ATOM      5  O   UNL     1      12.402  -9.397   3.302  1.00  0.00    -0.550 OA
ENDBRANCH   2   3
ENDBRANCH   1   2
BRANCH   1   6
ATOM      6  C   UNL     1      12.335  -5.621   0.574  1.00  0.00     0.000 C 
BRANCH   6   7
ATOM      7  C   UNL     1      12.978  -5.176   1.895  1.00  0.00    -0.003 C 
ATOM      8  C   UNL     1      12.612  -3.732   2.226  1.00  0.00     0.004 C 
ENDBRANCH   6   7
ENDBRANCH   1   6
TORSDOF 4
ENDMDL
MODEL 2
REMARK VINA RESULT:    -2.269      2.992      4.579
REMARK INTER + INTRA:          -2.905
REMARK INTER:                  -2.848
REMARK INTRA:                  -0.057
REMARK UNBOUND:                -0.106
REMARK SMILES CCCCCC(=O)[O-]
REMARK SMILES IDX 4 1 5 2 6 3 7 4 8 5 3 6 2 7 1 8
REMARK H PARENT
REMARK Flexibility Score: inf
ROOT
ATOM      1  C   UNL     1      13.058  -6.362   1.610  1.00  0.00     0.006 C 
ENDROOT
BRANCH   1   2
ATOM      2  C   UNL     1      12.543  -4.931   1.410  1.00  0.00     0.053 C 
BRANCH   2   3
ATOM      3  C   UNL     1      12.888  -4.083   2.594  1.00  0.00     0.041 C 
ATOM      4  O   UNL     1      13.125  -2.855   2.447  1.00  0.00    -0.550 OA
ATOM      5  O   UNL     1      12.901  -4.639   3.867  1.00  0.00    -0.550 OA
ENDBRANCH   2   3
ENDBRANCH   1   2
BRANCH   1   6
ATOM      6  C   UNL     1      12.377  -7.372   0.672  1.00  0.00     0.000 C 
BRANCH   6   7
ATOM      7  C   UNL     1      12.788  -8.821   0.964  1.00  0.00    -0.003 C 
ATOM      8  C   UNL     1      11.696  -9.558   1.735  1.00  0.00     0.004 C 
ENDBRANCH   6   7
ENDBRANCH   1   6
TORSDOF 4
ENDMDL
MODEL 3
REMARK VINA RESULT:    -2.233      2.050      3.015
REMARK INTER + INTRA:          -2.860
REMARK INTER:                  -2.917
REMARK INTRA:                   0.057
REMARK UNBOUND:                -0.106
REMARK SMILES CCCCCC(=O)[O-]
REMARK SMILES IDX 4 1 5 2 6 3 7 4 8 5 3 6 2 7 1 8
REMARK H PARENT
REMARK Flexibility Score: inf
ROOT
ATOM      1  C   UNL     1      12.334  -4.332   1.741  1.00  0.00     0.006 C 
ENDROOT
BRANCH   1   2
ATOM      2  C   UNL     1      13.125  -5.646   1.698  1.00  0.00     0.053 C 
BRANCH   2   3
ATOM      3  C   UNL     1      12.464  -6.622   0.776  1.00  0.00     0.041 C 
ATOM      4  O   UNL     1      11.685  -6.215  -0.126  1.00  0.00    -0.550 OA
ATOM      5  O   UNL     1      12.746  -7.978   0.882  1.00  0.00    -0.550 OA
ENDBRANCH   2   3
ENDBRANCH   1   2
BRANCH   1   6
ATOM      6  C   UNL     1      13.011  -3.263   2.614  1.00  0.00     0.000 C 
BRANCH   6   7
ATOM      7  C   UNL     1      12.430  -3.203   4.034  1.00  0.00    -0.003 C 
ATOM      8  C   UNL     1      12.836  -4.429   4.846  1.00  0.00     0.004 C 
ENDBRANCH   6   7
ENDBRANCH   1   6
TORSDOF 4
ENDMDL
MODEL 4
REMARK VINA RESULT:    -2.222     14.477     14.922
REMARK INTER + INTRA:          -2.847
REMARK INTER:                  -2.728
REMARK INTRA:                  -0.119
REMARK UNBOUND:                -0.106
REMARK SMILES CCCCCC(=O)[O-]
REMARK SMILES IDX 4 1 5 2 6 3 7 4 8 5 3 6 2 7 1 8
REMARK H PARENT
REMARK Flexibility Score: inf
ROOT
ATOM      1  C   UNL     1      -1.265  -8.789   3.921  1.00  0.00     0.006 C 
ENDROOT
BRANCH   1   2
ATOM      2  C   UNL     1      -1.538  -7.596   4.847  1.00  0.00     0.053 C 
BRANCH   2   3
ATOM      3  C   UNL     1      -0.392  -6.635   4.810  1.00  0.00     0.041 C 
ATOM      4  O   UNL     1       0.791  -7.061   4.719  1.00  0.00    -0.550 OA
ATOM      5  O   UNL     1      -0.631  -5.267   4.828  1.00  0.00    -0.550 OA
ENDBRANCH   2   3
ENDBRANCH   1   2
BRANCH   1   6
ATOM      6  C   UNL     1      -2.497  -9.186   3.091  1.00  0.00     0.000 C 
BRANCH   6   7
ATOM      7  C   UNL     1      -3.733  -8.338   3.423  1.00  0.00    -0.003 C 
ATOM      8  C   UNL     1      -4.611  -8.140   2.190  1.00  0.00     0.004 C 
ENDBRANCH   6   7
ENDBRANCH   1   6
TORSDOF 4
ENDMDL
MODEL 5
REMARK VINA RESULT:    -2.168     17.897     18.449
REMARK INTER + INTRA:          -2.780
REMARK INTER:                  -2.654
REMARK INTRA:                  -0.126
REMARK UNBOUND:                -0.106
REMARK SMILES CCCCCC(=O)[O-]
REMARK SMILES IDX 4 1 5 2 6 3 7 4 8 5 3 6 2 7 1 8
REMARK H PARENT
REMARK Flexibility Score: inf
ROOT
ATOM      1  C   UNL     1      -4.779  -8.469   1.429  1.00  0.00     0.006 C 
ENDROOT
BRANCH   1   2
ATOM      2  C   UNL     1      -4.385  -8.023   2.843  1.00  0.00     0.053 C 
BRANCH   2   3
ATOM      3  C   UNL     1      -5.291  -6.930   3.316  1.00  0.00     0.041 C 
ATOM      4  O   UNL     1      -4.847  -5.762   3.473  1.00  0.00    -0.550 OA
ATOM      5  O   UNL     1      -6.638  -7.191   3.539  1.00  0.00    -0.550 OA
ENDBRANCH   2   3
ENDBRANCH   1   2
BRANCH   1   6
ATOM      6  C   UNL     1      -5.286  -9.920   1.387  1.00  0.00     0.000 C 
BRANCH   6   7
ATOM      7  C   UNL     1      -6.304 -10.157   0.263  1.00  0.00    -0.003 C 
ATOM      8  C   UNL     1      -6.610  -8.863  -0.485  1.00  0.00     0.004 C 
ENDBRANCH   6   7
ENDBRANCH   1   6
TORSDOF 4
ENDMDL
MODEL 6
REMARK VINA RESULT:    -2.166     14.457     14.767
REMARK INTER + INTRA:          -2.779
REMARK INTER:                  -2.595
REMARK INTRA:                  -0.183
REMARK UNBOUND:                -0.106
REMARK SMILES CCCCCC(=O)[O-]
REMARK SMILES IDX 4 1 5 2 6 3 7 4 8 5 3 6 2 7 1 8
REMARK H PARENT
REMARK Flexibility Score: inf
ROOT
ATOM      1  C   UNL     1      -0.932  -8.885   3.237  1.00  0.00     0.006 C 
ENDROOT
BRANCH   1   2
ATOM      2  C   UNL     1      -2.315  -9.488   3.513  1.00  0.00     0.053 C 
BRANCH   2   3
ATOM      3  C   UNL     1      -3.388  -8.486   3.223  1.00  0.00     0.041 C 
ATOM      4  O   UNL     1      -3.596  -7.531   4.018  1.00  0.00    -0.550 OA
ATOM      5  O   UNL     1      -4.127  -8.578   2.050  1.00  0.00    -0.550 OA
ENDBRANCH   2   3
ENDBRANCH   1   2
BRANCH   1   6
ATOM      6  C   UNL     1      -0.230  -8.405   4.518  1.00  0.00     0.000 C 
BRANCH   6   7
ATOM      7  C   UNL     1       0.384  -7.006   4.367  1.00  0.00    -0.003 C 
ATOM      8  C   UNL     1      -0.536  -5.936   4.948  1.00  0.00     0.004 C 
ENDBRANCH   6   7
ENDBRANCH   1   6
TORSDOF 4
ENDMDL
MODEL 7
REMARK VINA RESULT:    -2.143     15.815     16.399
REMARK INTER + INTRA:          -2.749
REMARK INTER:                  -2.696
REMARK INTRA:                  -0.054
REMARK UNBOUND:                -0.106
REMARK SMILES CCCCCC(=O)[O-]
REMARK SMILES IDX 4 1 5 2 6 3 7 4 8 5 3 6 2 7 1 8
REMARK H PARENT
REMARK Flexibility Score: inf
ROOT
ATOM      1  C   UNL     1      -2.993  -8.744   3.257  1.00  0.00     0.006 C 
ENDROOT
BRANCH   1   2
ATOM      2  C   UNL     1      -4.120  -8.550   2.235  1.00  0.00     0.053 C 
BRANCH   2   3
ATOM      3  C   UNL     1      -5.155  -7.612   2.771  1.00  0.00     0.041 C 
ATOM      4  O   UNL     1      -6.376  -7.917   2.719  1.00  0.00    -0.550 OA
ATOM      5  O   UNL     1      -4.768  -6.421   3.373  1.00  0.00    -0.550 OA
ENDBRANCH   2   3
ENDBRANCH   1   2
BRANCH   1   6
ATOM      6  C   UNL     1      -2.200 -10.041   3.023  1.00  0.00     0.000 C 
BRANCH   6   7
ATOM      7  C   UNL     1      -0.683  -9.806   2.978  1.00  0.00    -0.003 C 
ATOM      8  C   UNL     1       0.010 -10.856   2.115  1.00  0.00     0.004 C 
ENDBRANCH   6   7
ENDBRANCH   1   6
TORSDOF 4
ENDMDL
MODEL 8
REMARK VINA RESULT:    -2.115     17.089     17.631
REMARK INTER + INTRA:          -2.715
REMARK INTER:                  -2.625
REMARK INTRA:                  -0.090
REMARK UNBOUND:                -0.106
REMARK SMILES CCCCCC(=O)[O-]
REMARK SMILES IDX 4 1 5 2 6 3 7 4 8 5 3 6 2 7 1 8
REMARK H PARENT
REMARK Flexibility Score: inf
ROOT
ATOM      1  C   UNL     1      -4.819  -8.441   1.473  1.00  0.00     0.006 C 
ENDROOT
BRANCH   1   2
ATOM      2  C   UNL     1      -5.373  -9.824   1.107  1.00  0.00     0.053 C 
BRANCH   2   3
ATOM      3  C   UNL     1      -6.052  -9.777  -0.226  1.00  0.00     0.041 C 
ATOM      4  O   UNL     1      -6.209 -10.833  -0.895  1.00  0.00    -0.550 OA
ATOM      5  O   UNL     1      -6.553  -8.575  -0.709  1.00  0.00    -0.550 OA
ENDBRANCH   2   3
ENDBRANCH   1   2
BRANCH   1   6
ATOM      6  C   UNL     1      -4.024  -8.452   2.789  1.00  0.00     0.000 C 
BRANCH   6   7
ATOM      7  C   UNL     1      -3.082  -9.659   2.901  1.00  0.00    -0.003 C 
ATOM      8  C   UNL     1      -1.649  -9.214   3.175  1.00  0.00     0.004 C 
ENDBRANCH   6   7
ENDBRANCH   1   6
TORSDOF 4
ENDMDL
MODEL 9
REMARK VINA RESULT:    -2.078     18.101     18.634
REMARK INTER + INTRA:          -2.670
REMARK INTER:                  -2.535
REMARK INTRA:                  -0.135
REMARK UNBOUND:                -0.106
REMARK SMILES CCCCCC(=O)[O-]
REMARK SMILES IDX 4 1 5 2 6 3 7 4 8 5 3 6 2 7 1 8
REMARK H PARENT
REMARK Flexibility Score: inf
ROOT
ATOM      1  C   UNL     1      -5.255 -10.770   1.028  1.00  0.00     0.006 C 
ENDROOT
BRANCH   1   2
ATOM      2  C   UNL     1      -6.695 -10.333   0.729  1.00  0.00     0.053 C 
BRANCH   2   3
ATOM      3  C   UNL     1      -6.786  -9.739  -0.641  1.00  0.00     0.041 C 
ATOM      4  O   UNL     1      -6.607  -8.503  -0.810  1.00  0.00    -0.550 OA
ATOM      5  O   UNL     1      -7.020 -10.557  -1.739  1.00  0.00    -0.550 OA
ENDBRANCH   2   3
ENDBRANCH   1   2
BRANCH   1   6
ATOM      6  C   UNL     1      -4.639 -10.007   2.213  1.00  0.00     0.000 C 
BRANCH   6   7
ATOM      7  C   UNL     1      -4.442  -8.514   1.917  1.00  0.00    -0.003 C 
ATOM      8  C   UNL     1      -4.456  -7.692   3.202  1.00  0.00     0.004 C 
ENDBRANCH   6   7
ENDBRANCH   1   6
TORSDOF 4
ENDMDL
