MODEL 1
REMARK VINA RESULT:    -4.024      0.000      0.000
REMARK INTER + INTRA:          -6.437
REMARK INTER:                  -5.671
REMARK INTRA:                  -0.766
REMARK UNBOUND:                -0.766
REMARK SMILES CCCCCCCCC(=O)[O-]
REMARK SMILES IDX 6 1 7 2 8 3 9 4 10 5 11 6 5 7 4 8 3 9 2 10 1 11
REMARK H PARENT
REMARK Flexibility Score: inf
ROOT
ATOM      1  C   UNL     1      62.494  28.789  13.016  1.00  0.00     0.000 C 
ENDROOT
BRANCH   1   2
ATOM      2  C   UNL     1      61.036  28.777  13.496  1.00  0.00     0.006 C 
BRANCH   2   3
ATOM      3  C   UNL     1      60.111  28.025  12.530  1.00  0.00     0.053 C 
BRANCH   3   4
ATOM      4  C   UNL     1      60.167  28.601  11.148  1.00  0.00     0.041 C 
ATOM      5  O   UNL     1      59.643  29.720  10.906  1.00  0.00    -0.550 OA
ATOM      6  O   UNL     1      60.770  27.887  10.121  1.00  0.00    -0.550 OA
ENDBRANCH   3   4
ENDBRANCH   2   3
ENDBRANCH   1   2
BRANCH   1   7
ATOM      7  C   UNL     1      63.152  30.145  13.292  1.00  0.00     0.000 C 
BRANCH   7   8
ATOM      8  C   UNL     1      62.603  31.225  12.351  1.00  0.00    -0.000 C 
BRANCH   8   9
ATOM      9  C   UNL     1      61.972  32.378  13.146  1.00  0.00    -0.000 C 
BRANCH   9  10
ATOM     10  C   UNL     1      60.450  32.463  12.954  1.00  0.00    -0.003 C 
ATOM     11  C   UNL     1      59.675  32.144  14.233  1.00  0.00     0.004 C 
ENDBRANCH   9  10
ENDBRANCH   8   9
ENDBRANCH   7   8
ENDBRANCH   1   7
TORSDOF 7
ENDMDL
MODEL 2
REMARK VINA RESULT:    -4.011      1.265      2.080
REMARK INTER + INTRA:          -6.418
REMARK INTER:                  -5.643
REMARK INTRA:                  -0.775
REMARK UNBOUND:                -0.766
REMARK SMILES CCCCCCCCC(=O)[O-]
REMARK SMILES IDX 6 1 7 2 8 3 9 4 10 5 11 6 5 7 4 8 3 9 2 10 1 11
REMARK H PARENT
REMARK Flexibility Score: inf
ROOT
ATOM      1  C   UNL     1      60.138  27.894  12.977  1.00  0.00     0.000 C 
ENDROOT
BRANCH   1   2
ATOM      2  C   UNL     1      59.215  28.544  11.935  1.00  0.00     0.006 C 
BRANCH   2   3
ATOM      3  C   UNL     1      60.001  29.220  10.804  1.00  0.00     0.053 C 
BRANCH   3   4
ATOM      4  C   UNL     1      60.048  28.365   9.574  1.00  0.00     0.041 C 
ATOM      5  O   UNL     1      61.155  28.015   9.086  1.00  0.00    -0.550 OA
ATOM      6  O   UNL     1      58.869  27.980   8.949  1.00  0.00    -0.550 OA
ENDBRANCH   3   4
ENDBRANCH   2   3
ENDBRANCH   1   2
BRANCH   1   7
ATOM      7  C   UNL     1      61.459  28.663  13.096  1.00  0.00     0.000 C 
BRANCH   7   8
ATOM      8  C   UNL     1      61.375  29.735  14.189  1.00  0.00    -0.000 C 
BRANCH   8   9
ATOM      9  C   UNL     1      61.962  31.068  13.699  1.00  0.00    -0.000 C 
BRANCH   9  10
ATOM     10  C   UNL     1      60.887  32.024  13.163  1.00  0.00    -0.003 C 
ATOM     11  C   UNL     1      59.525  31.815  13.826  1.00  0.00     0.004 C 
ENDBRANCH   9  10
ENDBRANCH   8   9
ENDBRANCH   7   8
ENDBRANCH   1   7
TORSDOF 7
ENDMDL
MODEL 3
REMARK VINA RESULT:    -3.937     12.861     13.761
REMARK INTER + INTRA:          -6.314
REMARK INTER:                  -5.527
REMARK INTRA:                  -0.787
REMARK UNBOUND:                -0.766
REMARK SMILES CCCCCCCCC(=O)[O-]
REMARK SMILES IDX 6 1 7 2 8 3 9 4 10 5 11 6 5 7 4 8 3 9 2 10 1 11
REMARK H PARENT
REMARK Flexibility Score: inf
ROOT
ATOM      1  C   UNL     1      62.122  29.568  25.050  1.00  0.00     0.000 C 
ENDROOT
BRANCH   1   2
ATOM      2  C   UNL     1      61.428  28.303  24.526  1.00  0.00     0.006 C 
BRANCH   2   3
ATOM      3  C   UNL     1      60.589  27.610  25.607  1.00  0.00     0.053 C 
BRANCH   3   4
ATOM      4  C   UNL     1      61.346  27.472  26.894  1.00  0.00     0.041 C 
ATOM      5  O   UNL     1      62.295  26.650  26.986  1.00  0.00    -0.550 OA
ATOM      6  O   UNL     1      60.982  28.230  27.999  1.00  0.00    -0.550 OA
ENDBRANCH   3   4
ENDBRANCH   2   3
ENDBRANCH   1   2
BRANCH   1   7
ATOM      7  C   UNL     1      63.582  29.626  24.586  1.00  0.00     0.000 C 
BRANCH   7   8
ATOM      8  C   UNL     1      64.020  28.288  23.978  1.00  0.00    -0.000 C 
BRANCH   8   9
ATOM      9  C   UNL     1      65.019  27.567  24.896  1.00  0.00    -0.000 C 
BRANCH   9  10
ATOM     10  C   UNL     1      65.002  26.043  24.706  1.00  0.00    -0.003 C 
ATOM     11  C   UNL     1      63.774  25.558  23.935  1.00  0.00     0.004 C 
ENDBRANCH   9  10
ENDBRANCH   8   9
ENDBRANCH   7   8
ENDBRANCH   1   7
TORSDOF 7
ENDMDL
MODEL 4
REMARK VINA RESULT:    -3.928      1.018      1.586
REMARK INTER + INTRA:          -6.302
REMARK INTER:                  -5.624
REMARK INTRA:                  -0.678
REMARK UNBOUND:                -0.766
REMARK SMILES CCCCCCCCC(=O)[O-]
REMARK SMILES IDX 6 1 7 2 8 3 9 4 10 5 11 6 5 7 4 8 3 9 2 10 1 11
REMARK H PARENT
REMARK Flexibility Score: inf
ROOT
ATOM      1  C   UNL     1      61.368  28.531  13.246  1.00  0.00     0.000 C 
ENDROOT
BRANCH   1   2
ATOM      2  C   UNL     1      60.010  28.135  12.648  1.00  0.00     0.006 C 
BRANCH   2   3
ATOM      3  C   UNL     1      59.641  28.989  11.428  1.00  0.00     0.053 C 
BRANCH   3   4
ATOM      4  C   UNL     1      60.591  28.770  10.290  1.00  0.00     0.041 C 
ATOM      5  O   UNL     1      60.742  27.619   9.802  1.00  0.00    -0.550 OA
ATOM      6  O   UNL     1      61.333  29.832   9.790  1.00  0.00    -0.550 OA
ENDBRANCH   3   4
ENDBRANCH   2   3
ENDBRANCH   1   2
BRANCH   1   7
ATOM      7  C   UNL     1      61.220  29.714  14.209  1.00  0.00     0.000 C 
BRANCH   7   8
ATOM      8  C   UNL     1      62.258  30.802  13.909  1.00  0.00    -0.000 C 
BRANCH   8   9
ATOM      9  C   UNL     1      61.787  31.713  12.765  1.00  0.00    -0.000 C 
BRANCH   9  10
ATOM     10  C   UNL     1      60.385  32.291  13.012  1.00  0.00    -0.003 C 
ATOM     11  C   UNL     1      60.335  33.223  14.222  1.00  0.00     0.004 C 
ENDBRANCH   9  10
ENDBRANCH   8   9
ENDBRANCH   7   8
ENDBRANCH   1   7
TORSDOF 7
ENDMDL
MODEL 5
REMARK VINA RESULT:    -3.895     13.491     14.414
REMARK INTER + INTRA:          -6.254
REMARK INTER:                  -5.550
REMARK INTRA:                  -0.705
REMARK UNBOUND:                -0.766
REMARK SMILES CCCCCCCCC(=O)[O-]
REMARK SMILES IDX 6 1 7 2 8 3 9 4 10 5 11 6 5 7 4 8 3 9 2 10 1 11
REMARK H PARENT
REMARK Flexibility Score: inf
ROOT
ATOM      1  C   UNL     1      61.521  28.750  25.002  1.00  0.00     0.000 C 
ENDROOT
BRANCH   1   2
ATOM      2  C   UNL     1      60.709  27.670  25.732  1.00  0.00     0.006 C 
BRANCH   2   3
ATOM      3  C   UNL     1      61.438  27.131  26.969  1.00  0.00     0.053 C 
BRANCH   3   4
ATOM      4  C   UNL     1      61.749  28.222  27.949  1.00  0.00     0.041 C 
ATOM      5  O   UNL     1      62.944  28.491  28.242  1.00  0.00    -0.550 OA
ATOM      6  O   UNL     1      60.716  28.919  28.562  1.00  0.00    -0.550 OA
ENDBRANCH   3   4
ENDBRANCH   2   3
ENDBRANCH   1   2
BRANCH   1   7
ATOM      7  C   UNL     1      62.778  28.152  24.361  1.00  0.00     0.000 C 
BRANCH   7   8
ATOM      8  C   UNL     1      64.045  28.826  24.900  1.00  0.00    -0.000 C 
BRANCH   8   9
ATOM      9  C   UNL     1      65.095  27.779  25.305  1.00  0.00    -0.000 C 
BRANCH   9  10
ATOM     10  C   UNL     1      64.614  26.340  25.070  1.00  0.00    -0.003 C 
ATOM     11  C   UNL     1      65.326  25.662  23.899  1.00  0.00     0.004 C 
ENDBRANCH   9  10
ENDBRANCH   8   9
ENDBRANCH   7   8
ENDBRANCH   1   7
TORSDOF 7
ENDMDL
MODEL 6
REMARK VINA RESULT:    -3.887      1.175      1.973
REMARK INTER + INTRA:          -6.244
REMARK INTER:                  -5.496
REMARK INTRA:                  -0.748
REMARK UNBOUND:                -0.766
REMARK SMILES CCCCCCCCC(=O)[O-]
REMARK SMILES IDX 6 1 7 2 8 3 9 4 10 5 11 6 5 7 4 8 3 9 2 10 1 11
REMARK H PARENT
REMARK Flexibility Score: inf
ROOT
ATOM      1  C   UNL     1      62.170  28.579  12.922  1.00  0.00     0.000 C 
ENDROOT
BRANCH   1   2
ATOM      2  C   UNL     1      61.912  28.808  11.425  1.00  0.00     0.006 C 
BRANCH   2   3
ATOM      3  C   UNL     1      60.430  29.063  11.123  1.00  0.00     0.053 C 
BRANCH   3   4
ATOM      4  C   UNL     1      60.066  28.636   9.732  1.00  0.00     0.041 C 
ATOM      5  O   UNL     1      59.121  29.201   9.122  1.00  0.00    -0.550 OA
ATOM      6  O   UNL     1      60.752  27.593   9.124  1.00  0.00    -0.550 OA
ENDBRANCH   3   4
ENDBRANCH   2   3
ENDBRANCH   1   2
BRANCH   1   7
ATOM      7  C   UNL     1      60.962  29.012  13.760  1.00  0.00     0.000 C 
BRANCH   7   8
ATOM      8  C   UNL     1      61.263  30.301  14.534  1.00  0.00    -0.000 C 
BRANCH   8   9
ATOM      9  C   UNL     1      60.309  31.430  14.115  1.00  0.00    -0.000 C 
BRANCH   9  10
ATOM     10  C   UNL     1      60.893  32.313  13.002  1.00  0.00    -0.003 C 
ATOM     11  C   UNL     1      62.422  32.342  13.011  1.00  0.00     0.004 C 
ENDBRANCH   9  10
ENDBRANCH   8   9
ENDBRANCH   7   8
ENDBRANCH   1   7
TORSDOF 7
ENDMDL
MODEL 7
REMARK VINA RESULT:    -3.802      2.452      4.402
REMARK INTER + INTRA:          -6.125
REMARK INTER:                  -5.333
REMARK INTRA:                  -0.791
REMARK UNBOUND:                -0.766
REMARK SMILES CCCCCCCCC(=O)[O-]
REMARK SMILES IDX 6 1 7 2 8 3 9 4 10 5 11 6 5 7 4 8 3 9 2 10 1 11
REMARK H PARENT
REMARK Flexibility Score: inf
ROOT
ATOM      1  C   UNL     1      61.581  30.094  14.042  1.00  0.00     0.000 C 
ENDROOT
BRANCH   1   2
ATOM      2  C   UNL     1      61.703  31.249  13.037  1.00  0.00     0.006 C 
BRANCH   2   3
ATOM      3  C   UNL     1      60.356  31.935  12.774  1.00  0.00     0.053 C 
BRANCH   3   4
ATOM      4  C   UNL     1      59.723  32.420  14.044  1.00  0.00     0.041 C 
ATOM      5  O   UNL     1      58.665  31.888  14.469  1.00  0.00    -0.550 OA
ATOM      6  O   UNL     1      60.287  33.482  14.739  1.00  0.00    -0.550 OA
ENDBRANCH   3   4
ENDBRANCH   2   3
ENDBRANCH   1   2
BRANCH   1   7
ATOM      7  C   UNL     1      61.676  28.738  13.334  1.00  0.00     0.000 C 
BRANCH   7   8
ATOM      8  C   UNL     1      60.296  28.079  13.221  1.00  0.00    -0.000 C 
BRANCH   8   9
ATOM      9  C   UNL     1      59.694  28.298  11.825  1.00  0.00    -0.000 C 
BRANCH   9  10
ATOM     10  C   UNL     1      60.761  28.335  10.721  1.00  0.00    -0.003 C 
ATOM     11  C   UNL     1      60.630  29.557   9.813  1.00  0.00     0.004 C 
ENDBRANCH   9  10
ENDBRANCH   8   9
ENDBRANCH   7   8
ENDBRANCH   1   7
TORSDOF 7
ENDMDL
MODEL 8
REMARK VINA RESULT:    -3.793      1.546      2.542
REMARK INTER + INTRA:          -6.112
REMARK INTER:                  -5.432
REMARK INTRA:                  -0.680
REMARK UNBOUND:                -0.766
REMARK SMILES CCCCCCCCC(=O)[O-]
REMARK SMILES IDX 6 1 7 2 8 3 9 4 10 5 11 6 5 7 4 8 3 9 2 10 1 11
REMARK H PARENT
REMARK Flexibility Score: inf
ROOT
ATOM      1  C   UNL     1      61.630  31.114  12.764  1.00  0.00     0.000 C 
ENDROOT
BRANCH   1   2
ATOM      2  C   UNL     1      61.455  30.012  13.819  1.00  0.00     0.006 C 
BRANCH   2   3
ATOM      3  C   UNL     1      61.569  28.606  13.217  1.00  0.00     0.053 C 
BRANCH   3   4
ATOM      4  C   UNL     1      60.465  28.330  12.240  1.00  0.00     0.041 C 
ATOM      5  O   UNL     1      59.266  28.328  12.622  1.00  0.00    -0.550 OA
ATOM      6  O   UNL     1      60.766  28.045  10.915  1.00  0.00    -0.550 OA
ENDBRANCH   3   4
ENDBRANCH   2   3
ENDBRANCH   1   2
BRANCH   1   7
ATOM      7  C   UNL     1      60.404  32.033  12.721  1.00  0.00     0.000 C 
BRANCH   7   8
ATOM      8  C   UNL     1      59.823  32.243  14.125  1.00  0.00    -0.000 C 
BRANCH   8   9
ATOM      9  C   UNL     1      60.378  33.525  14.763  1.00  0.00    -0.000 C 
BRANCH   9  10
ATOM     10  C   UNL     1      61.415  33.238  15.860  1.00  0.00    -0.003 C 
ATOM     11  C   UNL     1      62.849  33.502  15.402  1.00  0.00     0.004 C 
ENDBRANCH   9  10
ENDBRANCH   8   9
ENDBRANCH   7   8
ENDBRANCH   1   7
TORSDOF 7
ENDMDL
MODEL 9
REMARK VINA RESULT:    -3.783      1.349      2.594
REMARK INTER + INTRA:          -6.097
REMARK INTER:                  -5.328
REMARK INTRA:                  -0.769
REMARK UNBOUND:                -0.766
REMARK SMILES CCCCCCCCC(=O)[O-]
REMARK SMILES IDX 6 1 7 2 8 3 9 4 10 5 11 6 5 7 4 8 3 9 2 10 1 11
REMARK H PARENT
REMARK Flexibility Score: inf
ROOT
ATOM      1  C   UNL     1      60.761  30.127  14.020  1.00  0.00     0.000 C 
ENDROOT
BRANCH   1   2
ATOM      2  C   UNL     1      60.995  28.755  13.371  1.00  0.00     0.006 C 
BRANCH   2   3
ATOM      3  C   UNL     1      62.340  28.682  12.636  1.00  0.00     0.053 C 
BRANCH   3   4
ATOM      4  C   UNL     1      62.156  28.625  11.149  1.00  0.00     0.041 C 
ATOM      5  O   UNL     1      63.109  28.917  10.380  1.00  0.00    -0.550 OA
ATOM      6  O   UNL     1      60.921  28.280  10.614  1.00  0.00    -0.550 OA
ENDBRANCH   3   4
ENDBRANCH   2   3
ENDBRANCH   1   2
BRANCH   1   7
ATOM      7  C   UNL     1      60.139  31.108  13.020  1.00  0.00     0.000 C 
BRANCH   7   8
ATOM      8  C   UNL     1      60.885  32.448  13.028  1.00  0.00    -0.000 C 
BRANCH   8   9
ATOM      9  C   UNL     1      62.090  32.402  13.980  1.00  0.00    -0.000 C 
BRANCH   9  10
ATOM     10  C   UNL     1      63.401  32.812  13.293  1.00  0.00    -0.003 C 
ATOM     11  C   UNL     1      63.654  32.044  11.996  1.00  0.00     0.004 C 
ENDBRANCH   9  10
ENDBRANCH   8   9
ENDBRANCH   7   8
ENDBRANCH   1   7
TORSDOF 7
ENDMDL
