MODEL 1
REMARK VINA RESULT:    -2.982      0.000      0.000
REMARK INTER + INTRA:          -3.069
REMARK INTER:                  -3.069
REMARK INTRA:                   0.000
REMARK UNBOUND:                 0.000
REMARK SMILES Oc1ccc2[nH]ccc2c1
REMARK SMILES IDX 3 1 4 2 5 3 9 4 8 5 7 6 6 7 10 8 2 9 1 11
REMARK H PARENT 6 10 1 12
REMARK Flexibility Score: inf
ROOT
ATOM      1  C   UNL     1     130.457 145.395 139.047  1.00  0.00     0.048 A 
ATOM      2  C   UNL     1     130.972 146.093 137.939  1.00  0.00     0.030 A 
ATOM      3  C   UNL     1     130.064 146.701 137.074  1.00  0.00     0.046 A 
ATOM      4  C   UNL     1     128.713 146.631 137.283  1.00  0.00     0.003 A 
ATOM      5  C   UNL     1     128.101 147.326 136.263  1.00  0.00     0.028 A 
ATOM      6  C   UNL     1     129.142 147.795 135.468  1.00  0.00     0.083 A 
ATOM      7  N   UNL     1     130.340 147.411 135.968  1.00  0.00    -0.361 N 
ATOM      8  C   UNL     1     128.170 145.947 138.369  1.00  0.00     0.056 A 
ATOM      9  C   UNL     1     129.062 145.319 139.264  1.00  0.00     0.116 A 
ATOM     10  H   UNL     1     131.281 147.624 135.571  1.00  0.00     0.166 HD
ENDROOT
BRANCH   9  11
ATOM     11  O   UNL     1     128.578 144.622 140.369  1.00  0.00    -0.508 OA
ATOM     12  H   UNL     1     129.183 144.031 140.928  1.00  0.00     0.293 HD
ENDBRANCH   9  11
TORSDOF 1
ENDMDL
MODEL 2
REMARK VINA RESULT:    -2.876     12.704     14.056
REMARK INTER + INTRA:          -2.960
REMARK INTER:                  -2.960
REMARK INTRA:                   0.000
REMARK UNBOUND:                 0.000
REMARK SMILES Oc1ccc2[nH]ccc2c1
REMARK SMILES IDX 3 1 4 2 5 3 9 4 8 5 7 6 6 7 10 8 2 9 1 11
REMARK H PARENT 6 10 1 12
REMARK Flexibility Score: inf
ROOT
ATOM      1  C   UNL     1     144.471 146.261 138.985  1.00  0.00     0.048 A 
ATOM      2  C   UNL     1     143.431 146.403 138.047  1.00  0.00     0.030 A 
ATOM      3  C   UNL     1     142.526 145.351 137.915  1.00  0.00     0.046 A 
ATOM      4  C   UNL     1     142.633 144.211 138.666  1.00  0.00     0.003 A 
ATOM      5  C   UNL     1     141.598 143.378 138.300  1.00  0.00     0.028 A 
ATOM      6  C   UNL     1     140.900 144.076 137.320  1.00  0.00     0.083 A 
ATOM      7  N   UNL     1     141.471 145.282 137.089  1.00  0.00    -0.361 N 
ATOM      8  C   UNL     1     143.650 144.039 139.603  1.00  0.00     0.056 A 
ATOM      9  C   UNL     1     144.584 145.085 139.761  1.00  0.00     0.116 A 
ATOM     10  H   UNL     1     141.152 146.004 136.406  1.00  0.00     0.166 HD
ENDROOT
BRANCH   9  11
ATOM     11  O   UNL     1     145.622 144.969 140.682  1.00  0.00    -0.508 OA
ATOM     12  H   UNL     1     146.308 145.706 140.801  1.00  0.00     0.293 HD
ENDBRANCH   9  11
TORSDOF 1
ENDMDL
MODEL 3
REMARK VINA RESULT:    -2.870      3.330      4.794
REMARK INTER + INTRA:          -2.954
REMARK INTER:                  -2.954
REMARK INTRA:                   0.000
REMARK UNBOUND:                 0.000
REMARK SMILES Oc1ccc2[nH]ccc2c1
REMARK SMILES IDX 3 1 4 2 5 3 9 4 8 5 7 6 6 7 10 8 2 9 1 11
REMARK H PARENT 6 10 1 12
REMARK Flexibility Score: inf
ROOT
ATOM      1  C   UNL     1     131.776 146.720 139.002  1.00  0.00     0.048 A 
ATOM      2  C   UNL     1     131.273 145.788 138.075  1.00  0.00     0.030 A 
ATOM      3  C   UNL     1     131.964 144.588 137.920  1.00  0.00     0.046 A 
ATOM      4  C   UNL     1     133.096 144.311 138.638  1.00  0.00     0.003 A 
ATOM      5  C   UNL     1     133.532 143.061 138.256  1.00  0.00     0.028 A 
ATOM      6  C   UNL     1     132.615 142.634 137.301  1.00  0.00     0.083 A 
ATOM      7  N   UNL     1     131.659 143.571 137.098  1.00  0.00    -0.361 N 
ATOM      8  C   UNL     1     133.621 145.212 139.563  1.00  0.00     0.056 A 
ATOM      9  C   UNL     1     132.945 146.437 139.744  1.00  0.00     0.116 A 
ATOM     10  H   UNL     1     130.853 143.510 136.438  1.00  0.00     0.166 HD
ENDROOT
BRANCH   9  11
ATOM     11  O   UNL     1     133.422 147.377 140.656  1.00  0.00    -0.508 OA
ATOM     12  H   UNL     1     132.933 147.567 141.523  1.00  0.00     0.293 HD
ENDBRANCH   9  11
TORSDOF 1
ENDMDL
MODEL 4
REMARK VINA RESULT:    -2.851     19.436     20.622
REMARK INTER + INTRA:          -2.934
REMARK INTER:                  -2.934
REMARK INTRA:                   0.000
REMARK UNBOUND:                 0.000
REMARK SMILES Oc1ccc2[nH]ccc2c1
REMARK SMILES IDX 3 1 4 2 5 3 9 4 8 5 7 6 6 7 10 8 2 9 1 11
REMARK H PARENT 6 10 1 12
REMARK Flexibility Score: inf
ROOT
ATOM      1  C   UNL     1     148.121 133.944 139.191  1.00  0.00     0.048 A 
ATOM      2  C   UNL     1     147.946 134.994 138.271  1.00  0.00     0.030 A 
ATOM      3  C   UNL     1     146.664 135.518 138.119  1.00  0.00     0.046 A 
ATOM      4  C   UNL     1     145.600 135.037 138.835  1.00  0.00     0.003 A 
ATOM      5  C   UNL     1     144.489 135.759 138.457  1.00  0.00     0.028 A 
ATOM      6  C   UNL     1     144.950 136.665 137.508  1.00  0.00     0.083 A 
ATOM      7  N   UNL     1     146.280 136.514 137.305  1.00  0.00    -0.361 N 
ATOM      8  C   UNL     1     145.739 133.998 139.753  1.00  0.00     0.056 A 
ATOM      9  C   UNL     1     147.025 133.444 139.930  1.00  0.00     0.116 A 
ATOM     10  H   UNL     1     146.879 137.061 136.648  1.00  0.00     0.166 HD
ENDROOT
BRANCH   9  11
ATOM     11  O   UNL     1     147.226 132.404 140.834  1.00  0.00    -0.508 OA
ATOM     12  H   UNL     1     147.611 131.514 140.540  1.00  0.00     0.293 HD
ENDBRANCH   9  11
TORSDOF 1
ENDMDL
MODEL 5
REMARK VINA RESULT:    -2.802      2.991      3.678
REMARK INTER + INTRA:          -2.884
REMARK INTER:                  -2.884
REMARK INTRA:                   0.000
REMARK UNBOUND:                 0.000
REMARK SMILES Oc1ccc2[nH]ccc2c1
REMARK SMILES IDX 3 1 4 2 5 3 9 4 8 5 7 6 6 7 10 8 2 9 1 11
REMARK H PARENT 6 10 1 12
REMARK Flexibility Score: inf
ROOT
ATOM      1  C   UNL     1     133.064 145.219 139.196  1.00  0.00     0.048 A 
ATOM      2  C   UNL     1     132.066 144.281 138.871  1.00  0.00     0.030 A 
ATOM      3  C   UNL     1     130.747 144.727 138.818  1.00  0.00     0.046 A 
ATOM      4  C   UNL     1     130.417 146.032 139.071  1.00  0.00     0.003 A 
ATOM      5  C   UNL     1     129.050 146.145 138.937  1.00  0.00     0.028 A 
ATOM      6  C   UNL     1     128.612 144.869 138.601  1.00  0.00     0.083 A 
ATOM      7  N   UNL     1     129.652 144.006 138.529  1.00  0.00    -0.361 N 
ATOM      8  C   UNL     1     131.380 146.985 139.395  1.00  0.00     0.056 A 
ATOM      9  C   UNL     1     132.726 146.566 139.459  1.00  0.00     0.116 A 
ATOM     10  H   UNL     1     129.607 142.989 138.297  1.00  0.00     0.166 HD
ENDROOT
BRANCH   9  11
ATOM     11  O   UNL     1     133.733 147.474 139.777  1.00  0.00    -0.508 OA
ATOM     12  H   UNL     1     134.679 147.358 139.433  1.00  0.00     0.293 HD
ENDBRANCH   9  11
TORSDOF 1
ENDMDL
MODEL 6
REMARK VINA RESULT:    -2.742      3.827      5.424
REMARK INTER + INTRA:          -2.822
REMARK INTER:                  -2.822
REMARK INTRA:                   0.000
REMARK UNBOUND:                 0.000
REMARK SMILES Oc1ccc2[nH]ccc2c1
REMARK SMILES IDX 3 1 4 2 5 3 9 4 8 5 7 6 6 7 10 8 2 9 1 11
REMARK H PARENT 6 10 1 12
REMARK Flexibility Score: inf
ROOT
ATOM      1  C   UNL     1     131.616 146.767 138.989  1.00  0.00     0.048 A 
ATOM      2  C   UNL     1     132.683 147.332 139.714  1.00  0.00     0.030 A 
ATOM      3  C   UNL     1     133.772 146.514 140.012  1.00  0.00     0.046 A 
ATOM      4  C   UNL     1     133.816 145.203 139.619  1.00  0.00     0.003 A 
ATOM      5  C   UNL     1     135.010 144.680 140.063  1.00  0.00     0.028 A 
ATOM      6  C   UNL     1     135.644 145.729 140.720  1.00  0.00     0.083 A 
ATOM      7  N   UNL     1     134.883 146.848 140.686  1.00  0.00    -0.361 N 
ATOM      8  C   UNL     1     132.777 144.614 138.901  1.00  0.00     0.056 A 
ATOM      9  C   UNL     1     131.659 145.414 138.583  1.00  0.00     0.116 A 
ATOM     10  H   UNL     1     135.117 147.778 141.100  1.00  0.00     0.166 HD
ENDROOT
BRANCH   9  11
ATOM     11  O   UNL     1     130.591 144.880 137.867  1.00  0.00    -0.508 OA
ATOM     12  H   UNL     1     129.804 145.453 137.585  1.00  0.00     0.293 HD
ENDBRANCH   9  11
TORSDOF 1
ENDMDL
MODEL 7
REMARK VINA RESULT:    -2.742     14.035     15.267
REMARK INTER + INTRA:          -2.822
REMARK INTER:                  -2.822
REMARK INTRA:                   0.000
REMARK UNBOUND:                 0.000
REMARK SMILES Oc1ccc2[nH]ccc2c1
REMARK SMILES IDX 3 1 4 2 5 3 9 4 8 5 7 6 6 7 10 8 2 9 1 11
REMARK H PARENT 6 10 1 12
REMARK Flexibility Score: inf
ROOT
ATOM      1  C   UNL     1     144.378 146.298 138.978  1.00  0.00     0.048 A 
ATOM      2  C   UNL     1     145.266 145.474 139.695  1.00  0.00     0.030 A 
ATOM      3  C   UNL     1     144.852 144.177 139.993  1.00  0.00     0.046 A 
ATOM      4  C   UNL     1     143.625 143.707 139.608  1.00  0.00     0.003 A 
ATOM      5  C   UNL     1     143.525 142.406 140.051  1.00  0.00     0.028 A 
ATOM      6  C   UNL     1     144.729 142.149 140.698  1.00  0.00     0.083 A 
ATOM      7  N   UNL     1     145.537 143.235 140.660  1.00  0.00    -0.361 N 
ATOM      8  C   UNL     1     142.723 144.496 138.898  1.00  0.00     0.056 A 
ATOM      9  C   UNL     1     143.110 145.815 138.580  1.00  0.00     0.116 A 
ATOM     10  H   UNL     1     146.494 143.318 141.068  1.00  0.00     0.166 HD
ENDROOT
BRANCH   9  11
ATOM     11  O   UNL     1     142.251 146.651 137.872  1.00  0.00    -0.508 OA
ATOM     12  H   UNL     1     142.256 147.655 138.010  1.00  0.00     0.293 HD
ENDBRANCH   9  11
TORSDOF 1
ENDMDL
MODEL 8
REMARK VINA RESULT:    -2.739     20.017     21.153
REMARK INTER + INTRA:          -2.819
REMARK INTER:                  -2.819
REMARK INTRA:                   0.000
REMARK UNBOUND:                 0.000
REMARK SMILES Oc1ccc2[nH]ccc2c1
REMARK SMILES IDX 3 1 4 2 5 3 9 4 8 5 7 6 6 7 10 8 2 9 1 11
REMARK H PARENT 6 10 1 12
REMARK Flexibility Score: inf
ROOT
ATOM      1  C   UNL     1     147.933 134.220 139.004  1.00  0.00     0.048 A 
ATOM      2  C   UNL     1     147.476 133.119 139.753  1.00  0.00     0.030 A 
ATOM      3  C   UNL     1     146.125 133.081 140.096  1.00  0.00     0.046 A 
ATOM      4  C   UNL     1     145.260 134.074 139.722  1.00  0.00     0.003 A 
ATOM      5  C   UNL     1     144.015 133.741 140.211  1.00  0.00     0.028 A 
ATOM      6  C   UNL     1     144.197 132.531 140.872  1.00  0.00     0.083 A 
ATOM      7  N   UNL     1     145.488 132.132 140.799  1.00  0.00    -0.361 N 
ATOM      8  C   UNL     1     145.679 135.177 138.981  1.00  0.00     0.056 A 
ATOM      9  C   UNL     1     147.041 135.247 138.618  1.00  0.00     0.116 A 
ATOM     10  H   UNL     1     145.899 131.263 141.208  1.00  0.00     0.166 HD
ENDROOT
BRANCH   9  11
ATOM     11  O   UNL     1     147.519 136.324 137.877  1.00  0.00    -0.508 OA
ATOM     12  H   UNL     1     147.791 137.193 138.321  1.00  0.00     0.293 HD
ENDBRANCH   9  11
TORSDOF 1
ENDMDL
MODEL 9
REMARK VINA RESULT:    -2.686     14.496     15.781
REMARK INTER + INTRA:          -2.764
REMARK INTER:                  -2.764
REMARK INTRA:                   0.000
REMARK UNBOUND:                 0.000
REMARK SMILES Oc1ccc2[nH]ccc2c1
REMARK SMILES IDX 3 1 4 2 5 3 9 4 8 5 7 6 6 7 10 8 2 9 1 11
REMARK H PARENT 6 10 1 12
REMARK Flexibility Score: inf
ROOT
ATOM      1  C   UNL     1     143.898 146.232 138.481  1.00  0.00     0.048 A 
ATOM      2  C   UNL     1     144.845 145.620 139.324  1.00  0.00     0.030 A 
ATOM      3  C   UNL     1     145.194 146.282 140.499  1.00  0.00     0.046 A 
ATOM      4  C   UNL     1     144.642 147.488 140.837  1.00  0.00     0.003 A 
ATOM      5  C   UNL     1     145.190 147.869 142.043  1.00  0.00     0.028 A 
ATOM      6  C   UNL     1     146.069 146.846 142.382  1.00  0.00     0.083 A 
ATOM      7  N   UNL     1     146.068 145.878 141.435  1.00  0.00    -0.361 N 
ATOM      8  C   UNL     1     143.702 148.121 140.026  1.00  0.00     0.056 A 
ATOM      9  C   UNL     1     143.328 147.478 138.827  1.00  0.00     0.116 A 
ATOM     10  H   UNL     1     146.633 145.000 141.437  1.00  0.00     0.166 HD
ENDROOT
BRANCH   9  11
ATOM     11  O   UNL     1     142.392 148.062 137.977  1.00  0.00    -0.508 OA
ATOM     12  H   UNL     1     142.614 148.889 137.434  1.00  0.00     0.293 HD
ENDBRANCH   9  11
TORSDOF 1
ENDMDL
