MODEL 1
REMARK VINA RESULT:    -5.121      0.000      0.000
REMARK INTER + INTRA:          -5.121
REMARK INTER:                  -5.121
REMARK INTRA:                   0.000
REMARK UNBOUND:                 0.000
REMARK SMILES O=c1ccc2ccc3occc3c2o1
REMARK SMILES IDX 6 1 7 2 8 3 12 4 11 5 10 6 9 7 13 8 5 9 4 10 3 11 2 12 1 13
REMARK SMILES IDX 14 14
REMARK H PARENT
REMARK Flexibility Score: inf
ROOT
ATOM      1  C   UNL     1     -16.652  17.670  44.214  1.00  0.00     0.016 A 
ATOM      2  C   UNL     1     -16.173  16.526  43.548  1.00  0.00     0.048 A 
ATOM      3  C   UNL     1     -16.307  16.469  42.162  1.00  0.00     0.137 A 
ATOM      4  C   UNL     1     -16.883  17.485  41.448  1.00  0.00     0.064 A 
ATOM      5  C   UNL     1     -16.854  17.112  40.124  1.00  0.00     0.054 A 
ATOM      6  C   UNL     1     -16.246  15.861  40.128  1.00  0.00     0.196 A 
ATOM      7  O   UNL     1     -15.930  15.504  41.360  1.00  0.00    -0.464 OA
ATOM      8  C   UNL     1     -17.369  18.634  42.069  1.00  0.00     0.149 A 
ATOM      9  C   UNL     1     -17.250  18.724  43.480  1.00  0.00     0.018 A 
ATOM     10  C   UNL     1     -17.736  19.874  44.110  1.00  0.00     0.019 A 
ATOM     11  C   UNL     1     -18.316  20.882  43.339  1.00  0.00     0.094 A 
ATOM     12  C   UNL     1     -18.398  20.721  41.950  1.00  0.00     0.336 A 
ATOM     13  O   UNL     1     -18.918  21.621  41.243  1.00  0.00    -0.246 OA
ATOM     14  O   UNL     1     -17.929  19.618  41.372  1.00  0.00    -0.422 OA
ENDROOT
TORSDOF 0
ENDMDL
MODEL 2
REMARK VINA RESULT:    -4.962     16.354     17.432
REMARK INTER + INTRA:          -4.962
REMARK INTER:                  -4.962
REMARK INTRA:                   0.000
REMARK UNBOUND:                 0.000
REMARK SMILES O=c1ccc2ccc3occc3c2o1
REMARK SMILES IDX 6 1 7 2 8 3 12 4 11 5 10 6 9 7 13 8 5 9 4 10 3 11 2 12 1 13
REMARK SMILES IDX 14 14
REMARK H PARENT
REMARK Flexibility Score: inf
ROOT
ATOM      1  C   UNL     1      -8.229  30.974  46.099  1.00  0.00     0.016 A 
ATOM      2  C   UNL     1      -8.132  29.601  45.802  1.00  0.00     0.048 A 
ATOM      3  C   UNL     1      -6.935  28.950  46.097  1.00  0.00     0.137 A 
ATOM      4  C   UNL     1      -5.873  29.606  46.659  1.00  0.00     0.064 A 
ATOM      5  C   UNL     1      -4.867  28.681  46.816  1.00  0.00     0.054 A 
ATOM      6  C   UNL     1      -5.404  27.496  46.324  1.00  0.00     0.196 A 
ATOM      7  O   UNL     1      -6.641  27.689  45.901  1.00  0.00    -0.464 OA
ATOM      8  C   UNL     1      -5.930  30.964  46.969  1.00  0.00     0.149 A 
ATOM      9  C   UNL     1      -7.134  31.658  46.681  1.00  0.00     0.018 A 
ATOM     10  C   UNL     1      -7.198  33.021  46.987  1.00  0.00     0.019 A 
ATOM     11  C   UNL     1      -6.089  33.645  47.560  1.00  0.00     0.094 A 
ATOM     12  C   UNL     1      -4.935  32.893  47.815  1.00  0.00     0.336 A 
ATOM     13  O   UNL     1      -3.928  33.442  48.331  1.00  0.00    -0.246 OA
ATOM     14  O   UNL     1      -4.896  31.597  47.514  1.00  0.00    -0.422 OA
ENDROOT
TORSDOF 0
ENDMDL
MODEL 3
REMARK VINA RESULT:    -4.940      3.583      6.922
REMARK INTER + INTRA:          -4.940
REMARK INTER:                  -4.940
REMARK INTRA:                   0.000
REMARK UNBOUND:                 0.000
REMARK SMILES O=c1ccc2ccc3occc3c2o1
REMARK SMILES IDX 6 1 7 2 8 3 12 4 11 5 10 6 9 7 13 8 5 9 4 10 3 11 2 12 1 13
REMARK SMILES IDX 14 14
REMARK H PARENT
REMARK Flexibility Score: inf
ROOT
ATOM      1  C   UNL     1     -22.072  22.358  41.207  1.00  0.00     0.016 A 
ATOM      2  C   UNL     1     -22.270  23.591  40.556  1.00  0.00     0.048 A 
ATOM      3  C   UNL     1     -21.152  24.251  40.047  1.00  0.00     0.137 A 
ATOM      4  C   UNL     1     -19.891  23.733  40.163  1.00  0.00     0.064 A 
ATOM      5  C   UNL     1     -19.034  24.624  39.560  1.00  0.00     0.054 A 
ATOM      6  C   UNL     1     -19.859  25.649  39.108  1.00  0.00     0.196 A 
ATOM      7  O   UNL     1     -21.119  25.397  39.414  1.00  0.00    -0.464 OA
ATOM      8  C   UNL     1     -19.653  22.515  40.799  1.00  0.00     0.149 A 
ATOM      9  C   UNL     1     -20.769  21.818  41.330  1.00  0.00     0.018 A 
ATOM     10  C   UNL     1     -20.538  20.597  41.970  1.00  0.00     0.019 A 
ATOM     11  C   UNL     1     -19.233  20.110  42.064  1.00  0.00     0.094 A 
ATOM     12  C   UNL     1     -18.183  20.856  41.515  1.00  0.00     0.336 A 
ATOM     13  O   UNL     1     -17.002  20.430  41.592  1.00  0.00    -0.246 OA
ATOM     14  O   UNL     1     -18.426  22.017  40.911  1.00  0.00    -0.422 OA
ENDROOT
TORSDOF 0
ENDMDL
MODEL 4
REMARK VINA RESULT:    -4.922      6.781      7.667
REMARK INTER + INTRA:          -4.922
REMARK INTER:                  -4.922
REMARK INTRA:                   0.000
REMARK UNBOUND:                 0.000
REMARK SMILES O=c1ccc2ccc3occc3c2o1
REMARK SMILES IDX 6 1 7 2 8 3 12 4 11 5 10 6 9 7 13 8 5 9 4 10 3 11 2 12 1 13
REMARK SMILES IDX 14 14
REMARK H PARENT
REMARK Flexibility Score: inf
ROOT
ATOM      1  C   UNL     1     -23.542  21.208  38.819  1.00  0.00     0.016 A 
ATOM      2  C   UNL     1     -23.626  20.862  37.456  1.00  0.00     0.048 A 
ATOM      3  C   UNL     1     -22.621  21.313  36.602  1.00  0.00     0.137 A 
ATOM      4  C   UNL     1     -21.574  22.071  37.053  1.00  0.00     0.064 A 
ATOM      5  C   UNL     1     -20.776  22.340  35.965  1.00  0.00     0.054 A 
ATOM      6  C   UNL     1     -21.412  21.709  34.902  1.00  0.00     0.196 A 
ATOM      7  O   UNL     1     -22.512  21.104  35.314  1.00  0.00    -0.464 OA
ATOM      8  C   UNL     1     -21.455  22.434  38.394  1.00  0.00     0.149 A 
ATOM      9  C   UNL     1     -22.461  21.992  39.291  1.00  0.00     0.018 A 
ATOM     10  C   UNL     1     -22.349  22.354  40.636  1.00  0.00     0.019 A 
ATOM     11  C   UNL     1     -21.263  23.128  41.048  1.00  0.00     0.094 A 
ATOM     12  C   UNL     1     -20.309  23.526  40.103  1.00  0.00     0.336 A 
ATOM     13  O   UNL     1     -19.325  24.224  40.459  1.00  0.00    -0.246 OA
ATOM     14  O   UNL     1     -20.436  23.171  38.826  1.00  0.00    -0.422 OA
ENDROOT
TORSDOF 0
ENDMDL
MODEL 5
REMARK VINA RESULT:    -4.880      7.082      8.227
REMARK INTER + INTRA:          -4.880
REMARK INTER:                  -4.880
REMARK INTRA:                   0.000
REMARK UNBOUND:                 0.000
REMARK SMILES O=c1ccc2ccc3occc3c2o1
REMARK SMILES IDX 6 1 7 2 8 3 12 4 11 5 10 6 9 7 13 8 5 9 4 10 3 11 2 12 1 13
REMARK SMILES IDX 14 14
REMARK H PARENT
REMARK Flexibility Score: inf
ROOT
ATOM      1  C   UNL     1     -22.775  21.580  39.339  1.00  0.00     0.016 A 
ATOM      2  C   UNL     1     -22.203  22.349  40.370  1.00  0.00     0.048 A 
ATOM      3  C   UNL     1     -21.174  23.229  40.037  1.00  0.00     0.137 A 
ATOM      4  C   UNL     1     -20.719  23.358  38.753  1.00  0.00     0.064 A 
ATOM      5  C   UNL     1     -19.715  24.299  38.776  1.00  0.00     0.054 A 
ATOM      6  C   UNL     1     -19.630  24.685  40.110  1.00  0.00     0.196 A 
ATOM      7  O   UNL     1     -20.514  24.028  40.839  1.00  0.00    -0.464 OA
ATOM      8  C   UNL     1     -21.259  22.615  37.705  1.00  0.00     0.149 A 
ATOM      9  C   UNL     1     -22.308  21.709  38.008  1.00  0.00     0.018 A 
ATOM     10  C   UNL     1     -22.853  20.959  36.962  1.00  0.00     0.019 A 
ATOM     11  C   UNL     1     -22.355  21.126  35.669  1.00  0.00     0.094 A 
ATOM     12  C   UNL     1     -21.318  22.041  35.448  1.00  0.00     0.336 A 
ATOM     13  O   UNL     1     -20.858  22.201  34.289  1.00  0.00    -0.246 OA
ATOM     14  O   UNL     1     -20.812  22.743  36.459  1.00  0.00    -0.422 OA
ENDROOT
TORSDOF 0
ENDMDL
MODEL 6
REMARK VINA RESULT:    -4.829      3.021      5.188
REMARK INTER + INTRA:          -4.829
REMARK INTER:                  -4.829
REMARK INTRA:                   0.000
REMARK UNBOUND:                 0.000
REMARK SMILES O=c1ccc2ccc3occc3c2o1
REMARK SMILES IDX 6 1 7 2 8 3 12 4 11 5 10 6 9 7 13 8 5 9 4 10 3 11 2 12 1 13
REMARK SMILES IDX 14 14
REMARK H PARENT
REMARK Flexibility Score: inf
ROOT
ATOM      1  C   UNL     1     -21.420  21.485  41.550  1.00  0.00     0.016 A 
ATOM      2  C   UNL     1     -20.702  20.461  42.197  1.00  0.00     0.048 A 
ATOM      3  C   UNL     1     -19.313  20.458  42.078  1.00  0.00     0.137 A 
ATOM      4  C   UNL     1     -18.646  21.413  41.359  1.00  0.00     0.064 A 
ATOM      5  C   UNL     1     -17.305  21.118  41.448  1.00  0.00     0.054 A 
ATOM      6  C   UNL     1     -17.251  19.973  42.236  1.00  0.00     0.196 A 
ATOM      7  O   UNL     1     -18.467  19.603  42.597  1.00  0.00    -0.464 OA
ATOM      8  C   UNL     1     -19.320  22.443  40.704  1.00  0.00     0.149 A 
ATOM      9  C   UNL     1     -20.735  22.475  40.804  1.00  0.00     0.018 A 
ATOM     10  C   UNL     1     -21.417  23.505  40.149  1.00  0.00     0.019 A 
ATOM     11  C   UNL     1     -20.692  24.455  39.428  1.00  0.00     0.094 A 
ATOM     12  C   UNL     1     -19.296  24.356  39.376  1.00  0.00     0.336 A 
ATOM     13  O   UNL     1     -18.630  25.205  38.730  1.00  0.00    -0.246 OA
ATOM     14  O   UNL     1     -18.667  23.367  40.006  1.00  0.00    -0.422 OA
ENDROOT
TORSDOF 0
ENDMDL
MODEL 7
REMARK VINA RESULT:    -4.795     14.950     16.515
REMARK INTER + INTRA:          -4.795
REMARK INTER:                  -4.795
REMARK INTRA:                   0.000
REMARK UNBOUND:                 0.000
REMARK SMILES O=c1ccc2ccc3occc3c2o1
REMARK SMILES IDX 6 1 7 2 8 3 12 4 11 5 10 6 9 7 13 8 5 9 4 10 3 11 2 12 1 13
REMARK SMILES IDX 14 14
REMARK H PARENT
REMARK Flexibility Score: inf
ROOT
ATOM      1  C   UNL     1      -8.822  30.235  44.958  1.00  0.00     0.016 A 
ATOM      2  C   UNL     1      -8.660  31.527  45.493  1.00  0.00     0.048 A 
ATOM      3  C   UNL     1      -7.616  31.738  46.393  1.00  0.00     0.137 A 
ATOM      4  C   UNL     1      -6.762  30.733  46.759  1.00  0.00     0.064 A 
ATOM      5  C   UNL     1      -5.862  31.276  47.647  1.00  0.00     0.054 A 
ATOM      6  C   UNL     1      -6.244  32.609  47.760  1.00  0.00     0.196 A 
ATOM      7  O   UNL     1      -7.296  32.854  46.999  1.00  0.00    -0.464 OA
ATOM      8  C   UNL     1      -6.888  29.442  46.251  1.00  0.00     0.149 A 
ATOM      9  C   UNL     1      -7.941  29.192  45.333  1.00  0.00     0.018 A 
ATOM     10  C   UNL     1      -8.074  27.898  44.821  1.00  0.00     0.019 A 
ATOM     11  C   UNL     1      -7.178  26.907  45.224  1.00  0.00     0.094 A 
ATOM     12  C   UNL     1      -6.164  27.231  46.134  1.00  0.00     0.336 A 
ATOM     13  O   UNL     1      -5.349  26.348  46.507  1.00  0.00    -0.246 OA
ATOM     14  O   UNL     1      -6.056  28.469  46.610  1.00  0.00    -0.422 OA
ENDROOT
TORSDOF 0
ENDMDL
MODEL 8
REMARK VINA RESULT:    -4.731     14.893     15.951
REMARK INTER + INTRA:          -4.731
REMARK INTER:                  -4.731
REMARK INTRA:                   0.000
REMARK UNBOUND:                 0.000
REMARK SMILES O=c1ccc2ccc3occc3c2o1
REMARK SMILES IDX 6 1 7 2 8 3 12 4 11 5 10 6 9 7 13 8 5 9 4 10 3 11 2 12 1 13
REMARK SMILES IDX 14 14
REMARK H PARENT
REMARK Flexibility Score: inf
ROOT
ATOM      1  C   UNL     1      -5.667  28.916  46.856  1.00  0.00     0.016 A 
ATOM      2  C   UNL     1      -6.296  27.858  46.173  1.00  0.00     0.048 A 
ATOM      3  C   UNL     1      -7.472  28.134  45.476  1.00  0.00     0.137 A 
ATOM      4  C   UNL     1      -8.015  29.389  45.442  1.00  0.00     0.064 A 
ATOM      5  C   UNL     1      -9.156  29.312  44.676  1.00  0.00     0.054 A 
ATOM      6  C   UNL     1      -9.225  27.978  44.289  1.00  0.00     0.196 A 
ATOM      7  O   UNL     1      -8.205  27.299  44.782  1.00  0.00    -0.464 OA
ATOM      8  C   UNL     1      -7.423  30.463  46.104  1.00  0.00     0.149 A 
ATOM      9  C   UNL     1      -6.225  30.218  46.825  1.00  0.00     0.018 A 
ATOM     10  C   UNL     1      -5.627  31.290  47.492  1.00  0.00     0.019 A 
ATOM     11  C   UNL     1      -6.219  32.552  47.428  1.00  0.00     0.094 A 
ATOM     12  C   UNL     1      -7.402  32.716  46.696  1.00  0.00     0.336 A 
ATOM     13  O   UNL     1      -7.948  33.848  46.630  1.00  0.00    -0.246 OA
ATOM     14  O   UNL     1      -7.956  31.681  46.069  1.00  0.00    -0.422 OA
ENDROOT
TORSDOF 0
ENDMDL
MODEL 9
REMARK VINA RESULT:    -4.618     14.664     15.663
REMARK INTER + INTRA:          -4.618
REMARK INTER:                  -4.618
REMARK INTRA:                   0.000
REMARK UNBOUND:                 0.000
REMARK SMILES O=c1ccc2ccc3occc3c2o1
REMARK SMILES IDX 6 1 7 2 8 3 12 4 11 5 10 6 9 7 13 8 5 9 4 10 3 11 2 12 1 13
REMARK SMILES IDX 14 14
REMARK H PARENT
REMARK Flexibility Score: inf
ROOT
ATOM      1  C   UNL     1      -8.916  29.073  44.675  1.00  0.00     0.016 A 
ATOM      2  C   UNL     1      -8.449  27.745  44.667  1.00  0.00     0.048 A 
ATOM      3  C   UNL     1      -7.264  27.463  45.345  1.00  0.00     0.137 A 
ATOM      4  C   UNL     1      -6.560  28.432  46.007  1.00  0.00     0.064 A 
ATOM      5  C   UNL     1      -5.459  27.820  46.560  1.00  0.00     0.054 A 
ATOM      6  C   UNL     1      -5.575  26.486  46.184  1.00  0.00     0.196 A 
ATOM      7  O   UNL     1      -6.664  26.304  45.458  1.00  0.00    -0.464 OA
ATOM      8  C   UNL     1      -6.989  29.758  46.039  1.00  0.00     0.149 A 
ATOM      9  C   UNL     1      -8.191  30.081  45.358  1.00  0.00     0.018 A 
ATOM     10  C   UNL     1      -8.627  31.409  45.386  1.00  0.00     0.019 A 
ATOM     11  C   UNL     1      -7.875  32.361  46.074  1.00  0.00     0.094 A 
ATOM     12  C   UNL     1      -6.698  31.965  46.723  1.00  0.00     0.336 A 
ATOM     13  O   UNL     1      -6.009  32.813  47.347  1.00  0.00    -0.246 OA
ATOM     14  O   UNL     1      -6.301  30.696  46.683  1.00  0.00    -0.422 OA
ENDROOT
TORSDOF 0
ENDMDL
