MODEL 1
REMARK VINA RESULT:    -6.779      0.000      0.000
REMARK INTER + INTRA:          -9.696
REMARK INTER:                  -8.563
REMARK INTRA:                  -1.133
REMARK UNBOUND:                -1.133
REMARK SMILES O=C(C=Cc1ccc(O)cc1)c1ccc(O)cc1O
REMARK SMILES IDX 4 1 3 2 5 3 6 4 7 5 8 6 11 7 10 8 9 9 2 11 1 12 12 13 18 14
REMARK SMILES IDX 13 15 17 16 14 17 15 18 19 19 16 21
REMARK H PARENT 9 10 19 20 16 22
REMARK Flexibility Score: inf
ROOT
ATOM      1  C   UNL     1       2.566 -18.739  -6.399  1.00  0.00     0.012 C 
ATOM      2  C   UNL     1       3.835 -18.543  -6.011  1.00  0.00     0.053 C 
ENDROOT
BRANCH   1   3
ATOM      3  C   UNL     1       1.911 -20.058  -6.541  1.00  0.00    -0.025 A 
ATOM      4  C   UNL     1       1.145 -20.561  -5.478  1.00  0.00     0.012 A 
ATOM      5  C   UNL     1       0.482 -21.785  -5.603  1.00  0.00     0.047 A 
ATOM      6  C   UNL     1       0.558 -22.509  -6.800  1.00  0.00     0.115 A 
ATOM      7  C   UNL     1       1.960 -20.774  -7.750  1.00  0.00     0.012 A 
ATOM      8  C   UNL     1       1.295 -21.998  -7.873  1.00  0.00     0.047 A 
BRANCH   6   9
ATOM      9  O   UNL     1      -0.099 -23.730  -6.936  1.00  0.00    -0.508 OA
ATOM     10  H   UNL     1      -1.081 -23.830  -6.710  1.00  0.00     0.293 HD
ENDBRANCH   6   9
ENDBRANCH   1   3
BRANCH   2  11
ATOM     11  C   UNL     1       4.735 -19.591  -5.478  1.00  0.00     0.189 C 
ATOM     12  O   UNL     1       4.788 -19.795  -4.234  1.00  0.00    -0.289 OA
BRANCH  11  13
ATOM     13  C   UNL     1       5.653 -20.339  -6.372  1.00  0.00     0.064 A 
ATOM     14  C   UNL     1       5.662 -21.752  -6.419  1.00  0.00     0.130 A 
ATOM     15  C   UNL     1       6.557 -19.624  -7.179  1.00  0.00     0.020 A 
ATOM     16  C   UNL     1       6.539 -22.416  -7.289  1.00  0.00     0.093 A 
ATOM     17  C   UNL     1       7.429 -20.297  -8.038  1.00  0.00     0.047 A 
ATOM     18  C   UNL     1       7.422 -21.691  -8.099  1.00  0.00     0.119 A 
BRANCH  14  19
ATOM     19  O   UNL     1       4.823 -22.496  -5.591  1.00  0.00    -0.507 OA
ATOM     20  H   UNL     1       4.012 -22.084  -5.144  1.00  0.00     0.293 HD
ENDBRANCH  14  19
BRANCH  18  21
ATOM     21  O   UNL     1       8.295 -22.347  -8.963  1.00  0.00    -0.508 OA
ATOM     22  H   UNL     1       8.613 -23.292  -8.779  1.00  0.00     0.293 HD
ENDBRANCH  18  21
ENDBRANCH  11  13
ENDBRANCH   2  11
TORSDOF 6
ENDMDL
MODEL 2
REMARK VINA RESULT:    -6.272      2.357      3.022
REMARK INTER + INTRA:          -9.055
REMARK INTER:                  -8.006
REMARK INTRA:                  -1.049
REMARK UNBOUND:                -1.133
REMARK SMILES O=C(C=Cc1ccc(O)cc1)c1ccc(O)cc1O
REMARK SMILES IDX 4 1 3 2 5 3 6 4 7 5 8 6 11 7 10 8 9 9 2 11 1 12 12 13 18 14
REMARK SMILES IDX 13 15 17 16 14 17 15 18 19 19 16 21
REMARK H PARENT 9 10 19 20 16 22
REMARK Flexibility Score: inf
ROOT
ATOM      1  C   UNL     1       1.561 -18.822  -5.037  1.00  0.00     0.012 C 
ATOM      2  C   UNL     1       2.351 -18.660  -3.965  1.00  0.00     0.053 C 
ENDROOT
BRANCH   1   3
ATOM      3  C   UNL     1       1.349 -20.098  -5.754  1.00  0.00    -0.025 A 
ATOM      4  C   UNL     1       0.498 -21.065  -5.196  1.00  0.00     0.012 A 
ATOM      5  C   UNL     1       0.248 -22.261  -5.874  1.00  0.00     0.047 A 
ATOM      6  C   UNL     1       0.827 -22.495  -7.129  1.00  0.00     0.115 A 
ATOM      7  C   UNL     1       1.904 -20.325  -7.026  1.00  0.00     0.012 A 
ATOM      8  C   UNL     1       1.652 -21.522  -7.703  1.00  0.00     0.047 A 
BRANCH   6   9
ATOM      9  O   UNL     1       0.585 -23.683  -7.814  1.00  0.00    -0.508 OA
ATOM     10  H   UNL     1       0.806 -24.584  -7.405  1.00  0.00     0.293 HD
ENDBRANCH   6   9
ENDBRANCH   1   3
BRANCH   2  11
ATOM     11  C   UNL     1       2.991 -19.756  -3.203  1.00  0.00     0.189 C 
ATOM     12  O   UNL     1       2.389 -20.266  -2.219  1.00  0.00    -0.289 OA
BRANCH  11  13
ATOM     13  C   UNL     1       4.373 -20.198  -3.513  1.00  0.00     0.064 A 
ATOM     14  C   UNL     1       5.484 -19.759  -2.758  1.00  0.00     0.130 A 
ATOM     15  C   UNL     1       4.588 -21.059  -4.605  1.00  0.00     0.020 A 
ATOM     16  C   UNL     1       6.771 -20.213  -3.080  1.00  0.00     0.093 A 
ATOM     17  C   UNL     1       5.875 -21.500  -4.920  1.00  0.00     0.047 A 
ATOM     18  C   UNL     1       6.969 -21.083  -4.160  1.00  0.00     0.119 A 
BRANCH  14  19
ATOM     19  O   UNL     1       5.317 -18.859  -1.706  1.00  0.00    -0.507 OA
ATOM     20  H   UNL     1       5.770 -17.952  -1.703  1.00  0.00     0.293 HD
ENDBRANCH  14  19
BRANCH  18  21
ATOM     21  O   UNL     1       8.245 -21.534  -4.485  1.00  0.00    -0.508 OA
ATOM     22  H   UNL     1       8.776 -21.121  -5.244  1.00  0.00     0.293 HD
ENDBRANCH  18  21
ENDBRANCH  11  13
ENDBRANCH   2  11
TORSDOF 6
ENDMDL
MODEL 3
REMARK VINA RESULT:    -6.256      2.230      3.215
REMARK INTER + INTRA:          -9.035
REMARK INTER:                  -8.098
REMARK INTRA:                  -0.937
REMARK UNBOUND:                -1.133
REMARK SMILES O=C(C=Cc1ccc(O)cc1)c1ccc(O)cc1O
REMARK SMILES IDX 4 1 3 2 5 3 6 4 7 5 8 6 11 7 10 8 9 9 2 11 1 12 12 13 18 14
REMARK SMILES IDX 13 15 17 16 14 17 15 18 19 19 16 21
REMARK H PARENT 9 10 19 20 16 22
REMARK Flexibility Score: inf
ROOT
ATOM      1  C   UNL     1       1.623 -18.795  -5.788  1.00  0.00     0.012 C 
ATOM      2  C   UNL     1       2.027 -19.358  -6.936  1.00  0.00     0.053 C 
ENDROOT
BRANCH   1   3
ATOM      3  C   UNL     1       1.727 -19.418  -4.450  1.00  0.00    -0.025 A 
ATOM      4  C   UNL     1       0.581 -19.978  -3.864  1.00  0.00     0.012 A 
ATOM      5  C   UNL     1       0.662 -20.610  -2.620  1.00  0.00     0.047 A 
ATOM      6  C   UNL     1       1.893 -20.710  -1.958  1.00  0.00     0.115 A 
ATOM      7  C   UNL     1       2.965 -19.547  -3.796  1.00  0.00     0.012 A 
ATOM      8  C   UNL     1       3.044 -20.180  -2.552  1.00  0.00     0.047 A 
BRANCH   6   9
ATOM      9  O   UNL     1       1.985 -21.337  -0.718  1.00  0.00    -0.508 OA
ATOM     10  H   UNL     1       2.664 -21.043  -0.026  1.00  0.00     0.293 HD
ENDBRANCH   6   9
ENDBRANCH   1   3
BRANCH   2  11
ATOM     11  C   UNL     1       2.815 -20.607  -7.044  1.00  0.00     0.189 C 
ATOM     12  O   UNL     1       2.242 -21.721  -6.900  1.00  0.00    -0.289 OA
BRANCH  11  13
ATOM     13  C   UNL     1       4.288 -20.568  -7.218  1.00  0.00     0.064 A 
ATOM     14  C   UNL     1       5.146 -21.444  -6.514  1.00  0.00     0.130 A 
ATOM     15  C   UNL     1       4.850 -19.618  -8.090  1.00  0.00     0.020 A 
ATOM     16  C   UNL     1       6.532 -21.379  -6.719  1.00  0.00     0.093 A 
ATOM     17  C   UNL     1       6.233 -19.560  -8.284  1.00  0.00     0.047 A 
ATOM     18  C   UNL     1       7.077 -20.439  -7.603  1.00  0.00     0.119 A 
BRANCH  14  19
ATOM     19  O   UNL     1       4.631 -22.358  -5.596  1.00  0.00    -0.507 OA
ATOM     20  H   UNL     1       4.322 -23.281  -5.878  1.00  0.00     0.293 HD
ENDBRANCH  14  19
BRANCH  18  21
ATOM     21  O   UNL     1       8.452 -20.371  -7.809  1.00  0.00    -0.508 OA
ATOM     22  H   UNL     1       9.065 -19.909  -7.146  1.00  0.00     0.293 HD
ENDBRANCH  18  21
ENDBRANCH  11  13
ENDBRANCH   2  11
TORSDOF 6
ENDMDL
MODEL 4
REMARK VINA RESULT:    -6.163      1.722      5.261
REMARK INTER + INTRA:          -8.917
REMARK INTER:                  -7.551
REMARK INTRA:                  -1.366
REMARK UNBOUND:                -1.133
REMARK SMILES O=C(C=Cc1ccc(O)cc1)c1ccc(O)cc1O
REMARK SMILES IDX 4 1 3 2 5 3 6 4 7 5 8 6 11 7 10 8 9 9 2 11 1 12 12 13 18 14
REMARK SMILES IDX 13 15 17 16 14 17 15 18 19 19 16 21
REMARK H PARENT 9 10 19 20 16 22
REMARK Flexibility Score: inf
ROOT
ATOM      1  C   UNL     1       3.951 -19.021  -3.871  1.00  0.00     0.012 C 
ATOM      2  C   UNL     1       2.688 -18.621  -4.087  1.00  0.00     0.053 C 
ENDROOT
BRANCH   1   3
ATOM      3  C   UNL     1       4.768 -19.813  -4.816  1.00  0.00    -0.025 A 
ATOM      4  C   UNL     1       4.709 -21.215  -4.764  1.00  0.00     0.012 A 
ATOM      5  C   UNL     1       5.438 -21.986  -5.673  1.00  0.00     0.047 A 
ATOM      6  C   UNL     1       6.217 -21.365  -6.659  1.00  0.00     0.115 A 
ATOM      7  C   UNL     1       5.527 -19.195  -5.825  1.00  0.00     0.012 A 
ATOM      8  C   UNL     1       6.256 -19.969  -6.734  1.00  0.00     0.047 A 
BRANCH   6   9
ATOM      9  O   UNL     1       6.948 -22.123  -7.570  1.00  0.00    -0.508 OA
ATOM     10  H   UNL     1       6.536 -22.914  -8.052  1.00  0.00     0.293 HD
ENDBRANCH   6   9
ENDBRANCH   1   3
BRANCH   2  11
ATOM     11  C   UNL     1       1.965 -18.737  -5.374  1.00  0.00     0.189 C 
ATOM     12  O   UNL     1       1.665 -17.695  -6.018  1.00  0.00    -0.289 OA
BRANCH  11  13
ATOM     13  C   UNL     1       1.498 -20.055  -5.873  1.00  0.00     0.064 A 
ATOM     14  C   UNL     1       1.902 -20.562  -7.129  1.00  0.00     0.130 A 
ATOM     15  C   UNL     1       0.610 -20.810  -5.085  1.00  0.00     0.020 A 
ATOM     16  C   UNL     1       1.445 -21.818  -7.554  1.00  0.00     0.093 A 
ATOM     17  C   UNL     1       0.157 -22.057  -5.521  1.00  0.00     0.047 A 
ATOM     18  C   UNL     1       0.574 -22.567  -6.752  1.00  0.00     0.119 A 
BRANCH  14  19
ATOM     19  O   UNL     1       2.734 -19.817  -7.963  1.00  0.00    -0.507 OA
ATOM     20  H   UNL     1       3.131 -20.209  -8.809  1.00  0.00     0.293 HD
ENDBRANCH  14  19
BRANCH  18  21
ATOM     21  O   UNL     1       0.116 -23.813  -7.171  1.00  0.00    -0.508 OA
ATOM     22  H   UNL     1      -0.067 -24.009  -8.149  1.00  0.00     0.293 HD
ENDBRANCH  18  21
ENDBRANCH  11  13
ENDBRANCH   2  11
TORSDOF 6
ENDMDL
MODEL 5
REMARK VINA RESULT:    -6.040      2.805      5.326
REMARK INTER + INTRA:          -8.762
REMARK INTER:                  -7.695
REMARK INTRA:                  -1.067
REMARK UNBOUND:                -1.133
REMARK SMILES O=C(C=Cc1ccc(O)cc1)c1ccc(O)cc1O
REMARK SMILES IDX 4 1 3 2 5 3 6 4 7 5 8 6 11 7 10 8 9 9 2 11 1 12 12 13 18 14
REMARK SMILES IDX 13 15 17 16 14 17 15 18 19 19 16 21
REMARK H PARENT 9 10 19 20 16 22
REMARK Flexibility Score: inf
ROOT
ATOM      1  C   UNL     1       4.459 -18.172  -5.931  1.00  0.00     0.012 C 
ATOM      2  C   UNL     1       3.191 -17.896  -6.271  1.00  0.00     0.053 C 
ENDROOT
BRANCH   1   3
ATOM      3  C   UNL     1       4.870 -19.058  -4.821  1.00  0.00    -0.025 A 
ATOM      4  C   UNL     1       4.920 -18.544  -3.516  1.00  0.00     0.012 A 
ATOM      5  C   UNL     1       5.264 -19.372  -2.443  1.00  0.00     0.047 A 
ATOM      6  C   UNL     1       5.540 -20.729  -2.660  1.00  0.00     0.115 A 
ATOM      7  C   UNL     1       5.119 -20.426  -5.029  1.00  0.00     0.012 A 
ATOM      8  C   UNL     1       5.463 -21.253  -3.955  1.00  0.00     0.047 A 
BRANCH   6   9
ATOM      9  O   UNL     1       5.885 -21.563  -1.599  1.00  0.00    -0.508 OA
ATOM     10  H   UNL     1       5.208 -22.188  -1.177  1.00  0.00     0.293 HD
ENDBRANCH   6   9
ENDBRANCH   1   3
BRANCH   2  11
ATOM     11  C   UNL     1       1.994 -18.573  -5.723  1.00  0.00     0.189 C 
ATOM     12  O   UNL     1       1.358 -18.045  -4.771  1.00  0.00    -0.289 OA
BRANCH  11  13
ATOM     13  C   UNL     1       1.586 -19.915  -6.208  1.00  0.00     0.064 A 
ATOM     14  C   UNL     1       0.883 -20.824  -5.385  1.00  0.00     0.130 A 
ATOM     15  C   UNL     1       1.928 -20.304  -7.516  1.00  0.00     0.020 A 
ATOM     16  C   UNL     1       0.507 -22.077  -5.890  1.00  0.00     0.093 A 
ATOM     17  C   UNL     1       1.553 -21.557  -8.007  1.00  0.00     0.047 A 
ATOM     18  C   UNL     1       0.840 -22.445  -7.200  1.00  0.00     0.119 A 
BRANCH  14  19
ATOM     19  O   UNL     1       0.578 -20.497  -4.064  1.00  0.00    -0.507 OA
ATOM     20  H   UNL     1      -0.258 -19.978  -3.822  1.00  0.00     0.293 HD
ENDBRANCH  14  19
BRANCH  18  21
ATOM     21  O   UNL     1       0.471 -23.689  -7.705  1.00  0.00    -0.508 OA
ATOM     22  H   UNL     1      -0.481 -23.881  -7.998  1.00  0.00     0.293 HD
ENDBRANCH  18  21
ENDBRANCH  11  13
ENDBRANCH   2  11
TORSDOF 6
ENDMDL
MODEL 6
REMARK VINA RESULT:    -6.020      2.354      5.803
REMARK INTER + INTRA:          -8.737
REMARK INTER:                  -7.461
REMARK INTRA:                  -1.276
REMARK UNBOUND:                -1.133
REMARK SMILES O=C(C=Cc1ccc(O)cc1)c1ccc(O)cc1O
REMARK SMILES IDX 4 1 3 2 5 3 6 4 7 5 8 6 11 7 10 8 9 9 2 11 1 12 12 13 18 14
REMARK SMILES IDX 13 15 17 16 14 17 15 18 19 19 16 21
REMARK H PARENT 9 10 19 20 16 22
REMARK Flexibility Score: inf
ROOT
ATOM      1  C   UNL     1       2.583 -20.651  -7.728  1.00  0.00     0.012 C 
ATOM      2  C   UNL     1       1.588 -19.936  -7.183  1.00  0.00     0.053 C 
ENDROOT
BRANCH   1   3
ATOM      3  C   UNL     1       4.012 -20.538  -7.365  1.00  0.00    -0.025 A 
ATOM      4  C   UNL     1       4.614 -21.564  -6.619  1.00  0.00     0.012 A 
ATOM      5  C   UNL     1       5.973 -21.501  -6.300  1.00  0.00     0.047 A 
ATOM      6  C   UNL     1       6.752 -20.422  -6.742  1.00  0.00     0.115 A 
ATOM      7  C   UNL     1       4.804 -19.473  -7.830  1.00  0.00     0.012 A 
ATOM      8  C   UNL     1       6.164 -19.412  -7.510  1.00  0.00     0.047 A 
BRANCH   6   9
ATOM      9  O   UNL     1       8.107 -20.349  -6.430  1.00  0.00    -0.508 OA
ATOM     10  H   UNL     1       8.703 -21.168  -6.463  1.00  0.00     0.293 HD
ENDBRANCH   6   9
ENDBRANCH   1   3
BRANCH   2  11
ATOM     11  C   UNL     1       1.719 -19.055  -6.000  1.00  0.00     0.189 C 
ATOM     12  O   UNL     1       1.851 -17.811  -6.159  1.00  0.00    -0.289 OA
BRANCH  11  13
ATOM     13  C   UNL     1       1.797 -19.621  -4.630  1.00  0.00     0.064 A 
ATOM     14  C   UNL     1       2.975 -19.534  -3.853  1.00  0.00     0.130 A 
ATOM     15  C   UNL     1       0.676 -20.284  -4.098  1.00  0.00     0.020 A 
ATOM     16  C   UNL     1       2.999 -20.073  -2.559  1.00  0.00     0.093 A 
ATOM     17  C   UNL     1       0.714 -20.822  -2.809  1.00  0.00     0.047 A 
ATOM     18  C   UNL     1       1.871 -20.716  -2.035  1.00  0.00     0.119 A 
BRANCH  14  19
ATOM     19  O   UNL     1       4.124 -18.937  -4.370  1.00  0.00    -0.507 OA
ATOM     20  H   UNL     1       4.083 -18.086  -4.918  1.00  0.00     0.293 HD
ENDBRANCH  14  19
BRANCH  18  21
ATOM     21  O   UNL     1       1.891 -21.255  -0.751  1.00  0.00    -0.508 OA
ATOM     22  H   UNL     1       1.733 -20.678   0.068  1.00  0.00     0.293 HD
ENDBRANCH  18  21
ENDBRANCH  11  13
ENDBRANCH   2  11
TORSDOF 6
ENDMDL
MODEL 7
REMARK VINA RESULT:    -6.001     12.440     14.030
REMARK INTER + INTRA:          -8.713
REMARK INTER:                  -7.682
REMARK INTRA:                  -1.031
REMARK UNBOUND:                -1.133
REMARK SMILES O=C(C=Cc1ccc(O)cc1)c1ccc(O)cc1O
REMARK SMILES IDX 4 1 3 2 5 3 6 4 7 5 8 6 11 7 10 8 9 9 2 11 1 12 12 13 18 14
REMARK SMILES IDX 13 15 17 16 14 17 15 18 19 19 16 21
REMARK H PARENT 9 10 19 20 16 22
REMARK Flexibility Score: inf
ROOT
ATOM      1  C   UNL     1       5.363 -22.462   6.040  1.00  0.00     0.012 C 
ATOM      2  C   UNL     1       5.486 -23.170   7.173  1.00  0.00     0.053 C 
ENDROOT
BRANCH   1   3
ATOM      3  C   UNL     1       5.465 -23.016   4.673  1.00  0.00    -0.025 A 
ATOM      4  C   UNL     1       4.300 -23.166   3.905  1.00  0.00     0.012 A 
ATOM      5  C   UNL     1       4.375 -23.648   2.595  1.00  0.00     0.047 A 
ATOM      6  C   UNL     1       5.618 -23.963   2.030  1.00  0.00     0.115 A 
ATOM      7  C   UNL     1       6.712 -23.305   4.091  1.00  0.00     0.012 A 
ATOM      8  C   UNL     1       6.785 -23.786   2.780  1.00  0.00     0.047 A 
BRANCH   6   9
ATOM      9  O   UNL     1       5.704 -24.443   0.725  1.00  0.00    -0.508 OA
ATOM     10  H   UNL     1       5.294 -23.940  -0.052  1.00  0.00     0.293 HD
ENDBRANCH   6   9
ENDBRANCH   1   3
BRANCH   2  11
ATOM     11  C   UNL     1       5.553 -24.647   7.253  1.00  0.00     0.189 C 
ATOM     12  O   UNL     1       6.661 -25.231   7.105  1.00  0.00    -0.289 OA
BRANCH  11  13
ATOM     13  C   UNL     1       4.321 -25.461   7.404  1.00  0.00     0.064 A 
ATOM     14  C   UNL     1       4.178 -26.411   8.441  1.00  0.00     0.130 A 
ATOM     15  C   UNL     1       3.276 -25.301   6.476  1.00  0.00     0.020 A 
ATOM     16  C   UNL     1       2.990 -27.149   8.553  1.00  0.00     0.093 A 
ATOM     17  C   UNL     1       2.100 -26.046   6.594  1.00  0.00     0.047 A 
ATOM     18  C   UNL     1       1.951 -26.968   7.631  1.00  0.00     0.119 A 
BRANCH  14  19
ATOM     19  O   UNL     1       5.215 -26.640   9.344  1.00  0.00    -0.507 OA
ATOM     20  H   UNL     1       5.230 -26.207  10.261  1.00  0.00     0.293 HD
ENDBRANCH  14  19
BRANCH  18  21
ATOM     21  O   UNL     1       0.772 -27.700   7.737  1.00  0.00    -0.508 OA
ATOM     22  H   UNL     1       0.338 -28.127   6.925  1.00  0.00     0.293 HD
ENDBRANCH  18  21
ENDBRANCH  11  13
ENDBRANCH   2  11
TORSDOF 6
ENDMDL
MODEL 8
REMARK VINA RESULT:    -5.988     11.819     12.950
REMARK INTER + INTRA:          -8.697
REMARK INTER:                  -7.941
REMARK INTRA:                  -0.756
REMARK UNBOUND:                -1.133
REMARK SMILES O=C(C=Cc1ccc(O)cc1)c1ccc(O)cc1O
REMARK SMILES IDX 4 1 3 2 5 3 6 4 7 5 8 6 11 7 10 8 9 9 2 11 1 12 12 13 18 14
REMARK SMILES IDX 13 15 17 16 14 17 15 18 19 19 16 21
REMARK H PARENT 9 10 19 20 16 22
REMARK Flexibility Score: inf
ROOT
ATOM      1  C   UNL     1       6.382 -22.392   6.688  1.00  0.00     0.012 C 
ATOM      2  C   UNL     1       5.876 -22.098   5.481  1.00  0.00     0.053 C 
ENDROOT
BRANCH   1   3
ATOM      3  C   UNL     1       6.053 -23.597   7.481  1.00  0.00    -0.025 A 
ATOM      4  C   UNL     1       5.314 -23.457   8.666  1.00  0.00     0.012 A 
ATOM      5  C   UNL     1       4.954 -24.584   9.411  1.00  0.00     0.047 A 
ATOM      6  C   UNL     1       5.309 -25.865   8.966  1.00  0.00     0.115 A 
ATOM      7  C   UNL     1       6.380 -24.886   7.024  1.00  0.00     0.012 A 
ATOM      8  C   UNL     1       6.019 -26.012   7.770  1.00  0.00     0.047 A 
BRANCH   6   9
ATOM      9  O   UNL     1       4.955 -26.996   9.700  1.00  0.00    -0.508 OA
ATOM     10  H   UNL     1       4.578 -27.822   9.250  1.00  0.00     0.293 HD
ENDBRANCH   6   9
ENDBRANCH   1   3
BRANCH   2  11
ATOM     11  C   UNL     1       5.056 -23.013   4.654  1.00  0.00     0.189 C 
ATOM     12  O   UNL     1       3.880 -23.294   5.013  1.00  0.00    -0.289 OA
BRANCH  11  13
ATOM     13  C   UNL     1       5.628 -23.686   3.463  1.00  0.00     0.064 A 
ATOM     14  C   UNL     1       5.006 -23.616   2.195  1.00  0.00     0.130 A 
ATOM     15  C   UNL     1       6.811 -24.436   3.601  1.00  0.00     0.020 A 
ATOM     16  C   UNL     1       5.591 -24.258   1.094  1.00  0.00     0.093 A 
ATOM     17  C   UNL     1       7.381 -25.076   2.497  1.00  0.00     0.047 A 
ATOM     18  C   UNL     1       6.777 -24.987   1.243  1.00  0.00     0.119 A 
BRANCH  14  19
ATOM     19  O   UNL     1       3.802 -22.932   2.031  1.00  0.00    -0.507 OA
ATOM     20  H   UNL     1       3.001 -23.361   1.583  1.00  0.00     0.293 HD
ENDBRANCH  14  19
BRANCH  18  21
ATOM     21  O   UNL     1       7.359 -25.628   0.152  1.00  0.00    -0.508 OA
ATOM     22  H   UNL     1       7.382 -25.198  -0.766  1.00  0.00     0.293 HD
ENDBRANCH  18  21
ENDBRANCH  11  13
ENDBRANCH   2  11
TORSDOF 6
ENDMDL
MODEL 9
REMARK VINA RESULT:    -5.929      1.816      2.357
REMARK INTER + INTRA:          -8.622
REMARK INTER:                  -7.532
REMARK INTRA:                  -1.090
REMARK UNBOUND:                -1.133
REMARK SMILES O=C(C=Cc1ccc(O)cc1)c1ccc(O)cc1O
REMARK SMILES IDX 4 1 3 2 5 3 6 4 7 5 8 6 11 7 10 8 9 9 2 11 1 12 12 13 18 14
REMARK SMILES IDX 13 15 17 16 14 17 15 18 19 19 16 21
REMARK H PARENT 9 10 19 20 16 22
REMARK Flexibility Score: inf
ROOT
ATOM      1  C   UNL     1       1.700 -18.844  -4.992  1.00  0.00     0.012 C 
ATOM      2  C   UNL     1       2.735 -18.692  -4.153  1.00  0.00     0.053 C 
ENDROOT
BRANCH   1   3
ATOM      3  C   UNL     1       1.367 -20.088  -5.719  1.00  0.00    -0.025 A 
ATOM      4  C   UNL     1       1.967 -20.337  -6.963  1.00  0.00     0.012 A 
ATOM      5  C   UNL     1       1.702 -21.525  -7.650  1.00  0.00     0.047 A 
ATOM      6  C   UNL     1       0.851 -22.487  -7.091  1.00  0.00     0.115 A 
ATOM      7  C   UNL     1       0.537 -21.070  -5.149  1.00  0.00     0.012 A 
ATOM      8  C   UNL     1       0.273 -22.258  -5.838  1.00  0.00     0.047 A 
BRANCH   6   9
ATOM      9  O   UNL     1       0.579 -23.675  -7.767  1.00  0.00    -0.508 OA
ATOM     10  H   UNL     1       0.915 -24.567  -7.424  1.00  0.00     0.293 HD
ENDBRANCH   6   9
ENDBRANCH   1   3
BRANCH   2  11
ATOM     11  C   UNL     1       3.604 -19.786  -3.664  1.00  0.00     0.189 C 
ATOM     12  O   UNL     1       3.217 -20.511  -2.707  1.00  0.00    -0.289 OA
BRANCH  11  13
ATOM     13  C   UNL     1       4.969 -19.983  -4.214  1.00  0.00     0.064 A 
ATOM     14  C   UNL     1       5.302 -21.113  -4.995  1.00  0.00     0.130 A 
ATOM     15  C   UNL     1       5.965 -19.031  -3.931  1.00  0.00     0.020 A 
ATOM     16  C   UNL     1       6.602 -21.251  -5.504  1.00  0.00     0.093 A 
ATOM     17  C   UNL     1       7.258 -19.182  -4.439  1.00  0.00     0.047 A 
ATOM     18  C   UNL     1       7.580 -20.287  -5.228  1.00  0.00     0.119 A 
BRANCH  14  19
ATOM     19  O   UNL     1       4.357 -22.107  -5.248  1.00  0.00    -0.507 OA
ATOM     20  H   UNL     1       4.417 -23.021  -4.815  1.00  0.00     0.293 HD
ENDBRANCH  14  19
BRANCH  18  21
ATOM     21  O   UNL     1       8.872 -20.421  -5.730  1.00  0.00    -0.508 OA
ATOM     22  H   UNL     1       9.190 -21.287  -6.151  1.00  0.00     0.293 HD
ENDBRANCH  18  21
ENDBRANCH  11  13
ENDBRANCH   2  11
TORSDOF 6
ENDMDL
