MODEL 1
REMARK VINA RESULT:    -3.832      0.000      0.000
REMARK INTER + INTRA:          -4.727
REMARK INTER:                  -4.392
REMARK INTRA:                  -0.335
REMARK UNBOUND:                -0.335
REMARK SMILES COc1ccc(C(C)=O)c(O)c1
REMARK SMILES IDX 6 1 10 2 12 3 3 4 4 5 5 6 7 7 8 8 9 9 11 10 2 12 1 13
REMARK H PARENT 11 11
REMARK Flexibility Score: inf
ROOT
ATOM      1  C   UNL     1       8.128  11.380   7.297  1.00  0.00     0.059 A 
ATOM      2  C   UNL     1       8.346  12.776   7.239  1.00  0.00     0.130 A 
ATOM      3  C   UNL     1       7.308  13.663   7.562  1.00  0.00     0.093 A 
ATOM      4  C   UNL     1       6.039  13.179   7.928  1.00  0.00     0.122 A 
ATOM      5  C   UNL     1       5.822  11.801   7.966  1.00  0.00     0.047 A 
ATOM      6  C   UNL     1       6.851  10.910   7.653  1.00  0.00     0.019 A 
ENDROOT
BRANCH   1   7
ATOM      7  C   UNL     1       9.193  10.389   6.985  1.00  0.00     0.163 C 
ATOM      8  C   UNL     1       9.516   9.241   7.893  1.00  0.00     0.093 C 
ATOM      9  O   UNL     1       9.854  10.508   5.918  1.00  0.00    -0.294 OA
ENDBRANCH   1   7
BRANCH   2  10
ATOM     10  O   UNL     1       9.581  13.290   6.842  1.00  0.00    -0.507 OA
ATOM     11  H   UNL     1       9.745  14.287   6.770  1.00  0.00     0.293 HD
ENDBRANCH   2  10
BRANCH   4  12
ATOM     12  O   UNL     1       4.974  14.031   8.257  1.00  0.00    -0.497 OA
ATOM     13  C   UNL     1       4.269  14.838   7.320  1.00  0.00     0.278 C 
ENDBRANCH   4  12
TORSDOF 3
ENDMDL
MODEL 2
REMARK VINA RESULT:    -3.723      1.364      1.496
REMARK INTER + INTRA:          -4.601
REMARK INTER:                  -4.277
REMARK INTRA:                  -0.324
REMARK UNBOUND:                -0.335
REMARK SMILES COc1ccc(C(C)=O)c(O)c1
REMARK SMILES IDX 6 1 10 2 12 3 3 4 4 5 5 6 7 7 8 8 9 9 11 10 2 12 1 13
REMARK H PARENT 11 11
REMARK Flexibility Score: inf
ROOT
ATOM      1  C   UNL     1       7.342  11.714   7.794  1.00  0.00     0.059 A 
ATOM      2  C   UNL     1       7.208  13.106   7.578  1.00  0.00     0.130 A 
ATOM      3  C   UNL     1       5.932  13.682   7.494  1.00  0.00     0.093 A 
ATOM      4  C   UNL     1       4.776  12.888   7.605  1.00  0.00     0.122 A 
ATOM      5  C   UNL     1       4.913  11.513   7.798  1.00  0.00     0.047 A 
ATOM      6  C   UNL     1       6.179  10.930   7.889  1.00  0.00     0.019 A 
ENDROOT
BRANCH   1   7
ATOM      7  C   UNL     1       8.667  11.046   7.910  1.00  0.00     0.163 C 
ATOM      8  C   UNL     1       9.099   9.950   6.984  1.00  0.00     0.093 C 
ATOM      9  O   UNL     1       9.464  11.408   8.817  1.00  0.00    -0.294 OA
ENDBRANCH   1   7
BRANCH   2  10
ATOM     10  O   UNL     1       8.333  13.917   7.426  1.00  0.00    -0.507 OA
ATOM     11  H   UNL     1       9.262  13.526   7.320  1.00  0.00     0.293 HD
ENDBRANCH   2  10
BRANCH   4  12
ATOM     12  O   UNL     1       3.482  13.424   7.525  1.00  0.00    -0.497 OA
ATOM     13  C   UNL     1       3.169  14.688   6.948  1.00  0.00     0.278 C 
ENDBRANCH   4  12
TORSDOF 3
ENDMDL
MODEL 3
REMARK VINA RESULT:    -3.673      1.629      4.796
REMARK INTER + INTRA:          -4.544
REMARK INTER:                  -4.239
REMARK INTRA:                  -0.306
REMARK UNBOUND:                -0.335
REMARK SMILES COc1ccc(C(C)=O)c(O)c1
REMARK SMILES IDX 6 1 10 2 12 3 3 4 4 5 5 6 7 7 8 8 9 9 11 10 2 12 1 13
REMARK H PARENT 11 11
REMARK Flexibility Score: inf
ROOT
ATOM      1  C   UNL     1       7.914  11.713   7.560  1.00  0.00     0.059 A 
ATOM      2  C   UNL     1       9.131  11.938   6.876  1.00  0.00     0.130 A 
ATOM      3  C   UNL     1       9.799  10.868   6.262  1.00  0.00     0.093 A 
ATOM      4  C   UNL     1       9.280   9.562   6.334  1.00  0.00     0.122 A 
ATOM      5  C   UNL     1       8.089   9.341   7.026  1.00  0.00     0.047 A 
ATOM      6  C   UNL     1       7.413  10.401   7.635  1.00  0.00     0.019 A 
ENDROOT
BRANCH   1   7
ATOM      7  C   UNL     1       7.149  12.808   8.215  1.00  0.00     0.163 C 
ATOM      8  C   UNL     1       5.797  13.243   7.737  1.00  0.00     0.093 C 
ATOM      9  O   UNL     1       7.647  13.399   9.212  1.00  0.00    -0.294 OA
ENDBRANCH   1   7
BRANCH   2  10
ATOM     10  O   UNL     1       9.693  13.213   6.819  1.00  0.00    -0.507 OA
ATOM     11  H   UNL     1      10.623  13.371   6.447  1.00  0.00     0.293 HD
ENDBRANCH   2  10
BRANCH   4  12
ATOM     12  O   UNL     1       9.917   8.464   5.735  1.00  0.00    -0.497 OA
ATOM     13  C   UNL     1      11.175   8.527   5.072  1.00  0.00     0.278 C 
ENDBRANCH   4  12
TORSDOF 3
ENDMDL
MODEL 4
REMARK VINA RESULT:    -3.459      2.075      3.175
REMARK INTER + INTRA:          -4.299
REMARK INTER:                  -3.958
REMARK INTRA:                  -0.341
REMARK UNBOUND:                -0.335
REMARK SMILES COc1ccc(C(C)=O)c(O)c1
REMARK SMILES IDX 6 1 10 2 12 3 3 4 4 5 5 6 7 7 8 8 9 9 11 10 2 12 1 13
REMARK H PARENT 11 11
REMARK Flexibility Score: inf
ROOT
ATOM      1  C   UNL     1       8.599   9.085   6.260  1.00  0.00     0.059 A 
ATOM      2  C   UNL     1       9.611  10.054   6.059  1.00  0.00     0.130 A 
ATOM      3  C   UNL     1       9.524  11.301   6.694  1.00  0.00     0.093 A 
ATOM      4  C   UNL     1       8.428  11.612   7.519  1.00  0.00     0.122 A 
ATOM      5  C   UNL     1       7.422  10.661   7.700  1.00  0.00     0.047 A 
ATOM      6  C   UNL     1       7.503   9.414   7.077  1.00  0.00     0.019 A 
ENDROOT
BRANCH   1   7
ATOM      7  C   UNL     1       8.644   7.738   5.630  1.00  0.00     0.163 C 
ATOM      8  C   UNL     1       7.470   7.149   4.907  1.00  0.00     0.093 C 
ATOM      9  O   UNL     1       9.703   7.058   5.698  1.00  0.00    -0.294 OA
ENDBRANCH   1   7
BRANCH   2  10
ATOM     10  O   UNL     1      10.692   9.793   5.216  1.00  0.00    -0.507 OA
ATOM     11  H   UNL     1      11.235  10.540   4.798  1.00  0.00     0.293 HD
ENDBRANCH   2  10
BRANCH   4  12
ATOM     12  O   UNL     1       8.301  12.848   8.171  1.00  0.00    -0.497 OA
ATOM     13  C   UNL     1       7.110  13.627   8.196  1.00  0.00     0.278 C 
ENDBRANCH   4  12
TORSDOF 3
ENDMDL
MODEL 5
REMARK VINA RESULT:    -3.389      2.917      4.780
REMARK INTER + INTRA:          -4.219
REMARK INTER:                  -3.891
REMARK INTRA:                  -0.328
REMARK UNBOUND:                -0.335
REMARK SMILES COc1ccc(C(C)=O)c(O)c1
REMARK SMILES IDX 6 1 10 2 12 3 3 4 4 5 5 6 7 7 8 8 9 9 11 10 2 12 1 13
REMARK H PARENT 11 11
REMARK Flexibility Score: inf
ROOT
ATOM      1  C   UNL     1       9.109  10.794   8.355  1.00  0.00     0.059 A 
ATOM      2  C   UNL     1       9.436  11.382   7.110  1.00  0.00     0.130 A 
ATOM      3  C   UNL     1       9.682  10.570   5.993  1.00  0.00     0.093 A 
ATOM      4  C   UNL     1       9.626   9.169   6.099  1.00  0.00     0.122 A 
ATOM      5  C   UNL     1       9.322   8.591   7.332  1.00  0.00     0.047 A 
ATOM      6  C   UNL     1       9.069   9.391   8.449  1.00  0.00     0.019 A 
ENDROOT
BRANCH   1   7
ATOM      7  C   UNL     1       8.820  11.601   9.571  1.00  0.00     0.163 C 
ATOM      8  C   UNL     1       9.295  11.199  10.934  1.00  0.00     0.093 C 
ATOM      9  O   UNL     1       8.151  12.664   9.462  1.00  0.00    -0.294 OA
ENDBRANCH   1   7
BRANCH   2  10
ATOM     10  O   UNL     1       9.538  12.768   6.980  1.00  0.00    -0.507 OA
ATOM     11  H   UNL     1      10.325  13.203   6.513  1.00  0.00     0.293 HD
ENDBRANCH   2  10
BRANCH   4  12
ATOM     12  O   UNL     1       9.867   8.321   5.007  1.00  0.00    -0.497 OA
ATOM     13  C   UNL     1       8.927   8.055   3.971  1.00  0.00     0.278 C 
ENDBRANCH   4  12
TORSDOF 3
ENDMDL
MODEL 6
REMARK VINA RESULT:    -3.381      1.683      2.487
REMARK INTER + INTRA:          -4.210
REMARK INTER:                  -4.060
REMARK INTRA:                  -0.150
REMARK UNBOUND:                -0.335
REMARK SMILES COc1ccc(C(C)=O)c(O)c1
REMARK SMILES IDX 6 1 10 2 12 3 3 4 4 5 5 6 7 7 8 8 9 9 11 10 2 12 1 13
REMARK H PARENT 11 11
REMARK Flexibility Score: inf
ROOT
ATOM      1  C   UNL     1       7.409  11.884   7.807  1.00  0.00     0.059 A 
ATOM      2  C   UNL     1       6.280  11.031   7.819  1.00  0.00     0.130 A 
ATOM      3  C   UNL     1       4.989  11.575   7.740  1.00  0.00     0.093 A 
ATOM      4  C   UNL     1       4.800  12.967   7.667  1.00  0.00     0.122 A 
ATOM      5  C   UNL     1       5.915  13.806   7.674  1.00  0.00     0.047 A 
ATOM      6  C   UNL     1       7.204  13.274   7.746  1.00  0.00     0.019 A 
ENDROOT
BRANCH   1   7
ATOM      7  C   UNL     1       8.803  11.368   7.870  1.00  0.00     0.163 C 
ATOM      8  C   UNL     1       9.480  10.735   6.692  1.00  0.00     0.093 C 
ATOM      9  O   UNL     1       9.449  11.463   8.948  1.00  0.00    -0.294 OA
ENDBRANCH   1   7
BRANCH   2  10
ATOM     10  O   UNL     1       6.431   9.649   7.931  1.00  0.00    -0.507 OA
ATOM     11  H   UNL     1       5.641   9.039   8.110  1.00  0.00     0.293 HD
ENDBRANCH   2  10
BRANCH   4  12
ATOM     12  O   UNL     1       3.527  13.551   7.588  1.00  0.00    -0.497 OA
ATOM     13  C   UNL     1       3.226  14.731   6.850  1.00  0.00     0.278 C 
ENDBRANCH   4  12
TORSDOF 3
ENDMDL
MODEL 7
REMARK VINA RESULT:    -3.316      2.900      4.972
REMARK INTER + INTRA:          -4.136
REMARK INTER:                  -3.802
REMARK INTRA:                  -0.334
REMARK UNBOUND:                -0.335
REMARK SMILES COc1ccc(C(C)=O)c(O)c1
REMARK SMILES IDX 6 1 10 2 12 3 3 4 4 5 5 6 7 7 8 8 9 9 11 10 2 12 1 13
REMARK H PARENT 11 11
REMARK Flexibility Score: inf
ROOT
ATOM      1  C   UNL     1       8.557  10.026   6.943  1.00  0.00     0.059 A 
ATOM      2  C   UNL     1       9.224   9.648   5.754  1.00  0.00     0.130 A 
ATOM      3  C   UNL     1       8.789   8.527   5.032  1.00  0.00     0.093 A 
ATOM      4  C   UNL     1       7.703   7.758   5.486  1.00  0.00     0.122 A 
ATOM      5  C   UNL     1       7.059   8.122   6.669  1.00  0.00     0.047 A 
ATOM      6  C   UNL     1       7.481   9.240   7.392  1.00  0.00     0.019 A 
ENDROOT
BRANCH   1   7
ATOM      7  C   UNL     1       8.958  11.214   7.743  1.00  0.00     0.163 C 
ATOM      8  C   UNL     1       9.009  11.195   9.241  1.00  0.00     0.093 C 
ATOM      9  O   UNL     1       9.271  12.282   7.150  1.00  0.00    -0.294 OA
ENDBRANCH   1   7
BRANCH   2  10
ATOM     10  O   UNL     1      10.329  10.366   5.296  1.00  0.00    -0.507 OA
ATOM     11  H   UNL     1      10.226  11.233   4.782  1.00  0.00     0.293 HD
ENDBRANCH   2  10
BRANCH   4  12
ATOM     12  O   UNL     1       7.237   6.629   4.795  1.00  0.00    -0.497 OA
ATOM     13  C   UNL     1       7.170   6.524   3.376  1.00  0.00     0.278 C 
ENDBRANCH   4  12
TORSDOF 3
ENDMDL
MODEL 8
REMARK VINA RESULT:    -3.297     10.908     11.950
REMARK INTER + INTRA:          -4.113
REMARK INTER:                  -3.775
REMARK INTRA:                  -0.339
REMARK UNBOUND:                -0.335
REMARK SMILES COc1ccc(C(C)=O)c(O)c1
REMARK SMILES IDX 6 1 10 2 12 3 3 4 4 5 5 6 7 7 8 8 9 9 11 10 2 12 1 13
REMARK H PARENT 11 11
REMARK Flexibility Score: inf
ROOT
ATOM      1  C   UNL     1      12.681  13.943  -2.276  1.00  0.00     0.059 A 
ATOM      2  C   UNL     1      11.705  14.249  -3.254  1.00  0.00     0.130 A 
ATOM      3  C   UNL     1      11.644  15.538  -3.805  1.00  0.00     0.093 A 
ATOM      4  C   UNL     1      12.533  16.542  -3.382  1.00  0.00     0.122 A 
ATOM      5  C   UNL     1      13.481  16.242  -2.403  1.00  0.00     0.047 A 
ATOM      6  C   UNL     1      13.555  14.960  -1.853  1.00  0.00     0.019 A 
ENDROOT
BRANCH   1   7
ATOM      7  C   UNL     1      12.809  12.591  -1.668  1.00  0.00     0.163 C 
ATOM      8  C   UNL     1      14.138  11.943  -1.419  1.00  0.00     0.093 C 
ATOM      9  O   UNL     1      11.768  11.957  -1.346  1.00  0.00    -0.294 OA
ENDBRANCH   1   7
BRANCH   2  10
ATOM     10  O   UNL     1      10.783  13.287  -3.668  1.00  0.00    -0.507 OA
ATOM     11  H   UNL     1       9.884  13.544  -4.058  1.00  0.00     0.293 HD
ENDBRANCH   2  10
BRANCH   4  12
ATOM     12  O   UNL     1      12.505  17.843  -3.905  1.00  0.00    -0.497 OA
ATOM     13  C   UNL     1      12.920  19.006  -3.195  1.00  0.00     0.278 C 
ENDBRANCH   4  12
TORSDOF 3
ENDMDL
MODEL 9
REMARK VINA RESULT:    -3.273      2.279      5.615
REMARK INTER + INTRA:          -4.087
REMARK INTER:                  -3.763
REMARK INTRA:                  -0.323
REMARK UNBOUND:                -0.335
REMARK SMILES COc1ccc(C(C)=O)c(O)c1
REMARK SMILES IDX 6 1 10 2 12 3 3 4 4 5 5 6 7 7 8 8 9 9 11 10 2 12 1 13
REMARK H PARENT 11 11
REMARK Flexibility Score: inf
ROOT
ATOM      1  C   UNL     1       8.822  10.797   7.780  1.00  0.00     0.059 A 
ATOM      2  C   UNL     1       9.144   9.618   8.492  1.00  0.00     0.130 A 
ATOM      3  C   UNL     1       9.917   8.619   7.882  1.00  0.00     0.093 A 
ATOM      4  C   UNL     1      10.365   8.767   6.557  1.00  0.00     0.122 A 
ATOM      5  C   UNL     1      10.029   9.923   5.851  1.00  0.00     0.047 A 
ATOM      6  C   UNL     1       9.265  10.926   6.452  1.00  0.00     0.019 A 
ENDROOT
BRANCH   1   7
ATOM      7  C   UNL     1       8.021  11.900   8.377  1.00  0.00     0.163 C 
ATOM      8  C   UNL     1       6.699  12.329   7.817  1.00  0.00     0.093 C 
ATOM      9  O   UNL     1       8.461  12.503   9.393  1.00  0.00    -0.294 OA
ENDBRANCH   1   7
BRANCH   2  10
ATOM     10  O   UNL     1       8.683   9.422   9.794  1.00  0.00    -0.507 OA
ATOM     11  H   UNL     1       8.822   8.545  10.283  1.00  0.00     0.293 HD
ENDBRANCH   2  10
BRANCH   4  12
ATOM     12  O   UNL     1      11.139   7.792   5.910  1.00  0.00    -0.497 OA
ATOM     13  C   UNL     1      11.949   8.036   4.764  1.00  0.00     0.278 C 
ENDBRANCH   4  12
TORSDOF 3
ENDMDL
