MODEL 1
REMARK VINA RESULT:    -4.690      0.000      0.000
REMARK INTER + INTRA:          -6.560
REMARK INTER:                  -6.335
REMARK INTRA:                  -0.225
REMARK UNBOUND:                -0.225
REMARK SMILES CCCCCCCC(=O)[O-]
REMARK SMILES IDX 5 1 6 2 7 3 8 4 9 5 10 6 4 7 3 8 2 9 1 10
REMARK H PARENT
REMARK Flexibility Score: inf
ROOT
ATOM      1  C   UNL     1      35.639  43.016  48.611  1.00  0.00     0.000 C 
ENDROOT
BRANCH   1   2
ATOM      2  C   UNL     1      35.958  42.843  47.119  1.00  0.00     0.006 C 
BRANCH   2   3
ATOM      3  C   UNL     1      35.870  44.167  46.348  1.00  0.00     0.053 C 
BRANCH   3   4
ATOM      4  C   UNL     1      34.554  44.317  45.650  1.00  0.00     0.041 C 
ATOM      5  O   UNL     1      33.478  44.150  46.282  1.00  0.00    -0.550 OA
ATOM      6  O   UNL     1      34.516  44.674  44.308  1.00  0.00    -0.550 OA
ENDBRANCH   3   4
ENDBRANCH   2   3
ENDBRANCH   1   2
BRANCH   1   7
ATOM      7  C   UNL     1      36.840  42.623  49.479  1.00  0.00     0.000 C 
BRANCH   7   8
ATOM      8  C   UNL     1      38.021  42.170  48.611  1.00  0.00    -0.000 C 
BRANCH   8   9
ATOM      9  C   UNL     1      38.876  41.132  49.348  1.00  0.00    -0.003 C 
ATOM     10  C   UNL     1      39.116  41.545  50.798  1.00  0.00     0.004 C 
ENDBRANCH   8   9
ENDBRANCH   7   8
ENDBRANCH   1   7
TORSDOF 6
ENDMDL
MODEL 2
REMARK VINA RESULT:    -4.675      1.610      2.451
REMARK INTER + INTRA:          -6.540
REMARK INTER:                  -6.426
REMARK INTRA:                  -0.115
REMARK UNBOUND:                -0.225
REMARK SMILES CCCCCCCC(=O)[O-]
REMARK SMILES IDX 5 1 6 2 7 3 8 4 9 5 10 6 4 7 3 8 2 9 1 10
REMARK H PARENT
REMARK Flexibility Score: inf
ROOT
ATOM      1  C   UNL     1      35.887  44.135  46.084  1.00  0.00     0.000 C 
ENDROOT
BRANCH   1   2
ATOM      2  C   UNL     1      34.423  44.348  45.670  1.00  0.00     0.006 C 
BRANCH   2   3
ATOM      3  C   UNL     1      34.296  44.844  44.223  1.00  0.00     0.053 C 
BRANCH   3   4
ATOM      4  C   UNL     1      32.888  44.745  43.724  1.00  0.00     0.041 C 
ATOM      5  O   UNL     1      32.084  43.932  44.251  1.00  0.00    -0.550 OA
ATOM      6  O   UNL     1      32.454  45.575  42.697  1.00  0.00    -0.550 OA
ENDBRANCH   3   4
ENDBRANCH   2   3
ENDBRANCH   1   2
BRANCH   1   7
ATOM      7  C   UNL     1      36.102  42.719  46.631  1.00  0.00     0.000 C 
BRANCH   7   8
ATOM      8  C   UNL     1      36.353  42.745  48.144  1.00  0.00    -0.000 C 
BRANCH   8   9
ATOM      9  C   UNL     1      37.745  42.195  48.478  1.00  0.00    -0.003 C 
ATOM     10  C   UNL     1      38.111  42.472  49.934  1.00  0.00     0.004 C 
ENDBRANCH   8   9
ENDBRANCH   7   8
ENDBRANCH   1   7
TORSDOF 6
ENDMDL
MODEL 3
REMARK VINA RESULT:    -4.669      2.687      6.136
REMARK INTER + INTRA:          -6.532
REMARK INTER:                  -6.250
REMARK INTRA:                  -0.282
REMARK UNBOUND:                -0.225
REMARK SMILES CCCCCCCC(=O)[O-]
REMARK SMILES IDX 5 1 6 2 7 3 8 4 9 5 10 6 4 7 3 8 2 9 1 10
REMARK H PARENT
REMARK Flexibility Score: inf
ROOT
ATOM      1  C   UNL     1      34.734  44.483  45.219  1.00  0.00     0.000 C 
ENDROOT
BRANCH   1   2
ATOM      2  C   UNL     1      35.890  44.283  46.209  1.00  0.00     0.006 C 
BRANCH   2   3
ATOM      3  C   UNL     1      36.127  42.802  46.534  1.00  0.00     0.053 C 
BRANCH   3   4
ATOM      4  C   UNL     1      36.488  42.600  47.973  1.00  0.00     0.041 C 
ATOM      5  O   UNL     1      37.629  42.172  48.288  1.00  0.00    -0.550 OA
ATOM      6  O   UNL     1      35.572  42.917  48.970  1.00  0.00    -0.550 OA
ENDBRANCH   3   4
ENDBRANCH   2   3
ENDBRANCH   1   2
BRANCH   1   7
ATOM      7  C   UNL     1      33.396  44.074  45.847  1.00  0.00     0.000 C 
BRANCH   7   8
ATOM      8  C   UNL     1      32.224  44.419  44.920  1.00  0.00    -0.000 C 
BRANCH   8   9
ATOM      9  C   UNL     1      32.636  44.298  43.447  1.00  0.00    -0.003 C 
ATOM     10  C   UNL     1      32.152  45.500  42.640  1.00  0.00     0.004 C 
ENDBRANCH   8   9
ENDBRANCH   7   8
ENDBRANCH   1   7
TORSDOF 6
ENDMDL
MODEL 4
REMARK VINA RESULT:    -4.639      3.227      5.969
REMARK INTER + INTRA:          -6.492
REMARK INTER:                  -6.373
REMARK INTRA:                  -0.119
REMARK UNBOUND:                -0.225
REMARK SMILES CCCCCCCC(=O)[O-]
REMARK SMILES IDX 5 1 6 2 7 3 8 4 9 5 10 6 4 7 3 8 2 9 1 10
REMARK H PARENT
REMARK Flexibility Score: inf
ROOT
ATOM      1  C   UNL     1      36.004  42.670  46.592  1.00  0.00     0.000 C 
ENDROOT
BRANCH   1   2
ATOM      2  C   UNL     1      36.385  42.664  48.080  1.00  0.00     0.006 C 
BRANCH   2   3
ATOM      3  C   UNL     1      37.834  42.213  48.306  1.00  0.00     0.053 C 
BRANCH   3   4
ATOM      4  C   UNL     1      38.197  42.218  49.759  1.00  0.00     0.041 C 
ATOM      5  O   UNL     1      37.715  43.088  50.530  1.00  0.00    -0.550 OA
ATOM      6  O   UNL     1      39.043  41.240  50.267  1.00  0.00    -0.550 OA
ENDBRANCH   3   4
ENDBRANCH   2   3
ENDBRANCH   1   2
BRANCH   1   7
ATOM      7  C   UNL     1      35.894  44.104  46.059  1.00  0.00     0.000 C 
BRANCH   7   8
ATOM      8  C   UNL     1      34.440  44.456  45.723  1.00  0.00    -0.000 C 
BRANCH   8   9
ATOM      9  C   UNL     1      34.297  44.849  44.248  1.00  0.00    -0.003 C 
ATOM     10  C   UNL     1      32.881  44.584  43.742  1.00  0.00     0.004 C 
ENDBRANCH   8   9
ENDBRANCH   7   8
ENDBRANCH   1   7
TORSDOF 6
ENDMDL
MODEL 5
REMARK VINA RESULT:    -4.404      2.337      2.865
REMARK INTER + INTRA:          -6.174
REMARK INTER:                  -5.892
REMARK INTRA:                  -0.282
REMARK UNBOUND:                -0.225
REMARK SMILES CCCCCCCC(=O)[O-]
REMARK SMILES IDX 5 1 6 2 7 3 8 4 9 5 10 6 4 7 3 8 2 9 1 10
REMARK H PARENT
REMARK Flexibility Score: inf
ROOT
ATOM      1  C   UNL     1      35.799  42.559  47.329  1.00  0.00     0.000 C 
ENDROOT
BRANCH   1   2
ATOM      2  C   UNL     1      35.451  44.040  47.117  1.00  0.00     0.006 C 
BRANCH   2   3
ATOM      3  C   UNL     1      34.263  44.486  47.981  1.00  0.00     0.053 C 
BRANCH   3   4
ATOM      4  C   UNL     1      34.697  44.881  49.359  1.00  0.00     0.041 C 
ATOM      5  O   UNL     1      35.015  46.073  49.607  1.00  0.00    -0.550 OA
ATOM      6  O   UNL     1      34.717  43.936  50.378  1.00  0.00    -0.550 OA
ENDBRANCH   3   4
ENDBRANCH   2   3
ENDBRANCH   1   2
BRANCH   1   7
ATOM      7  C   UNL     1      37.308  42.374  47.534  1.00  0.00     0.000 C 
BRANCH   7   8
ATOM      8  C   UNL     1      37.669  42.407  49.024  1.00  0.00    -0.000 C 
BRANCH   8   9
ATOM      9  C   UNL     1      38.764  41.384  49.347  1.00  0.00    -0.003 C 
ATOM     10  C   UNL     1      39.110  41.398  50.833  1.00  0.00     0.004 C 
ENDBRANCH   8   9
ENDBRANCH   7   8
ENDBRANCH   1   7
TORSDOF 6
ENDMDL
MODEL 6
REMARK VINA RESULT:    -4.327      1.764      2.153
REMARK INTER + INTRA:          -6.070
REMARK INTER:                  -5.592
REMARK INTRA:                  -0.478
REMARK UNBOUND:                -0.225
REMARK SMILES CCCCCCCC(=O)[O-]
REMARK SMILES IDX 5 1 6 2 7 3 8 4 9 5 10 6 4 7 3 8 2 9 1 10
REMARK H PARENT
REMARK Flexibility Score: inf
ROOT
ATOM      1  C   UNL     1      34.804  42.956  50.260  1.00  0.00     0.000 C 
ENDROOT
BRANCH   1   2
ATOM      2  C   UNL     1      34.533  42.804  48.756  1.00  0.00     0.006 C 
BRANCH   2   3
ATOM      3  C   UNL     1      35.122  43.962  47.940  1.00  0.00     0.053 C 
BRANCH   3   4
ATOM      4  C   UNL     1      36.004  43.469  46.835  1.00  0.00     0.041 C 
ATOM      5  O   UNL     1      36.661  42.405  46.974  1.00  0.00    -0.550 OA
ATOM      6  O   UNL     1      36.075  44.171  45.637  1.00  0.00    -0.550 OA
ENDBRANCH   3   4
ENDBRANCH   2   3
ENDBRANCH   1   2
BRANCH   1   7
ATOM      7  C   UNL     1      36.212  43.509  50.511  1.00  0.00     0.000 C 
BRANCH   7   8
ATOM      8  C   UNL     1      37.186  42.385  50.884  1.00  0.00    -0.000 C 
BRANCH   8   9
ATOM      9  C   UNL     1      38.504  42.523  50.114  1.00  0.00    -0.003 C 
ATOM     10  C   UNL     1      38.903  41.201  49.463  1.00  0.00     0.004 C 
ENDBRANCH   8   9
ENDBRANCH   7   8
ENDBRANCH   1   7
TORSDOF 6
ENDMDL
MODEL 7
REMARK VINA RESULT:    -4.261      3.689      5.803
REMARK INTER + INTRA:          -5.980
REMARK INTER:                  -5.917
REMARK INTRA:                  -0.063
REMARK UNBOUND:                -0.225
REMARK SMILES CCCCCCCC(=O)[O-]
REMARK SMILES IDX 5 1 6 2 7 3 8 4 9 5 10 6 4 7 3 8 2 9 1 10
REMARK H PARENT
REMARK Flexibility Score: inf
ROOT
ATOM      1  C   UNL     1      37.361  42.556  47.767  1.00  0.00     0.000 C 
ENDROOT
BRANCH   1   2
ATOM      2  C   UNL     1      36.993  42.469  49.255  1.00  0.00     0.006 C 
BRANCH   2   3
ATOM      3  C   UNL     1      38.196  42.738  50.168  1.00  0.00     0.053 C 
BRANCH   3   4
ATOM      4  C   UNL     1      39.023  41.506  50.375  1.00  0.00     0.041 C 
ATOM      5  O   UNL     1      39.199  40.694  49.430  1.00  0.00    -0.550 OA
ATOM      6  O   UNL     1      39.626  41.273  51.605  1.00  0.00    -0.550 OA
ENDBRANCH   3   4
ENDBRANCH   2   3
ENDBRANCH   1   2
BRANCH   1   7
ATOM      7  C   UNL     1      36.113  42.432  46.884  1.00  0.00     0.000 C 
BRANCH   7   8
ATOM      8  C   UNL     1      34.898  43.082  47.556  1.00  0.00    -0.000 C 
BRANCH   8   9
ATOM      9  C   UNL     1      34.230  44.097  46.620  1.00  0.00    -0.003 C 
ATOM     10  C   UNL     1      35.172  44.504  45.489  1.00  0.00     0.004 C 
ENDBRANCH   8   9
ENDBRANCH   7   8
ENDBRANCH   1   7
TORSDOF 6
ENDMDL
MODEL 8
REMARK VINA RESULT:    -4.237      2.903      5.860
REMARK INTER + INTRA:          -5.948
REMARK INTER:                  -5.697
REMARK INTRA:                  -0.251
REMARK UNBOUND:                -0.225
REMARK SMILES CCCCCCCC(=O)[O-]
REMARK SMILES IDX 5 1 6 2 7 3 8 4 9 5 10 6 4 7 3 8 2 9 1 10
REMARK H PARENT
REMARK Flexibility Score: inf
ROOT
ATOM      1  C   UNL     1      32.956  43.454  46.782  1.00  0.00     0.000 C 
ENDROOT
BRANCH   1   2
ATOM      2  C   UNL     1      33.698  44.412  47.725  1.00  0.00     0.006 C 
BRANCH   2   3
ATOM      3  C   UNL     1      35.127  43.940  48.026  1.00  0.00     0.053 C 
BRANCH   3   4
ATOM      4  C   UNL     1      35.854  43.543  46.778  1.00  0.00     0.041 C 
ATOM      5  O   UNL     1      36.368  42.398  46.681  1.00  0.00    -0.550 OA
ATOM      6  O   UNL     1      35.934  44.427  45.710  1.00  0.00    -0.550 OA
ENDBRANCH   3   4
ENDBRANCH   2   3
ENDBRANCH   1   2
BRANCH   1   7
ATOM      7  C   UNL     1      31.799  44.168  46.072  1.00  0.00     0.000 C 
BRANCH   7   8
ATOM      8  C   UNL     1      31.802  43.860  44.570  1.00  0.00    -0.000 C 
BRANCH   8   9
ATOM      9  C   UNL     1      32.912  44.638  43.853  1.00  0.00    -0.003 C 
ATOM     10  C   UNL     1      32.348  45.463  42.699  1.00  0.00     0.004 C 
ENDBRANCH   8   9
ENDBRANCH   7   8
ENDBRANCH   1   7
TORSDOF 6
ENDMDL
MODEL 9
REMARK VINA RESULT:    -4.097      2.835      5.595
REMARK INTER + INTRA:          -5.759
REMARK INTER:                  -5.482
REMARK INTRA:                  -0.277
REMARK UNBOUND:                -0.225
REMARK SMILES CCCCCCCC(=O)[O-]
REMARK SMILES IDX 5 1 6 2 7 3 8 4 9 5 10 6 4 7 3 8 2 9 1 10
REMARK H PARENT
REMARK Flexibility Score: inf
ROOT
ATOM      1  C   UNL     1      35.254  44.395  47.138  1.00  0.00     0.000 C 
ENDROOT
BRANCH   1   2
ATOM      2  C   UNL     1      35.920  43.075  47.555  1.00  0.00     0.006 C 
BRANCH   2   3
ATOM      3  C   UNL     1      36.121  42.981  49.074  1.00  0.00     0.053 C 
BRANCH   3   4
ATOM      4  C   UNL     1      34.824  43.097  49.814  1.00  0.00     0.041 C 
ATOM      5  O   UNL     1      34.666  43.994  50.682  1.00  0.00    -0.550 OA
ATOM      6  O   UNL     1      33.777  42.232  49.519  1.00  0.00    -0.550 OA
ENDBRANCH   3   4
ENDBRANCH   2   3
ENDBRANCH   1   2
BRANCH   1   7
ATOM      7  C   UNL     1      34.185  44.155  46.065  1.00  0.00     0.000 C 
BRANCH   7   8
ATOM      8  C   UNL     1      34.627  44.726  44.712  1.00  0.00    -0.000 C 
BRANCH   8   9
ATOM      9  C   UNL     1      33.432  44.873  43.762  1.00  0.00    -0.003 C 
ATOM     10  C   UNL     1      32.156  44.324  44.394  1.00  0.00     0.004 C 
ENDBRANCH   8   9
ENDBRANCH   7   8
ENDBRANCH   1   7
TORSDOF 6
ENDMDL
