MODEL 1
REMARK VINA RESULT:     2.425      0.000      0.000
REMARK INTER + INTRA:           4.464
REMARK INTER:                   2.637
REMARK INTRA:                   1.827
REMARK UNBOUND:                 1.827
REMARK SMILES C[C@@H]1[C@@H](C)CC[C@]2(C(=O)[O-])CC[C@@]3(C)C(=CC[C@@H]4[C@@]5(C)CC[C@H](O)C(C)(C)[C@H]5CC[C@]43C)[C@@H]12
REMARK SMILES IDX 7 1 6 2 11 3 33 4 5 5 12 6 15 7 2 8 3 9 13 10 16 11 1 12
REMARK SMILES IDX 4 13 14 14 31 15 17 16 18 17 30 18 32 19 19 20 29 21 28 22
REMARK SMILES IDX 21 23 20 24 25 25 22 26 23 27 26 28 27 29 8 30 9 31 10 32
REMARK SMILES IDX 24 33
REMARK H PARENT 24 34
REMARK Flexibility Score: inf
ROOT
ATOM      1  C   UNL     1      -9.917  20.089   0.056  1.00  0.00     0.017 C 
ATOM      2  C   UNL     1     -10.333  21.013  -1.112  1.00  0.00     0.014 C 
ATOM      3  C   UNL     1      -8.417  19.676  -0.157  1.00  0.00     0.014 C 
ATOM      4  C   UNL     1     -10.798  18.799   0.058  1.00  0.00     0.030 C 
ATOM      5  C   UNL     1     -11.799  21.422  -1.007  1.00  0.00     0.004 C 
ATOM      6  C   UNL     1      -8.059  18.219   0.248  1.00  0.00     0.013 C 
ATOM      7  C   UNL     1     -10.345  17.878   1.230  1.00  0.00    -0.063 C 
ATOM      8  C   UNL     1     -12.351  19.064  -0.094  1.00  0.00    -0.003 C 
ATOM      9  C   UNL     1     -12.700  20.191  -1.124  1.00  0.00    -0.011 C 
ATOM     10  C   UNL     1      -8.823  17.675   1.500  1.00  0.00    -0.006 C 
ATOM     11  C   UNL     1     -11.211  16.975   1.737  1.00  0.00    -0.027 C 
ATOM     12  C   UNL     1     -13.106  17.771  -0.532  1.00  0.00     0.008 C 
ATOM     13  C   UNL     1     -14.169  20.632  -0.990  1.00  0.00     0.008 C 
ATOM     14  C   UNL     1      -8.378  18.559   2.711  1.00  0.00     0.017 C 
ATOM     15  C   UNL     1      -8.494  16.108   1.821  1.00  0.00    -0.020 C 
ATOM     16  C   UNL     1     -10.924  15.494   1.631  1.00  0.00     0.032 C 
ATOM     17  C   UNL     1      -9.506  15.207   1.044  1.00  0.00     0.006 C 
ATOM     18  C   UNL     1      -7.079  15.719   1.355  1.00  0.00     0.008 C 
ATOM     19  C   UNL     1      -8.610  15.824   3.366  1.00  0.00     0.012 C 
ATOM     20  C   UNL     1      -9.091  13.656   0.791  1.00  0.00    -0.025 C 
ATOM     21  C   UNL     1      -6.681  14.275   1.657  1.00  0.00     0.005 C 
ATOM     22  C   UNL     1      -7.808  13.187   1.619  1.00  0.00     0.003 C 
ATOM     23  C   UNL     1      -8.768  13.480  -0.729  1.00  0.00     0.010 C 
ATOM     24  C   UNL     1     -10.317  12.755   1.129  1.00  0.00     0.012 C 
ATOM     25  C   UNL     1      -7.201  11.758   1.218  1.00  0.00    -0.006 C 
ATOM     26  C   UNL     1      -8.249  12.089  -1.125  1.00  0.00     0.033 C 
ATOM     27  C   UNL     1      -6.988  11.697  -0.328  1.00  0.00     0.120 C 
ATOM     28  C   UNL     1      -8.100  10.576   1.717  1.00  0.00     0.014 C 
ATOM     29  C   UNL     1      -5.820  11.530   1.913  1.00  0.00     0.014 C 
ENDROOT
BRANCH   1  30
ATOM     30  C   UNL     1     -10.063  20.897   1.347  1.00  0.00     0.048 C 
ATOM     31  O   UNL     1      -9.196  20.843   2.259  1.00  0.00    -0.550 OA
ATOM     32  O   UNL     1     -11.195  21.682   1.547  1.00  0.00    -0.550 OA
ENDBRANCH   1  30
BRANCH  27  33
ATOM     33  O   UNL     1      -6.495  10.444  -0.740  1.00  0.00    -0.393 OA
ATOM     34  H   UNL     1      -6.212  10.513  -1.689  1.00  0.00     0.210 HD
ENDBRANCH  27  33
TORSDOF 2
ENDMDL
