MODEL 1
REMARK VINA RESULT:    -6.688      0.000      0.000
REMARK INTER + INTRA:         -14.585
REMARK INTER:                 -11.771
REMARK INTRA:                  -2.813
REMARK UNBOUND:                -2.813
REMARK SMILES COc1cc(-c2[o+]c3cc(O)cc(O[C@H]4O[C@@H](CO)[C@H](O)[C@@H](O)[C@@H]4O)c3cc2O[C@H]2O[C@@H](CO)[C@@H](O)[C@@H](O)[C@H]2O)ccc1O
REMARK SMILES IDX 6 1 28 2 27 3 26 4 13 5 12 6 10 7 9 8 8 9 7 10 5 11 3 12
REMARK SMILES IDX 43 13 4 14 42 15 41 16 2 17 1 18 44 19 29 21 30 22 39 23
REMARK SMILES IDX 31 24 37 25 32 26 35 27 40 28 38 30 33 32 34 33 36 35 14 37
REMARK SMILES IDX 15 38 24 39 16 40 22 41 17 42 20 43 25 44 23 46 18 48 19 49
REMARK SMILES IDX 21 51 11 53
REMARK H PARENT 44 20 40 29 38 31 34 34 36 36 25 45 23 47 19 50 21 52 11 54
REMARK Flexibility Score: inf
ROOT
ATOM      1  C   UNL     1      -1.528 -16.286  28.665  1.00  0.00     0.402 A 
ATOM      2  C   UNL     1      -0.836 -16.373  27.441  1.00  0.00     0.229 A 
ATOM      3  C   UNL     1      -0.580 -17.656  26.920  1.00  0.00     0.079 A 
ATOM      4  C   UNL     1      -0.944 -18.795  27.653  1.00  0.00     0.126 A 
ATOM      5  C   UNL     1      -0.657 -20.097  27.197  1.00  0.00     0.143 A 
ATOM      6  C   UNL     1      -1.013 -21.203  28.001  1.00  0.00     0.094 A 
ATOM      7  C   UNL     1      -1.661 -21.010  29.229  1.00  0.00     0.128 A 
ATOM      8  C   UNL     1      -1.960 -19.715  29.662  1.00  0.00     0.162 A 
ATOM      9  C   UNL     1      -1.599 -18.611  28.887  1.00  0.00     0.368 A 
ATOM     10  O   UNL     1      -1.877 -17.387  29.323  1.00  0.00    -0.202 OA
ENDROOT
BRANCH   1  11
ATOM     11  C   UNL     1      -1.931 -14.983  29.229  1.00  0.00     0.087 A 
ATOM     12  C   UNL     1      -3.628 -13.247  29.497  1.00  0.00     0.161 A 
ATOM     13  C   UNL     1      -2.719 -12.485  30.243  1.00  0.00     0.157 A 
ATOM     14  C   UNL     1      -3.233 -14.508  29.004  1.00  0.00     0.068 A 
ATOM     15  C   UNL     1      -1.423 -12.971  30.491  1.00  0.00     0.051 A 
ATOM     16  C   UNL     1      -1.030 -14.211  29.982  1.00  0.00     0.022 A 
BRANCH  12  17
ATOM     17  O   UNL     1      -4.908 -12.721  29.259  1.00  0.00    -0.493 OA
ATOM     18  C   UNL     1      -6.055 -12.997  30.062  1.00  0.00     0.278 C 
ENDBRANCH  12  17
BRANCH  13  19
ATOM     19  O   UNL     1      -3.103 -11.233  30.726  1.00  0.00    -0.504 OA
ATOM     20  H   UNL     1      -4.062 -10.918  30.663  1.00  0.00     0.293 HD
ENDBRANCH  13  19
ENDBRANCH   1  11
BRANCH   2  21
ATOM     21  O   UNL     1      -0.436 -15.189  26.794  1.00  0.00    -0.452 OA
BRANCH  21  22
ATOM     22  C   UNL     1      -0.376 -14.978  25.382  1.00  0.00     0.339 C 
ATOM     23  C   UNL     1       1.079 -14.770  24.908  1.00  0.00     0.214 C 
ATOM     24  O   UNL     1      -1.230 -13.909  24.991  1.00  0.00    -0.332 OA
ATOM     25  C   UNL     1       1.653 -13.430  25.393  1.00  0.00     0.180 C 
ATOM     26  C   UNL     1      -0.784 -12.618  25.413  1.00  0.00     0.179 C 
ATOM     27  C   UNL     1       0.680 -12.308  24.998  1.00  0.00     0.177 C 
BRANCH  23  28
ATOM     28  O   UNL     1       1.905 -15.858  25.262  1.00  0.00    -0.384 OA
ATOM     29  H   UNL     1       2.366 -16.172  24.440  1.00  0.00     0.211 HD
ENDBRANCH  23  28
BRANCH  25  30
ATOM     30  O   UNL     1       1.858 -13.426  26.783  1.00  0.00    -0.387 OA
ATOM     31  H   UNL     1       2.484 -12.682  26.987  1.00  0.00     0.211 HD
ENDBRANCH  25  30
BRANCH  26  32
ATOM     32  C   UNL     1      -1.099 -12.332  26.898  1.00  0.00     0.191 C 
BRANCH  32  33
ATOM     33  O   UNL     1      -1.791 -11.121  27.018  1.00  0.00    -0.394 OA
ATOM     34  H   UNL     1      -2.117 -10.897  26.106  1.00  0.00     0.210 HD
ENDBRANCH  32  33
ENDBRANCH  26  32
BRANCH  27  35
ATOM     35  O   UNL     1       1.093 -11.081  25.550  1.00  0.00    -0.387 OA
ATOM     36  H   UNL     1       0.485 -10.383  25.187  1.00  0.00     0.211 HD
ENDBRANCH  27  35
ENDBRANCH  21  22
ENDBRANCH   2  21
BRANCH   5  37
ATOM     37  O   UNL     1      -0.029 -20.260  25.951  1.00  0.00    -0.461 OA
BRANCH  37  38
ATOM     38  C   UNL     1       1.356 -20.031  25.687  1.00  0.00     0.339 C 
ATOM     39  C   UNL     1       1.523 -19.213  24.393  1.00  0.00     0.214 C 
ATOM     40  O   UNL     1       2.099 -21.242  25.676  1.00  0.00    -0.332 OA
ATOM     41  C   UNL     1       1.179 -20.057  23.153  1.00  0.00     0.180 C 
ATOM     42  C   UNL     1       1.807 -22.104  24.578  1.00  0.00     0.179 C 
ATOM     43  C   UNL     1       1.910 -21.415  23.193  1.00  0.00     0.177 C 
BRANCH  39  44
ATOM     44  O   UNL     1       2.816 -18.669  24.289  1.00  0.00    -0.384 OA
ATOM     45  H   UNL     1       3.238 -18.668  25.186  1.00  0.00     0.211 HD
ENDBRANCH  39  44
BRANCH  41  46
ATOM     46  O   UNL     1      -0.210 -20.273  23.074  1.00  0.00    -0.387 OA
ATOM     47  H   UNL     1      -0.568 -20.227  24.000  1.00  0.00     0.211 HD
ENDBRANCH  41  46
BRANCH  42  48
ATOM     48  C   UNL     1       0.495 -22.899  24.783  1.00  0.00     0.191 C 
BRANCH  48  49
ATOM     49  O   UNL     1      -0.036 -23.303  23.550  1.00  0.00    -0.394 OA
ATOM     50  H   UNL     1      -0.823 -22.729  23.375  1.00  0.00     0.210 HD
ENDBRANCH  48  49
ENDBRANCH  42  48
BRANCH  43  51
ATOM     51  O   UNL     1       3.270 -21.237  22.875  1.00  0.00    -0.387 OA
ATOM     52  H   UNL     1       3.519 -21.974  22.257  1.00  0.00     0.211 HD
ENDBRANCH  43  51
ENDBRANCH  37  38
ENDBRANCH   5  37
BRANCH   7  53
ATOM     53  O   UNL     1      -2.008 -22.099  30.027  1.00  0.00    -0.507 OA
ATOM     54  H   UNL     1      -2.705 -22.774  29.734  1.00  0.00     0.293 HD
ENDBRANCH   7  53
TORSDOF 18
ENDMDL
MODEL 2
REMARK VINA RESULT:    -6.484      2.814      5.211
REMARK INTER + INTRA:         -14.224
REMARK INTER:                 -11.771
REMARK INTRA:                  -2.453
REMARK UNBOUND:                -2.813
REMARK SMILES COc1cc(-c2[o+]c3cc(O)cc(O[C@H]4O[C@@H](CO)[C@H](O)[C@@H](O)[C@@H]4O)c3cc2O[C@H]2O[C@@H](CO)[C@@H](O)[C@@H](O)[C@H]2O)ccc1O
REMARK SMILES IDX 6 1 28 2 27 3 26 4 13 5 12 6 10 7 9 8 8 9 7 10 5 11 3 12
REMARK SMILES IDX 43 13 4 14 42 15 41 16 2 17 1 18 44 19 29 21 30 22 39 23
REMARK SMILES IDX 31 24 37 25 32 26 35 27 40 28 38 30 33 32 34 33 36 35 14 37
REMARK SMILES IDX 15 38 24 39 16 40 22 41 17 42 20 43 25 44 23 46 18 48 19 49
REMARK SMILES IDX 21 51 11 53
REMARK H PARENT 44 20 40 29 38 31 34 34 36 36 25 45 23 47 19 50 21 52 11 54
REMARK Flexibility Score: inf
ROOT
ATOM      1  C   UNL     1      -0.939 -19.160  29.018  1.00  0.00     0.402 A 
ATOM      2  C   UNL     1      -0.331 -19.949  28.023  1.00  0.00     0.229 A 
ATOM      3  C   UNL     1      -0.316 -21.345  28.207  1.00  0.00     0.079 A 
ATOM      4  C   UNL     1      -0.829 -21.900  29.389  1.00  0.00     0.126 A 
ATOM      5  C   UNL     1      -0.785 -23.286  29.642  1.00  0.00     0.143 A 
ATOM      6  C   UNL     1      -1.280 -23.779  30.869  1.00  0.00     0.094 A 
ATOM      7  C   UNL     1      -1.826 -22.905  31.818  1.00  0.00     0.128 A 
ATOM      8  C   UNL     1      -1.885 -21.535  31.549  1.00  0.00     0.162 A 
ATOM      9  C   UNL     1      -1.384 -21.029  30.348  1.00  0.00     0.368 A 
ATOM     10  O   UNL     1      -1.433 -19.722  30.117  1.00  0.00    -0.202 OA
ENDROOT
BRANCH   1  11
ATOM     11  C   UNL     1      -1.092 -17.701  28.856  1.00  0.00     0.087 A 
ATOM     12  C   UNL     1      -2.407 -15.806  28.054  1.00  0.00     0.161 A 
ATOM     13  C   UNL     1      -1.397 -14.934  28.483  1.00  0.00     0.157 A 
ATOM     14  C   UNL     1      -2.256 -17.193  28.259  1.00  0.00     0.068 A 
ATOM     15  C   UNL     1      -0.242 -15.440  29.104  1.00  0.00     0.051 A 
ATOM     16  C   UNL     1      -0.088 -16.816  29.285  1.00  0.00     0.022 A 
BRANCH  12  17
ATOM     17  O   UNL     1      -3.540 -15.264  27.425  1.00  0.00    -0.493 OA
ATOM     18  C   UNL     1      -4.725 -14.859  28.108  1.00  0.00     0.278 C 
ENDBRANCH  12  17
BRANCH  13  19
ATOM     19  O   UNL     1      -1.539 -13.561  28.274  1.00  0.00    -0.504 OA
ATOM     20  H   UNL     1      -1.873 -12.950  29.007  1.00  0.00     0.293 HD
ENDBRANCH  13  19
ENDBRANCH   1  11
BRANCH   2  21
ATOM     21  O   UNL     1       0.228 -19.319  26.896  1.00  0.00    -0.452 OA
BRANCH  21  22
ATOM     22  C   UNL     1      -0.495 -18.740  25.807  1.00  0.00     0.339 C 
ATOM     23  C   UNL     1      -0.790 -19.787  24.710  1.00  0.00     0.214 C 
ATOM     24  O   UNL     1       0.184 -17.599  25.297  1.00  0.00    -0.332 OA
ATOM     25  C   UNL     1       0.487 -20.217  23.972  1.00  0.00     0.180 C 
ATOM     26  C   UNL     1       1.397 -17.900  24.603  1.00  0.00     0.179 C 
ATOM     27  C   UNL     1       1.217 -18.958  23.480  1.00  0.00     0.177 C 
BRANCH  23  28
ATOM     28  O   UNL     1      -1.502 -20.892  25.220  1.00  0.00    -0.384 OA
ATOM     29  H   UNL     1      -0.855 -21.488  25.682  1.00  0.00     0.211 HD
ENDBRANCH  23  28
BRANCH  25  30
ATOM     30  O   UNL     1       1.334 -20.976  24.798  1.00  0.00    -0.387 OA
ATOM     31  H   UNL     1       0.939 -20.970  25.711  1.00  0.00     0.211 HD
ENDBRANCH  25  30
BRANCH  26  32
ATOM     32  C   UNL     1       2.579 -18.179  25.559  1.00  0.00     0.191 C 
BRANCH  32  33
ATOM     33  O   UNL     1       3.703 -17.447  25.161  1.00  0.00    -0.394 OA
ATOM     34  H   UNL     1       3.905 -16.821  25.907  1.00  0.00     0.210 HD
ENDBRANCH  32  33
ENDBRANCH  26  32
BRANCH  27  35
ATOM     35  O   UNL     1       2.466 -19.297  22.927  1.00  0.00    -0.387 OA
ATOM     36  H   UNL     1       3.114 -18.608  23.234  1.00  0.00     0.211 HD
ENDBRANCH  27  35
ENDBRANCH  21  22
ENDBRANCH   2  21
BRANCH   5  37
ATOM     37  O   UNL     1      -0.253 -24.141  28.661  1.00  0.00    -0.461 OA
BRANCH  37  38
ATOM     38  C   UNL     1       0.373 -25.400  28.912  1.00  0.00     0.339 C 
ATOM     39  C   UNL     1       1.627 -25.206  29.784  1.00  0.00     0.214 C 
ATOM     40  O   UNL     1       0.639 -26.107  27.708  1.00  0.00    -0.332 OA
ATOM     41  C   UNL     1       2.759 -24.530  28.989  1.00  0.00     0.180 C 
ATOM     42  C   UNL     1       1.649 -25.520  26.890  1.00  0.00     0.179 C 
ATOM     43  C   UNL     1       2.979 -25.238  27.636  1.00  0.00     0.177 C 
BRANCH  39  44
ATOM     44  O   UNL     1       2.062 -26.421  30.343  1.00  0.00    -0.384 OA
ATOM     45  H   UNL     1       2.304 -27.044  29.610  1.00  0.00     0.211 HD
ENDBRANCH  39  44
BRANCH  41  46
ATOM     46  O   UNL     1       2.459 -23.173  28.765  1.00  0.00    -0.387 OA
ATOM     47  H   UNL     1       2.988 -22.642  29.418  1.00  0.00     0.211 HD
ENDBRANCH  41  46
BRANCH  42  48
ATOM     48  C   UNL     1       1.123 -24.313  26.076  1.00  0.00     0.191 C 
BRANCH  48  49
ATOM     49  O   UNL     1       2.183 -23.481  25.685  1.00  0.00    -0.394 OA
ATOM     50  H   UNL     1       2.864 -24.063  25.265  1.00  0.00     0.210 HD
ENDBRANCH  48  49
ENDBRANCH  42  48
BRANCH  43  51
ATOM     51  O   UNL     1       3.652 -26.458  27.839  1.00  0.00    -0.387 OA
ATOM     52  H   UNL     1       3.692 -26.605  28.821  1.00  0.00     0.211 HD
ENDBRANCH  43  51
ENDBRANCH  37  38
ENDBRANCH   5  37
BRANCH   7  53
ATOM     53  O   UNL     1      -2.311 -23.389  33.033  1.00  0.00    -0.507 OA
ATOM     54  H   UNL     1      -2.780 -24.285  33.101  1.00  0.00     0.293 HD
ENDBRANCH   7  53
TORSDOF 18
ENDMDL
MODEL 3
REMARK VINA RESULT:    -6.457      3.764      9.889
REMARK INTER + INTRA:         -14.179
REMARK INTER:                 -11.352
REMARK INTRA:                  -2.827
REMARK UNBOUND:                -2.813
REMARK SMILES COc1cc(-c2[o+]c3cc(O)cc(O[C@H]4O[C@@H](CO)[C@H](O)[C@@H](O)[C@@H]4O)c3cc2O[C@H]2O[C@@H](CO)[C@@H](O)[C@@H](O)[C@H]2O)ccc1O
REMARK SMILES IDX 6 1 28 2 27 3 26 4 13 5 12 6 10 7 9 8 8 9 7 10 5 11 3 12
REMARK SMILES IDX 43 13 4 14 42 15 41 16 2 17 1 18 44 19 29 21 30 22 39 23
REMARK SMILES IDX 31 24 37 25 32 26 35 27 40 28 38 30 33 32 34 33 36 35 14 37
REMARK SMILES IDX 15 38 24 39 16 40 22 41 17 42 20 43 25 44 23 46 18 48 19 49
REMARK SMILES IDX 21 51 11 53
REMARK H PARENT 44 20 40 29 38 31 34 34 36 36 25 45 23 47 19 50 21 52 11 54
REMARK Flexibility Score: inf
ROOT
ATOM      1  C   UNL     1       2.303 -23.815  28.013  1.00  0.00     0.402 A 
ATOM      2  C   UNL     1       1.369 -22.851  28.439  1.00  0.00     0.229 A 
ATOM      3  C   UNL     1       1.105 -21.766  27.581  1.00  0.00     0.079 A 
ATOM      4  C   UNL     1       1.820 -21.633  26.381  1.00  0.00     0.126 A 
ATOM      5  C   UNL     1       1.630 -20.534  25.519  1.00  0.00     0.143 A 
ATOM      6  C   UNL     1       2.410 -20.436  24.345  1.00  0.00     0.094 A 
ATOM      7  C   UNL     1       3.350 -21.427  24.031  1.00  0.00     0.128 A 
ATOM      8  C   UNL     1       3.515 -22.524  24.882  1.00  0.00     0.162 A 
ATOM      9  C   UNL     1       2.764 -22.627  26.054  1.00  0.00     0.368 A 
ATOM     10  O   UNL     1       2.947 -23.668  26.859  1.00  0.00    -0.202 OA
ENDROOT
BRANCH   1  11
ATOM     11  C   UNL     1       2.560 -25.037  28.800  1.00  0.00     0.087 A 
ATOM     12  C   UNL     1       1.775 -27.186  29.654  1.00  0.00     0.161 A 
ATOM     13  C   UNL     1       2.992 -27.352  30.330  1.00  0.00     0.157 A 
ATOM     14  C   UNL     1       1.570 -26.029  28.874  1.00  0.00     0.068 A 
ATOM     15  C   UNL     1       3.994 -26.370  30.236  1.00  0.00     0.051 A 
ATOM     16  C   UNL     1       3.777 -25.217  29.479  1.00  0.00     0.022 A 
BRANCH  12  17
ATOM     17  O   UNL     1       0.794 -28.182  29.783  1.00  0.00    -0.493 OA
ATOM     18  C   UNL     1      -0.245 -28.168  30.761  1.00  0.00     0.278 C 
ENDBRANCH  12  17
BRANCH  13  19
ATOM     19  O   UNL     1       3.196 -28.492  31.110  1.00  0.00    -0.504 OA
ATOM     20  H   UNL     1       4.055 -29.021  31.053  1.00  0.00     0.293 HD
ENDBRANCH  13  19
ENDBRANCH   1  11
BRANCH   2  21
ATOM     21  O   UNL     1       0.741 -23.010  29.688  1.00  0.00    -0.452 OA
BRANCH  21  22
ATOM     22  C   UNL     1       0.757 -22.070  30.765  1.00  0.00     0.339 C 
ATOM     23  C   UNL     1       0.776 -22.787  32.134  1.00  0.00     0.214 C 
ATOM     24  O   UNL     1      -0.323 -21.150  30.652  1.00  0.00    -0.332 OA
ATOM     25  C   UNL     1      -0.556 -23.495  32.428  1.00  0.00     0.180 C 
ATOM     26  C   UNL     1      -1.610 -21.724  30.895  1.00  0.00     0.179 C 
ATOM     27  C   UNL     1      -1.699 -22.484  32.246  1.00  0.00     0.177 C 
BRANCH  23  28
ATOM     28  O   UNL     1       1.876 -23.662  32.251  1.00  0.00    -0.384 OA
ATOM     29  H   UNL     1       2.395 -23.396  33.055  1.00  0.00     0.211 HD
ENDBRANCH  23  28
BRANCH  25  30
ATOM     30  O   UNL     1      -0.751 -24.603  31.586  1.00  0.00    -0.387 OA
ATOM     31  H   UNL     1      -0.328 -24.389  30.712  1.00  0.00     0.211 HD
ENDBRANCH  25  30
BRANCH  26  32
ATOM     32  C   UNL     1      -2.151 -22.514  29.682  1.00  0.00     0.191 C 
BRANCH  32  33
ATOM     33  O   UNL     1      -2.247 -21.675  28.565  1.00  0.00    -0.394 OA
ATOM     34  H   UNL     1      -2.876 -22.121  27.937  1.00  0.00     0.210 HD
ENDBRANCH  32  33
ENDBRANCH  26  32
BRANCH  27  35
ATOM     35  O   UNL     1      -2.946 -23.126  32.362  1.00  0.00    -0.387 OA
ATOM     36  H   UNL     1      -3.437 -22.671  33.098  1.00  0.00     0.211 HD
ENDBRANCH  27  35
ENDBRANCH  21  22
ENDBRANCH   2  21
BRANCH   5  37
ATOM     37  O   UNL     1       0.664 -19.568  25.848  1.00  0.00    -0.461 OA
BRANCH  37  38
ATOM     38  C   UNL     1       0.831 -18.527  26.812  1.00  0.00     0.339 C 
ATOM     39  C   UNL     1      -0.206 -18.673  27.940  1.00  0.00     0.214 C 
ATOM     40  O   UNL     1       0.813 -17.240  26.207  1.00  0.00    -0.332 OA
ATOM     41  C   UNL     1      -1.620 -18.318  27.446  1.00  0.00     0.180 C 
ATOM     42  C   UNL     1      -0.455 -16.852  25.683  1.00  0.00     0.179 C 
ATOM     43  C   UNL     1      -1.618 -16.967  26.701  1.00  0.00     0.177 C 
BRANCH  39  44
ATOM     44  O   UNL     1       0.142 -17.904  29.065  1.00  0.00    -0.384 OA
ATOM     45  H   UNL     1       0.202 -18.500  29.856  1.00  0.00     0.211 HD
ENDBRANCH  39  44
BRANCH  41  46
ATOM     46  O   UNL     1      -2.110 -19.325  26.592  1.00  0.00    -0.387 OA
ATOM     47  H   UNL     1      -2.714 -19.901  27.132  1.00  0.00     0.211 HD
ENDBRANCH  41  46
BRANCH  42  48
ATOM     48  C   UNL     1      -0.756 -17.510  24.315  1.00  0.00     0.191 C 
BRANCH  48  49
ATOM     49  O   UNL     1       0.387 -17.505  23.501  1.00  0.00    -0.394 OA
ATOM     50  H   UNL     1       1.073 -18.045  23.968  1.00  0.00     0.210 HD
ENDBRANCH  48  49
ENDBRANCH  42  48
BRANCH  43  51
ATOM     51  O   UNL     1      -1.518 -15.911  27.626  1.00  0.00    -0.387 OA
ATOM     52  H   UNL     1      -2.433 -15.542  27.742  1.00  0.00     0.211 HD
ENDBRANCH  43  51
ENDBRANCH  37  38
ENDBRANCH   5  37
BRANCH   7  53
ATOM     53  O   UNL     1       4.125 -21.329  22.876  1.00  0.00    -0.507 OA
ATOM     54  H   UNL     1       3.775 -20.885  22.035  1.00  0.00     0.293 HD
ENDBRANCH   7  53
TORSDOF 18
ENDMDL
MODEL 4
REMARK VINA RESULT:    -6.430      3.474      9.881
REMARK INTER + INTRA:         -14.130
REMARK INTER:                 -11.761
REMARK INTRA:                  -2.369
REMARK UNBOUND:                -2.813
REMARK SMILES COc1cc(-c2[o+]c3cc(O)cc(O[C@H]4O[C@@H](CO)[C@H](O)[C@@H](O)[C@@H]4O)c3cc2O[C@H]2O[C@@H](CO)[C@@H](O)[C@@H](O)[C@H]2O)ccc1O
REMARK SMILES IDX 6 1 28 2 27 3 26 4 13 5 12 6 10 7 9 8 8 9 7 10 5 11 3 12
REMARK SMILES IDX 43 13 4 14 42 15 41 16 2 17 1 18 44 19 29 21 30 22 39 23
REMARK SMILES IDX 31 24 37 25 32 26 35 27 40 28 38 30 33 32 34 33 36 35 14 37
REMARK SMILES IDX 15 38 24 39 16 40 22 41 17 42 20 43 25 44 23 46 18 48 19 49
REMARK SMILES IDX 21 51 11 53
REMARK H PARENT 44 20 40 29 38 31 34 34 36 36 25 45 23 47 19 50 21 52 11 54
REMARK Flexibility Score: inf
ROOT
ATOM      1  C   UNL     1       2.249 -23.185  27.611  1.00  0.00     0.402 A 
ATOM      2  C   UNL     1       1.378 -22.320  28.302  1.00  0.00     0.229 A 
ATOM      3  C   UNL     1       1.067 -21.083  27.703  1.00  0.00     0.079 A 
ATOM      4  C   UNL     1       1.680 -20.717  26.495  1.00  0.00     0.126 A 
ATOM      5  C   UNL     1       1.442 -19.467  25.889  1.00  0.00     0.143 A 
ATOM      6  C   UNL     1       2.120 -19.141  24.694  1.00  0.00     0.094 A 
ATOM      7  C   UNL     1       3.005 -20.055  24.106  1.00  0.00     0.128 A 
ATOM      8  C   UNL     1       3.217 -21.300  24.704  1.00  0.00     0.162 A 
ATOM      9  C   UNL     1       2.568 -21.631  25.895  1.00  0.00     0.368 A 
ATOM     10  O   UNL     1       2.794 -22.813  26.457  1.00  0.00    -0.202 OA
ENDROOT
BRANCH   1  11
ATOM     11  C   UNL     1       2.544 -24.540  28.114  1.00  0.00     0.087 A 
ATOM     12  C   UNL     1       1.738 -26.712  28.889  1.00  0.00     0.161 A 
ATOM     13  C   UNL     1       3.062 -27.111  29.120  1.00  0.00     0.157 A 
ATOM     14  C   UNL     1       1.485 -25.426  28.368  1.00  0.00     0.068 A 
ATOM     15  C   UNL     1       4.125 -26.234  28.841  1.00  0.00     0.051 A 
ATOM     16  C   UNL     1       3.867 -24.955  28.345  1.00  0.00     0.022 A 
BRANCH  12  17
ATOM     17  O   UNL     1       0.703 -27.611  29.193  1.00  0.00    -0.493 OA
ATOM     18  C   UNL     1       0.329 -27.993  30.515  1.00  0.00     0.278 C 
ENDBRANCH  12  17
BRANCH  13  19
ATOM     19  O   UNL     1       3.316 -28.380  29.643  1.00  0.00    -0.504 OA
ATOM     20  H   UNL     1       3.753 -29.101  29.085  1.00  0.00     0.293 HD
ENDBRANCH  13  19
ENDBRANCH   1  11
BRANCH   2  21
ATOM     21  O   UNL     1       0.857 -22.722  29.546  1.00  0.00    -0.452 OA
BRANCH  21  22
ATOM     22  C   UNL     1       0.792 -21.924  30.730  1.00  0.00     0.339 C 
ATOM     23  C   UNL     1       0.878 -22.800  32.000  1.00  0.00     0.214 C 
ATOM     24  O   UNL     1      -0.364 -21.096  30.722  1.00  0.00    -0.332 OA
ATOM     25  C   UNL     1      -0.385 -23.653  32.193  1.00  0.00     0.180 C 
ATOM     26  C   UNL     1      -1.596 -21.806  30.881  1.00  0.00     0.179 C 
ATOM     27  C   UNL     1      -1.614 -22.732  32.128  1.00  0.00     0.177 C 
BRANCH  23  28
ATOM     28  O   UNL     1       2.051 -23.582  32.018  1.00  0.00    -0.384 OA
ATOM     29  H   UNL     1       2.411 -23.616  31.093  1.00  0.00     0.211 HD
ENDBRANCH  23  28
BRANCH  25  30
ATOM     30  O   UNL     1      -0.484 -24.662  31.221  1.00  0.00    -0.387 OA
ATOM     31  H   UNL     1       0.443 -24.922  30.970  1.00  0.00     0.211 HD
ENDBRANCH  25  30
BRANCH  26  32
ATOM     32  C   UNL     1      -2.067 -22.485  29.576  1.00  0.00     0.191 C 
BRANCH  32  33
ATOM     33  O   UNL     1      -2.103 -21.550  28.533  1.00  0.00    -0.394 OA
ATOM     34  H   UNL     1      -1.173 -21.486  28.188  1.00  0.00     0.210 HD
ENDBRANCH  32  33
ENDBRANCH  26  32
BRANCH  27  35
ATOM     35  O   UNL     1      -2.799 -23.490  32.154  1.00  0.00    -0.387 OA
ATOM     36  H   UNL     1      -3.540 -22.875  31.904  1.00  0.00     0.211 HD
ENDBRANCH  27  35
ENDBRANCH  21  22
ENDBRANCH   2  21
BRANCH   5  37
ATOM     37  O   UNL     1       0.531 -18.581  26.489  1.00  0.00    -0.461 OA
BRANCH  37  38
ATOM     38  C   UNL     1      -0.658 -18.078  25.877  1.00  0.00     0.339 C 
ATOM     39  C   UNL     1      -0.513 -16.573  25.588  1.00  0.00     0.214 C 
ATOM     40  O   UNL     1      -1.816 -18.386  26.641  1.00  0.00    -0.332 OA
ATOM     41  C   UNL     1      -0.546 -15.750  26.889  1.00  0.00     0.180 C 
ATOM     42  C   UNL     1      -1.902 -17.696  27.886  1.00  0.00     0.179 C 
ATOM     43  C   UNL     1      -1.749 -16.157  27.765  1.00  0.00     0.177 C 
BRANCH  39  44
ATOM     44  O   UNL     1      -1.491 -16.123  24.683  1.00  0.00    -0.384 OA
ATOM     45  H   UNL     1      -2.373 -16.126  25.135  1.00  0.00     0.211 HD
ENDBRANCH  39  44
BRANCH  41  46
ATOM     46  O   UNL     1       0.646 -15.931  27.616  1.00  0.00    -0.387 OA
ATOM     47  H   UNL     1       0.659 -15.244  28.335  1.00  0.00     0.211 HD
ENDBRANCH  41  46
BRANCH  42  48
ATOM     48  C   UNL     1      -1.003 -18.328  28.976  1.00  0.00     0.191 C 
BRANCH  48  49
ATOM     49  O   UNL     1      -1.667 -18.352  30.212  1.00  0.00    -0.394 OA
ATOM     50  H   UNL     1      -2.403 -17.692  30.155  1.00  0.00     0.210 HD
ENDBRANCH  48  49
ENDBRANCH  42  48
BRANCH  43  51
ATOM     51  O   UNL     1      -2.936 -15.625  27.226  1.00  0.00    -0.387 OA
ATOM     52  H   UNL     1      -3.380 -16.361  26.726  1.00  0.00     0.211 HD
ENDBRANCH  43  51
ENDBRANCH  37  38
ENDBRANCH   5  37
BRANCH   7  53
ATOM     53  O   UNL     1       3.681 -19.733  22.930  1.00  0.00    -0.507 OA
ATOM     54  H   UNL     1       3.301 -19.962  22.018  1.00  0.00     0.293 HD
ENDBRANCH   7  53
TORSDOF 18
ENDMDL
MODEL 5
REMARK VINA RESULT:    -6.410      3.043      7.634
REMARK INTER + INTRA:         -14.095
REMARK INTER:                 -11.360
REMARK INTRA:                  -2.735
REMARK UNBOUND:                -2.813
REMARK SMILES COc1cc(-c2[o+]c3cc(O)cc(O[C@H]4O[C@@H](CO)[C@H](O)[C@@H](O)[C@@H]4O)c3cc2O[C@H]2O[C@@H](CO)[C@@H](O)[C@@H](O)[C@H]2O)ccc1O
REMARK SMILES IDX 6 1 28 2 27 3 26 4 13 5 12 6 10 7 9 8 8 9 7 10 5 11 3 12
REMARK SMILES IDX 43 13 4 14 42 15 41 16 2 17 1 18 44 19 29 21 30 22 39 23
REMARK SMILES IDX 31 24 37 25 32 26 35 27 40 28 38 30 33 32 34 33 36 35 14 37
REMARK SMILES IDX 15 38 24 39 16 40 22 41 17 42 20 43 25 44 23 46 18 48 19 49
REMARK SMILES IDX 21 51 11 53
REMARK H PARENT 44 20 40 29 38 31 34 34 36 36 25 45 23 47 19 50 21 52 11 54
REMARK Flexibility Score: inf
ROOT
ATOM      1  C   UNL     1      -0.142 -20.088  28.785  1.00  0.00     0.402 A 
ATOM      2  C   UNL     1       0.430 -18.820  29.002  1.00  0.00     0.229 A 
ATOM      3  C   UNL     1       0.511 -17.938  27.907  1.00  0.00     0.079 A 
ATOM      4  C   UNL     1       0.099 -18.363  26.635  1.00  0.00     0.126 A 
ATOM      5  C   UNL     1       0.214 -17.535  25.500  1.00  0.00     0.143 A 
ATOM      6  C   UNL     1      -0.180 -18.036  24.239  1.00  0.00     0.094 A 
ATOM      7  C   UNL     1      -0.696 -19.334  24.119  1.00  0.00     0.128 A 
ATOM      8  C   UNL     1      -0.827 -20.138  25.255  1.00  0.00     0.162 A 
ATOM      9  C   UNL     1      -0.425 -19.665  26.505  1.00  0.00     0.368 A 
ATOM     10  O   UNL     1      -0.541 -20.450  27.570  1.00  0.00    -0.202 OA
ENDROOT
BRANCH   1  11
ATOM     11  C   UNL     1      -0.362 -21.033  29.898  1.00  0.00     0.087 A 
ATOM     12  C   UNL     1       0.430 -22.911  31.244  1.00  0.00     0.161 A 
ATOM     13  C   UNL     1      -0.766 -22.880  31.975  1.00  0.00     0.157 A 
ATOM     14  C   UNL     1       0.634 -21.970  30.213  1.00  0.00     0.068 A 
ATOM     15  C   UNL     1      -1.753 -21.924  31.677  1.00  0.00     0.051 A 
ATOM     16  C   UNL     1      -1.555 -21.009  30.642  1.00  0.00     0.022 A 
BRANCH  12  17
ATOM     17  O   UNL     1       1.387 -23.888  31.562  1.00  0.00    -0.493 OA
ATOM     18  C   UNL     1       2.795 -23.663  31.575  1.00  0.00     0.278 C 
ENDBRANCH  12  17
BRANCH  13  19
ATOM     19  O   UNL     1      -0.975 -23.814  32.991  1.00  0.00    -0.504 OA
ATOM     20  H   UNL     1      -1.907 -24.073  33.283  1.00  0.00     0.293 HD
ENDBRANCH  13  19
ENDBRANCH   1  11
BRANCH   2  21
ATOM     21  O   UNL     1       0.889 -18.486  30.290  1.00  0.00    -0.452 OA
BRANCH  21  22
ATOM     22  C   UNL     1       2.254 -18.326  30.684  1.00  0.00     0.339 C 
ATOM     23  C   UNL     1       2.456 -18.701  32.169  1.00  0.00     0.214 C 
ATOM     24  O   UNL     1       2.716 -17.013  30.390  1.00  0.00    -0.332 OA
ATOM     25  C   UNL     1       1.795 -17.683  33.111  1.00  0.00     0.180 C 
ATOM     26  C   UNL     1       2.142 -15.992  31.210  1.00  0.00     0.179 C 
ATOM     27  C   UNL     1       2.279 -16.276  32.730  1.00  0.00     0.177 C 
BRANCH  23  28
ATOM     28  O   UNL     1       2.036 -20.020  32.437  1.00  0.00    -0.384 OA
ATOM     29  H   UNL     1       1.968 -20.126  33.422  1.00  0.00     0.211 HD
ENDBRANCH  23  28
BRANCH  25  30
ATOM     30  O   UNL     1       0.393 -17.749  33.043  1.00  0.00    -0.387 OA
ATOM     31  H   UNL     1       0.145 -17.789  32.081  1.00  0.00     0.211 HD
ENDBRANCH  25  30
BRANCH  26  32
ATOM     32  C   UNL     1       0.718 -15.595  30.761  1.00  0.00     0.191 C 
BRANCH  32  33
ATOM     33  O   UNL     1       0.397 -14.323  31.249  1.00  0.00    -0.394 OA
ATOM     34  H   UNL     1       1.256 -13.912  31.537  1.00  0.00     0.210 HD
ENDBRANCH  32  33
ENDBRANCH  26  32
BRANCH  27  35
ATOM     35  O   UNL     1       1.586 -15.300  33.472  1.00  0.00    -0.387 OA
ATOM     36  H   UNL     1       0.737 -15.719  33.777  1.00  0.00     0.211 HD
ENDBRANCH  27  35
ENDBRANCH  21  22
ENDBRANCH   2  21
BRANCH   5  37
ATOM     37  O   UNL     1       0.713 -16.231  25.655  1.00  0.00    -0.461 OA
BRANCH  37  38
ATOM     38  C   UNL     1       0.461 -15.139  24.771  1.00  0.00     0.339 C 
ATOM     39  C   UNL     1       1.507 -14.030  24.981  1.00  0.00     0.214 C 
ATOM     40  O   UNL     1      -0.875 -14.667  24.882  1.00  0.00    -0.332 OA
ATOM     41  C   UNL     1       1.291 -13.307  26.323  1.00  0.00     0.180 C 
ATOM     42  C   UNL     1      -1.172 -14.021  26.119  1.00  0.00     0.179 C 
ATOM     43  C   UNL     1      -0.183 -12.884  26.487  1.00  0.00     0.177 C 
BRANCH  39  44
ATOM     44  O   UNL     1       1.515 -13.115  23.913  1.00  0.00    -0.384 OA
ATOM     45  H   UNL     1       2.126 -13.450  23.207  1.00  0.00     0.211 HD
ENDBRANCH  39  44
BRANCH  41  46
ATOM     46  O   UNL     1       1.662 -14.139  27.396  1.00  0.00    -0.387 OA
ATOM     47  H   UNL     1       2.061 -13.557  28.096  1.00  0.00     0.211 HD
ENDBRANCH  41  46
BRANCH  42  48
ATOM     48  C   UNL     1      -1.421 -15.027  27.268  1.00  0.00     0.191 C 
BRANCH  48  49
ATOM     49  O   UNL     1      -2.524 -15.844  26.979  1.00  0.00    -0.394 OA
ATOM     50  H   UNL     1      -2.335 -16.731  27.376  1.00  0.00     0.210 HD
ENDBRANCH  48  49
ENDBRANCH  42  48
BRANCH  43  51
ATOM     51  O   UNL     1      -0.454 -11.767  25.675  1.00  0.00    -0.387 OA
ATOM     52  H   UNL     1      -0.736 -11.031  26.281  1.00  0.00     0.211 HD
ENDBRANCH  43  51
ENDBRANCH  37  38
ENDBRANCH   5  37
BRANCH   7  53
ATOM     53  O   UNL     1      -1.081 -19.832  22.875  1.00  0.00    -0.507 OA
ATOM     54  H   UNL     1      -0.501 -19.714  22.052  1.00  0.00     0.293 HD
ENDBRANCH   7  53
TORSDOF 18
ENDMDL
MODEL 6
REMARK VINA RESULT:    -6.401      0.743      1.397
REMARK INTER + INTRA:         -14.080
REMARK INTER:                 -11.244
REMARK INTRA:                  -2.836
REMARK UNBOUND:                -2.813
REMARK SMILES COc1cc(-c2[o+]c3cc(O)cc(O[C@H]4O[C@@H](CO)[C@H](O)[C@@H](O)[C@@H]4O)c3cc2O[C@H]2O[C@@H](CO)[C@@H](O)[C@@H](O)[C@H]2O)ccc1O
REMARK SMILES IDX 6 1 28 2 27 3 26 4 13 5 12 6 10 7 9 8 8 9 7 10 5 11 3 12
REMARK SMILES IDX 43 13 4 14 42 15 41 16 2 17 1 18 44 19 29 21 30 22 39 23
REMARK SMILES IDX 31 24 37 25 32 26 35 27 40 28 38 30 33 32 34 33 36 35 14 37
REMARK SMILES IDX 15 38 24 39 16 40 22 41 17 42 20 43 25 44 23 46 18 48 19 49
REMARK SMILES IDX 21 51 11 53
REMARK H PARENT 44 20 40 29 38 31 34 34 36 36 25 45 23 47 19 50 21 52 11 54
REMARK Flexibility Score: inf
ROOT
ATOM      1  C   UNL     1      -1.489 -16.080  28.635  1.00  0.00     0.402 A 
ATOM      2  C   UNL     1      -0.772 -16.105  27.424  1.00  0.00     0.229 A 
ATOM      3  C   UNL     1      -0.458 -17.362  26.870  1.00  0.00     0.079 A 
ATOM      4  C   UNL     1      -0.793 -18.535  27.563  1.00  0.00     0.126 A 
ATOM      5  C   UNL     1      -0.449 -19.812  27.075  1.00  0.00     0.143 A 
ATOM      6  C   UNL     1      -0.779 -20.953  27.839  1.00  0.00     0.094 A 
ATOM      7  C   UNL     1      -1.455 -20.821  29.060  1.00  0.00     0.128 A 
ATOM      8  C   UNL     1      -1.811 -19.551  29.524  1.00  0.00     0.162 A 
ATOM      9  C   UNL     1      -1.477 -18.412  28.789  1.00  0.00     0.368 A 
ATOM     10  O   UNL     1      -1.808 -17.213  29.254  1.00  0.00    -0.202 OA
ENDROOT
BRANCH   1  11
ATOM     11  C   UNL     1      -1.950 -14.811  29.229  1.00  0.00     0.087 A 
ATOM     12  C   UNL     1      -3.730 -13.169  29.550  1.00  0.00     0.161 A 
ATOM     13  C   UNL     1      -2.851 -12.375  30.300  1.00  0.00     0.157 A 
ATOM     14  C   UNL     1      -3.277 -14.399  29.029  1.00  0.00     0.068 A 
ATOM     15  C   UNL     1      -1.529 -12.800  30.523  1.00  0.00     0.051 A 
ATOM     16  C   UNL     1      -1.080 -14.008  29.987  1.00  0.00     0.022 A 
BRANCH  12  17
ATOM     17  O   UNL     1      -5.038 -12.705  29.337  1.00  0.00    -0.493 OA
ATOM     18  C   UNL     1      -6.213 -13.360  29.813  1.00  0.00     0.278 C 
ENDBRANCH  12  17
BRANCH  13  19
ATOM     19  O   UNL     1      -3.293 -11.154  30.811  1.00  0.00    -0.504 OA
ATOM     20  H   UNL     1      -2.839 -10.286  30.563  1.00  0.00     0.293 HD
ENDBRANCH  13  19
ENDBRANCH   1  11
BRANCH   2  21
ATOM     21  O   UNL     1      -0.404 -14.889  26.819  1.00  0.00    -0.452 OA
BRANCH  21  22
ATOM     22  C   UNL     1      -0.400 -14.611  25.417  1.00  0.00     0.339 C 
ATOM     23  C   UNL     1       1.040 -14.470  24.878  1.00  0.00     0.214 C 
ATOM     24  O   UNL     1      -1.201 -13.472  25.123  1.00  0.00    -0.332 OA
ATOM     25  C   UNL     1       1.723 -13.195  25.396  1.00  0.00     0.180 C 
ATOM     26  C   UNL     1      -0.652 -12.234  25.582  1.00  0.00     0.179 C 
ATOM     27  C   UNL     1       0.807 -11.996  25.106  1.00  0.00     0.177 C 
BRANCH  23  28
ATOM     28  O   UNL     1       1.810 -15.623  25.135  1.00  0.00    -0.384 OA
ATOM     29  H   UNL     1       2.708 -15.330  25.443  1.00  0.00     0.211 HD
ENDBRANCH  23  28
BRANCH  25  30
ATOM     30  O   UNL     1       1.996 -13.275  26.772  1.00  0.00    -0.387 OA
ATOM     31  H   UNL     1       1.278 -13.825  27.184  1.00  0.00     0.211 HD
ENDBRANCH  25  30
BRANCH  26  32
ATOM     32  C   UNL     1      -0.874 -12.005  27.094  1.00  0.00     0.191 C 
BRANCH  32  33
ATOM     33  O   UNL     1      -1.987 -11.180  27.297  1.00  0.00    -0.394 OA
ATOM     34  H   UNL     1      -2.776 -11.784  27.332  1.00  0.00     0.210 HD
ENDBRANCH  32  33
ENDBRANCH  26  32
BRANCH  27  35
ATOM     35  O   UNL     1       1.326 -10.827  25.694  1.00  0.00    -0.387 OA
ATOM     36  H   UNL     1       1.370 -10.139  24.976  1.00  0.00     0.211 HD
ENDBRANCH  27  35
ENDBRANCH  21  22
ENDBRANCH   2  21
BRANCH   5  37
ATOM     37  O   UNL     1       0.207 -19.914  25.837  1.00  0.00    -0.461 OA
BRANCH  37  38
ATOM     38  C   UNL     1       1.069 -20.984  25.444  1.00  0.00     0.339 C 
ATOM     39  C   UNL     1       2.535 -20.624  25.744  1.00  0.00     0.214 C 
ATOM     40  O   UNL     1       0.857 -21.362  24.090  1.00  0.00    -0.332 OA
ATOM     41  C   UNL     1       3.050 -19.537  24.784  1.00  0.00     0.180 C 
ATOM     42  C   UNL     1       1.268 -20.387  23.134  1.00  0.00     0.179 C 
ATOM     43  C   UNL     1       2.729 -19.902  23.319  1.00  0.00     0.177 C 
BRANCH  39  44
ATOM     44  O   UNL     1       3.364 -21.760  25.708  1.00  0.00    -0.384 OA
ATOM     45  H   UNL     1       3.657 -21.915  24.774  1.00  0.00     0.211 HD
ENDBRANCH  39  44
BRANCH  41  46
ATOM     46  O   UNL     1       2.471 -18.292  25.094  1.00  0.00    -0.387 OA
ATOM     47  H   UNL     1       2.867 -17.989  25.954  1.00  0.00     0.211 HD
ENDBRANCH  41  46
BRANCH  42  48
ATOM     48  C   UNL     1       0.243 -19.237  22.983  1.00  0.00     0.191 C 
BRANCH  48  49
ATOM     49  O   UNL     1      -1.065 -19.718  23.138  1.00  0.00    -0.394 OA
ATOM     50  H   UNL     1      -1.156 -20.003  24.081  1.00  0.00     0.210 HD
ENDBRANCH  48  49
ENDBRANCH  42  48
BRANCH  43  51
ATOM     51  O   UNL     1       3.603 -20.912  22.875  1.00  0.00    -0.387 OA
ATOM     52  H   UNL     1       4.423 -20.849  23.433  1.00  0.00     0.211 HD
ENDBRANCH  43  51
ENDBRANCH  37  38
ENDBRANCH   5  37
BRANCH   7  53
ATOM     53  O   UNL     1      -1.777 -21.945  29.819  1.00  0.00    -0.507 OA
ATOM     54  H   UNL     1      -1.224 -22.221  30.623  1.00  0.00     0.293 HD
ENDBRANCH   7  53
TORSDOF 18
ENDMDL
MODEL 7
REMARK VINA RESULT:    -6.399      1.892      5.626
REMARK INTER + INTRA:         -14.075
REMARK INTER:                 -11.965
REMARK INTRA:                  -2.110
REMARK UNBOUND:                -2.813
REMARK SMILES COc1cc(-c2[o+]c3cc(O)cc(O[C@H]4O[C@@H](CO)[C@H](O)[C@@H](O)[C@@H]4O)c3cc2O[C@H]2O[C@@H](CO)[C@@H](O)[C@@H](O)[C@H]2O)ccc1O
REMARK SMILES IDX 6 1 28 2 27 3 26 4 13 5 12 6 10 7 9 8 8 9 7 10 5 11 3 12
REMARK SMILES IDX 43 13 4 14 42 15 41 16 2 17 1 18 44 19 29 21 30 22 39 23
REMARK SMILES IDX 31 24 37 25 32 26 35 27 40 28 38 30 33 32 34 33 36 35 14 37
REMARK SMILES IDX 15 38 24 39 16 40 22 41 17 42 20 43 25 44 23 46 18 48 19 49
REMARK SMILES IDX 21 51 11 53
REMARK H PARENT 44 20 40 29 38 31 34 34 36 36 25 45 23 47 19 50 21 52 11 54
REMARK Flexibility Score: inf
ROOT
ATOM      1  C   UNL     1      -0.186 -15.244  25.748  1.00  0.00     0.402 A 
ATOM      2  C   UNL     1      -0.715 -15.644  26.991  1.00  0.00     0.229 A 
ATOM      3  C   UNL     1      -0.944 -17.019  27.197  1.00  0.00     0.079 A 
ATOM      4  C   UNL     1      -0.716 -17.930  26.154  1.00  0.00     0.126 A 
ATOM      5  C   UNL     1      -0.985 -19.306  26.296  1.00  0.00     0.143 A 
ATOM      6  C   UNL     1      -0.773 -20.167  25.196  1.00  0.00     0.094 A 
ATOM      7  C   UNL     1      -0.286 -19.662  23.982  1.00  0.00     0.128 A 
ATOM      8  C   UNL     1      -0.002 -18.299  23.859  1.00  0.00     0.162 A 
ATOM      9  C   UNL     1      -0.222 -17.433  24.931  1.00  0.00     0.368 A 
ATOM     10  O   UNL     1       0.037 -16.138  24.790  1.00  0.00    -0.202 OA
ENDROOT
BRANCH   1  11
ATOM     11  C   UNL     1       0.183 -13.839  25.487  1.00  0.00     0.087 A 
ATOM     12  C   UNL     1      -0.399 -11.468  25.564  1.00  0.00     0.161 A 
ATOM     13  C   UNL     1       0.826 -11.157  24.959  1.00  0.00     0.157 A 
ATOM     14  C   UNL     1      -0.710 -12.816  25.842  1.00  0.00     0.068 A 
ATOM     15  C   UNL     1       1.732 -12.179  24.626  1.00  0.00     0.051 A 
ATOM     16  C   UNL     1       1.410 -13.513  24.884  1.00  0.00     0.022 A 
BRANCH  12  17
ATOM     17  O   UNL     1      -1.283 -10.421  25.869  1.00  0.00    -0.493 OA
ATOM     18  C   UNL     1      -1.144  -9.549  26.989  1.00  0.00     0.278 C 
ENDBRANCH  12  17
BRANCH  13  19
ATOM     19  O   UNL     1       1.134  -9.825  24.674  1.00  0.00    -0.504 OA
ATOM     20  H   UNL     1       0.620  -9.065  25.098  1.00  0.00     0.293 HD
ENDBRANCH  13  19
ENDBRANCH   1  11
BRANCH   2  21
ATOM     21  O   UNL     1      -0.987 -14.668  27.967  1.00  0.00    -0.452 OA
BRANCH  21  22
ATOM     22  C   UNL     1      -1.565 -14.900  29.254  1.00  0.00     0.339 C 
ATOM     23  C   UNL     1      -3.046 -14.462  29.290  1.00  0.00     0.214 C 
ATOM     24  O   UNL     1      -0.792 -14.280  30.275  1.00  0.00    -0.332 OA
ATOM     25  C   UNL     1      -3.193 -12.934  29.213  1.00  0.00     0.180 C 
ATOM     26  C   UNL     1      -0.855 -12.852  30.274  1.00  0.00     0.179 C 
ATOM     27  C   UNL     1      -2.307 -12.300  30.296  1.00  0.00     0.177 C 
BRANCH  23  28
ATOM     28  O   UNL     1      -3.809 -15.117  28.302  1.00  0.00    -0.384 OA
ATOM     29  H   UNL     1      -3.727 -16.096  28.450  1.00  0.00     0.211 HD
ENDBRANCH  23  28
BRANCH  25  30
ATOM     30  O   UNL     1      -2.836 -12.442  27.946  1.00  0.00    -0.387 OA
ATOM     31  H   UNL     1      -3.536 -12.739  27.305  1.00  0.00     0.211 HD
ENDBRANCH  25  30
BRANCH  26  32
ATOM     32  C   UNL     1       0.052 -12.215  29.197  1.00  0.00     0.191 C 
BRANCH  32  33
ATOM     33  O   UNL     1       1.209 -12.985  29.025  1.00  0.00    -0.394 OA
ATOM     34  H   UNL     1       0.901 -13.921  28.891  1.00  0.00     0.210 HD
ENDBRANCH  32  33
ENDBRANCH  26  32
BRANCH  27  35
ATOM     35  O   UNL     1      -2.297 -10.899  30.167  1.00  0.00    -0.387 OA
ATOM     36  H   UNL     1      -2.691 -10.530  31.002  1.00  0.00     0.211 HD
ENDBRANCH  27  35
ENDBRANCH  21  22
ENDBRANCH   2  21
BRANCH   5  37
ATOM     37  O   UNL     1      -1.450 -19.786  27.532  1.00  0.00    -0.461 OA
BRANCH  37  38
ATOM     38  C   UNL     1      -1.155 -21.069  28.085  1.00  0.00     0.339 C 
ATOM     39  C   UNL     1      -2.269 -21.501  29.055  1.00  0.00     0.214 C 
ATOM     40  O   UNL     1       0.138 -21.105  28.676  1.00  0.00    -0.332 OA
ATOM     41  C   UNL     1      -2.235 -20.669  30.349  1.00  0.00     0.180 C 
ATOM     42  C   UNL     1       0.267 -20.322  29.861  1.00  0.00     0.179 C 
ATOM     43  C   UNL     1      -0.809 -20.626  30.936  1.00  0.00     0.177 C 
BRANCH  39  44
ATOM     44  O   UNL     1      -2.204 -22.877  29.339  1.00  0.00    -0.384 OA
ATOM     45  H   UNL     1      -2.305 -23.008  30.317  1.00  0.00     0.211 HD
ENDBRANCH  39  44
BRANCH  41  46
ATOM     46  O   UNL     1      -2.681 -19.357  30.103  1.00  0.00    -0.387 OA
ATOM     47  H   UNL     1      -2.557 -19.180  29.133  1.00  0.00     0.211 HD
ENDBRANCH  41  46
BRANCH  42  48
ATOM     48  C   UNL     1       0.437 -18.814  29.557  1.00  0.00     0.191 C 
BRANCH  48  49
ATOM     49  O   UNL     1      -0.035 -18.038  30.627  1.00  0.00    -0.394 OA
ATOM     50  H   UNL     1      -0.308 -18.668  31.339  1.00  0.00     0.210 HD
ENDBRANCH  48  49
ENDBRANCH  42  48
BRANCH  43  51
ATOM     51  O   UNL     1      -0.505 -21.857  31.546  1.00  0.00    -0.387 OA
ATOM     52  H   UNL     1      -1.042 -21.905  32.381  1.00  0.00     0.211 HD
ENDBRANCH  43  51
ENDBRANCH  37  38
ENDBRANCH   5  37
BRANCH   7  53
ATOM     53  O   UNL     1      -0.082 -20.509  22.893  1.00  0.00    -0.507 OA
ATOM     54  H   UNL     1       0.797 -20.526  22.389  1.00  0.00     0.293 HD
ENDBRANCH   7  53
TORSDOF 18
ENDMDL
MODEL 8
REMARK VINA RESULT:    -6.380      3.258      9.641
REMARK INTER + INTRA:         -14.042
REMARK INTER:                 -11.651
REMARK INTRA:                  -2.391
REMARK UNBOUND:                -2.813
REMARK SMILES COc1cc(-c2[o+]c3cc(O)cc(O[C@H]4O[C@@H](CO)[C@H](O)[C@@H](O)[C@@H]4O)c3cc2O[C@H]2O[C@@H](CO)[C@@H](O)[C@@H](O)[C@H]2O)ccc1O
REMARK SMILES IDX 6 1 28 2 27 3 26 4 13 5 12 6 10 7 9 8 8 9 7 10 5 11 3 12
REMARK SMILES IDX 43 13 4 14 42 15 41 16 2 17 1 18 44 19 29 21 30 22 39 23
REMARK SMILES IDX 31 24 37 25 32 26 35 27 40 28 38 30 33 32 34 33 36 35 14 37
REMARK SMILES IDX 15 38 24 39 16 40 22 41 17 42 20 43 25 44 23 46 18 48 19 49
REMARK SMILES IDX 21 51 11 53
REMARK H PARENT 44 20 40 29 38 31 34 34 36 36 25 45 23 47 19 50 21 52 11 54
REMARK Flexibility Score: inf
ROOT
ATOM      1  C   UNL     1       1.660 -22.833  27.453  1.00  0.00     0.402 A 
ATOM      2  C   UNL     1       0.738 -21.881  27.931  1.00  0.00     0.229 A 
ATOM      3  C   UNL     1       0.604 -20.676  27.214  1.00  0.00     0.079 A 
ATOM      4  C   UNL     1       1.430 -20.425  26.108  1.00  0.00     0.126 A 
ATOM      5  C   UNL     1       1.370 -19.210  25.395  1.00  0.00     0.143 A 
ATOM      6  C   UNL     1       2.256 -19.001  24.315  1.00  0.00     0.094 A 
ATOM      7  C   UNL     1       3.172 -19.995  23.944  1.00  0.00     0.128 A 
ATOM      8  C   UNL     1       3.208 -21.204  24.644  1.00  0.00     0.162 A 
ATOM      9  C   UNL     1       2.351 -21.420  25.724  1.00  0.00     0.368 A 
ATOM     10  O   UNL     1       2.411 -22.569  26.388  1.00  0.00    -0.202 OA
ENDROOT
BRANCH   1  11
ATOM     11  C   UNL     1       1.787 -24.162  28.080  1.00  0.00     0.087 A 
ATOM     12  C   UNL     1       2.894 -25.623  29.695  1.00  0.00     0.161 A 
ATOM     13  C   UNL     1       2.095 -26.691  29.264  1.00  0.00     0.157 A 
ATOM     14  C   UNL     1       2.724 -24.352  29.108  1.00  0.00     0.068 A 
ATOM     15  C   UNL     1       1.138 -26.496  28.252  1.00  0.00     0.051 A 
ATOM     16  C   UNL     1       0.989 -25.240  27.660  1.00  0.00     0.022 A 
BRANCH  12  17
ATOM     17  O   UNL     1       3.848 -25.860  30.698  1.00  0.00    -0.493 OA
ATOM     18  C   UNL     1       4.080 -24.996  31.810  1.00  0.00     0.278 C 
ENDBRANCH  12  17
BRANCH  13  19
ATOM     19  O   UNL     1       2.266 -27.953  29.836  1.00  0.00    -0.504 OA
ATOM     20  H   UNL     1       2.221 -28.086  30.837  1.00  0.00     0.293 HD
ENDBRANCH  13  19
ENDBRANCH   1  11
BRANCH   2  21
ATOM     21  O   UNL     1      -0.006 -22.170  29.090  1.00  0.00    -0.452 OA
BRANCH  21  22
ATOM     22  C   UNL     1      -1.391 -22.523  29.137  1.00  0.00     0.339 C 
ATOM     23  C   UNL     1      -2.227 -21.418  29.820  1.00  0.00     0.214 C 
ATOM     24  O   UNL     1      -1.570 -23.794  29.751  1.00  0.00    -0.332 OA
ATOM     25  C   UNL     1      -1.933 -21.325  31.325  1.00  0.00     0.180 C 
ATOM     26  C   UNL     1      -1.303 -23.809  31.156  1.00  0.00     0.179 C 
ATOM     27  C   UNL     1      -2.087 -22.723  31.942  1.00  0.00     0.177 C 
BRANCH  23  28
ATOM     28  O   UNL     1      -2.076 -20.173  29.174  1.00  0.00    -0.384 OA
ATOM     29  H   UNL     1      -1.754 -20.345  28.250  1.00  0.00     0.211 HD
ENDBRANCH  23  28
BRANCH  25  30
ATOM     30  O   UNL     1      -0.642 -20.826  31.571  1.00  0.00    -0.387 OA
ATOM     31  H   UNL     1      -0.579 -20.638  32.546  1.00  0.00     0.211 HD
ENDBRANCH  25  30
BRANCH  26  32
ATOM     32  C   UNL     1       0.207 -23.863  31.477  1.00  0.00     0.191 C 
BRANCH  32  33
ATOM     33  O   UNL     1       0.472 -23.165  32.662  1.00  0.00    -0.394 OA
ATOM     34  H   UNL     1       0.593 -22.213  32.402  1.00  0.00     0.210 HD
ENDBRANCH  32  33
ENDBRANCH  26  32
BRANCH  27  35
ATOM     35  O   UNL     1      -1.685 -22.713  33.291  1.00  0.00    -0.387 OA
ATOM     36  H   UNL     1      -2.194 -23.434  33.749  1.00  0.00     0.211 HD
ENDBRANCH  27  35
ENDBRANCH  21  22
ENDBRANCH   2  21
BRANCH   5  37
ATOM     37  O   UNL     1       0.425 -18.243  25.775  1.00  0.00    -0.461 OA
BRANCH  37  38
ATOM     38  C   UNL     1       0.125 -17.050  25.049  1.00  0.00     0.339 C 
ATOM     39  C   UNL     1       1.230 -16.001  25.269  1.00  0.00     0.214 C 
ATOM     40  O   UNL     1      -1.173 -16.557  25.355  1.00  0.00    -0.332 OA
ATOM     41  C   UNL     1       1.182 -15.431  26.698  1.00  0.00     0.180 C 
ATOM     42  C   UNL     1      -1.315 -16.049  26.680  1.00  0.00     0.179 C 
ATOM     43  C   UNL     1      -0.250 -14.989  27.064  1.00  0.00     0.177 C 
BRANCH  39  44
ATOM     44  O   UNL     1       1.163 -14.971  24.314  1.00  0.00    -0.384 OA
ATOM     45  H   UNL     1       0.984 -14.113  24.778  1.00  0.00     0.211 HD
ENDBRANCH  39  44
BRANCH  41  46
ATOM     46  O   UNL     1       1.629 -16.390  27.626  1.00  0.00    -0.387 OA
ATOM     47  H   UNL     1       0.950 -17.115  27.651  1.00  0.00     0.211 HD
ENDBRANCH  41  46
BRANCH  42  48
ATOM     48  C   UNL     1      -1.483 -17.173  27.730  1.00  0.00     0.191 C 
BRANCH  48  49
ATOM     49  O   UNL     1      -2.355 -18.166  27.257  1.00  0.00    -0.394 OA
ATOM     50  H   UNL     1      -2.015 -18.446  26.370  1.00  0.00     0.210 HD
ENDBRANCH  48  49
ENDBRANCH  42  48
BRANCH  43  51
ATOM     51  O   UNL     1      -0.560 -13.780  26.414  1.00  0.00    -0.387 OA
ATOM     52  H   UNL     1       0.263 -13.490  25.938  1.00  0.00     0.211 HD
ENDBRANCH  43  51
ENDBRANCH  37  38
ENDBRANCH   5  37
BRANCH   7  53
ATOM     53  O   UNL     1       4.052 -19.788  22.882  1.00  0.00    -0.507 OA
ATOM     54  H   UNL     1       4.698 -19.007  22.870  1.00  0.00     0.293 HD
ENDBRANCH   7  53
TORSDOF 18
ENDMDL
MODEL 9
REMARK VINA RESULT:    -6.322      3.234      5.811
REMARK INTER + INTRA:         -13.940
REMARK INTER:                 -11.068
REMARK INTRA:                  -2.871
REMARK UNBOUND:                -2.813
REMARK SMILES COc1cc(-c2[o+]c3cc(O)cc(O[C@H]4O[C@@H](CO)[C@H](O)[C@@H](O)[C@@H]4O)c3cc2O[C@H]2O[C@@H](CO)[C@@H](O)[C@@H](O)[C@H]2O)ccc1O
REMARK SMILES IDX 6 1 28 2 27 3 26 4 13 5 12 6 10 7 9 8 8 9 7 10 5 11 3 12
REMARK SMILES IDX 43 13 4 14 42 15 41 16 2 17 1 18 44 19 29 21 30 22 39 23
REMARK SMILES IDX 31 24 37 25 32 26 35 27 40 28 38 30 33 32 34 33 36 35 14 37
REMARK SMILES IDX 15 38 24 39 16 40 22 41 17 42 20 43 25 44 23 46 18 48 19 49
REMARK SMILES IDX 21 51 11 53
REMARK H PARENT 44 20 40 29 38 31 34 34 36 36 25 45 23 47 19 50 21 52 11 54
REMARK Flexibility Score: inf
ROOT
ATOM      1  C   UNL     1      -0.739 -19.487  29.128  1.00  0.00     0.402 A 
ATOM      2  C   UNL     1       0.135 -20.304  28.385  1.00  0.00     0.229 A 
ATOM      3  C   UNL     1       0.246 -21.658  28.757  1.00  0.00     0.079 A 
ATOM      4  C   UNL     1      -0.444 -22.133  29.883  1.00  0.00     0.126 A 
ATOM      5  C   UNL     1      -0.318 -23.465  30.326  1.00  0.00     0.143 A 
ATOM      6  C   UNL     1      -1.006 -23.872  31.491  1.00  0.00     0.094 A 
ATOM      7  C   UNL     1      -1.818 -22.968  32.189  1.00  0.00     0.128 A 
ATOM      8  C   UNL     1      -1.952 -21.655  31.729  1.00  0.00     0.162 A 
ATOM      9  C   UNL     1      -1.266 -21.232  30.589  1.00  0.00     0.368 A 
ATOM     10  O   UNL     1      -1.393 -19.976  30.177  1.00  0.00    -0.202 OA
ENDROOT
BRANCH   1  11
ATOM     11  C   UNL     1      -0.995 -18.086  28.742  1.00  0.00     0.087 A 
ATOM     12  C   UNL     1      -0.485 -15.711  29.001  1.00  0.00     0.161 A 
ATOM     13  C   UNL     1      -1.488 -15.403  28.071  1.00  0.00     0.157 A 
ATOM     14  C   UNL     1      -0.231 -17.061  29.322  1.00  0.00     0.068 A 
ATOM     15  C   UNL     1      -2.237 -16.430  27.471  1.00  0.00     0.051 A 
ATOM     16  C   UNL     1      -1.995 -17.764  27.808  1.00  0.00     0.022 A 
BRANCH  12  17
ATOM     17  O   UNL     1       0.232 -14.657  29.590  1.00  0.00    -0.493 OA
ATOM     18  C   UNL     1       1.441 -14.112  29.064  1.00  0.00     0.278 C 
ENDBRANCH  12  17
BRANCH  13  19
ATOM     19  O   UNL     1      -1.748 -14.068  27.758  1.00  0.00    -0.504 OA
ATOM     20  H   UNL     1      -1.047 -13.352  27.885  1.00  0.00     0.293 HD
ENDBRANCH  13  19
ENDBRANCH   1  11
BRANCH   2  21
ATOM     21  O   UNL     1       0.851 -19.743  27.311  1.00  0.00    -0.452 OA
BRANCH  21  22
ATOM     22  C   UNL     1       1.776 -20.430  26.464  1.00  0.00     0.339 C 
ATOM     23  C   UNL     1       2.819 -19.457  25.870  1.00  0.00     0.214 C 
ATOM     24  O   UNL     1       1.092 -21.169  25.460  1.00  0.00    -0.332 OA
ATOM     25  C   UNL     1       2.191 -18.501  24.845  1.00  0.00     0.180 C 
ATOM     26  C   UNL     1       0.460 -20.361  24.464  1.00  0.00     0.179 C 
ATOM     27  C   UNL     1       1.420 -19.332  23.807  1.00  0.00     0.177 C 
BRANCH  23  28
ATOM     28  O   UNL     1       3.521 -18.764  26.878  1.00  0.00    -0.384 OA
ATOM     29  H   UNL     1       2.943 -18.728  27.685  1.00  0.00     0.211 HD
ENDBRANCH  23  28
BRANCH  25  30
ATOM     30  O   UNL     1       1.331 -17.575  25.458  1.00  0.00    -0.387 OA
ATOM     31  H   UNL     1       0.744 -18.082  26.080  1.00  0.00     0.211 HD
ENDBRANCH  25  30
BRANCH  26  32
ATOM     32  C   UNL     1      -0.882 -19.763  24.943  1.00  0.00     0.191 C 
BRANCH  32  33
ATOM     33  O   UNL     1      -1.722 -20.781  25.412  1.00  0.00    -0.394 OA
ATOM     34  H   UNL     1      -2.650 -20.497  25.195  1.00  0.00     0.210 HD
ENDBRANCH  32  33
ENDBRANCH  26  32
BRANCH  27  35
ATOM     35  O   UNL     1       0.708 -18.491  22.933  1.00  0.00    -0.387 OA
ATOM     36  H   UNL     1       1.179 -18.518  22.058  1.00  0.00     0.211 HD
ENDBRANCH  27  35
ENDBRANCH  21  22
ENDBRANCH   2  21
BRANCH   5  37
ATOM     37  O   UNL     1       0.484 -24.355  29.591  1.00  0.00    -0.461 OA
BRANCH  37  38
ATOM     38  C   UNL     1       1.194 -25.469  30.134  1.00  0.00     0.339 C 
ATOM     39  C   UNL     1       2.622 -25.051  30.527  1.00  0.00     0.214 C 
ATOM     40  O   UNL     1       1.166 -26.590  29.260  1.00  0.00    -0.332 OA
ATOM     41  C   UNL     1       3.490 -24.797  29.281  1.00  0.00     0.180 C 
ATOM     42  C   UNL     1       1.913 -26.419  28.057  1.00  0.00     0.179 C 
ATOM     43  C   UNL     1       3.380 -25.971  28.287  1.00  0.00     0.177 C 
BRANCH  39  44
ATOM     44  O   UNL     1       3.224 -25.997  31.375  1.00  0.00    -0.384 OA
ATOM     45  H   UNL     1       3.019 -25.762  32.316  1.00  0.00     0.211 HD
ENDBRANCH  39  44
BRANCH  41  46
ATOM     46  O   UNL     1       3.100 -23.604  28.644  1.00  0.00    -0.387 OA
ATOM     47  H   UNL     1       2.716 -23.009  29.341  1.00  0.00     0.211 HD
ENDBRANCH  41  46
BRANCH  42  48
ATOM     48  C   UNL     1       1.158 -25.568  27.007  1.00  0.00     0.191 C 
BRANCH  48  49
ATOM     49  O   UNL     1       2.063 -24.910  26.161  1.00  0.00    -0.394 OA
ATOM     50  H   UNL     1       2.650 -25.606  25.773  1.00  0.00     0.210 HD
ENDBRANCH  48  49
ENDBRANCH  42  48
BRANCH  43  51
ATOM     51  O   UNL     1       4.121 -27.070  28.759  1.00  0.00    -0.387 OA
ATOM     52  H   UNL     1       3.678 -27.888  28.409  1.00  0.00     0.211 HD
ENDBRANCH  43  51
ENDBRANCH  37  38
ENDBRANCH   5  37
BRANCH   7  53
ATOM     53  O   UNL     1      -2.493 -23.365  33.342  1.00  0.00    -0.507 OA
ATOM     54  H   UNL     1      -2.612 -22.741  34.132  1.00  0.00     0.293 HD
ENDBRANCH   7  53
TORSDOF 18
ENDMDL
