MODEL 1
REMARK VINA RESULT:    -3.192      0.000      0.000
REMARK INTER + INTRA:         -13.618
REMARK INTER:                  -8.045
REMARK INTRA:                  -5.573
REMARK UNBOUND:                -5.573
REMARK SMILES CCCCCCCCCCCCCCCCCCCCCCCCCCCC(=O)[O-]
REMARK SMILES IDX 15 1 16 2 17 3 18 4 19 5 20 6 21 7 22 8 23 9 24 10 25 11
REMARK SMILES IDX 26 12 27 13 28 14 29 15 30 16 14 17 13 18 12 19 11 20 10 21
REMARK SMILES IDX 9 22 8 23 7 24 6 25 5 26 4 27 3 28 2 29 1 30
REMARK H PARENT
REMARK Flexibility Score: inf
ROOT
ATOM      1  C   UNL     1      50.848  34.747  87.513  1.00  0.00     0.000 C 
ENDROOT
BRANCH   1   2
ATOM      2  C   UNL     1      51.954  35.756  87.855  1.00  0.00     0.000 C 
BRANCH   2   3
ATOM      3  C   UNL     1      53.275  35.065  88.237  1.00  0.00     0.000 C 
BRANCH   3   4
ATOM      4  C   UNL     1      53.870  34.256  87.070  1.00  0.00     0.000 C 
BRANCH   4   5
ATOM      5  C   UNL     1      54.108  32.777  87.442  1.00  0.00     0.000 C 
BRANCH   5   6
ATOM      6  C   UNL     1      53.677  31.778  86.352  1.00  0.00     0.000 C 
BRANCH   6   7
ATOM      7  C   UNL     1      52.558  32.325  85.451  1.00  0.00     0.000 C 
BRANCH   7   8
ATOM      8  C   UNL     1      53.033  32.657  84.022  1.00  0.00     0.000 C 
BRANCH   8   9
ATOM      9  C   UNL     1      52.510  33.985  83.438  1.00  0.00     0.000 C 
BRANCH   9  10
ATOM     10  C   UNL     1      51.165  34.426  84.038  1.00  0.00     0.000 C 
BRANCH  10  11
ATOM     11  C   UNL     1      50.076  34.644  82.970  1.00  0.00     0.000 C 
BRANCH  11  12
ATOM     12  C   UNL     1      48.625  34.566  83.489  1.00  0.00     0.006 C 
BRANCH  12  13
ATOM     13  C   UNL     1      47.729  33.570  82.734  1.00  0.00     0.053 C 
BRANCH  13  14
ATOM     14  C   UNL     1      47.845  32.176  83.271  1.00  0.00     0.041 C 
ATOM     15  O   UNL     1      46.993  31.735  84.087  1.00  0.00    -0.550 OA
ATOM     16  O   UNL     1      48.898  31.363  82.870  1.00  0.00    -0.550 OA
ENDBRANCH  13  14
ENDBRANCH  12  13
ENDBRANCH  11  12
ENDBRANCH  10  11
ENDBRANCH   9  10
ENDBRANCH   8   9
ENDBRANCH   7   8
ENDBRANCH   6   7
ENDBRANCH   5   6
ENDBRANCH   4   5
ENDBRANCH   3   4
ENDBRANCH   2   3
ENDBRANCH   1   2
BRANCH   1  17
ATOM     17  C   UNL     1      49.493  35.447  87.350  1.00  0.00     0.000 C 
BRANCH  17  18
ATOM     18  C   UNL     1      48.362  34.425  87.174  1.00  0.00     0.000 C 
BRANCH  18  19
ATOM     19  C   UNL     1      48.924  33.038  86.828  1.00  0.00     0.000 C 
BRANCH  19  20
ATOM     20  C   UNL     1      48.127  31.895  87.483  1.00  0.00     0.000 C 
BRANCH  20  21
ATOM     21  C   UNL     1      47.176  32.326  88.619  1.00  0.00     0.000 C 
BRANCH  21  22
ATOM     22  C   UNL     1      47.240  31.464  89.894  1.00  0.00    -0.000 C 
BRANCH  22  23
ATOM     23  C   UNL     1      47.515  29.982  89.595  1.00  0.00    -0.000 C 
BRANCH  23  24
ATOM     24  C   UNL     1      48.308  29.281  90.710  1.00  0.00    -0.000 C 
BRANCH  24  25
ATOM     25  C   UNL     1      49.800  29.662  90.712  1.00  0.00    -0.000 C 
BRANCH  25  26
ATOM     26  C   UNL     1      50.409  29.625  89.298  1.00  0.00    -0.000 C 
BRANCH  26  27
ATOM     27  C   UNL     1      51.342  30.817  89.017  1.00  0.00    -0.000 C 
BRANCH  27  28
ATOM     28  C   UNL     1      51.027  32.026  89.916  1.00  0.00    -0.000 C 
BRANCH  28  29
ATOM     29  C   UNL     1      52.267  32.524  90.677  1.00  0.00    -0.003 C 
ATOM     30  C   UNL     1      53.303  31.421  90.901  1.00  0.00     0.004 C 
ENDBRANCH  28  29
ENDBRANCH  27  28
ENDBRANCH  26  27
ENDBRANCH  25  26
ENDBRANCH  24  25
ENDBRANCH  23  24
ENDBRANCH  22  23
ENDBRANCH  21  22
ENDBRANCH  20  21
ENDBRANCH  19  20
ENDBRANCH  18  19
ENDBRANCH  17  18
ENDBRANCH   1  17
TORSDOF 26
ENDMDL
MODEL 2
REMARK VINA RESULT:    -3.186      3.028      6.748
REMARK INTER + INTRA:         -13.602
REMARK INTER:                  -8.944
REMARK INTRA:                  -4.657
REMARK UNBOUND:                -5.573
REMARK SMILES CCCCCCCCCCCCCCCCCCCCCCCCCCCC(=O)[O-]
REMARK SMILES IDX 15 1 16 2 17 3 18 4 19 5 20 6 21 7 22 8 23 9 24 10 25 11
REMARK SMILES IDX 26 12 27 13 28 14 29 15 30 16 14 17 13 18 12 19 11 20 10 21
REMARK SMILES IDX 9 22 8 23 7 24 6 25 5 26 4 27 3 28 2 29 1 30
REMARK H PARENT
REMARK Flexibility Score: inf
ROOT
ATOM      1  C   UNL     1      54.222  31.822  87.117  1.00  0.00     0.000 C 
ENDROOT
BRANCH   1   2
ATOM      2  C   UNL     1      55.152  32.622  88.040  1.00  0.00     0.000 C 
BRANCH   2   3
ATOM      3  C   UNL     1      55.312  31.962  89.421  1.00  0.00     0.000 C 
BRANCH   3   4
ATOM      4  C   UNL     1      54.827  32.874  90.564  1.00  0.00     0.000 C 
BRANCH   4   5
ATOM      5  C   UNL     1      53.377  33.360  90.353  1.00  0.00     0.000 C 
BRANCH   5   6
ATOM      6  C   UNL     1      52.307  32.310  90.701  1.00  0.00     0.000 C 
BRANCH   6   7
ATOM      7  C   UNL     1      51.452  31.905  89.489  1.00  0.00     0.000 C 
BRANCH   7   8
ATOM      8  C   UNL     1      50.433  30.791  89.806  1.00  0.00     0.000 C 
BRANCH   8   9
ATOM      9  C   UNL     1      49.263  31.200  90.724  1.00  0.00     0.000 C 
BRANCH   9  10
ATOM     10  C   UNL     1      47.891  31.105  90.037  1.00  0.00     0.000 C 
BRANCH  10  11
ATOM     11  C   UNL     1      46.924  30.148  90.760  1.00  0.00     0.000 C 
BRANCH  11  12
ATOM     12  C   UNL     1      45.480  30.670  90.914  1.00  0.00     0.006 C 
BRANCH  12  13
ATOM     13  C   UNL     1      44.444  29.589  91.264  1.00  0.00     0.053 C 
BRANCH  13  14
ATOM     14  C   UNL     1      43.608  29.961  92.451  1.00  0.00     0.041 C 
ATOM     15  O   UNL     1      43.755  31.081  93.008  1.00  0.00    -0.550 OA
ATOM     16  O   UNL     1      42.665  29.067  92.944  1.00  0.00    -0.550 OA
ENDBRANCH  13  14
ENDBRANCH  12  13
ENDBRANCH  11  12
ENDBRANCH  10  11
ENDBRANCH   9  10
ENDBRANCH   8   9
ENDBRANCH   7   8
ENDBRANCH   6   7
ENDBRANCH   5   6
ENDBRANCH   4   5
ENDBRANCH   3   4
ENDBRANCH   2   3
ENDBRANCH   1   2
BRANCH   1  17
ATOM     17  C   UNL     1      53.237  32.746  86.390  1.00  0.00     0.000 C 
BRANCH  17  18
ATOM     18  C   UNL     1      53.511  34.218  86.727  1.00  0.00     0.000 C 
BRANCH  18  19
ATOM     19  C   UNL     1      52.266  35.080  86.476  1.00  0.00     0.000 C 
BRANCH  19  20
ATOM     20  C   UNL     1      51.172  34.868  87.539  1.00  0.00     0.000 C 
BRANCH  20  21
ATOM     21  C   UNL     1      49.980  35.844  87.458  1.00  0.00     0.000 C 
BRANCH  21  22
ATOM     22  C   UNL     1      48.636  35.210  87.054  1.00  0.00    -0.000 C 
BRANCH  22  23
ATOM     23  C   UNL     1      48.516  33.743  87.496  1.00  0.00    -0.000 C 
BRANCH  23  24
ATOM     24  C   UNL     1      48.302  32.777  86.320  1.00  0.00    -0.000 C 
BRANCH  24  25
ATOM     25  C   UNL     1      49.553  31.940  85.998  1.00  0.00    -0.000 C 
BRANCH  25  26
ATOM     26  C   UNL     1      50.129  32.271  84.608  1.00  0.00    -0.000 C 
BRANCH  26  27
ATOM     27  C   UNL     1      49.421  33.460  83.934  1.00  0.00    -0.000 C 
BRANCH  27  28
ATOM     28  C   UNL     1      50.421  34.470  83.340  1.00  0.00    -0.000 C 
BRANCH  28  29
ATOM     29  C   UNL     1      51.544  33.778  82.548  1.00  0.00    -0.003 C 
ATOM     30  C   UNL     1      52.936  34.250  82.968  1.00  0.00     0.004 C 
ENDBRANCH  28  29
ENDBRANCH  27  28
ENDBRANCH  26  27
ENDBRANCH  25  26
ENDBRANCH  24  25
ENDBRANCH  23  24
ENDBRANCH  22  23
ENDBRANCH  21  22
ENDBRANCH  20  21
ENDBRANCH  19  20
ENDBRANCH  18  19
ENDBRANCH  17  18
ENDBRANCH   1  17
TORSDOF 26
ENDMDL
MODEL 3
REMARK VINA RESULT:    -3.137      2.833      7.480
REMARK INTER + INTRA:         -13.479
REMARK INTER:                  -8.443
REMARK INTRA:                  -5.036
REMARK UNBOUND:                -5.573
REMARK SMILES CCCCCCCCCCCCCCCCCCCCCCCCCCCC(=O)[O-]
REMARK SMILES IDX 15 1 16 2 17 3 18 4 19 5 20 6 21 7 22 8 23 9 24 10 25 11
REMARK SMILES IDX 26 12 27 13 28 14 29 15 30 16 14 17 13 18 12 19 11 20 10 21
REMARK SMILES IDX 9 22 8 23 7 24 6 25 5 26 4 27 3 28 2 29 1 30
REMARK H PARENT
REMARK Flexibility Score: inf
ROOT
ATOM      1  C   UNL     1      48.144  32.444  87.002  1.00  0.00     0.000 C 
ENDROOT
BRANCH   1   2
ATOM      2  C   UNL     1      47.407  31.385  87.835  1.00  0.00     0.000 C 
BRANCH   2   3
ATOM      3  C   UNL     1      46.724  31.989  89.074  1.00  0.00     0.000 C 
BRANCH   3   4
ATOM      4  C   UNL     1      47.041  31.201  90.359  1.00  0.00     0.000 C 
BRANCH   4   5
ATOM      5  C   UNL     1      47.793  29.884  90.069  1.00  0.00     0.000 C 
BRANCH   5   6
ATOM      6  C   UNL     1      49.182  29.798  90.727  1.00  0.00     0.000 C 
BRANCH   6   7
ATOM      7  C   UNL     1      49.766  31.178  91.074  1.00  0.00     0.000 C 
BRANCH   7   8
ATOM      8  C   UNL     1      50.726  31.722  89.997  1.00  0.00     0.000 C 
BRANCH   8   9
ATOM      9  C   UNL     1      51.354  30.663  89.067  1.00  0.00     0.000 C 
BRANCH   9  10
ATOM     10  C   UNL     1      51.522  31.150  87.619  1.00  0.00     0.000 C 
BRANCH  10  11
ATOM     11  C   UNL     1      52.987  31.470  87.261  1.00  0.00     0.000 C 
BRANCH  11  12
ATOM     12  C   UNL     1      54.027  31.046  88.319  1.00  0.00     0.006 C 
BRANCH  12  13
ATOM     13  C   UNL     1      54.836  32.207  88.921  1.00  0.00     0.053 C 
BRANCH  13  14
ATOM     14  C   UNL     1      54.300  32.651  90.247  1.00  0.00     0.041 C 
ATOM     15  O   UNL     1      54.146  31.821  91.182  1.00  0.00    -0.550 OA
ATOM     16  O   UNL     1      53.965  33.984  90.450  1.00  0.00    -0.550 OA
ENDBRANCH  13  14
ENDBRANCH  12  13
ENDBRANCH  11  12
ENDBRANCH  10  11
ENDBRANCH   9  10
ENDBRANCH   8   9
ENDBRANCH   7   8
ENDBRANCH   6   7
ENDBRANCH   5   6
ENDBRANCH   4   5
ENDBRANCH   3   4
ENDBRANCH   2   3
ENDBRANCH   1   2
BRANCH   1  17
ATOM     17  C   UNL     1      48.461  33.686  87.845  1.00  0.00     0.000 C 
BRANCH  17  18
ATOM     18  C   UNL     1      48.554  34.940  86.965  1.00  0.00     0.000 C 
BRANCH  18  19
ATOM     19  C   UNL     1      49.885  35.671  87.188  1.00  0.00     0.000 C 
BRANCH  19  20
ATOM     20  C   UNL     1      50.975  34.755  87.776  1.00  0.00     0.000 C 
BRANCH  20  21
ATOM     21  C   UNL     1      52.426  35.207  87.508  1.00  0.00     0.000 C 
BRANCH  21  22
ATOM     22  C   UNL     1      52.818  35.311  86.023  1.00  0.00    -0.000 C 
BRANCH  22  23
ATOM     23  C   UNL     1      52.594  33.999  85.255  1.00  0.00    -0.000 C 
BRANCH  23  24
ATOM     24  C   UNL     1      51.781  34.188  83.964  1.00  0.00    -0.000 C 
BRANCH  24  25
ATOM     25  C   UNL     1      50.339  33.665  84.083  1.00  0.00    -0.000 C 
BRANCH  25  26
ATOM     26  C   UNL     1      49.316  34.641  83.471  1.00  0.00    -0.000 C 
BRANCH  26  27
ATOM     27  C   UNL     1      48.810  34.191  82.088  1.00  0.00    -0.000 C 
BRANCH  27  28
ATOM     28  C   UNL     1      49.535  34.916  80.940  1.00  0.00    -0.000 C 
BRANCH  28  29
ATOM     29  C   UNL     1      50.712  34.096  80.385  1.00  0.00    -0.003 C 
ATOM     30  C   UNL     1      52.019  34.889  80.353  1.00  0.00     0.004 C 
ENDBRANCH  28  29
ENDBRANCH  27  28
ENDBRANCH  26  27
ENDBRANCH  25  26
ENDBRANCH  24  25
ENDBRANCH  23  24
ENDBRANCH  22  23
ENDBRANCH  21  22
ENDBRANCH  20  21
ENDBRANCH  19  20
ENDBRANCH  18  19
ENDBRANCH  17  18
ENDBRANCH   1  17
TORSDOF 26
ENDMDL
MODEL 4
REMARK VINA RESULT:    -3.112      2.830      7.178
REMARK INTER + INTRA:         -13.414
REMARK INTER:                  -8.635
REMARK INTRA:                  -4.779
REMARK UNBOUND:                -5.573
REMARK SMILES CCCCCCCCCCCCCCCCCCCCCCCCCCCC(=O)[O-]
REMARK SMILES IDX 15 1 16 2 17 3 18 4 19 5 20 6 21 7 22 8 23 9 24 10 25 11
REMARK SMILES IDX 26 12 27 13 28 14 29 15 30 16 14 17 13 18 12 19 11 20 10 21
REMARK SMILES IDX 9 22 8 23 7 24 6 25 5 26 4 27 3 28 2 29 1 30
REMARK H PARENT
REMARK Flexibility Score: inf
ROOT
ATOM      1  C   UNL     1      52.197  30.664  88.055  1.00  0.00     0.000 C 
ENDROOT
BRANCH   1   2
ATOM      2  C   UNL     1      50.910  31.502  88.067  1.00  0.00     0.000 C 
BRANCH   2   3
ATOM      3  C   UNL     1      50.824  32.419  89.300  1.00  0.00     0.000 C 
BRANCH   3   4
ATOM      4  C   UNL     1      52.094  32.352  90.168  1.00  0.00     0.000 C 
BRANCH   4   5
ATOM      5  C   UNL     1      51.778  32.053  91.649  1.00  0.00     0.000 C 
BRANCH   5   6
ATOM      6  C   UNL     1      50.489  31.240  91.864  1.00  0.00     0.000 C 
BRANCH   6   7
ATOM      7  C   UNL     1      50.709  29.725  91.726  1.00  0.00     0.000 C 
BRANCH   7   8
ATOM      8  C   UNL     1      49.844  29.080  90.624  1.00  0.00     0.000 C 
BRANCH   8   9
ATOM      9  C   UNL     1      48.347  28.922  90.958  1.00  0.00     0.000 C 
BRANCH   9  10
ATOM     10  C   UNL     1      47.419  29.517  89.886  1.00  0.00     0.000 C 
BRANCH  10  11
ATOM     11  C   UNL     1      47.405  31.058  89.895  1.00  0.00     0.000 C 
BRANCH  11  12
ATOM     12  C   UNL     1      46.281  31.697  90.737  1.00  0.00     0.006 C 
BRANCH  12  13
ATOM     13  C   UNL     1      45.038  30.810  90.922  1.00  0.00     0.053 C 
BRANCH  13  14
ATOM     14  C   UNL     1      44.231  31.200  92.122  1.00  0.00     0.041 C 
ATOM     15  O   UNL     1      44.253  32.385  92.547  1.00  0.00    -0.550 OA
ATOM     16  O   UNL     1      43.455  30.250  92.776  1.00  0.00    -0.550 OA
ENDBRANCH  13  14
ENDBRANCH  12  13
ENDBRANCH  11  12
ENDBRANCH  10  11
ENDBRANCH   9  10
ENDBRANCH   8   9
ENDBRANCH   7   8
ENDBRANCH   6   7
ENDBRANCH   5   6
ENDBRANCH   4   5
ENDBRANCH   3   4
ENDBRANCH   2   3
ENDBRANCH   1   2
BRANCH   1  17
ATOM     17  C   UNL     1      53.039  30.964  86.808  1.00  0.00     0.000 C 
BRANCH  17  18
ATOM     18  C   UNL     1      52.457  32.145  86.021  1.00  0.00     0.000 C 
BRANCH  18  19
ATOM     19  C   UNL     1      53.484  33.279  85.890  1.00  0.00     0.000 C 
BRANCH  19  20
ATOM     20  C   UNL     1      53.755  33.993  87.227  1.00  0.00     0.000 C 
BRANCH  20  21
ATOM     21  C   UNL     1      53.166  35.415  87.342  1.00  0.00     0.000 C 
BRANCH  21  22
ATOM     22  C   UNL     1      51.740  35.492  87.918  1.00  0.00    -0.000 C 
BRANCH  22  23
ATOM     23  C   UNL     1      50.656  35.429  86.830  1.00  0.00    -0.000 C 
BRANCH  23  24
ATOM     24  C   UNL     1      49.248  35.192  87.398  1.00  0.00    -0.000 C 
BRANCH  24  25
ATOM     25  C   UNL     1      48.505  34.041  86.696  1.00  0.00    -0.000 C 
BRANCH  25  26
ATOM     26  C   UNL     1      49.086  33.742  85.301  1.00  0.00    -0.000 C 
BRANCH  26  27
ATOM     27  C   UNL     1      48.568  34.704  84.217  1.00  0.00    -0.000 C 
BRANCH  27  28
ATOM     28  C   UNL     1      49.504  34.759  82.995  1.00  0.00    -0.000 C 
BRANCH  28  29
ATOM     29  C   UNL     1      50.950  34.377  83.353  1.00  0.00    -0.003 C 
ATOM     30  C   UNL     1      51.512  33.284  82.443  1.00  0.00     0.004 C 
ENDBRANCH  28  29
ENDBRANCH  27  28
ENDBRANCH  26  27
ENDBRANCH  25  26
ENDBRANCH  24  25
ENDBRANCH  23  24
ENDBRANCH  22  23
ENDBRANCH  21  22
ENDBRANCH  20  21
ENDBRANCH  19  20
ENDBRANCH  18  19
ENDBRANCH  17  18
ENDBRANCH   1  17
TORSDOF 26
ENDMDL
MODEL 5
REMARK VINA RESULT:    -3.078      2.214      7.011
REMARK INTER + INTRA:         -13.328
REMARK INTER:                  -8.008
REMARK INTRA:                  -5.320
REMARK UNBOUND:                -5.573
REMARK SMILES CCCCCCCCCCCCCCCCCCCCCCCCCCCC(=O)[O-]
REMARK SMILES IDX 15 1 16 2 17 3 18 4 19 5 20 6 21 7 22 8 23 9 24 10 25 11
REMARK SMILES IDX 26 12 27 13 28 14 29 15 30 16 14 17 13 18 12 19 11 20 10 21
REMARK SMILES IDX 9 22 8 23 7 24 6 25 5 26 4 27 3 28 2 29 1 30
REMARK H PARENT
REMARK Flexibility Score: inf
ROOT
ATOM      1  C   UNL     1      50.424  31.435  86.420  1.00  0.00     0.000 C 
ENDROOT
BRANCH   1   2
ATOM      2  C   UNL     1      51.774  31.405  87.151  1.00  0.00     0.000 C 
BRANCH   2   3
ATOM      3  C   UNL     1      52.916  30.913  86.245  1.00  0.00     0.000 C 
BRANCH   3   4
ATOM      4  C   UNL     1      54.251  31.618  86.554  1.00  0.00     0.000 C 
BRANCH   4   5
ATOM      5  C   UNL     1      54.485  31.795  88.069  1.00  0.00     0.000 C 
BRANCH   5   6
ATOM      6  C   UNL     1      54.659  33.259  88.510  1.00  0.00     0.000 C 
BRANCH   6   7
ATOM      7  C   UNL     1      53.847  33.605  89.769  1.00  0.00     0.000 C 
BRANCH   7   8
ATOM      8  C   UNL     1      53.410  32.364  90.573  1.00  0.00     0.000 C 
BRANCH   8   9
ATOM      9  C   UNL     1      51.932  32.341  91.012  1.00  0.00     0.000 C 
BRANCH   9  10
ATOM     10  C   UNL     1      51.202  31.046  90.620  1.00  0.00     0.000 C 
BRANCH  10  11
ATOM     11  C   UNL     1      49.819  30.913  91.287  1.00  0.00     0.000 C 
BRANCH  11  12
ATOM     12  C   UNL     1      48.616  31.172  90.355  1.00  0.00     0.006 C 
BRANCH  12  13
ATOM     13  C   UNL     1      47.457  30.173  90.515  1.00  0.00     0.053 C 
BRANCH  13  14
ATOM     14  C   UNL     1      46.124  30.852  90.597  1.00  0.00     0.041 C 
ATOM     15  O   UNL     1      45.233  30.415  91.373  1.00  0.00    -0.550 OA
ATOM     16  O   UNL     1      45.864  31.969  89.812  1.00  0.00    -0.550 OA
ENDBRANCH  13  14
ENDBRANCH  12  13
ENDBRANCH  11  12
ENDBRANCH  10  11
ENDBRANCH   9  10
ENDBRANCH   8   9
ENDBRANCH   7   8
ENDBRANCH   6   7
ENDBRANCH   5   6
ENDBRANCH   4   5
ENDBRANCH   3   4
ENDBRANCH   2   3
ENDBRANCH   1   2
BRANCH   1  17
ATOM     17  C   UNL     1      49.501  32.511  87.007  1.00  0.00     0.000 C 
BRANCH  17  18
ATOM     18  C   UNL     1      50.288  33.490  87.889  1.00  0.00     0.000 C 
BRANCH  18  19
ATOM     19  C   UNL     1      50.413  34.861  87.211  1.00  0.00     0.000 C 
BRANCH  19  20
ATOM     20  C   UNL     1      51.847  35.420  87.261  1.00  0.00     0.000 C 
BRANCH  20  21
ATOM     21  C   UNL     1      52.752  35.011  86.080  1.00  0.00     0.000 C 
BRANCH  21  22
ATOM     22  C   UNL     1      52.010  34.545  84.814  1.00  0.00    -0.000 C 
BRANCH  22  23
ATOM     23  C   UNL     1      52.910  33.743  83.860  1.00  0.00    -0.000 C 
BRANCH  23  24
ATOM     24  C   UNL     1      53.096  34.424  82.495  1.00  0.00    -0.000 C 
BRANCH  24  25
ATOM     25  C   UNL     1      52.308  33.732  81.368  1.00  0.00    -0.000 C 
BRANCH  25  26
ATOM     26  C   UNL     1      51.239  34.657  80.756  1.00  0.00    -0.000 C 
BRANCH  26  27
ATOM     27  C   UNL     1      49.915  34.646  81.542  1.00  0.00    -0.000 C 
BRANCH  27  28
ATOM     28  C   UNL     1      49.592  33.253  82.114  1.00  0.00    -0.000 C 
BRANCH  28  29
ATOM     29  C   UNL     1      48.801  33.335  83.430  1.00  0.00    -0.003 C 
ATOM     30  C   UNL     1      48.533  34.775  83.868  1.00  0.00     0.004 C 
ENDBRANCH  28  29
ENDBRANCH  27  28
ENDBRANCH  26  27
ENDBRANCH  25  26
ENDBRANCH  24  25
ENDBRANCH  23  24
ENDBRANCH  22  23
ENDBRANCH  21  22
ENDBRANCH  20  21
ENDBRANCH  19  20
ENDBRANCH  18  19
ENDBRANCH  17  18
ENDBRANCH   1  17
TORSDOF 26
ENDMDL
MODEL 6
REMARK VINA RESULT:    -3.063      2.901      6.865
REMARK INTER + INTRA:         -13.291
REMARK INTER:                  -7.689
REMARK INTRA:                  -5.602
REMARK UNBOUND:                -5.573
REMARK SMILES CCCCCCCCCCCCCCCCCCCCCCCCCCCC(=O)[O-]
REMARK SMILES IDX 15 1 16 2 17 3 18 4 19 5 20 6 21 7 22 8 23 9 24 10 25 11
REMARK SMILES IDX 26 12 27 13 28 14 29 15 30 16 14 17 13 18 12 19 11 20 10 21
REMARK SMILES IDX 9 22 8 23 7 24 6 25 5 26 4 27 3 28 2 29 1 30
REMARK H PARENT
REMARK Flexibility Score: inf
ROOT
ATOM      1  C   UNL     1      51.024  34.889  87.634  1.00  0.00     0.000 C 
ENDROOT
BRANCH   1   2
ATOM      2  C   UNL     1      49.817  35.687  87.121  1.00  0.00     0.000 C 
BRANCH   2   3
ATOM      3  C   UNL     1      48.549  34.821  87.014  1.00  0.00     0.000 C 
BRANCH   3   4
ATOM      4  C   UNL     1      48.755  33.410  87.597  1.00  0.00     0.000 C 
BRANCH   4   5
ATOM      5  C   UNL     1      47.832  32.362  86.938  1.00  0.00     0.000 C 
BRANCH   5   6
ATOM      6  C   UNL     1      47.261  31.324  87.920  1.00  0.00     0.000 C 
BRANCH   6   7
ATOM      7  C   UNL     1      46.648  31.964  89.176  1.00  0.00     0.000 C 
BRANCH   7   8
ATOM      8  C   UNL     1      47.139  31.321  90.489  1.00  0.00     0.000 C 
BRANCH   8   9
ATOM      9  C   UNL     1      48.310  30.327  90.348  1.00  0.00     0.000 C 
BRANCH   9  10
ATOM     10  C   UNL     1      49.612  30.827  90.993  1.00  0.00     0.000 C 
BRANCH  10  11
ATOM     11  C   UNL     1      50.790  30.880  90.000  1.00  0.00     0.000 C 
BRANCH  11  12
ATOM     12  C   UNL     1      51.469  32.258  89.862  1.00  0.00     0.006 C 
BRANCH  12  13
ATOM     13  C   UNL     1      52.858  32.223  89.202  1.00  0.00     0.053 C 
BRANCH  13  14
ATOM     14  C   UNL     1      53.887  32.968  89.996  1.00  0.00     0.041 C 
ATOM     15  O   UNL     1      54.012  34.214  89.867  1.00  0.00    -0.550 OA
ATOM     16  O   UNL     1      54.713  32.282  90.879  1.00  0.00    -0.550 OA
ENDBRANCH  13  14
ENDBRANCH  12  13
ENDBRANCH  11  12
ENDBRANCH  10  11
ENDBRANCH   9  10
ENDBRANCH   8   9
ENDBRANCH   7   8
ENDBRANCH   6   7
ENDBRANCH   5   6
ENDBRANCH   4   5
ENDBRANCH   3   4
ENDBRANCH   2   3
ENDBRANCH   1   2
BRANCH   1  17
ATOM     17  C   UNL     1      52.323  35.368  86.973  1.00  0.00     0.000 C 
BRANCH  17  18
ATOM     18  C   UNL     1      52.942  34.261  86.109  1.00  0.00     0.000 C 
BRANCH  18  19
ATOM     19  C   UNL     1      53.076  34.714  84.648  1.00  0.00     0.000 C 
BRANCH  19  20
ATOM     20  C   UNL     1      52.169  33.916  83.694  1.00  0.00     0.000 C 
BRANCH  20  21
ATOM     21  C   UNL     1      50.658  34.198  83.836  1.00  0.00     0.000 C 
BRANCH  21  22
ATOM     22  C   UNL     1      49.761  32.950  83.923  1.00  0.00    -0.000 C 
BRANCH  22  23
ATOM     23  C   UNL     1      50.565  31.640  83.939  1.00  0.00    -0.000 C 
BRANCH  23  24
ATOM     24  C   UNL     1      50.487  30.905  85.286  1.00  0.00    -0.000 C 
BRANCH  24  25
ATOM     25  C   UNL     1      51.849  30.814  85.998  1.00  0.00    -0.000 C 
BRANCH  25  26
ATOM     26  C   UNL     1      52.935  30.199  85.095  1.00  0.00    -0.000 C 
BRANCH  26  27
ATOM     27  C   UNL     1      54.217  31.049  85.036  1.00  0.00    -0.000 C 
BRANCH  27  28
ATOM     28  C   UNL     1      54.944  30.908  83.686  1.00  0.00    -0.000 C 
BRANCH  28  29
ATOM     29  C   UNL     1      54.024  30.354  82.585  1.00  0.00    -0.003 C 
ATOM     30  C   UNL     1      53.651  31.409  81.543  1.00  0.00     0.004 C 
ENDBRANCH  28  29
ENDBRANCH  27  28
ENDBRANCH  26  27
ENDBRANCH  25  26
ENDBRANCH  24  25
ENDBRANCH  23  24
ENDBRANCH  22  23
ENDBRANCH  21  22
ENDBRANCH  20  21
ENDBRANCH  19  20
ENDBRANCH  18  19
ENDBRANCH  17  18
ENDBRANCH   1  17
TORSDOF 26
ENDMDL
MODEL 7
REMARK VINA RESULT:    -3.032      1.638      4.003
REMARK INTER + INTRA:         -13.214
REMARK INTER:                  -7.770
REMARK INTRA:                  -5.443
REMARK UNBOUND:                -5.573
REMARK SMILES CCCCCCCCCCCCCCCCCCCCCCCCCCCC(=O)[O-]
REMARK SMILES IDX 15 1 16 2 17 3 18 4 19 5 20 6 21 7 22 8 23 9 24 10 25 11
REMARK SMILES IDX 26 12 27 13 28 14 29 15 30 16 14 17 13 18 12 19 11 20 10 21
REMARK SMILES IDX 9 22 8 23 7 24 6 25 5 26 4 27 3 28 2 29 1 30
REMARK H PARENT
REMARK Flexibility Score: inf
ROOT
ATOM      1  C   UNL     1      48.260  32.722  86.499  1.00  0.00     0.000 C 
ENDROOT
BRANCH   1   2
ATOM      2  C   UNL     1      49.623  32.049  86.281  1.00  0.00     0.000 C 
BRANCH   2   3
ATOM      3  C   UNL     1      49.848  31.651  84.812  1.00  0.00     0.000 C 
BRANCH   3   4
ATOM      4  C   UNL     1      51.122  32.285  84.223  1.00  0.00     0.000 C 
BRANCH   4   5
ATOM      5  C   UNL     1      51.156  33.817  84.411  1.00  0.00     0.000 C 
BRANCH   5   6
ATOM      6  C   UNL     1      52.497  34.466  84.024  1.00  0.00     0.000 C 
BRANCH   6   7
ATOM      7  C   UNL     1      53.428  33.508  83.264  1.00  0.00     0.000 C 
BRANCH   7   8
ATOM      8  C   UNL     1      53.378  33.694  81.734  1.00  0.00     0.000 C 
BRANCH   8   9
ATOM      9  C   UNL     1      52.606  32.609  80.955  1.00  0.00     0.000 C 
BRANCH   9  10
ATOM     10  C   UNL     1      51.325  33.136  80.289  1.00  0.00     0.000 C 
BRANCH  10  11
ATOM     11  C   UNL     1      51.011  34.597  80.667  1.00  0.00     0.000 C 
BRANCH  11  12
ATOM     12  C   UNL     1      49.564  34.855  81.135  1.00  0.00     0.006 C 
BRANCH  12  13
ATOM     13  C   UNL     1      48.722  33.584  81.337  1.00  0.00     0.053 C 
BRANCH  13  14
ATOM     14  C   UNL     1      47.861  33.657  82.562  1.00  0.00     0.041 C 
ATOM     15  O   UNL     1      47.965  34.628  83.356  1.00  0.00    -0.550 OA
ATOM     16  O   UNL     1      46.944  32.647  82.827  1.00  0.00    -0.550 OA
ENDBRANCH  13  14
ENDBRANCH  12  13
ENDBRANCH  11  12
ENDBRANCH  10  11
ENDBRANCH   9  10
ENDBRANCH   8   9
ENDBRANCH   7   8
ENDBRANCH   6   7
ENDBRANCH   5   6
ENDBRANCH   4   5
ENDBRANCH   3   4
ENDBRANCH   2   3
ENDBRANCH   1   2
BRANCH   1  17
ATOM     17  C   UNL     1      48.367  33.875  87.504  1.00  0.00     0.000 C 
BRANCH  17  18
ATOM     18  C   UNL     1      48.647  35.204  86.790  1.00  0.00     0.000 C 
BRANCH  18  19
ATOM     19  C   UNL     1      49.817  35.948  87.450  1.00  0.00     0.000 C 
BRANCH  19  20
ATOM     20  C   UNL     1      51.033  35.036  87.703  1.00  0.00     0.000 C 
BRANCH  20  21
ATOM     21  C   UNL     1      52.380  35.771  87.867  1.00  0.00     0.000 C 
BRANCH  21  22
ATOM     22  C   UNL     1      53.615  34.999  87.368  1.00  0.00    -0.000 C 
BRANCH  22  23
ATOM     23  C   UNL     1      53.714  33.587  87.964  1.00  0.00    -0.000 C 
BRANCH  23  24
ATOM     24  C   UNL     1      53.872  32.493  86.896  1.00  0.00    -0.000 C 
BRANCH  24  25
ATOM     25  C   UNL     1      53.051  31.229  87.207  1.00  0.00    -0.000 C 
BRANCH  25  26
ATOM     26  C   UNL     1      53.034  30.905  88.713  1.00  0.00    -0.000 C 
BRANCH  26  27
ATOM     27  C   UNL     1      51.623  30.589  89.242  1.00  0.00    -0.000 C 
BRANCH  27  28
ATOM     28  C   UNL     1      50.910  31.844  89.779  1.00  0.00    -0.000 C 
BRANCH  28  29
ATOM     29  C   UNL     1      50.206  31.582  91.121  1.00  0.00    -0.003 C 
ATOM     30  C   UNL     1      51.065  31.976  92.323  1.00  0.00     0.004 C 
ENDBRANCH  28  29
ENDBRANCH  27  28
ENDBRANCH  26  27
ENDBRANCH  25  26
ENDBRANCH  24  25
ENDBRANCH  23  24
ENDBRANCH  22  23
ENDBRANCH  21  22
ENDBRANCH  20  21
ENDBRANCH  19  20
ENDBRANCH  18  19
ENDBRANCH  17  18
ENDBRANCH   1  17
TORSDOF 26
ENDMDL
MODEL 8
REMARK VINA RESULT:    -3.016      1.257      2.790
REMARK INTER + INTRA:         -13.172
REMARK INTER:                  -7.637
REMARK INTRA:                  -5.535
REMARK UNBOUND:                -5.573
REMARK SMILES CCCCCCCCCCCCCCCCCCCCCCCCCCCC(=O)[O-]
REMARK SMILES IDX 15 1 16 2 17 3 18 4 19 5 20 6 21 7 22 8 23 9 24 10 25 11
REMARK SMILES IDX 26 12 27 13 28 14 29 15 30 16 14 17 13 18 12 19 11 20 10 21
REMARK SMILES IDX 9 22 8 23 7 24 6 25 5 26 4 27 3 28 2 29 1 30
REMARK H PARENT
REMARK Flexibility Score: inf
ROOT
ATOM      1  C   UNL     1      51.675  31.307  85.477  1.00  0.00     0.000 C 
ENDROOT
BRANCH   1   2
ATOM      2  C   UNL     1      53.079  31.891  85.265  1.00  0.00     0.000 C 
BRANCH   2   3
ATOM      3  C   UNL     1      53.070  33.103  84.317  1.00  0.00     0.000 C 
BRANCH   3   4
ATOM      4  C   UNL     1      53.110  34.441  85.078  1.00  0.00     0.000 C 
BRANCH   4   5
ATOM      5  C   UNL     1      53.569  34.270  86.542  1.00  0.00     0.000 C 
BRANCH   5   6
ATOM      6  C   UNL     1      52.879  35.227  87.532  1.00  0.00     0.000 C 
BRANCH   6   7
ATOM      7  C   UNL     1      51.441  34.802  87.870  1.00  0.00     0.000 C 
BRANCH   7   8
ATOM      8  C   UNL     1      50.373  35.758  87.304  1.00  0.00     0.000 C 
BRANCH   8   9
ATOM      9  C   UNL     1      48.961  35.159  87.137  1.00  0.00     0.000 C 
BRANCH   9  10
ATOM     10  C   UNL     1      48.562  34.947  85.668  1.00  0.00     0.000 C 
BRANCH  10  11
ATOM     11  C   UNL     1      49.755  34.560  84.773  1.00  0.00     0.000 C 
BRANCH  11  12
ATOM     12  C   UNL     1      49.392  33.745  83.514  1.00  0.00     0.006 C 
BRANCH  12  13
ATOM     13  C   UNL     1      47.933  33.262  83.465  1.00  0.00     0.053 C 
BRANCH  13  14
ATOM     14  C   UNL     1      47.732  32.149  82.483  1.00  0.00     0.041 C 
ATOM     15  O   UNL     1      47.151  32.364  81.386  1.00  0.00    -0.550 OA
ATOM     16  O   UNL     1      48.185  30.869  82.781  1.00  0.00    -0.550 OA
ENDBRANCH  13  14
ENDBRANCH  12  13
ENDBRANCH  11  12
ENDBRANCH  10  11
ENDBRANCH   9  10
ENDBRANCH   8   9
ENDBRANCH   7   8
ENDBRANCH   6   7
ENDBRANCH   5   6
ENDBRANCH   4   5
ENDBRANCH   3   4
ENDBRANCH   2   3
ENDBRANCH   1   2
BRANCH   1  17
ATOM     17  C   UNL     1      51.400  31.055  86.965  1.00  0.00     0.000 C 
BRANCH  17  18
ATOM     18  C   UNL     1      50.030  31.611  87.374  1.00  0.00     0.000 C 
BRANCH  18  19
ATOM     19  C   UNL     1      48.954  31.234  86.345  1.00  0.00     0.000 C 
BRANCH  19  20
ATOM     20  C   UNL     1      47.525  31.484  86.861  1.00  0.00     0.000 C 
BRANCH  20  21
ATOM     21  C   UNL     1      47.437  32.220  88.214  1.00  0.00     0.000 C 
BRANCH  21  22
ATOM     22  C   UNL     1      46.366  31.687  89.184  1.00  0.00    -0.000 C 
BRANCH  22  23
ATOM     23  C   UNL     1      46.946  31.298  90.553  1.00  0.00    -0.000 C 
BRANCH  23  24
ATOM     24  C   UNL     1      48.183  30.392  90.446  1.00  0.00    -0.000 C 
BRANCH  24  25
ATOM     25  C   UNL     1      49.463  31.060  90.979  1.00  0.00    -0.000 C 
BRANCH  25  26
ATOM     26  C   UNL     1      50.614  30.051  91.152  1.00  0.00    -0.000 C 
BRANCH  26  27
ATOM     27  C   UNL     1      52.001  30.681  90.932  1.00  0.00    -0.000 C 
BRANCH  27  28
ATOM     28  C   UNL     1      52.013  32.186  91.257  1.00  0.00    -0.000 C 
BRANCH  28  29
ATOM     29  C   UNL     1      53.169  32.922  90.558  1.00  0.00    -0.003 C 
ATOM     30  C   UNL     1      53.910  32.038  89.555  1.00  0.00     0.004 C 
ENDBRANCH  28  29
ENDBRANCH  27  28
ENDBRANCH  26  27
ENDBRANCH  25  26
ENDBRANCH  24  25
ENDBRANCH  23  24
ENDBRANCH  22  23
ENDBRANCH  21  22
ENDBRANCH  20  21
ENDBRANCH  19  20
ENDBRANCH  18  19
ENDBRANCH  17  18
ENDBRANCH   1  17
TORSDOF 26
ENDMDL
MODEL 9
REMARK VINA RESULT:    -3.009      2.802      6.267
REMARK INTER + INTRA:         -13.156
REMARK INTER:                  -7.798
REMARK INTRA:                  -5.358
REMARK UNBOUND:                -5.573
REMARK SMILES CCCCCCCCCCCCCCCCCCCCCCCCCCCC(=O)[O-]
REMARK SMILES IDX 15 1 16 2 17 3 18 4 19 5 20 6 21 7 22 8 23 9 24 10 25 11
REMARK SMILES IDX 26 12 27 13 28 14 29 15 30 16 14 17 13 18 12 19 11 20 10 21
REMARK SMILES IDX 9 22 8 23 7 24 6 25 5 26 4 27 3 28 2 29 1 30
REMARK H PARENT
REMARK Flexibility Score: inf
ROOT
ATOM      1  C   UNL     1      51.044  34.574  87.480  1.00  0.00     0.000 C 
ENDROOT
BRANCH   1   2
ATOM      2  C   UNL     1      52.372  35.343  87.447  1.00  0.00     0.000 C 
BRANCH   2   3
ATOM      3  C   UNL     1      53.417  34.744  88.404  1.00  0.00     0.000 C 
BRANCH   3   4
ATOM      4  C   UNL     1      53.247  33.223  88.577  1.00  0.00     0.000 C 
BRANCH   4   5
ATOM      5  C   UNL     1      53.063  32.816  90.054  1.00  0.00     0.000 C 
BRANCH   5   6
ATOM      6  C   UNL     1      51.653  32.300  90.393  1.00  0.00     0.000 C 
BRANCH   6   7
ATOM      7  C   UNL     1      51.058  31.417  89.283  1.00  0.00     0.000 C 
BRANCH   7   8
ATOM      8  C   UNL     1      49.516  31.415  89.267  1.00  0.00     0.000 C 
BRANCH   8   9
ATOM      9  C   UNL     1      48.863  30.890  87.971  1.00  0.00     0.000 C 
BRANCH   9  10
ATOM     10  C   UNL     1      47.396  31.319  87.814  1.00  0.00     0.000 C 
BRANCH  10  11
ATOM     11  C   UNL     1      46.901  32.199  88.978  1.00  0.00     0.000 C 
BRANCH  11  12
ATOM     12  C   UNL     1      45.578  31.743  89.627  1.00  0.00     0.006 C 
BRANCH  12  13
ATOM     13  C   UNL     1      45.743  30.715  90.760  1.00  0.00     0.053 C 
BRANCH  13  14
ATOM     14  C   UNL     1      44.587  30.724  91.713  1.00  0.00     0.041 C 
ATOM     15  O   UNL     1      44.159  31.810  92.186  1.00  0.00    -0.550 OA
ATOM     16  O   UNL     1      43.982  29.528  92.082  1.00  0.00    -0.550 OA
ENDBRANCH  13  14
ENDBRANCH  12  13
ENDBRANCH  11  12
ENDBRANCH  10  11
ENDBRANCH   9  10
ENDBRANCH   8   9
ENDBRANCH   7   8
ENDBRANCH   6   7
ENDBRANCH   5   6
ENDBRANCH   4   5
ENDBRANCH   3   4
ENDBRANCH   2   3
ENDBRANCH   1   2
BRANCH   1  17
ATOM     17  C   UNL     1      49.848  35.536  87.466  1.00  0.00     0.000 C 
BRANCH  17  18
ATOM     18  C   UNL     1      48.602  34.857  86.882  1.00  0.00     0.000 C 
BRANCH  18  19
ATOM     19  C   UNL     1      48.975  33.937  85.711  1.00  0.00     0.000 C 
BRANCH  19  20
ATOM     20  C   UNL     1      48.582  34.527  84.344  1.00  0.00     0.000 C 
BRANCH  20  21
ATOM     21  C   UNL     1      49.703  34.529  83.284  1.00  0.00     0.000 C 
BRANCH  21  22
ATOM     22  C   UNL     1      51.137  34.499  83.844  1.00  0.00    -0.000 C 
BRANCH  22  23
ATOM     23  C   UNL     1      52.187  34.174  82.770  1.00  0.00    -0.000 C 
BRANCH  23  24
ATOM     24  C   UNL     1      53.176  33.081  83.208  1.00  0.00    -0.000 C 
BRANCH  24  25
ATOM     25  C   UNL     1      53.341  33.001  84.736  1.00  0.00    -0.000 C 
BRANCH  25  26
ATOM     26  C   UNL     1      53.139  31.569  85.266  1.00  0.00    -0.000 C 
BRANCH  26  27
ATOM     27  C   UNL     1      51.702  31.306  85.751  1.00  0.00    -0.000 C 
BRANCH  27  28
ATOM     28  C   UNL     1      51.178  29.932  85.296  1.00  0.00    -0.000 C 
BRANCH  28  29
ATOM     29  C   UNL     1      51.039  29.841  83.767  1.00  0.00    -0.003 C 
ATOM     30  C   UNL     1      50.065  30.875  83.201  1.00  0.00     0.004 C 
ENDBRANCH  28  29
ENDBRANCH  27  28
ENDBRANCH  26  27
ENDBRANCH  25  26
ENDBRANCH  24  25
ENDBRANCH  23  24
ENDBRANCH  22  23
ENDBRANCH  21  22
ENDBRANCH  20  21
ENDBRANCH  19  20
ENDBRANCH  18  19
ENDBRANCH  17  18
ENDBRANCH   1  17
TORSDOF 26
ENDMDL
