MODEL 1
REMARK VINA RESULT:    77.175      0.000      0.000
REMARK INTER + INTRA:         113.402
REMARK INTER:                 113.268
REMARK INTRA:                   0.134
REMARK UNBOUND:                 0.134
REMARK SMILES O=c1c(O[C@@H]2O[C@H](CO)[C@H](O)[C@@H](O)[C@H]2O)c(-c2ccc(O)c(O)c2)oc2cc(O)cc(O)c12
REMARK SMILES IDX 4 1 3 2 16 3 25 4 2 5 26 6 1 7 33 8 27 9 31 10 28 11 30 12
REMARK SMILES IDX 17 13 18 14 19 15 20 16 24 17 22 18 21 19 23 21 32 23 29 25
REMARK SMILES IDX 5 27 14 28 6 29 12 30 7 31 10 32 15 33 13 35 8 37 9 38 11 40
REMARK H PARENT 21 20 23 22 32 24 29 26 15 34 13 36 9 39 11 41
REMARK Flexibility Score: inf
ROOT
ATOM      1  O   UNL     1     -40.783  29.300 -22.592  1.00  0.00    -0.454 OA
ENDROOT
BRANCH   1   2
ATOM      2  C   UNL     1     -39.667  29.960 -23.145  1.00  0.00     0.214 A 
ATOM      3  C   UNL     1     -38.410  29.331 -23.062  1.00  0.00     0.180 A 
ATOM      4  O   UNL     1     -37.348  29.887 -23.631  1.00  0.00    -0.452 OA
ATOM      5  C   UNL     1     -39.751  31.208 -23.802  1.00  0.00     0.239 A 
ATOM      6  C   UNL     1     -37.382  31.057 -24.255  1.00  0.00     0.146 A 
ATOM      7  O   UNL     1     -40.869  31.766 -23.928  1.00  0.00    -0.285 OA
ATOM      8  C   UNL     1     -38.583  31.805 -24.334  1.00  0.00     0.111 A 
ATOM      9  C   UNL     1     -36.206  31.533 -24.841  1.00  0.00     0.094 A 
ATOM     10  C   UNL     1     -38.545  33.082 -24.973  1.00  0.00     0.134 A 
ATOM     11  C   UNL     1     -36.198  32.752 -25.519  1.00  0.00     0.123 A 
ATOM     12  C   UNL     1     -37.363  33.515 -25.584  1.00  0.00     0.093 A 
BRANCH   3  13
ATOM     13  C   UNL     1     -38.234  28.018 -22.404  1.00  0.00     0.025 A 
ATOM     14  C   UNL     1     -39.182  26.995 -22.552  1.00  0.00     0.016 A 
ATOM     15  C   UNL     1     -38.998  25.765 -21.920  1.00  0.00     0.051 A 
ATOM     16  C   UNL     1     -37.875  25.536 -21.116  1.00  0.00     0.157 A 
ATOM     17  C   UNL     1     -37.119  27.801 -21.581  1.00  0.00     0.062 A 
ATOM     18  C   UNL     1     -36.926  26.570 -20.940  1.00  0.00     0.158 A 
BRANCH  16  19
ATOM     19  O   UNL     1     -37.746  24.281 -20.517  1.00  0.00    -0.504 OA
ATOM     20  H   UNL     1     -37.669  24.137 -19.520  1.00  0.00     0.293 HD
ENDBRANCH  16  19
BRANCH  18  21
ATOM     21  O   UNL     1     -35.787  26.420 -20.145  1.00  0.00    -0.504 OA
ATOM     22  H   UNL     1     -35.699  25.737 -19.406  1.00  0.00     0.293 HD
ENDBRANCH  18  21
ENDBRANCH   3  13
BRANCH  10  23
ATOM     23  O   UNL     1     -39.626  33.969 -25.009  1.00  0.00    -0.507 OA
ATOM     24  H   UNL     1     -39.560  34.961 -24.838  1.00  0.00     0.293 HD
ENDBRANCH  10  23
BRANCH  11  25
ATOM     25  O   UNL     1     -35.034  33.221 -26.125  1.00  0.00    -0.508 OA
ATOM     26  H   UNL     1     -34.428  33.888 -25.662  1.00  0.00     0.293 HD
ENDBRANCH  11  25
ENDBRANCH   1   2
BRANCH   1  27
ATOM     27  C   UNL     1     -41.027  29.063 -21.202  1.00  0.00     0.339 C 
ATOM     28  C   UNL     1     -40.524  30.260 -20.371  1.00  0.00     0.214 C 
ATOM     29  O   UNL     1     -42.391  28.748 -20.947  1.00  0.00    -0.332 OA
ATOM     30  C   UNL     1     -41.437  31.480 -20.552  1.00  0.00     0.180 C 
ATOM     31  C   UNL     1     -43.295  29.835 -21.118  1.00  0.00     0.179 C 
ATOM     32  C   UNL     1     -42.900  31.088 -20.298  1.00  0.00     0.177 C 
BRANCH  28  33
ATOM     33  O   UNL     1     -40.382  29.919 -19.012  1.00  0.00    -0.384 OA
ATOM     34  H   UNL     1     -41.287  29.787 -18.626  1.00  0.00     0.211 HD
ENDBRANCH  28  33
BRANCH  30  35
ATOM     35  O   UNL     1     -41.040  32.492 -19.662  1.00  0.00    -0.387 OA
ATOM     36  H   UNL     1     -40.568  33.182 -20.199  1.00  0.00     0.211 HD
ENDBRANCH  30  35
BRANCH  31  37
ATOM     37  C   UNL     1     -43.606  30.125 -22.602  1.00  0.00     0.191 C 
BRANCH  37  38
ATOM     38  O   UNL     1     -43.134  31.393 -22.971  1.00  0.00    -0.394 OA
ATOM     39  H   UNL     1     -42.154  31.389 -22.817  1.00  0.00     0.210 HD
ENDBRANCH  37  38
ENDBRANCH  31  37
BRANCH  32  40
ATOM     40  O   UNL     1     -43.753  32.159 -20.619  1.00  0.00    -0.387 OA
ATOM     41  H   UNL     1     -43.215  32.991 -20.555  1.00  0.00     0.211 HD
ENDBRANCH  32  40
ENDBRANCH   1  27
TORSDOF 12
ENDMDL
MODEL 2
REMARK VINA RESULT:    77.451      1.626      6.464
REMARK INTER + INTRA:         113.807
REMARK INTER:                 109.399
REMARK INTRA:                   4.408
REMARK UNBOUND:                 0.134
REMARK SMILES O=c1c(O[C@@H]2O[C@H](CO)[C@H](O)[C@@H](O)[C@H]2O)c(-c2ccc(O)c(O)c2)oc2cc(O)cc(O)c12
REMARK SMILES IDX 4 1 3 2 16 3 25 4 2 5 26 6 1 7 33 8 27 9 31 10 28 11 30 12
REMARK SMILES IDX 17 13 18 14 19 15 20 16 24 17 22 18 21 19 23 21 32 23 29 25
REMARK SMILES IDX 5 27 14 28 6 29 12 30 7 31 10 32 15 33 13 35 8 37 9 38 11 40
REMARK H PARENT 21 20 23 22 32 24 29 26 15 34 13 36 9 39 11 41
REMARK Flexibility Score: inf
ROOT
ATOM      1  O   UNL     1     -39.017  29.065 -21.857  1.00  0.00    -0.454 OA
ENDROOT
BRANCH   1   2
ATOM      2  C   UNL     1     -40.144  29.881 -22.078  1.00  0.00     0.214 A 
ATOM      3  C   UNL     1     -40.060  30.885 -23.061  1.00  0.00     0.180 A 
ATOM      4  O   UNL     1     -41.122  31.628 -23.347  1.00  0.00    -0.452 OA
ATOM      5  C   UNL     1     -41.362  29.726 -21.379  1.00  0.00     0.239 A 
ATOM      6  C   UNL     1     -42.283  31.518 -22.715  1.00  0.00     0.146 A 
ATOM      7  O   UNL     1     -41.475  28.808 -20.529  1.00  0.00    -0.285 OA
ATOM      8  C   UNL     1     -42.451  30.587 -21.660  1.00  0.00     0.111 A 
ATOM      9  C   UNL     1     -43.341  32.337 -23.119  1.00  0.00     0.094 A 
ATOM     10  C   UNL     1     -43.708  30.550 -20.983  1.00  0.00     0.134 A 
ATOM     11  C   UNL     1     -44.583  32.245 -22.492  1.00  0.00     0.123 A 
ATOM     12  C   UNL     1     -44.761  31.354 -21.434  1.00  0.00     0.093 A 
BRANCH   3  13
ATOM     13  C   UNL     1     -38.828  31.107 -23.849  1.00  0.00     0.025 A 
ATOM     14  C   UNL     1     -37.763  30.194 -23.812  1.00  0.00     0.016 A 
ATOM     15  C   UNL     1     -36.609  30.425 -24.561  1.00  0.00     0.051 A 
ATOM     16  C   UNL     1     -36.486  31.576 -25.348  1.00  0.00     0.157 A 
ATOM     17  C   UNL     1     -38.700  32.273 -24.619  1.00  0.00     0.062 A 
ATOM     18  C   UNL     1     -37.545  32.515 -25.373  1.00  0.00     0.158 A 
BRANCH  16  19
ATOM     19  O   UNL     1     -35.308  31.745 -26.078  1.00  0.00    -0.504 OA
ATOM     20  H   UNL     1     -34.482  32.201 -25.719  1.00  0.00     0.293 HD
ENDBRANCH  16  19
BRANCH  18  21
ATOM     21  O   UNL     1     -37.491  33.691 -26.125  1.00  0.00    -0.504 OA
ATOM     22  H   UNL     1     -38.129  33.911 -26.876  1.00  0.00     0.293 HD
ENDBRANCH  18  21
ENDBRANCH   3  13
BRANCH  10  23
ATOM     23  O   UNL     1     -43.962  29.769 -19.851  1.00  0.00    -0.507 OA
ATOM     24  H   UNL     1     -44.007  28.760 -19.849  1.00  0.00     0.293 HD
ENDBRANCH  10  23
BRANCH  11  25
ATOM     25  O   UNL     1     -45.649  33.043 -22.905  1.00  0.00    -0.508 OA
ATOM     26  H   UNL     1     -46.610  32.782 -22.716  1.00  0.00     0.293 HD
ENDBRANCH  11  25
ENDBRANCH   1   2
BRANCH   1  27
ATOM     27  C   UNL     1     -38.291  28.332 -22.848  1.00  0.00     0.339 C 
ATOM     28  C   UNL     1     -36.957  27.833 -22.257  1.00  0.00     0.214 C 
ATOM     29  O   UNL     1     -39.071  27.283 -23.412  1.00  0.00    -0.332 OA
ATOM     30  C   UNL     1     -37.188  26.691 -21.260  1.00  0.00     0.180 C 
ATOM     31  C   UNL     1     -39.338  26.199 -22.529  1.00  0.00     0.179 C 
ATOM     32  C   UNL     1     -38.058  25.598 -21.898  1.00  0.00     0.177 C 
BRANCH  28  33
ATOM     33  O   UNL     1     -36.054  27.458 -23.271  1.00  0.00    -0.384 OA
ATOM     34  H   UNL     1     -36.573  27.090 -24.032  1.00  0.00     0.211 HD
ENDBRANCH  28  33
BRANCH  30  35
ATOM     35  O   UNL     1     -35.947  26.161 -20.867  1.00  0.00    -0.387 OA
ATOM     36  H   UNL     1     -36.136  25.383 -20.279  1.00  0.00     0.211 HD
ENDBRANCH  30  35
BRANCH  31  37
ATOM     37  C   UNL     1     -40.451  26.521 -21.507  1.00  0.00     0.191 C 
BRANCH  37  38
ATOM     38  O   UNL     1     -41.608  25.777 -21.779  1.00  0.00    -0.394 OA
ATOM     39  H   UNL     1     -41.433  25.275 -22.617  1.00  0.00     0.210 HD
ENDBRANCH  37  38
ENDBRANCH  31  37
BRANCH  32  40
ATOM     40  O   UNL     1     -38.405  24.630 -20.938  1.00  0.00    -0.387 OA
ATOM     41  H   UNL     1     -39.388  24.682 -20.813  1.00  0.00     0.211 HD
ENDBRANCH  32  40
ENDBRANCH   1  27
TORSDOF 12
ENDMDL
MODEL 3
REMARK VINA RESULT:    78.786      1.804      6.499
REMARK INTER + INTRA:         115.766
REMARK INTER:                 110.012
REMARK INTRA:                   5.754
REMARK UNBOUND:                 0.134
REMARK SMILES O=c1c(O[C@@H]2O[C@H](CO)[C@H](O)[C@@H](O)[C@H]2O)c(-c2ccc(O)c(O)c2)oc2cc(O)cc(O)c12
REMARK SMILES IDX 4 1 3 2 16 3 25 4 2 5 26 6 1 7 33 8 27 9 31 10 28 11 30 12
REMARK SMILES IDX 17 13 18 14 19 15 20 16 24 17 22 18 21 19 23 21 32 23 29 25
REMARK SMILES IDX 5 27 14 28 6 29 12 30 7 31 10 32 15 33 13 35 8 37 9 38 11 40
REMARK H PARENT 21 20 23 22 32 24 29 26 15 34 13 36 9 39 11 41
REMARK Flexibility Score: inf
ROOT
ATOM      1  O   UNL     1     -39.334  29.387 -21.845  1.00  0.00    -0.454 OA
ENDROOT
BRANCH   1   2
ATOM      2  C   UNL     1     -40.444  30.213 -22.111  1.00  0.00     0.214 A 
ATOM      3  C   UNL     1     -40.332  31.176 -23.132  1.00  0.00     0.180 A 
ATOM      4  O   UNL     1     -41.377  31.925 -23.459  1.00  0.00    -0.452 OA
ATOM      5  C   UNL     1     -41.673  30.107 -21.421  1.00  0.00     0.239 A 
ATOM      6  C   UNL     1     -42.546  31.860 -22.837  1.00  0.00     0.146 A 
ATOM      7  O   UNL     1     -41.811  29.226 -20.537  1.00  0.00    -0.285 OA
ATOM      8  C   UNL     1     -42.743  30.975 -21.749  1.00  0.00     0.111 A 
ATOM      9  C   UNL     1     -43.585  32.681 -23.285  1.00  0.00     0.094 A 
ATOM     10  C   UNL     1     -44.008  30.986 -21.085  1.00  0.00     0.134 A 
ATOM     11  C   UNL     1     -44.836  32.635 -22.669  1.00  0.00     0.123 A 
ATOM     12  C   UNL     1     -45.041  31.790 -21.580  1.00  0.00     0.093 A 
BRANCH   3  13
ATOM     13  C   UNL     1     -39.087  31.345 -23.914  1.00  0.00     0.025 A 
ATOM     14  C   UNL     1     -38.077  30.372 -23.898  1.00  0.00     0.016 A 
ATOM     15  C   UNL     1     -36.910  30.554 -24.641  1.00  0.00     0.051 A 
ATOM     16  C   UNL     1     -36.719  31.714 -25.399  1.00  0.00     0.157 A 
ATOM     17  C   UNL     1     -38.890  32.520 -24.654  1.00  0.00     0.062 A 
ATOM     18  C   UNL     1     -37.721  32.713 -25.402  1.00  0.00     0.158 A 
BRANCH  16  19
ATOM     19  O   UNL     1     -35.532  31.833 -26.124  1.00  0.00    -0.504 OA
ATOM     20  H   UNL     1     -35.200  31.141 -26.780  1.00  0.00     0.293 HD
ENDBRANCH  16  19
BRANCH  18  21
ATOM     21  O   UNL     1     -37.598  33.902 -26.124  1.00  0.00    -0.504 OA
ATOM     22  H   UNL     1     -38.381  34.430 -26.482  1.00  0.00     0.293 HD
ENDBRANCH  18  21
ENDBRANCH   3  13
BRANCH  10  23
ATOM     23  O   UNL     1     -44.288  30.255 -19.927  1.00  0.00    -0.507 OA
ATOM     24  H   UNL     1     -44.850  29.417 -19.899  1.00  0.00     0.293 HD
ENDBRANCH  10  23
BRANCH  11  25
ATOM     25  O   UNL     1     -45.883  33.435 -23.126  1.00  0.00    -0.508 OA
ATOM     26  H   UNL     1     -45.850  34.445 -23.048  1.00  0.00     0.293 HD
ENDBRANCH  11  25
ENDBRANCH   1   2
BRANCH   1  27
ATOM     27  C   UNL     1     -37.965  29.797 -21.782  1.00  0.00     0.339 C 
ATOM     28  C   UNL     1     -37.514  29.890 -20.311  1.00  0.00     0.214 C 
ATOM     29  O   UNL     1     -37.122  28.960 -22.566  1.00  0.00    -0.332 OA
ATOM     30  C   UNL     1     -37.358  28.495 -19.693  1.00  0.00     0.180 C 
ATOM     31  C   UNL     1     -36.951  27.642 -22.056  1.00  0.00     0.179 C 
ATOM     32  C   UNL     1     -36.467  27.617 -20.585  1.00  0.00     0.177 C 
BRANCH  28  33
ATOM     33  O   UNL     1     -36.333  30.647 -20.182  1.00  0.00    -0.384 OA
ATOM     34  H   UNL     1     -35.659  30.286 -20.814  1.00  0.00     0.211 HD
ENDBRANCH  28  33
BRANCH  30  35
ATOM     35  O   UNL     1     -36.796  28.616 -18.410  1.00  0.00    -0.387 OA
ATOM     36  H   UNL     1     -36.471  27.715 -18.149  1.00  0.00     0.211 HD
ENDBRANCH  30  35
BRANCH  31  37
ATOM     37  C   UNL     1     -38.168  26.732 -22.334  1.00  0.00     0.191 C 
BRANCH  37  38
ATOM     38  O   UNL     1     -38.059  25.525 -21.630  1.00  0.00    -0.394 OA
ATOM     39  H   UNL     1     -37.110  25.239 -21.698  1.00  0.00     0.210 HD
ENDBRANCH  37  38
ENDBRANCH  31  37
BRANCH  32  40
ATOM     40  O   UNL     1     -36.453  26.294 -20.107  1.00  0.00    -0.387 OA
ATOM     41  H   UNL     1     -35.997  26.307 -19.225  1.00  0.00     0.211 HD
ENDBRANCH  32  40
ENDBRANCH   1  27
TORSDOF 12
ENDMDL
MODEL 4
REMARK VINA RESULT:    78.790      1.583      6.037
REMARK INTER + INTRA:         115.773
REMARK INTER:                 116.518
REMARK INTRA:                  -0.745
REMARK UNBOUND:                 0.134
REMARK SMILES O=c1c(O[C@@H]2O[C@H](CO)[C@H](O)[C@@H](O)[C@H]2O)c(-c2ccc(O)c(O)c2)oc2cc(O)cc(O)c12
REMARK SMILES IDX 4 1 3 2 16 3 25 4 2 5 26 6 1 7 33 8 27 9 31 10 28 11 30 12
REMARK SMILES IDX 17 13 18 14 19 15 20 16 24 17 22 18 21 19 23 21 32 23 29 25
REMARK SMILES IDX 5 27 14 28 6 29 12 30 7 31 10 32 15 33 13 35 8 37 9 38 11 40
REMARK H PARENT 21 20 23 22 32 24 29 26 15 34 13 36 9 39 11 41
REMARK Flexibility Score: inf
ROOT
ATOM      1  O   UNL     1     -38.734  30.875 -23.750  1.00  0.00    -0.454 OA
ENDROOT
BRANCH   1   2
ATOM      2  C   UNL     1     -39.938  30.815 -23.020  1.00  0.00     0.214 A 
ATOM      3  C   UNL     1     -40.049  29.862 -21.991  1.00  0.00     0.180 A 
ATOM      4  O   UNL     1     -41.140  29.820 -21.236  1.00  0.00    -0.452 OA
ATOM      5  C   UNL     1     -41.029  31.682 -23.253  1.00  0.00     0.239 A 
ATOM      6  C   UNL     1     -42.187  30.612 -21.421  1.00  0.00     0.146 A 
ATOM      7  O   UNL     1     -40.935  32.571 -24.136  1.00  0.00    -0.285 OA
ATOM      8  C   UNL     1     -42.206  31.560 -22.474  1.00  0.00     0.111 A 
ATOM      9  C   UNL     1     -43.271  30.497 -20.547  1.00  0.00     0.094 A 
ATOM     10  C   UNL     1     -43.382  32.349 -22.656  1.00  0.00     0.134 A 
ATOM     11  C   UNL     1     -44.388  31.320 -20.695  1.00  0.00     0.123 A 
ATOM     12  C   UNL     1     -44.437  32.239 -21.742  1.00  0.00     0.093 A 
BRANCH   3  13
ATOM     13  C   UNL     1     -38.950  28.925 -21.670  1.00  0.00     0.025 A 
ATOM     14  C   UNL     1     -37.805  29.351 -20.982  1.00  0.00     0.016 A 
ATOM     15  C   UNL     1     -36.779  28.450 -20.693  1.00  0.00     0.051 A 
ATOM     16  C   UNL     1     -36.866  27.114 -21.098  1.00  0.00     0.157 A 
ATOM     17  C   UNL     1     -39.031  27.591 -22.099  1.00  0.00     0.062 A 
ATOM     18  C   UNL     1     -38.006  26.680 -21.816  1.00  0.00     0.158 A 
BRANCH  16  19
ATOM     19  O   UNL     1     -35.809  26.262 -20.773  1.00  0.00    -0.504 OA
ATOM     20  H   UNL     1     -35.893  25.258 -20.703  1.00  0.00     0.293 HD
ENDBRANCH  16  19
BRANCH  18  21
ATOM     21  O   UNL     1     -38.159  25.365 -22.263  1.00  0.00    -0.504 OA
ATOM     22  H   UNL     1     -38.634  24.643 -21.741  1.00  0.00     0.293 HD
ENDBRANCH  18  21
ENDBRANCH   3  13
BRANCH  10  23
ATOM     23  O   UNL     1     -43.575  33.227 -23.727  1.00  0.00    -0.507 OA
ATOM     24  H   UNL     1     -44.109  33.012 -24.556  1.00  0.00     0.293 HD
ENDBRANCH  10  23
BRANCH  11  25
ATOM     25  O   UNL     1     -45.463  31.225 -19.813  1.00  0.00    -0.508 OA
ATOM     26  H   UNL     1     -45.971  32.047 -19.507  1.00  0.00     0.293 HD
ENDBRANCH  11  25
ENDBRANCH   1   2
BRANCH   1  27
ATOM     27  C   UNL     1     -38.557  31.436 -25.053  1.00  0.00     0.339 C 
ATOM     28  C   UNL     1     -37.906  32.830 -24.939  1.00  0.00     0.214 C 
ATOM     29  O   UNL     1     -37.840  30.562 -25.918  1.00  0.00    -0.332 OA
ATOM     30  C   UNL     1     -36.429  32.718 -24.542  1.00  0.00     0.180 C 
ATOM     31  C   UNL     1     -36.464  30.399 -25.591  1.00  0.00     0.179 C 
ATOM     32  C   UNL     1     -35.702  31.742 -25.480  1.00  0.00     0.177 C 
BRANCH  28  33
ATOM     33  O   UNL     1     -38.067  33.572 -26.125  1.00  0.00    -0.384 OA
ATOM     34  H   UNL     1     -37.601  34.441 -26.017  1.00  0.00     0.211 HD
ENDBRANCH  28  33
BRANCH  30  35
ATOM     35  O   UNL     1     -35.835  33.989 -24.603  1.00  0.00    -0.387 OA
ATOM     36  H   UNL     1     -35.557  34.136 -25.546  1.00  0.00     0.211 HD
ENDBRANCH  30  35
BRANCH  31  37
ATOM     37  C   UNL     1     -36.243  29.449 -24.393  1.00  0.00     0.191 C 
BRANCH  37  38
ATOM     38  O   UNL     1     -36.975  28.264 -24.555  1.00  0.00    -0.394 OA
ATOM     39  H   UNL     1     -37.220  28.210 -25.516  1.00  0.00     0.210 HD
ENDBRANCH  37  38
ENDBRANCH  31  37
BRANCH  32  40
ATOM     40  O   UNL     1     -34.391  31.514 -25.023  1.00  0.00    -0.387 OA
ATOM     41  H   UNL     1     -33.779  32.003 -25.633  1.00  0.00     0.211 HD
ENDBRANCH  32  40
ENDBRANCH   1  27
TORSDOF 12
ENDMDL
