MODEL 1
REMARK VINA RESULT:    -3.823      0.000      0.000
REMARK INTER + INTRA:          -4.894
REMARK INTER:                  -4.717
REMARK INTRA:                  -0.177
REMARK UNBOUND:                -0.177
REMARK SMILES CCCCCC(=O)[O-]
REMARK SMILES IDX 4 1 5 2 6 3 7 4 8 5 3 6 2 7 1 8
REMARK H PARENT
REMARK Flexibility Score: inf
ROOT
ATOM      1  C   UNL     1      -9.647 -10.950   9.996  1.00  0.00     0.006 C 
ENDROOT
BRANCH   1   2
ATOM      2  C   UNL     1     -11.133 -10.939  10.366  1.00  0.00     0.053 C 
BRANCH   2   3
ATOM      3  C   UNL     1     -11.700 -12.321  10.299  1.00  0.00     0.041 C 
ATOM      4  O   UNL     1     -10.935 -13.316  10.194  1.00  0.00    -0.550 OA
ATOM      5  O   UNL     1     -13.072 -12.515  10.403  1.00  0.00    -0.550 OA
ENDBRANCH   2   3
ENDBRANCH   1   2
BRANCH   1   6
ATOM      6  C   UNL     1      -9.336  -9.877   8.942  1.00  0.00     0.000 C 
BRANCH   6   7
ATOM      7  C   UNL     1      -8.662 -10.457   7.689  1.00  0.00    -0.003 C 
ATOM      8  C   UNL     1      -9.194 -11.842   7.319  1.00  0.00     0.004 C 
ENDBRANCH   6   7
ENDBRANCH   1   6
TORSDOF 4
ENDMDL
MODEL 2
REMARK VINA RESULT:    -3.821      2.834      3.772
REMARK INTER + INTRA:          -4.892
REMARK INTER:                  -4.803
REMARK INTRA:                  -0.089
REMARK UNBOUND:                -0.177
REMARK SMILES CCCCCC(=O)[O-]
REMARK SMILES IDX 4 1 5 2 6 3 7 4 8 5 3 6 2 7 1 8
REMARK H PARENT
REMARK Flexibility Score: inf
ROOT
ATOM      1  C   UNL     1     -10.867 -13.480   9.958  1.00  0.00     0.006 C 
ENDROOT
BRANCH   1   2
ATOM      2  C   UNL     1     -12.270 -12.875   9.856  1.00  0.00     0.053 C 
BRANCH   2   3
ATOM      3  C   UNL     1     -12.322 -11.551  10.548  1.00  0.00     0.041 C 
ATOM      4  O   UNL     1     -11.256 -10.958  10.863  1.00  0.00    -0.550 OA
ATOM      5  O   UNL     1     -13.546 -10.946  10.803  1.00  0.00    -0.550 OA
ENDBRANCH   2   3
ENDBRANCH   1   2
BRANCH   1   6
ATOM      6  C   UNL     1     -10.625 -14.498   8.834  1.00  0.00     0.000 C 
BRANCH   6   7
ATOM      7  C   UNL     1     -10.126 -15.852   9.362  1.00  0.00    -0.003 C 
ATOM      8  C   UNL     1     -11.147 -16.974   9.173  1.00  0.00     0.004 C 
ENDBRANCH   6   7
ENDBRANCH   1   6
TORSDOF 4
ENDMDL
MODEL 3
REMARK VINA RESULT:    -3.809      1.346      2.223
REMARK INTER + INTRA:          -4.877
REMARK INTER:                  -4.679
REMARK INTRA:                  -0.198
REMARK UNBOUND:                -0.177
REMARK SMILES CCCCCC(=O)[O-]
REMARK SMILES IDX 4 1 5 2 6 3 7 4 8 5 3 6 2 7 1 8
REMARK H PARENT
REMARK Flexibility Score: inf
ROOT
ATOM      1  C   UNL     1      -9.803 -11.697   7.197  1.00  0.00     0.006 C 
ENDROOT
BRANCH   1   2
ATOM      2  C   UNL     1      -9.922 -12.905   8.131  1.00  0.00     0.053 C 
BRANCH   2   3
ATOM      3  C   UNL     1     -10.952 -12.654   9.186  1.00  0.00     0.041 C 
ATOM      4  O   UNL     1     -10.866 -13.225  10.305  1.00  0.00    -0.550 OA
ATOM      5  O   UNL     1     -11.981 -11.751   8.951  1.00  0.00    -0.550 OA
ENDBRANCH   2   3
ENDBRANCH   1   2
BRANCH   1   6
ATOM      6  C   UNL     1      -8.446 -10.999   7.371  1.00  0.00     0.000 C 
BRANCH   6   7
ATOM      7  C   UNL     1      -8.586  -9.542   7.838  1.00  0.00    -0.003 C 
ATOM      8  C   UNL     1      -9.150  -9.427   9.254  1.00  0.00     0.004 C 
ENDBRANCH   6   7
ENDBRANCH   1   6
TORSDOF 4
ENDMDL
MODEL 4
REMARK VINA RESULT:    -3.807      2.259      3.204
REMARK INTER + INTRA:          -4.874
REMARK INTER:                  -4.762
REMARK INTRA:                  -0.112
REMARK UNBOUND:                -0.177
REMARK SMILES CCCCCC(=O)[O-]
REMARK SMILES IDX 4 1 5 2 6 3 7 4 8 5 3 6 2 7 1 8
REMARK H PARENT
REMARK Flexibility Score: inf
ROOT
ATOM      1  C   UNL     1     -10.495 -12.109   9.293  1.00  0.00     0.006 C 
ENDROOT
BRANCH   1   2
ATOM      2  C   UNL     1     -10.511 -11.044  10.392  1.00  0.00     0.053 C 
BRANCH   2   3
ATOM      3  C   UNL     1     -11.899 -10.847  10.911  1.00  0.00     0.041 C 
ATOM      4  O   UNL     1     -12.145 -10.995  12.138  1.00  0.00    -0.550 OA
ATOM      5  O   UNL     1     -12.914 -10.450  10.049  1.00  0.00    -0.550 OA
ENDBRANCH   2   3
ENDBRANCH   1   2
BRANCH   1   6
ATOM      6  C   UNL     1     -10.901 -13.481   9.851  1.00  0.00     0.000 C 
BRANCH   6   7
ATOM      7  C   UNL     1     -10.643 -14.623   8.857  1.00  0.00    -0.003 C 
ATOM      8  C   UNL     1     -10.212 -15.920   9.543  1.00  0.00     0.004 C 
ENDBRANCH   6   7
ENDBRANCH   1   6
TORSDOF 4
ENDMDL
MODEL 5
REMARK VINA RESULT:    -3.806      2.561      3.689
REMARK INTER + INTRA:          -4.872
REMARK INTER:                  -4.774
REMARK INTRA:                  -0.099
REMARK UNBOUND:                -0.177
REMARK SMILES CCCCCC(=O)[O-]
REMARK SMILES IDX 4 1 5 2 6 3 7 4 8 5 3 6 2 7 1 8
REMARK H PARENT
REMARK Flexibility Score: inf
ROOT
ATOM      1  C   UNL     1     -10.803 -11.980  10.360  1.00  0.00     0.006 C 
ENDROOT
BRANCH   1   2
ATOM      2  C   UNL     1     -10.885 -13.324   9.630  1.00  0.00     0.053 C 
BRANCH   2   3
ATOM      3  C   UNL     1     -11.405 -13.136   8.241  1.00  0.00     0.041 C 
ATOM      4  O   UNL     1     -12.234 -13.952   7.759  1.00  0.00    -0.550 OA
ATOM      5  O   UNL     1     -11.014 -12.030   7.496  1.00  0.00    -0.550 OA
ENDBRANCH   2   3
ENDBRANCH   1   2
BRANCH   1   6
ATOM      6  C   UNL     1     -12.095 -11.700  11.140  1.00  0.00     0.000 C 
BRANCH   6   7
ATOM      7  C   UNL     1     -12.000 -10.432  12.003  1.00  0.00    -0.003 C 
ATOM      8  C   UNL     1     -11.758  -9.169  11.176  1.00  0.00     0.004 C 
ENDBRANCH   6   7
ENDBRANCH   1   6
TORSDOF 4
ENDMDL
MODEL 6
REMARK VINA RESULT:    -3.798      1.888      2.783
REMARK INTER + INTRA:          -4.863
REMARK INTER:                  -4.678
REMARK INTRA:                  -0.184
REMARK UNBOUND:                -0.177
REMARK SMILES CCCCCC(=O)[O-]
REMARK SMILES IDX 4 1 5 2 6 3 7 4 8 5 3 6 2 7 1 8
REMARK H PARENT
REMARK Flexibility Score: inf
ROOT
ATOM      1  C   UNL     1     -11.664  -9.889  11.517  1.00  0.00     0.006 C 
ENDROOT
BRANCH   1   2
ATOM      2  C   UNL     1     -12.752 -10.965  11.472  1.00  0.00     0.053 C 
BRANCH   2   3
ATOM      3  C   UNL     1     -12.326 -12.106  10.605  1.00  0.00     0.041 C 
ATOM      4  O   UNL     1     -13.188 -12.830  10.039  1.00  0.00    -0.550 OA
ATOM      5  O   UNL     1     -10.975 -12.343  10.381  1.00  0.00    -0.550 OA
ENDBRANCH   2   3
ENDBRANCH   1   2
BRANCH   1   6
ATOM      6  C   UNL     1     -12.062  -8.670  10.673  1.00  0.00     0.000 C 
BRANCH   6   7
ATOM      7  C   UNL     1     -10.863  -8.031   9.956  1.00  0.00    -0.003 C 
ATOM      8  C   UNL     1      -9.878  -9.066   9.412  1.00  0.00     0.004 C 
ENDBRANCH   6   7
ENDBRANCH   1   6
TORSDOF 4
ENDMDL
MODEL 7
REMARK VINA RESULT:    -3.796      2.969      3.636
REMARK INTER + INTRA:          -4.860
REMARK INTER:                  -4.721
REMARK INTRA:                  -0.139
REMARK UNBOUND:                -0.177
REMARK SMILES CCCCCC(=O)[O-]
REMARK SMILES IDX 4 1 5 2 6 3 7 4 8 5 3 6 2 7 1 8
REMARK H PARENT
REMARK Flexibility Score: inf
ROOT
ATOM      1  C   UNL     1     -10.505 -12.079   9.790  1.00  0.00     0.006 C 
ENDROOT
BRANCH   1   2
ATOM      2  C   UNL     1     -11.624 -11.317   9.074  1.00  0.00     0.053 C 
BRANCH   2   3
ATOM      3  C   UNL     1     -11.118 -10.715   7.802  1.00  0.00     0.041 C 
ATOM      4  O   UNL     1     -10.294 -11.345   7.087  1.00  0.00    -0.550 OA
ATOM      5  O   UNL     1     -11.593  -9.481   7.379  1.00  0.00    -0.550 OA
ENDBRANCH   2   3
ENDBRANCH   1   2
BRANCH   1   6
ATOM      6  C   UNL     1     -10.878 -13.558   9.972  1.00  0.00     0.000 C 
BRANCH   6   7
ATOM      7  C   UNL     1     -10.382 -14.438   8.814  1.00  0.00    -0.003 C 
ATOM      8  C   UNL     1     -10.145 -15.889   9.233  1.00  0.00     0.004 C 
ENDBRANCH   6   7
ENDBRANCH   1   6
TORSDOF 4
ENDMDL
MODEL 8
REMARK VINA RESULT:    -3.761      2.527      3.719
REMARK INTER + INTRA:          -4.817
REMARK INTER:                  -4.599
REMARK INTRA:                  -0.219
REMARK UNBOUND:                -0.177
REMARK SMILES CCCCCC(=O)[O-]
REMARK SMILES IDX 4 1 5 2 6 3 7 4 8 5 3 6 2 7 1 8
REMARK H PARENT
REMARK Flexibility Score: inf
ROOT
ATOM      1  C   UNL     1     -10.941 -13.130  10.024  1.00  0.00     0.006 C 
ENDROOT
BRANCH   1   2
ATOM      2  C   UNL     1     -10.376 -11.743   9.700  1.00  0.00     0.053 C 
BRANCH   2   3
ATOM      3  C   UNL     1     -11.319 -10.986   8.820  1.00  0.00     0.041 C 
ATOM      4  O   UNL     1     -12.256 -10.314   9.326  1.00  0.00    -0.550 OA
ATOM      5  O   UNL     1     -11.133 -10.982   7.444  1.00  0.00    -0.550 OA
ENDBRANCH   2   3
ENDBRANCH   1   2
BRANCH   1   6
ATOM      6  C   UNL     1     -10.487 -14.164   8.983  1.00  0.00     0.000 C 
BRANCH   6   7
ATOM      7  C   UNL     1     -11.641 -15.053   8.493  1.00  0.00    -0.003 C 
ATOM      8  C   UNL     1     -12.980 -14.316   8.452  1.00  0.00     0.004 C 
ENDBRANCH   6   7
ENDBRANCH   1   6
TORSDOF 4
ENDMDL
MODEL 9
REMARK VINA RESULT:    -3.717      1.652      2.620
REMARK INTER + INTRA:          -4.764
REMARK INTER:                  -4.532
REMARK INTRA:                  -0.232
REMARK UNBOUND:                -0.177
REMARK SMILES CCCCCC(=O)[O-]
REMARK SMILES IDX 4 1 5 2 6 3 7 4 8 5 3 6 2 7 1 8
REMARK H PARENT
REMARK Flexibility Score: inf
ROOT
ATOM      1  C   UNL     1     -10.180 -11.829   9.133  1.00  0.00     0.006 C 
ENDROOT
BRANCH   1   2
ATOM      2  C   UNL     1     -10.892 -12.901   9.964  1.00  0.00     0.053 C 
BRANCH   2   3
ATOM      3  C   UNL     1     -12.358 -12.907   9.666  1.00  0.00     0.041 C 
ATOM      4  O   UNL     1     -13.149 -12.217  10.361  1.00  0.00    -0.550 OA
ATOM      5  O   UNL     1     -12.846 -13.637   8.590  1.00  0.00    -0.550 OA
ENDBRANCH   2   3
ENDBRANCH   1   2
BRANCH   1   6
ATOM      6  C   UNL     1      -9.844 -10.602   9.992  1.00  0.00     0.000 C 
BRANCH   6   7
ATOM      7  C   UNL     1     -10.709  -9.381   9.643  1.00  0.00    -0.003 C 
ATOM      8  C   UNL     1     -11.677  -9.002  10.764  1.00  0.00     0.004 C 
ENDBRANCH   6   7
ENDBRANCH   1   6
TORSDOF 4
ENDMDL
