MODEL 1
REMARK VINA RESULT:    -3.055      0.000      0.000
REMARK INTER + INTRA:          -4.378
REMARK INTER:                  -4.126
REMARK INTRA:                  -0.252
REMARK UNBOUND:                -0.252
REMARK SMILES CCCCCCCC(=O)[O-]
REMARK SMILES IDX 5 1 6 2 7 3 8 4 9 5 10 6 4 7 3 8 2 9 1 10
REMARK H PARENT
REMARK Flexibility Score: inf
ROOT
ATOM      1  C   UNL     1      -7.578   5.982   7.199  1.00  0.00     0.000 C 
ENDROOT
BRANCH   1   2
ATOM      2  C   UNL     1      -7.166   5.605   8.634  1.00  0.00     0.006 C 
BRANCH   2   3
ATOM      3  C   UNL     1      -6.486   6.758   9.382  1.00  0.00     0.053 C 
BRANCH   3   4
ATOM      4  C   UNL     1      -5.120   7.007   8.827  1.00  0.00     0.041 C 
ATOM      5  O   UNL     1      -4.846   8.114   8.292  1.00  0.00    -0.550 OA
ATOM      6  O   UNL     1      -4.164   6.000   8.854  1.00  0.00    -0.550 OA
ENDBRANCH   3   4
ENDBRANCH   2   3
ENDBRANCH   1   2
BRANCH   1   7
ATOM      7  C   UNL     1      -9.095   5.977   6.936  1.00  0.00     0.000 C 
BRANCH   7   8
ATOM      8  C   UNL     1      -9.558   7.163   6.076  1.00  0.00    -0.000 C 
BRANCH   8   9
ATOM      9  C   UNL     1      -9.455   6.832   4.583  1.00  0.00    -0.003 C 
ATOM     10  C   UNL     1      -8.491   7.778   3.873  1.00  0.00     0.004 C 
ENDBRANCH   8   9
ENDBRANCH   7   8
ENDBRANCH   1   7
TORSDOF 6
ENDMDL
MODEL 2
REMARK VINA RESULT:    -2.985      1.174      1.933
REMARK INTER + INTRA:          -4.284
REMARK INTER:                  -3.789
REMARK INTRA:                  -0.495
REMARK UNBOUND:                -0.252
REMARK SMILES CCCCCCCC(=O)[O-]
REMARK SMILES IDX 5 1 6 2 7 3 8 4 9 5 10 6 4 7 3 8 2 9 1 10
REMARK H PARENT
REMARK Flexibility Score: inf
ROOT
ATOM      1  C   UNL     1      -7.586   4.898   8.839  1.00  0.00     0.000 C 
ENDROOT
BRANCH   1   2
ATOM      2  C   UNL     1      -6.655   5.661   9.800  1.00  0.00     0.006 C 
BRANCH   2   3
ATOM      3  C   UNL     1      -6.446   7.125   9.393  1.00  0.00     0.053 C 
BRANCH   3   4
ATOM      4  C   UNL     1      -5.121   7.295   8.720  1.00  0.00     0.041 C 
ATOM      5  O   UNL     1      -4.312   6.332   8.661  1.00  0.00    -0.550 OA
ATOM      6  O   UNL     1      -4.759   8.531   8.200  1.00  0.00    -0.550 OA
ENDBRANCH   3   4
ENDBRANCH   2   3
ENDBRANCH   1   2
BRANCH   1   7
ATOM      7  C   UNL     1      -9.088   5.178   9.031  1.00  0.00     0.000 C 
BRANCH   7   8
ATOM      8  C   UNL     1      -9.721   5.901   7.833  1.00  0.00    -0.000 C 
BRANCH   8   9
ATOM      9  C   UNL     1      -8.743   5.971   6.655  1.00  0.00    -0.003 C 
ATOM     10  C   UNL     1      -8.518   7.414   6.210  1.00  0.00     0.004 C 
ENDBRANCH   8   9
ENDBRANCH   7   8
ENDBRANCH   1   7
TORSDOF 6
ENDMDL
MODEL 3
REMARK VINA RESULT:    -2.962     23.854     24.510
REMARK INTER + INTRA:          -4.254
REMARK INTER:                  -4.056
REMARK INTRA:                  -0.198
REMARK UNBOUND:                -0.252
REMARK SMILES CCCCCCCC(=O)[O-]
REMARK SMILES IDX 5 1 6 2 7 3 8 4 9 5 10 6 4 7 3 8 2 9 1 10
REMARK H PARENT
REMARK Flexibility Score: inf
ROOT
ATOM      1  C   UNL     1      10.080  -5.919  -7.115  1.00  0.00     0.000 C 
ENDROOT
BRANCH   1   2
ATOM      2  C   UNL     1       9.242  -5.300  -5.981  1.00  0.00     0.006 C 
BRANCH   2   3
ATOM      3  C   UNL     1       9.888  -5.472  -4.600  1.00  0.00     0.053 C 
BRANCH   3   4
ATOM      4  C   UNL     1       9.345  -4.459  -3.641  1.00  0.00     0.041 C 
ATOM      5  O   UNL     1       8.664  -4.828  -2.648  1.00  0.00    -0.550 OA
ATOM      6  O   UNL     1       9.549  -3.104  -3.871  1.00  0.00    -0.550 OA
ENDBRANCH   3   4
ENDBRANCH   2   3
ENDBRANCH   1   2
BRANCH   1   7
ATOM      7  C   UNL     1       9.278  -6.339  -8.360  1.00  0.00     0.000 C 
BRANCH   7   8
ATOM      8  C   UNL     1       9.543  -5.440  -9.576  1.00  0.00    -0.000 C 
BRANCH   8   9
ATOM      9  C   UNL     1       8.951  -4.042  -9.365  1.00  0.00    -0.003 C 
ATOM     10  C   UNL     1       7.637  -3.879 -10.125  1.00  0.00     0.004 C 
ENDBRANCH   8   9
ENDBRANCH   7   8
ENDBRANCH   1   7
TORSDOF 6
ENDMDL
MODEL 4
REMARK VINA RESULT:    -2.959     11.936     13.253
REMARK INTER + INTRA:          -4.249
REMARK INTER:                  -4.168
REMARK INTRA:                  -0.080
REMARK UNBOUND:                -0.252
REMARK SMILES CCCCCCCC(=O)[O-]
REMARK SMILES IDX 5 1 6 2 7 3 8 4 9 5 10 6 4 7 3 8 2 9 1 10
REMARK H PARENT
REMARK Flexibility Score: inf
ROOT
ATOM      1  C   UNL     1      -6.957  -5.803   9.513  1.00  0.00     0.000 C 
ENDROOT
BRANCH   1   2
ATOM      2  C   UNL     1      -7.806  -4.551   9.801  1.00  0.00     0.006 C 
BRANCH   2   3
ATOM      3  C   UNL     1      -8.950  -4.360   8.798  1.00  0.00     0.053 C 
BRANCH   3   4
ATOM      4  C   UNL     1      -9.121  -2.911   8.470  1.00  0.00     0.041 C 
ATOM      5  O   UNL     1      -9.384  -2.555   7.291  1.00  0.00    -0.550 OA
ATOM      6  O   UNL     1      -8.940  -1.949   9.456  1.00  0.00    -0.550 OA
ENDBRANCH   3   4
ENDBRANCH   2   3
ENDBRANCH   1   2
BRANCH   1   7
ATOM      7  C   UNL     1      -7.535  -7.120  10.061  1.00  0.00     0.000 C 
BRANCH   7   8
ATOM      8  C   UNL     1      -8.511  -7.796   9.088  1.00  0.00    -0.000 C 
BRANCH   8   9
ATOM      9  C   UNL     1      -8.690  -9.280   9.432  1.00  0.00    -0.003 C 
ATOM     10  C   UNL     1      -8.842 -10.125   8.171  1.00  0.00     0.004 C 
ENDBRANCH   8   9
ENDBRANCH   7   8
ENDBRANCH   1   7
TORSDOF 6
ENDMDL
MODEL 5
REMARK VINA RESULT:    -2.914      2.651      3.066
REMARK INTER + INTRA:          -4.188
REMARK INTER:                  -3.758
REMARK INTRA:                  -0.430
REMARK UNBOUND:                -0.252
REMARK SMILES CCCCCCCC(=O)[O-]
REMARK SMILES IDX 5 1 6 2 7 3 8 4 9 5 10 6 4 7 3 8 2 9 1 10
REMARK H PARENT
REMARK Flexibility Score: inf
ROOT
ATOM      1  C   UNL     1      -7.702   7.357   7.807  1.00  0.00     0.000 C 
ENDROOT
BRANCH   1   2
ATOM      2  C   UNL     1      -7.141   5.923   7.824  1.00  0.00     0.006 C 
BRANCH   2   3
ATOM      3  C   UNL     1      -7.165   5.289   9.221  1.00  0.00     0.053 C 
BRANCH   3   4
ATOM      4  C   UNL     1      -8.189   4.199   9.281  1.00  0.00     0.041 C 
ATOM      5  O   UNL     1      -7.853   3.033   9.622  1.00  0.00    -0.550 OA
ATOM      6  O   UNL     1      -9.503   4.457   8.914  1.00  0.00    -0.550 OA
ENDBRANCH   3   4
ENDBRANCH   2   3
ENDBRANCH   1   2
BRANCH   1   7
ATOM      7  C   UNL     1      -8.959   7.553   6.941  1.00  0.00     0.000 C 
BRANCH   7   8
ATOM      8  C   UNL     1      -9.205   6.391   5.969  1.00  0.00    -0.000 C 
BRANCH   8   9
ATOM      9  C   UNL     1      -9.489   6.908   4.554  1.00  0.00    -0.003 C 
ATOM     10  C   UNL     1      -8.335   7.763   4.037  1.00  0.00     0.004 C 
ENDBRANCH   8   9
ENDBRANCH   7   8
ENDBRANCH   1   7
TORSDOF 6
ENDMDL
MODEL 6
REMARK VINA RESULT:    -2.859      1.869      2.965
REMARK INTER + INTRA:          -4.114
REMARK INTER:                  -3.858
REMARK INTRA:                  -0.255
REMARK UNBOUND:                -0.252
REMARK SMILES CCCCCCCC(=O)[O-]
REMARK SMILES IDX 5 1 6 2 7 3 8 4 9 5 10 6 4 7 3 8 2 9 1 10
REMARK H PARENT
REMARK Flexibility Score: inf
ROOT
ATOM      1  C   UNL     1      -9.348   7.195   5.944  1.00  0.00     0.000 C 
ENDROOT
BRANCH   1   2
ATOM      2  C   UNL     1      -9.000   5.935   6.758  1.00  0.00     0.006 C 
BRANCH   2   3
ATOM      3  C   UNL     1      -7.604   5.999   7.390  1.00  0.00     0.053 C 
BRANCH   3   4
ATOM      4  C   UNL     1      -7.561   5.183   8.644  1.00  0.00     0.041 C 
ATOM      5  O   UNL     1      -8.536   4.449   8.956  1.00  0.00    -0.550 OA
ATOM      6  O   UNL     1      -6.465   5.270   9.493  1.00  0.00    -0.550 OA
ENDBRANCH   3   4
ENDBRANCH   2   3
ENDBRANCH   1   2
BRANCH   1   7
ATOM      7  C   UNL     1      -9.606   6.949   4.446  1.00  0.00     0.000 C 
BRANCH   7   8
ATOM      8  C   UNL     1      -9.312   8.180   3.577  1.00  0.00    -0.000 C 
BRANCH   8   9
ATOM      9  C   UNL     1      -7.830   8.238   3.191  1.00  0.00    -0.003 C 
ATOM     10  C   UNL     1      -7.136   9.432   3.841  1.00  0.00     0.004 C 
ENDBRANCH   8   9
ENDBRANCH   7   8
ENDBRANCH   1   7
TORSDOF 6
ENDMDL
MODEL 7
REMARK VINA RESULT:    -2.858      2.431      4.783
REMARK INTER + INTRA:          -4.113
REMARK INTER:                  -3.830
REMARK INTRA:                  -0.283
REMARK UNBOUND:                -0.252
REMARK SMILES CCCCCCCC(=O)[O-]
REMARK SMILES IDX 5 1 6 2 7 3 8 4 9 5 10 6 4 7 3 8 2 9 1 10
REMARK H PARENT
REMARK Flexibility Score: inf
ROOT
ATOM      1  C   UNL     1      -7.755   5.940   7.299  1.00  0.00     0.000 C 
ENDROOT
BRANCH   1   2
ATOM      2  C   UNL     1      -9.030   5.891   6.437  1.00  0.00     0.006 C 
BRANCH   2   3
ATOM      3  C   UNL     1      -9.495   7.279   5.980  1.00  0.00     0.053 C 
BRANCH   3   4
ATOM      4  C   UNL     1      -8.510   7.869   5.020  1.00  0.00     0.041 C 
ATOM      5  O   UNL     1      -8.258   7.285   3.932  1.00  0.00    -0.550 OA
ATOM      6  O   UNL     1      -7.833   9.037   5.347  1.00  0.00    -0.550 OA
ENDBRANCH   3   4
ENDBRANCH   2   3
ENDBRANCH   1   2
BRANCH   1   7
ATOM      7  C   UNL     1      -7.855   5.207   8.649  1.00  0.00     0.000 C 
BRANCH   7   8
ATOM      8  C   UNL     1      -6.639   5.450   9.555  1.00  0.00    -0.000 C 
BRANCH   8   9
ATOM      9  C   UNL     1      -5.836   6.667   9.082  1.00  0.00    -0.003 C 
ATOM     10  C   UNL     1      -4.362   6.320   8.900  1.00  0.00     0.004 C 
ENDBRANCH   8   9
ENDBRANCH   7   8
ENDBRANCH   1   7
TORSDOF 6
ENDMDL
MODEL 8
REMARK VINA RESULT:    -2.815      2.661      4.545
REMARK INTER + INTRA:          -4.054
REMARK INTER:                  -3.447
REMARK INTRA:                  -0.607
REMARK UNBOUND:                -0.252
REMARK SMILES CCCCCCCC(=O)[O-]
REMARK SMILES IDX 5 1 6 2 7 3 8 4 9 5 10 6 4 7 3 8 2 9 1 10
REMARK H PARENT
REMARK Flexibility Score: inf
ROOT
ATOM      1  C   UNL     1      -7.929   3.859   9.619  1.00  0.00     0.000 C 
ENDROOT
BRANCH   1   2
ATOM      2  C   UNL     1      -8.922   5.030   9.503  1.00  0.00     0.006 C 
BRANCH   2   3
ATOM      3  C   UNL     1      -9.523   5.167   8.099  1.00  0.00     0.053 C 
BRANCH   3   4
ATOM      4  C   UNL     1      -8.781   6.200   7.312  1.00  0.00     0.041 C 
ATOM      5  O   UNL     1      -7.952   5.850   6.431  1.00  0.00    -0.550 OA
ATOM      6  O   UNL     1      -8.968   7.549   7.585  1.00  0.00    -0.550 OA
ENDBRANCH   3   4
ENDBRANCH   2   3
ENDBRANCH   1   2
BRANCH   1   7
ATOM      7  C   UNL     1      -6.502   4.256  10.039  1.00  0.00     0.000 C 
BRANCH   7   8
ATOM      8  C   UNL     1      -6.303   5.776  10.125  1.00  0.00    -0.000 C 
BRANCH   8   9
ATOM      9  C   UNL     1      -5.325   6.263   9.050  1.00  0.00    -0.003 C 
ATOM     10  C   UNL     1      -5.605   7.713   8.664  1.00  0.00     0.004 C 
ENDBRANCH   8   9
ENDBRANCH   7   8
ENDBRANCH   1   7
TORSDOF 6
ENDMDL
