MODEL 1
REMARK VINA RESULT:    -5.768      0.000      0.000
REMARK INTER + INTRA:          -7.042
REMARK INTER:                  -6.779
REMARK INTRA:                  -0.263
REMARK UNBOUND:                -0.263
REMARK SMILES O=c1cc(-c2ccc(O)c(O)c2)oc2cc(O)cc(O)c12
REMARK SMILES IDX 4 1 3 2 2 3 1 4 21 5 19 6 18 7 16 8 15 9 14 10 13 11 5 12
REMARK SMILES IDX 6 13 7 14 8 15 12 16 10 17 9 18 11 20 20 22 17 24
REMARK H PARENT 9 19 11 21 20 23 17 25
REMARK Flexibility Score: inf
ROOT
ATOM      1  C   UNL     1     141.744 145.675 136.681  1.00  0.00     0.138 A 
ATOM      2  C   UNL     1     140.543 146.290 136.301  1.00  0.00     0.100 A 
ATOM      3  C   UNL     1     140.428 147.679 136.373  1.00  0.00     0.197 A 
ATOM      4  O   UNL     1     139.360 148.208 135.968  1.00  0.00    -0.289 OA
ATOM      5  C   UNL     1     141.511 148.451 136.858  1.00  0.00     0.107 A 
ATOM      6  C   UNL     1     141.492 149.870 137.013  1.00  0.00     0.134 A 
ATOM      7  C   UNL     1     142.662 150.538 137.391  1.00  0.00     0.093 A 
ATOM      8  C   UNL     1     143.832 149.836 137.678  1.00  0.00     0.123 A 
ATOM      9  C   UNL     1     143.847 148.443 137.582  1.00  0.00     0.094 A 
ATOM     10  C   UNL     1     142.705 147.751 137.174  1.00  0.00     0.146 A 
ATOM     11  O   UNL     1     142.764 146.427 137.079  1.00  0.00    -0.456 OA
ENDROOT
BRANCH   1  12
ATOM     12  C   UNL     1     141.920 144.201 136.625  1.00  0.00     0.021 A 
ATOM     13  C   UNL     1     142.418 143.558 135.477  1.00  0.00     0.016 A 
ATOM     14  C   UNL     1     142.562 142.168 135.449  1.00  0.00     0.051 A 
ATOM     15  C   UNL     1     142.207 141.397 136.563  1.00  0.00     0.157 A 
ATOM     16  C   UNL     1     141.554 143.418 137.735  1.00  0.00     0.062 A 
ATOM     17  C   UNL     1     141.698 142.026 137.711  1.00  0.00     0.158 A 
BRANCH  15  18
ATOM     18  O   UNL     1     142.355 140.011 136.532  1.00  0.00    -0.504 OA
ATOM     19  H   UNL     1     142.592 139.522 135.678  1.00  0.00     0.293 HD
ENDBRANCH  15  18
BRANCH  17  20
ATOM     20  O   UNL     1     141.332 141.287 138.835  1.00  0.00    -0.504 OA
ATOM     21  H   UNL     1     141.682 140.352 139.001  1.00  0.00     0.293 HD
ENDBRANCH  17  20
ENDBRANCH   1  12
BRANCH   6  22
ATOM     22  O   UNL     1     140.352 150.661 136.834  1.00  0.00    -0.507 OA
ATOM     23  H   UNL     1     140.261 151.393 136.146  1.00  0.00     0.293 HD
ENDBRANCH   6  22
BRANCH   8  24
ATOM     24  O   UNL     1     144.975 150.532 138.067  1.00  0.00    -0.508 OA
ATOM     25  H   UNL     1     145.496 151.104 137.413  1.00  0.00     0.293 HD
ENDBRANCH   8  24
TORSDOF 5
ENDMDL
MODEL 2
REMARK VINA RESULT:    -5.763      5.393      7.889
REMARK INTER + INTRA:          -7.037
REMARK INTER:                  -6.774
REMARK INTRA:                  -0.263
REMARK UNBOUND:                -0.263
REMARK SMILES O=c1cc(-c2ccc(O)c(O)c2)oc2cc(O)cc(O)c12
REMARK SMILES IDX 4 1 3 2 2 3 1 4 21 5 19 6 18 7 16 8 15 9 14 10 13 11 5 12
REMARK SMILES IDX 6 13 7 14 8 15 12 16 10 17 9 18 11 20 20 22 17 24
REMARK H PARENT 9 19 11 21 20 23 17 25
REMARK Flexibility Score: inf
ROOT
ATOM      1  C   UNL     1     145.685 150.768 136.670  1.00  0.00     0.138 A 
ATOM      2  C   UNL     1     146.298 151.973 136.301  1.00  0.00     0.100 A 
ATOM      3  C   UNL     1     147.686 152.094 136.384  1.00  0.00     0.197 A 
ATOM      4  O   UNL     1     148.213 153.166 135.988  1.00  0.00    -0.289 OA
ATOM      5  C   UNL     1     148.458 151.012 136.870  1.00  0.00     0.107 A 
ATOM      6  C   UNL     1     149.876 151.036 137.037  1.00  0.00     0.134 A 
ATOM      7  C   UNL     1     150.546 149.868 137.416  1.00  0.00     0.093 A 
ATOM      8  C   UNL     1     149.846 148.693 137.692  1.00  0.00     0.123 A 
ATOM      9  C   UNL     1     148.455 148.672 137.584  1.00  0.00     0.094 A 
ATOM     10  C   UNL     1     147.761 149.814 137.175  1.00  0.00     0.146 A 
ATOM     11  O   UNL     1     146.438 149.749 137.070  1.00  0.00    -0.456 OA
ENDROOT
BRANCH   1  12
ATOM     12  C   UNL     1     144.212 150.586 136.601  1.00  0.00     0.021 A 
ATOM     13  C   UNL     1     143.585 150.052 135.460  1.00  0.00     0.016 A 
ATOM     14  C   UNL     1     142.196 149.903 135.420  1.00  0.00     0.051 A 
ATOM     15  C   UNL     1     141.410 150.288 136.513  1.00  0.00     0.157 A 
ATOM     16  C   UNL     1     143.414 150.982 137.690  1.00  0.00     0.062 A 
ATOM     17  C   UNL     1     142.023 150.833 137.653  1.00  0.00     0.158 A 
BRANCH  15  18
ATOM     18  O   UNL     1     140.025 150.135 136.469  1.00  0.00    -0.504 OA
ATOM     19  H   UNL     1     139.569 149.318 136.855  1.00  0.00     0.293 HD
ENDBRANCH  15  18
BRANCH  17  20
ATOM     20  O   UNL     1     141.269 151.230 138.757  1.00  0.00    -0.504 OA
ATOM     21  H   UNL     1     140.791 152.122 138.788  1.00  0.00     0.293 HD
ENDBRANCH  17  20
ENDBRANCH   1  12
BRANCH   6  22
ATOM     22  O   UNL     1     150.663 152.181 136.870  1.00  0.00    -0.507 OA
ATOM     23  H   UNL     1     150.313 153.127 136.871  1.00  0.00     0.293 HD
ENDBRANCH   6  22
BRANCH   8  24
ATOM     24  O   UNL     1     150.545 147.552 138.081  1.00  0.00    -0.508 OA
ATOM     25  H   UNL     1     151.172 147.560 138.876  1.00  0.00     0.293 HD
ENDBRANCH   8  24
TORSDOF 5
ENDMDL
MODEL 3
REMARK VINA RESULT:    -5.740      7.465     11.127
REMARK INTER + INTRA:          -7.009
REMARK INTER:                  -6.747
REMARK INTRA:                  -0.263
REMARK UNBOUND:                -0.263
REMARK SMILES O=c1cc(-c2ccc(O)c(O)c2)oc2cc(O)cc(O)c12
REMARK SMILES IDX 4 1 3 2 2 3 1 4 21 5 19 6 18 7 16 8 15 9 14 10 13 11 5 12
REMARK SMILES IDX 6 13 7 14 8 15 12 16 10 17 9 18 11 20 20 22 17 24
REMARK H PARENT 9 19 11 21 20 23 17 25
REMARK Flexibility Score: inf
ROOT
ATOM      1  C   UNL     1     150.725 146.848 136.723  1.00  0.00     0.138 A 
ATOM      2  C   UNL     1     151.932 146.242 136.348  1.00  0.00     0.100 A 
ATOM      3  C   UNL     1     152.059 144.854 136.423  1.00  0.00     0.197 A 
ATOM      4  O   UNL     1     153.132 144.334 136.022  1.00  0.00    -0.289 OA
ATOM      5  C   UNL     1     150.982 144.075 136.909  1.00  0.00     0.107 A 
ATOM      6  C   UNL     1     151.013 142.657 137.068  1.00  0.00     0.134 A 
ATOM      7  C   UNL     1     149.848 141.979 137.447  1.00  0.00     0.093 A 
ATOM      8  C   UNL     1     148.672 142.672 137.730  1.00  0.00     0.123 A 
ATOM      9  C   UNL     1     148.645 144.064 137.629  1.00  0.00     0.094 A 
ATOM     10  C   UNL     1     149.782 144.765 137.221  1.00  0.00     0.146 A 
ATOM     11  O   UNL     1     149.711 146.089 137.122  1.00  0.00    -0.456 OA
ENDROOT
BRANCH   1  12
ATOM     12  C   UNL     1     150.536 148.321 136.663  1.00  0.00     0.021 A 
ATOM     13  C   UNL     1     149.998 148.952 135.526  1.00  0.00     0.016 A 
ATOM     14  C   UNL     1     149.843 150.340 135.494  1.00  0.00     0.051 A 
ATOM     15  C   UNL     1     150.226 151.121 136.590  1.00  0.00     0.157 A 
ATOM     16  C   UNL     1     150.931 149.114 137.756  1.00  0.00     0.062 A 
ATOM     17  C   UNL     1     150.775 150.505 137.726  1.00  0.00     0.158 A 
BRANCH  15  18
ATOM     18  O   UNL     1     150.067 152.506 136.554  1.00  0.00    -0.504 OA
ATOM     19  H   UNL     1     149.765 153.027 137.369  1.00  0.00     0.293 HD
ENDBRANCH  15  18
BRANCH  17  20
ATOM     20  O   UNL     1     151.171 151.255 138.833  1.00  0.00    -0.504 OA
ATOM     21  H   UNL     1     150.552 151.426 139.615  1.00  0.00     0.293 HD
ENDBRANCH  17  20
ENDBRANCH   1  12
BRANCH   6  22
ATOM     22  O   UNL     1     152.160 141.875 136.893  1.00  0.00    -0.507 OA
ATOM     23  H   UNL     1     153.083 142.239 136.708  1.00  0.00     0.293 HD
ENDBRANCH   6  22
BRANCH   8  24
ATOM     24  O   UNL     1     147.535 141.967 138.118  1.00  0.00    -0.508 OA
ATOM     25  H   UNL     1     147.546 141.340 138.914  1.00  0.00     0.293 HD
ENDBRANCH   8  24
TORSDOF 5
ENDMDL
MODEL 4
REMARK VINA RESULT:    -5.709      5.358      7.804
REMARK INTER + INTRA:          -6.974
REMARK INTER:                  -6.710
REMARK INTRA:                  -0.264
REMARK UNBOUND:                -0.263
REMARK SMILES O=c1cc(-c2ccc(O)c(O)c2)oc2cc(O)cc(O)c12
REMARK SMILES IDX 4 1 3 2 2 3 1 4 21 5 19 6 18 7 16 8 15 9 14 10 13 11 5 12
REMARK SMILES IDX 6 13 7 14 8 15 12 16 10 17 9 18 11 20 20 22 17 24
REMARK H PARENT 9 19 11 21 20 23 17 25
REMARK Flexibility Score: inf
ROOT
ATOM      1  C   UNL     1     146.747 141.844 136.690  1.00  0.00     0.138 A 
ATOM      2  C   UNL     1     146.130 140.662 136.257  1.00  0.00     0.100 A 
ATOM      3  C   UNL     1     144.743 140.533 136.353  1.00  0.00     0.197 A 
ATOM      4  O   UNL     1     144.212 139.486 135.900  1.00  0.00    -0.289 OA
ATOM      5  C   UNL     1     143.977 141.582 136.915  1.00  0.00     0.107 A 
ATOM      6  C   UNL     1     142.562 141.544 137.101  1.00  0.00     0.134 A 
ATOM      7  C   UNL     1     141.896 142.687 137.559  1.00  0.00     0.093 A 
ATOM      8  C   UNL     1     142.598 143.844 137.896  1.00  0.00     0.123 A 
ATOM      9  C   UNL     1     143.988 143.874 137.769  1.00  0.00     0.094 A 
ATOM     10  C   UNL     1     144.677 142.761 137.282  1.00  0.00     0.146 A 
ATOM     11  O   UNL     1     145.998 142.835 137.162  1.00  0.00    -0.456 OA
ENDROOT
BRANCH   1  12
ATOM     12  C   UNL     1     148.218 142.033 136.611  1.00  0.00     0.021 A 
ATOM     13  C   UNL     1     148.840 142.522 135.448  1.00  0.00     0.016 A 
ATOM     14  C   UNL     1     150.228 142.679 135.399  1.00  0.00     0.051 A 
ATOM     15  C   UNL     1     151.018 142.345 136.506  1.00  0.00     0.157 A 
ATOM     16  C   UNL     1     149.020 141.687 137.714  1.00  0.00     0.062 A 
ATOM     17  C   UNL     1     150.410 141.844 137.668  1.00  0.00     0.158 A 
BRANCH  15  18
ATOM     18  O   UNL     1     152.402 142.505 136.453  1.00  0.00    -0.504 OA
ATOM     19  H   UNL     1     153.010 141.766 136.123  1.00  0.00     0.293 HD
ENDBRANCH  15  18
BRANCH  17  20
ATOM     20  O   UNL     1     151.168 141.498 138.786  1.00  0.00    -0.504 OA
ATOM     21  H   UNL     1     150.742 141.174 139.646  1.00  0.00     0.293 HD
ENDBRANCH  17  20
ENDBRANCH   1  12
BRANCH   6  22
ATOM     22  O   UNL     1     141.774 140.411 136.875  1.00  0.00    -0.507 OA
ATOM     23  H   UNL     1     140.842 140.424 136.490  1.00  0.00     0.293 HD
ENDBRANCH   6  22
BRANCH   8  24
ATOM     24  O   UNL     1     141.904 144.958 138.363  1.00  0.00    -0.508 OA
ATOM     25  H   UNL     1     141.072 145.299 137.896  1.00  0.00     0.293 HD
ENDBRANCH   8  24
TORSDOF 5
ENDMDL
MODEL 5
REMARK VINA RESULT:    -5.475      1.175      2.853
REMARK INTER + INTRA:          -6.698
REMARK INTER:                  -6.427
REMARK INTRA:                  -0.271
REMARK UNBOUND:                -0.263
REMARK SMILES O=c1cc(-c2ccc(O)c(O)c2)oc2cc(O)cc(O)c12
REMARK SMILES IDX 4 1 3 2 2 3 1 4 21 5 19 6 18 7 16 8 15 9 14 10 13 11 5 12
REMARK SMILES IDX 6 13 7 14 8 15 12 16 10 17 9 18 11 20 20 22 17 24
REMARK H PARENT 9 19 11 21 20 23 17 25
REMARK Flexibility Score: inf
ROOT
ATOM      1  C   UNL     1     143.527 145.605 137.094  1.00  0.00     0.138 A 
ATOM      2  C   UNL     1     144.823 146.072 137.357  1.00  0.00     0.100 A 
ATOM      3  C   UNL     1     145.046 147.443 137.499  1.00  0.00     0.197 A 
ATOM      4  O   UNL     1     146.207 147.827 137.796  1.00  0.00    -0.289 OA
ATOM      5  C   UNL     1     143.971 148.350 137.343  1.00  0.00     0.107 A 
ATOM      6  C   UNL     1     144.088 149.770 137.425  1.00  0.00     0.134 A 
ATOM      7  C   UNL     1     142.935 150.562 137.371  1.00  0.00     0.093 A 
ATOM      8  C   UNL     1     141.678 149.991 137.177  1.00  0.00     0.123 A 
ATOM      9  C   UNL     1     141.557 148.607 137.042  1.00  0.00     0.094 A 
ATOM     10  C   UNL     1     142.685 147.788 137.126  1.00  0.00     0.146 A 
ATOM     11  O   UNL     1     142.526 146.474 137.008  1.00  0.00    -0.456 OA
ENDROOT
BRANCH   1  12
ATOM     12  C   UNL     1     143.235 144.157 136.933  1.00  0.00     0.021 A 
ATOM     13  C   UNL     1     143.630 143.446 135.785  1.00  0.00     0.016 A 
ATOM     14  C   UNL     1     143.331 142.087 135.657  1.00  0.00     0.051 A 
ATOM     15  C   UNL     1     142.628 141.418 136.666  1.00  0.00     0.157 A 
ATOM     16  C   UNL     1     142.518 143.481 137.937  1.00  0.00     0.062 A 
ATOM     17  C   UNL     1     142.218 142.120 137.811  1.00  0.00     0.158 A 
BRANCH  15  18
ATOM     18  O   UNL     1     142.334 140.061 136.535  1.00  0.00    -0.504 OA
ATOM     19  H   UNL     1     141.973 139.678 135.670  1.00  0.00     0.293 HD
ENDBRANCH  15  18
BRANCH  17  20
ATOM     20  O   UNL     1     141.513 141.484 138.832  1.00  0.00    -0.504 OA
ATOM     21  H   UNL     1     140.592 141.789 139.121  1.00  0.00     0.293 HD
ENDBRANCH  17  20
ENDBRANCH   1  12
BRANCH   6  22
ATOM     22  O   UNL     1     145.306 150.449 137.534  1.00  0.00    -0.507 OA
ATOM     23  H   UNL     1     145.594 151.216 136.946  1.00  0.00     0.293 HD
ENDBRANCH   6  22
BRANCH   8  24
ATOM     24  O   UNL     1     140.553 150.811 137.113  1.00  0.00    -0.508 OA
ATOM     25  H   UNL     1     140.373 151.403 136.310  1.00  0.00     0.293 HD
ENDBRANCH   8  24
TORSDOF 5
ENDMDL
MODEL 6
REMARK VINA RESULT:    -5.471      6.543     10.135
REMARK INTER + INTRA:          -6.693
REMARK INTER:                  -6.423
REMARK INTRA:                  -0.270
REMARK UNBOUND:                -0.263
REMARK SMILES O=c1cc(-c2ccc(O)c(O)c2)oc2cc(O)cc(O)c12
REMARK SMILES IDX 4 1 3 2 2 3 1 4 21 5 19 6 18 7 16 8 15 9 14 10 13 11 5 12
REMARK SMILES IDX 6 13 7 14 8 15 12 16 10 17 9 18 11 20 20 22 17 24
REMARK H PARENT 9 19 11 21 20 23 17 25
REMARK Flexibility Score: inf
ROOT
ATOM      1  C   UNL     1     149.146 146.934 137.101  1.00  0.00     0.138 A 
ATOM      2  C   UNL     1     147.837 146.493 137.344  1.00  0.00     0.100 A 
ATOM      3  C   UNL     1     147.583 145.127 137.478  1.00  0.00     0.197 A 
ATOM      4  O   UNL     1     146.410 144.767 137.757  1.00  0.00    -0.289 OA
ATOM      5  C   UNL     1     148.641 144.198 137.337  1.00  0.00     0.107 A 
ATOM      6  C   UNL     1     148.493 142.780 137.413  1.00  0.00     0.134 A 
ATOM      7  C   UNL     1     149.629 141.964 137.374  1.00  0.00     0.093 A 
ATOM      8  C   UNL     1     150.901 142.509 137.202  1.00  0.00     0.123 A 
ATOM      9  C   UNL     1     151.053 143.891 137.072  1.00  0.00     0.094 A 
ATOM     10  C   UNL     1     149.941 144.733 137.141  1.00  0.00     0.146 A 
ATOM     11  O   UNL     1     150.129 146.044 137.028  1.00  0.00    -0.456 OA
ENDROOT
BRANCH   1  12
ATOM     12  C   UNL     1     149.471 148.375 136.949  1.00  0.00     0.021 A 
ATOM     13  C   UNL     1     149.124 149.093 135.790  1.00  0.00     0.016 A 
ATOM     14  C   UNL     1     149.453 150.446 135.670  1.00  0.00     0.051 A 
ATOM     15  C   UNL     1     150.138 151.102 136.699  1.00  0.00     0.157 A 
ATOM     16  C   UNL     1     150.171 149.038 137.973  1.00  0.00     0.062 A 
ATOM     17  C   UNL     1     150.501 150.393 137.856  1.00  0.00     0.158 A 
BRANCH  15  18
ATOM     18  O   UNL     1     150.462 152.453 136.576  1.00  0.00    -0.504 OA
ATOM     19  H   UNL     1     150.135 153.140 137.244  1.00  0.00     0.293 HD
ENDBRANCH  15  18
BRANCH  17  20
ATOM     20  O   UNL     1     151.187 151.016 138.898  1.00  0.00    -0.504 OA
ATOM     21  H   UNL     1     152.110 150.718 139.188  1.00  0.00     0.293 HD
ENDBRANCH  17  20
ENDBRANCH   1  12
BRANCH   6  22
ATOM     22  O   UNL     1     147.259 142.127 137.502  1.00  0.00    -0.507 OA
ATOM     23  H   UNL     1     146.397 142.561 137.796  1.00  0.00     0.293 HD
ENDBRANCH   6  22
BRANCH   8  24
ATOM     24  O   UNL     1     152.009 141.666 137.152  1.00  0.00    -0.508 OA
ATOM     25  H   UNL     1     152.549 141.549 136.303  1.00  0.00     0.293 HD
ENDBRANCH   8  24
TORSDOF 5
ENDMDL
MODEL 7
REMARK VINA RESULT:    -5.452      4.739      7.476
REMARK INTER + INTRA:          -6.671
REMARK INTER:                  -6.401
REMARK INTRA:                  -0.270
REMARK UNBOUND:                -0.263
REMARK SMILES O=c1cc(-c2ccc(O)c(O)c2)oc2cc(O)cc(O)c12
REMARK SMILES IDX 4 1 3 2 2 3 1 4 21 5 19 6 18 7 16 8 15 9 14 10 13 11 5 12
REMARK SMILES IDX 6 13 7 14 8 15 12 16 10 17 9 18 11 20 20 22 17 24
REMARK H PARENT 9 19 11 21 20 23 17 25
REMARK Flexibility Score: inf
ROOT
ATOM      1  C   UNL     1     145.560 149.150 137.106  1.00  0.00     0.138 A 
ATOM      2  C   UNL     1     145.998 147.841 137.350  1.00  0.00     0.100 A 
ATOM      3  C   UNL     1     147.364 147.582 137.465  1.00  0.00     0.197 A 
ATOM      4  O   UNL     1     147.724 146.409 137.746  1.00  0.00    -0.289 OA
ATOM      5  C   UNL     1     148.296 148.634 137.302  1.00  0.00     0.107 A 
ATOM      6  C   UNL     1     149.714 148.480 137.357  1.00  0.00     0.134 A 
ATOM      7  C   UNL     1     150.535 149.612 137.298  1.00  0.00     0.093 A 
ATOM      8  C   UNL     1     149.993 150.885 137.125  1.00  0.00     0.123 A 
ATOM      9  C   UNL     1     148.611 151.043 137.016  1.00  0.00     0.094 A 
ATOM     10  C   UNL     1     147.764 149.936 137.106  1.00  0.00     0.146 A 
ATOM     11  O   UNL     1     146.453 150.129 137.012  1.00  0.00    -0.456 OA
ENDROOT
BRANCH   1  12
ATOM     12  C   UNL     1     144.118 149.481 136.973  1.00  0.00     0.021 A 
ATOM     13  C   UNL     1     143.378 149.122 135.832  1.00  0.00     0.016 A 
ATOM     14  C   UNL     1     142.025 149.457 135.731  1.00  0.00     0.051 A 
ATOM     15  C   UNL     1     141.390 150.160 136.762  1.00  0.00     0.157 A 
ATOM     16  C   UNL     1     143.476 150.199 137.999  1.00  0.00     0.062 A 
ATOM     17  C   UNL     1     142.121 150.535 137.901  1.00  0.00     0.158 A 
BRANCH  15  18
ATOM     18  O   UNL     1     140.039 150.490 136.657  1.00  0.00    -0.504 OA
ATOM     19  H   UNL     1     139.607 151.162 137.280  1.00  0.00     0.293 HD
ENDBRANCH  15  18
BRANCH  17  20
ATOM     20  O   UNL     1     141.520 151.239 138.943  1.00  0.00    -0.504 OA
ATOM     21  H   UNL     1     141.519 150.894 139.895  1.00  0.00     0.293 HD
ENDBRANCH  17  20
ENDBRANCH   1  12
BRANCH   6  22
ATOM     22  O   UNL     1     150.363 147.243 137.444  1.00  0.00    -0.507 OA
ATOM     23  H   UNL     1     151.020 146.888 136.767  1.00  0.00     0.293 HD
ENDBRANCH   6  22
BRANCH   8  24
ATOM     24  O   UNL     1     150.841 151.989 137.055  1.00  0.00    -0.508 OA
ATOM     25  H   UNL     1     151.849 151.886 137.078  1.00  0.00     0.293 HD
ENDBRANCH   8  24
TORSDOF 5
ENDMDL
MODEL 8
REMARK VINA RESULT:    -5.438      6.465      7.705
REMARK INTER + INTRA:          -6.655
REMARK INTER:                  -6.338
REMARK INTRA:                  -0.316
REMARK UNBOUND:                -0.263
REMARK SMILES O=c1cc(-c2ccc(O)c(O)c2)oc2cc(O)cc(O)c12
REMARK SMILES IDX 4 1 3 2 2 3 1 4 21 5 19 6 18 7 16 8 15 9 14 10 13 11 5 12
REMARK SMILES IDX 6 13 7 14 8 15 12 16 10 17 9 18 11 20 20 22 17 24
REMARK H PARENT 9 19 11 21 20 23 17 25
REMARK Flexibility Score: inf
ROOT
ATOM      1  C   UNL     1     149.072 146.539 137.022  1.00  0.00     0.138 A 
ATOM      2  C   UNL     1     147.688 146.574 137.248  1.00  0.00     0.100 A 
ATOM      3  C   UNL     1     147.025 147.802 137.280  1.00  0.00     0.197 A 
ATOM      4  O   UNL     1     145.775 147.797 137.423  1.00  0.00    -0.289 OA
ATOM      5  C   UNL     1     147.759 149.001 137.118  1.00  0.00     0.107 A 
ATOM      6  C   UNL     1     147.195 150.312 137.174  1.00  0.00     0.134 A 
ATOM      7  C   UNL     1     147.997 151.421 136.882  1.00  0.00     0.093 A 
ATOM      8  C   UNL     1     149.355 151.273 136.597  1.00  0.00     0.123 A 
ATOM      9  C   UNL     1     149.929 150.001 136.593  1.00  0.00     0.094 A 
ATOM     10  C   UNL     1     149.146 148.871 136.846  1.00  0.00     0.146 A 
ATOM     11  O   UNL     1     149.727 147.677 136.817  1.00  0.00    -0.456 OA
ENDROOT
BRANCH   1  12
ATOM     12  C   UNL     1     149.826 145.260 136.979  1.00  0.00     0.021 A 
ATOM     13  C   UNL     1     149.259 144.051 137.421  1.00  0.00     0.016 A 
ATOM     14  C   UNL     1     149.997 142.865 137.379  1.00  0.00     0.051 A 
ATOM     15  C   UNL     1     151.313 142.867 136.901  1.00  0.00     0.157 A 
ATOM     16  C   UNL     1     151.153 145.256 136.513  1.00  0.00     0.062 A 
ATOM     17  C   UNL     1     151.894 144.069 136.468  1.00  0.00     0.158 A 
BRANCH  15  18
ATOM     18  O   UNL     1     152.045 141.681 136.859  1.00  0.00    -0.504 OA
ATOM     19  H   UNL     1     152.013 141.066 136.054  1.00  0.00     0.293 HD
ENDBRANCH  15  18
BRANCH  17  20
ATOM     20  O   UNL     1     153.204 144.106 135.991  1.00  0.00    -0.504 OA
ATOM     21  H   UNL     1     153.423 143.972 135.012  1.00  0.00     0.293 HD
ENDBRANCH  17  20
ENDBRANCH   1  12
BRANCH   6  22
ATOM     22  O   UNL     1     145.869 150.577 137.532  1.00  0.00    -0.507 OA
ATOM     23  H   UNL     1     145.110 149.917 137.464  1.00  0.00     0.293 HD
ENDBRANCH   6  22
BRANCH   8  24
ATOM     24  O   UNL     1     150.127 152.401 136.327  1.00  0.00    -0.508 OA
ATOM     25  H   UNL     1     149.888 153.040 135.578  1.00  0.00     0.293 HD
ENDBRANCH   8  24
TORSDOF 5
ENDMDL
MODEL 9
REMARK VINA RESULT:    -5.415      3.434      7.857
REMARK INTER + INTRA:          -6.628
REMARK INTER:                  -6.313
REMARK INTRA:                  -0.315
REMARK UNBOUND:                -0.263
REMARK SMILES O=c1cc(-c2ccc(O)c(O)c2)oc2cc(O)cc(O)c12
REMARK SMILES IDX 4 1 3 2 2 3 1 4 21 5 19 6 18 7 16 8 15 9 14 10 13 11 5 12
REMARK SMILES IDX 6 13 7 14 8 15 12 16 10 17 9 18 11 20 20 22 17 24
REMARK H PARENT 9 19 11 21 20 23 17 25
REMARK Flexibility Score: inf
ROOT
ATOM      1  C   UNL     1     146.134 149.042 137.019  1.00  0.00     0.138 A 
ATOM      2  C   UNL     1     146.084 147.656 137.224  1.00  0.00     0.100 A 
ATOM      3  C   UNL     1     144.849 147.007 137.245  1.00  0.00     0.197 A 
ATOM      4  O   UNL     1     144.839 145.754 137.370  1.00  0.00    -0.289 OA
ATOM      5  C   UNL     1     143.658 147.756 137.091  1.00  0.00     0.107 A 
ATOM      6  C   UNL     1     142.341 147.206 137.137  1.00  0.00     0.134 A 
ATOM      7  C   UNL     1     141.241 148.025 136.855  1.00  0.00     0.093 A 
ATOM      8  C   UNL     1     141.405 149.384 136.590  1.00  0.00     0.123 A 
ATOM      9  C   UNL     1     142.683 149.944 136.596  1.00  0.00     0.094 A 
ATOM     10  C   UNL     1     143.803 149.145 136.840  1.00  0.00     0.146 A 
ATOM     11  O   UNL     1     145.004 149.713 136.821  1.00  0.00    -0.456 OA
ENDROOT
BRANCH   1  12
ATOM     12  C   UNL     1     147.421 149.783 136.988  1.00  0.00     0.021 A 
ATOM     13  C   UNL     1     148.610 149.222 137.490  1.00  0.00     0.016 A 
ATOM     14  C   UNL     1     149.804 149.947 137.458  1.00  0.00     0.051 A 
ATOM     15  C   UNL     1     149.831 151.244 136.932  1.00  0.00     0.157 A 
ATOM     16  C   UNL     1     147.454 151.092 136.473  1.00  0.00     0.062 A 
ATOM     17  C   UNL     1     148.649 151.820 136.439  1.00  0.00     0.158 A 
BRANCH  15  18
ATOM     18  O   UNL     1     151.026 151.963 136.900  1.00  0.00    -0.504 OA
ATOM     19  H   UNL     1     151.900 151.528 136.632  1.00  0.00     0.293 HD
ENDBRANCH  15  18
BRANCH  17  20
ATOM     20  O   UNL     1     148.641 153.111 135.912  1.00  0.00    -0.504 OA
ATOM     21  H   UNL     1     149.273 153.394 135.173  1.00  0.00     0.293 HD
ENDBRANCH  17  20
ENDBRANCH   1  12
BRANCH   6  22
ATOM     22  O   UNL     1     142.060 145.878 137.475  1.00  0.00    -0.507 OA
ATOM     23  H   UNL     1     141.314 145.327 137.077  1.00  0.00     0.293 HD
ENDBRANCH   6  22
BRANCH   8  24
ATOM     24  O   UNL     1     140.286 150.173 136.329  1.00  0.00    -0.508 OA
ATOM     25  H   UNL     1     140.174 150.660 135.448  1.00  0.00     0.293 HD
ENDBRANCH   8  24
TORSDOF 5
ENDMDL
