MODEL 1
REMARK VINA RESULT:    -3.509      0.000      0.000
REMARK INTER + INTRA:         -13.351
REMARK INTER:                  -9.252
REMARK INTRA:                  -4.100
REMARK UNBOUND:                -4.100
REMARK SMILES CCCCCCCCCCCCCCCCCCCCCCCCCCCCCC(=O)[O-]
REMARK SMILES IDX 16 1 17 2 18 3 19 4 20 5 21 6 22 7 23 8 24 9 25 10 26 11
REMARK SMILES IDX 27 12 28 13 29 14 30 15 31 16 32 17 15 18 14 19 13 20 12 21
REMARK SMILES IDX 11 22 10 23 9 24 8 25 7 26 6 27 5 28 4 29 3 30 2 31 1 32
REMARK H PARENT
REMARK Flexibility Score: inf
ROOT
ATOM      1  C   UNL     1       6.079  -3.764  -9.357  1.00  0.00     0.000 C 
ENDROOT
BRANCH   1   2
ATOM      2  C   UNL     1       6.061  -5.159 -10.001  1.00  0.00     0.000 C 
BRANCH   2   3
ATOM      3  C   UNL     1       6.605  -6.223  -9.035  1.00  0.00     0.000 C 
BRANCH   3   4
ATOM      4  C   UNL     1       6.773  -7.598  -9.700  1.00  0.00     0.000 C 
BRANCH   4   5
ATOM      5  C   UNL     1       5.994  -8.705  -8.974  1.00  0.00     0.000 C 
BRANCH   5   6
ATOM      6  C   UNL     1       4.696  -9.044  -9.723  1.00  0.00     0.000 C 
BRANCH   6   7
ATOM      7  C   UNL     1       3.514  -9.301  -8.772  1.00  0.00     0.000 C 
BRANCH   7   8
ATOM      8  C   UNL     1       2.438  -8.197  -8.757  1.00  0.00     0.000 C 
BRANCH   8   9
ATOM      9  C   UNL     1       2.693  -7.018  -9.717  1.00  0.00     0.000 C 
BRANCH   9  10
ATOM     10  C   UNL     1       2.807  -5.641  -9.039  1.00  0.00     0.000 C 
BRANCH  10  11
ATOM     11  C   UNL     1       2.619  -5.714  -7.513  1.00  0.00     0.000 C 
BRANCH  11  12
ATOM     12  C   UNL     1       3.765  -5.041  -6.743  1.00  0.00     0.000 C 
BRANCH  12  13
ATOM     13  C   UNL     1       4.155  -5.815  -5.474  1.00  0.00     0.006 C 
BRANCH  13  14
ATOM     14  C   UNL     1       5.082  -6.989  -5.812  1.00  0.00     0.053 C 
BRANCH  14  15
ATOM     15  C   UNL     1       4.855  -8.137  -4.876  1.00  0.00     0.041 C 
ATOM     16  O   UNL     1       4.998  -7.981  -3.633  1.00  0.00    -0.550 OA
ATOM     17  O   UNL     1       4.478  -9.378  -5.377  1.00  0.00    -0.550 OA
ENDBRANCH  14  15
ENDBRANCH  13  14
ENDBRANCH  12  13
ENDBRANCH  11  12
ENDBRANCH  10  11
ENDBRANCH   9  10
ENDBRANCH   8   9
ENDBRANCH   7   8
ENDBRANCH   6   7
ENDBRANCH   5   6
ENDBRANCH   4   5
ENDBRANCH   3   4
ENDBRANCH   2   3
ENDBRANCH   1   2
BRANCH   1  18
ATOM     18  C   UNL     1       5.230  -2.734 -10.125  1.00  0.00     0.000 C 
BRANCH  18  19
ATOM     19  C   UNL     1       5.594  -1.262  -9.855  1.00  0.00     0.000 C 
BRANCH  19  20
ATOM     20  C   UNL     1       6.509  -1.087  -8.630  1.00  0.00     0.000 C 
BRANCH  20  21
ATOM     21  C   UNL     1       5.984  -0.018  -7.659  1.00  0.00     0.000 C 
BRANCH  21  22
ATOM     22  C   UNL     1       7.116   0.667  -6.873  1.00  0.00     0.000 C 
BRANCH  22  23
ATOM     23  C   UNL     1       8.446  -0.105  -6.943  1.00  0.00     0.000 C 
BRANCH  23  24
ATOM     24  C   UNL     1       9.660   0.724  -7.401  1.00  0.00    -0.000 C 
BRANCH  24  25
ATOM     25  C   UNL     1       9.426   1.444  -8.740  1.00  0.00    -0.000 C 
BRANCH  25  26
ATOM     26  C   UNL     1       9.137   2.947  -8.571  1.00  0.00    -0.000 C 
BRANCH  26  27
ATOM     27  C   UNL     1       8.160   3.546  -9.603  1.00  0.00    -0.000 C 
BRANCH  27  28
ATOM     28  C   UNL     1       6.697   3.074  -9.475  1.00  0.00    -0.000 C 
BRANCH  28  29
ATOM     29  C   UNL     1       5.829   3.893  -8.500  1.00  0.00    -0.000 C 
BRANCH  29  30
ATOM     30  C   UNL     1       6.276   5.352  -8.304  1.00  0.00    -0.000 C 
BRANCH  30  31
ATOM     31  C   UNL     1       5.482   6.342  -9.170  1.00  0.00    -0.003 C 
ATOM     32  C   UNL     1       4.186   5.711  -9.674  1.00  0.00     0.004 C 
ENDBRANCH  30  31
ENDBRANCH  29  30
ENDBRANCH  28  29
ENDBRANCH  27  28
ENDBRANCH  26  27
ENDBRANCH  25  26
ENDBRANCH  24  25
ENDBRANCH  23  24
ENDBRANCH  22  23
ENDBRANCH  21  22
ENDBRANCH  20  21
ENDBRANCH  19  20
ENDBRANCH  18  19
ENDBRANCH   1  18
TORSDOF 28
ENDMDL
MODEL 2
REMARK VINA RESULT:    -3.297      2.022      2.840
REMARK INTER + INTRA:         -12.794
REMARK INTER:                  -8.970
REMARK INTRA:                  -3.825
REMARK UNBOUND:                -4.100
REMARK SMILES CCCCCCCCCCCCCCCCCCCCCCCCCCCCCC(=O)[O-]
REMARK SMILES IDX 16 1 17 2 18 3 19 4 20 5 21 6 22 7 23 8 24 9 25 10 26 11
REMARK SMILES IDX 27 12 28 13 29 14 30 15 31 16 32 17 15 18 14 19 13 20 12 21
REMARK SMILES IDX 11 22 10 23 9 24 8 25 7 26 6 27 5 28 4 29 3 30 2 31 1 32
REMARK H PARENT
REMARK Flexibility Score: inf
ROOT
ATOM      1  C   UNL     1       6.863  -3.727  -9.557  1.00  0.00     0.000 C 
ENDROOT
BRANCH   1   2
ATOM      2  C   UNL     1       6.416  -5.195  -9.468  1.00  0.00     0.000 C 
BRANCH   2   3
ATOM      3  C   UNL     1       7.620  -6.146  -9.552  1.00  0.00     0.000 C 
BRANCH   3   4
ATOM      4  C   UNL     1       7.693  -7.118  -8.363  1.00  0.00     0.000 C 
BRANCH   4   5
ATOM      5  C   UNL     1       6.678  -6.781  -7.262  1.00  0.00     0.000 C 
BRANCH   5   6
ATOM      6  C   UNL     1       6.128  -8.060  -6.613  1.00  0.00     0.000 C 
BRANCH   6   7
ATOM      7  C   UNL     1       4.622  -7.968  -6.305  1.00  0.00     0.000 C 
BRANCH   7   8
ATOM      8  C   UNL     1       3.710  -8.726  -7.290  1.00  0.00     0.000 C 
BRANCH   8   9
ATOM      9  C   UNL     1       4.319  -8.988  -8.682  1.00  0.00     0.000 C 
BRANCH   9  10
ATOM     10  C   UNL     1       3.896  -7.989  -9.774  1.00  0.00     0.000 C 
BRANCH  10  11
ATOM     11  C   UNL     1       2.382  -8.011 -10.045  1.00  0.00     0.000 C 
BRANCH  11  12
ATOM     12  C   UNL     1       1.697  -6.683  -9.691  1.00  0.00     0.000 C 
BRANCH  12  13
ATOM     13  C   UNL     1       2.697  -5.609  -9.233  1.00  0.00     0.006 C 
BRANCH  13  14
ATOM     14  C   UNL     1       2.482  -5.254  -7.757  1.00  0.00     0.053 C 
BRANCH  14  15
ATOM     15  C   UNL     1       2.115  -3.810  -7.602  1.00  0.00     0.041 C 
ATOM     16  O   UNL     1       2.853  -3.035  -6.937  1.00  0.00    -0.550 OA
ATOM     17  O   UNL     1       0.959  -3.319  -8.198  1.00  0.00    -0.550 OA
ENDBRANCH  14  15
ENDBRANCH  13  14
ENDBRANCH  12  13
ENDBRANCH  11  12
ENDBRANCH  10  11
ENDBRANCH   9  10
ENDBRANCH   8   9
ENDBRANCH   7   8
ENDBRANCH   6   7
ENDBRANCH   5   6
ENDBRANCH   4   5
ENDBRANCH   3   4
ENDBRANCH   2   3
ENDBRANCH   1   2
BRANCH   1  18
ATOM     18  C   UNL     1       5.763  -2.793 -10.097  1.00  0.00     0.000 C 
BRANCH  18  19
ATOM     19  C   UNL     1       5.224  -1.770  -9.081  1.00  0.00     0.000 C 
BRANCH  19  20
ATOM     20  C   UNL     1       6.185  -0.590  -8.851  1.00  0.00     0.000 C 
BRANCH  20  21
ATOM     21  C   UNL     1       6.071  -0.014  -7.432  1.00  0.00     0.000 C 
BRANCH  21  22
ATOM     22  C   UNL     1       7.314   0.800  -7.028  1.00  0.00     0.000 C 
BRANCH  22  23
ATOM     23  C   UNL     1       8.625   0.008  -7.185  1.00  0.00     0.000 C 
BRANCH  23  24
ATOM     24  C   UNL     1       9.570   0.520  -8.287  1.00  0.00    -0.000 C 
BRANCH  24  25
ATOM     25  C   UNL     1       9.387   2.017  -8.588  1.00  0.00    -0.000 C 
BRANCH  25  26
ATOM     26  C   UNL     1       8.714   2.278  -9.949  1.00  0.00    -0.000 C 
BRANCH  26  27
ATOM     27  C   UNL     1       7.719   3.455  -9.972  1.00  0.00    -0.000 C 
BRANCH  27  28
ATOM     28  C   UNL     1       6.255   3.084  -9.660  1.00  0.00    -0.000 C 
BRANCH  28  29
ATOM     29  C   UNL     1       5.565   3.974  -8.607  1.00  0.00    -0.000 C 
BRANCH  29  30
ATOM     30  C   UNL     1       6.350   5.239  -8.214  1.00  0.00    -0.000 C 
BRANCH  30  31
ATOM     31  C   UNL     1       5.814   6.509  -8.890  1.00  0.00    -0.003 C 
ATOM     32  C   UNL     1       6.162   7.753  -8.075  1.00  0.00     0.004 C 
ENDBRANCH  30  31
ENDBRANCH  29  30
ENDBRANCH  28  29
ENDBRANCH  27  28
ENDBRANCH  26  27
ENDBRANCH  25  26
ENDBRANCH  24  25
ENDBRANCH  23  24
ENDBRANCH  22  23
ENDBRANCH  21  22
ENDBRANCH  20  21
ENDBRANCH  19  20
ENDBRANCH  18  19
ENDBRANCH   1  18
TORSDOF 28
ENDMDL
MODEL 3
REMARK VINA RESULT:    -2.772      2.664      3.894
REMARK INTER + INTRA:         -11.410
REMARK INTER:                  -8.666
REMARK INTRA:                  -2.744
REMARK UNBOUND:                -4.100
REMARK SMILES CCCCCCCCCCCCCCCCCCCCCCCCCCCCCC(=O)[O-]
REMARK SMILES IDX 16 1 17 2 18 3 19 4 20 5 21 6 22 7 23 8 24 9 25 10 26 11
REMARK SMILES IDX 27 12 28 13 29 14 30 15 31 16 32 17 15 18 14 19 13 20 12 21
REMARK SMILES IDX 11 22 10 23 9 24 8 25 7 26 6 27 5 28 4 29 3 30 2 31 1 32
REMARK H PARENT
REMARK Flexibility Score: inf
ROOT
ATOM      1  C   UNL     1       7.672  -5.382  -9.147  1.00  0.00     0.000 C 
ENDROOT
BRANCH   1   2
ATOM      2  C   UNL     1       7.597  -6.839  -8.664  1.00  0.00     0.000 C 
BRANCH   2   3
ATOM      3  C   UNL     1       8.863  -7.233  -7.889  1.00  0.00     0.000 C 
BRANCH   3   4
ATOM      4  C   UNL     1       8.551  -7.899  -6.540  1.00  0.00     0.000 C 
BRANCH   4   5
ATOM      5  C   UNL     1       7.511  -7.119  -5.723  1.00  0.00     0.000 C 
BRANCH   5   6
ATOM      6  C   UNL     1       6.905  -8.001  -4.620  1.00  0.00     0.000 C 
BRANCH   6   7
ATOM      7  C   UNL     1       5.586  -7.434  -4.065  1.00  0.00     0.000 C 
BRANCH   7   8
ATOM      8  C   UNL     1       4.328  -7.800  -4.877  1.00  0.00     0.000 C 
BRANCH   8   9
ATOM      9  C   UNL     1       4.577  -8.697  -6.107  1.00  0.00     0.000 C 
BRANCH   9  10
ATOM     10  C   UNL     1       3.848  -8.256  -7.389  1.00  0.00     0.000 C 
BRANCH  10  11
ATOM     11  C   UNL     1       2.954  -7.024  -7.170  1.00  0.00     0.000 C 
BRANCH  11  12
ATOM     12  C   UNL     1       2.813  -6.162  -8.434  1.00  0.00     0.000 C 
BRANCH  12  13
ATOM     13  C   UNL     1       2.354  -4.729  -8.120  1.00  0.00     0.006 C 
BRANCH  13  14
ATOM     14  C   UNL     1       1.632  -4.109  -9.322  1.00  0.00     0.053 C 
BRANCH  14  15
ATOM     15  C   UNL     1       0.807  -2.931  -8.902  1.00  0.00     0.041 C 
ATOM     16  O   UNL     1       1.311  -2.027  -8.182  1.00  0.00    -0.550 OA
ATOM     17  O   UNL     1      -0.517  -2.828  -9.312  1.00  0.00    -0.550 OA
ENDBRANCH  14  15
ENDBRANCH  13  14
ENDBRANCH  12  13
ENDBRANCH  11  12
ENDBRANCH  10  11
ENDBRANCH   9  10
ENDBRANCH   8   9
ENDBRANCH   7   8
ENDBRANCH   6   7
ENDBRANCH   5   6
ENDBRANCH   4   5
ENDBRANCH   3   4
ENDBRANCH   2   3
ENDBRANCH   1   2
BRANCH   1  18
ATOM     18  C   UNL     1       6.484  -4.979 -10.039  1.00  0.00     0.000 C 
BRANCH  18  19
ATOM     19  C   UNL     1       5.501  -3.982  -9.399  1.00  0.00     0.000 C 
BRANCH  19  20
ATOM     20  C   UNL     1       5.623  -2.563  -9.981  1.00  0.00     0.000 C 
BRANCH  20  21
ATOM     21  C   UNL     1       5.585  -1.480  -8.891  1.00  0.00     0.000 C 
BRANCH  21  22
ATOM     22  C   UNL     1       6.737  -0.468  -9.029  1.00  0.00     0.000 C 
BRANCH  22  23
ATOM     23  C   UNL     1       8.125  -1.123  -8.916  1.00  0.00     0.000 C 
BRANCH  23  24
ATOM     24  C   UNL     1       9.312  -0.200  -9.247  1.00  0.00    -0.000 C 
BRANCH  24  25
ATOM     25  C   UNL     1      10.049   0.305  -7.995  1.00  0.00    -0.000 C 
BRANCH  25  26
ATOM     26  C   UNL     1       9.979   1.835  -7.832  1.00  0.00    -0.000 C 
BRANCH  26  27
ATOM     27  C   UNL     1       8.561   2.408  -7.638  1.00  0.00    -0.000 C 
BRANCH  27  28
ATOM     28  C   UNL     1       8.073   3.349  -8.759  1.00  0.00    -0.000 C 
BRANCH  28  29
ATOM     29  C   UNL     1       6.571   3.248  -9.090  1.00  0.00    -0.000 C 
BRANCH  29  30
ATOM     30  C   UNL     1       5.696   4.351  -8.470  1.00  0.00    -0.000 C 
BRANCH  30  31
ATOM     31  C   UNL     1       6.487   5.624  -8.134  1.00  0.00    -0.003 C 
ATOM     32  C   UNL     1       6.532   6.573  -9.331  1.00  0.00     0.004 C 
ENDBRANCH  30  31
ENDBRANCH  29  30
ENDBRANCH  28  29
ENDBRANCH  27  28
ENDBRANCH  26  27
ENDBRANCH  25  26
ENDBRANCH  24  25
ENDBRANCH  23  24
ENDBRANCH  22  23
ENDBRANCH  21  22
ENDBRANCH  20  21
ENDBRANCH  19  20
ENDBRANCH  18  19
ENDBRANCH   1  18
TORSDOF 28
ENDMDL
MODEL 4
REMARK VINA RESULT:    -2.690      1.819      3.026
REMARK INTER + INTRA:         -11.193
REMARK INTER:                  -8.163
REMARK INTRA:                  -3.030
REMARK UNBOUND:                -4.100
REMARK SMILES CCCCCCCCCCCCCCCCCCCCCCCCCCCCCC(=O)[O-]
REMARK SMILES IDX 16 1 17 2 18 3 19 4 20 5 21 6 22 7 23 8 24 9 25 10 26 11
REMARK SMILES IDX 27 12 28 13 29 14 30 15 31 16 32 17 15 18 14 19 13 20 12 21
REMARK SMILES IDX 11 22 10 23 9 24 8 25 7 26 6 27 5 28 4 29 3 30 2 31 1 32
REMARK H PARENT
REMARK Flexibility Score: inf
ROOT
ATOM      1  C   UNL     1       7.728  -5.265  -9.351  1.00  0.00     0.000 C 
ENDROOT
BRANCH   1   2
ATOM      2  C   UNL     1       8.067  -6.760  -9.245  1.00  0.00     0.000 C 
BRANCH   2   3
ATOM      3  C   UNL     1       9.538  -6.969  -8.854  1.00  0.00     0.000 C 
BRANCH   3   4
ATOM      4  C   UNL     1       9.716  -8.026  -7.753  1.00  0.00     0.000 C 
BRANCH   4   5
ATOM      5  C   UNL     1       8.709  -7.858  -6.605  1.00  0.00     0.000 C 
BRANCH   5   6
ATOM      6  C   UNL     1       8.621  -9.139  -5.762  1.00  0.00     0.000 C 
BRANCH   6   7
ATOM      7  C   UNL     1       7.331  -9.209  -4.925  1.00  0.00     0.000 C 
BRANCH   7   8
ATOM      8  C   UNL     1       6.086  -9.704  -5.688  1.00  0.00     0.000 C 
BRANCH   8   9
ATOM      9  C   UNL     1       6.292  -9.942  -7.197  1.00  0.00     0.000 C 
BRANCH   9  10
ATOM     10  C   UNL     1       5.081  -9.590  -8.080  1.00  0.00     0.000 C 
BRANCH  10  11
ATOM     11  C   UNL     1       3.927  -8.959  -7.282  1.00  0.00     0.000 C 
BRANCH  11  12
ATOM     12  C   UNL     1       3.310  -7.745  -7.991  1.00  0.00     0.000 C 
BRANCH  12  13
ATOM     13  C   UNL     1       3.478  -6.446  -7.188  1.00  0.00     0.006 C 
BRANCH  13  14
ATOM     14  C   UNL     1       4.893  -6.338  -6.609  1.00  0.00     0.053 C 
BRANCH  14  15
ATOM     15  C   UNL     1       4.861  -6.328  -5.112  1.00  0.00     0.041 C 
ATOM     16  O   UNL     1       3.771  -6.490  -4.499  1.00  0.00    -0.550 OA
ATOM     17  O   UNL     1       6.037  -6.146  -4.392  1.00  0.00    -0.550 OA
ENDBRANCH  14  15
ENDBRANCH  13  14
ENDBRANCH  12  13
ENDBRANCH  11  12
ENDBRANCH  10  11
ENDBRANCH   9  10
ENDBRANCH   8   9
ENDBRANCH   7   8
ENDBRANCH   6   7
ENDBRANCH   5   6
ENDBRANCH   4   5
ENDBRANCH   3   4
ENDBRANCH   2   3
ENDBRANCH   1   2
BRANCH   1  18
ATOM     18  C   UNL     1       6.414  -4.995 -10.107  1.00  0.00     0.000 C 
BRANCH  18  19
ATOM     19  C   UNL     1       5.404  -4.107  -9.357  1.00  0.00     0.000 C 
BRANCH  19  20
ATOM     20  C   UNL     1       5.302  -2.689  -9.945  1.00  0.00     0.000 C 
BRANCH  20  21
ATOM     21  C   UNL     1       5.252  -1.608  -8.854  1.00  0.00     0.000 C 
BRANCH  21  22
ATOM     22  C   UNL     1       6.389  -0.579  -8.995  1.00  0.00     0.000 C 
BRANCH  22  23
ATOM     23  C   UNL     1       7.787  -1.223  -8.957  1.00  0.00     0.000 C 
BRANCH  23  24
ATOM     24  C   UNL     1       8.938  -0.314  -9.425  1.00  0.00    -0.000 C 
BRANCH  24  25
ATOM     25  C   UNL     1       9.858   0.131  -8.277  1.00  0.00    -0.000 C 
BRANCH  25  26
ATOM     26  C   UNL     1       9.774   1.642  -7.990  1.00  0.00    -0.000 C 
BRANCH  26  27
ATOM     27  C   UNL     1       8.351   2.185  -7.746  1.00  0.00    -0.000 C 
BRANCH  27  28
ATOM     28  C   UNL     1       7.905   3.313  -8.699  1.00  0.00    -0.000 C 
BRANCH  28  29
ATOM     29  C   UNL     1       6.394   3.354  -8.999  1.00  0.00    -0.000 C 
BRANCH  29  30
ATOM     30  C   UNL     1       5.636   4.524  -8.347  1.00  0.00    -0.000 C 
BRANCH  30  31
ATOM     31  C   UNL     1       5.210   5.598  -9.359  1.00  0.00    -0.003 C 
ATOM     32  C   UNL     1       5.863   6.942  -9.039  1.00  0.00     0.004 C 
ENDBRANCH  30  31
ENDBRANCH  29  30
ENDBRANCH  28  29
ENDBRANCH  27  28
ENDBRANCH  26  27
ENDBRANCH  25  26
ENDBRANCH  24  25
ENDBRANCH  23  24
ENDBRANCH  22  23
ENDBRANCH  21  22
ENDBRANCH  20  21
ENDBRANCH  19  20
ENDBRANCH  18  19
ENDBRANCH   1  18
TORSDOF 28
ENDMDL
MODEL 5
REMARK VINA RESULT:    -2.678      2.432      4.014
REMARK INTER + INTRA:         -11.162
REMARK INTER:                  -9.838
REMARK INTRA:                  -1.324
REMARK UNBOUND:                -4.100
REMARK SMILES CCCCCCCCCCCCCCCCCCCCCCCCCCCCCC(=O)[O-]
REMARK SMILES IDX 16 1 17 2 18 3 19 4 20 5 21 6 22 7 23 8 24 9 25 10 26 11
REMARK SMILES IDX 27 12 28 13 29 14 30 15 31 16 32 17 15 18 14 19 13 20 12 21
REMARK SMILES IDX 11 22 10 23 9 24 8 25 7 26 6 27 5 28 4 29 3 30 2 31 1 32
REMARK H PARENT
REMARK Flexibility Score: inf
ROOT
ATOM      1  C   UNL     1       1.532  -4.301  -9.905  1.00  0.00     0.000 C 
ENDROOT
BRANCH   1   2
ATOM      2  C   UNL     1       0.850  -5.661 -10.122  1.00  0.00     0.000 C 
BRANCH   2   3
ATOM      3  C   UNL     1       1.861  -6.812 -10.009  1.00  0.00     0.000 C 
BRANCH   3   4
ATOM      4  C   UNL     1       3.058  -6.466  -9.110  1.00  0.00     0.000 C 
BRANCH   4   5
ATOM      5  C   UNL     1       4.322  -7.257  -9.477  1.00  0.00     0.000 C 
BRANCH   5   6
ATOM      6  C   UNL     1       4.566  -8.396  -8.475  1.00  0.00     0.000 C 
BRANCH   6   7
ATOM      7  C   UNL     1       3.720  -8.253  -7.197  1.00  0.00     0.000 C 
BRANCH   7   8
ATOM      8  C   UNL     1       4.530  -8.099  -5.894  1.00  0.00     0.000 C 
BRANCH   8   9
ATOM      9  C   UNL     1       4.718  -6.648  -5.405  1.00  0.00     0.000 C 
BRANCH   9  10
ATOM     10  C   UNL     1       5.966  -6.414  -4.536  1.00  0.00     0.000 C 
BRANCH  10  11
ATOM     11  C   UNL     1       6.817  -7.684  -4.364  1.00  0.00     0.000 C 
BRANCH  11  12
ATOM     12  C   UNL     1       8.216  -7.548  -4.985  1.00  0.00     0.000 C 
BRANCH  12  13
ATOM     13  C   UNL     1       8.728  -8.872  -5.575  1.00  0.00     0.006 C 
BRANCH  13  14
ATOM     14  C   UNL     1       9.023  -8.727  -7.072  1.00  0.00     0.053 C 
BRANCH  14  15
ATOM     15  C   UNL     1       8.856  -7.306  -7.516  1.00  0.00     0.041 C 
ATOM     16  O   UNL     1       9.857  -6.546  -7.603  1.00  0.00    -0.550 OA
ATOM     17  O   UNL     1       7.593  -6.823  -7.841  1.00  0.00    -0.550 OA
ENDBRANCH  14  15
ENDBRANCH  13  14
ENDBRANCH  12  13
ENDBRANCH  11  12
ENDBRANCH  10  11
ENDBRANCH   9  10
ENDBRANCH   8   9
ENDBRANCH   7   8
ENDBRANCH   6   7
ENDBRANCH   5   6
ENDBRANCH   4   5
ENDBRANCH   3   4
ENDBRANCH   2   3
ENDBRANCH   1   2
BRANCH   1  18
ATOM     18  C   UNL     1       1.529  -3.852  -8.432  1.00  0.00     0.000 C 
BRANCH  18  19
ATOM     19  C   UNL     1       2.177  -2.480  -8.171  1.00  0.00     0.000 C 
BRANCH  19  20
ATOM     20  C   UNL     1       3.715  -2.533  -8.177  1.00  0.00     0.000 C 
BRANCH  20  21
ATOM     21  C   UNL     1       4.272  -3.115  -9.485  1.00  0.00     0.000 C 
BRANCH  21  22
ATOM     22  C   UNL     1       5.802  -2.977  -9.584  1.00  0.00     0.000 C 
BRANCH  22  23
ATOM     23  C   UNL     1       6.318  -1.635  -9.032  1.00  0.00     0.000 C 
BRANCH  23  24
ATOM     24  C   UNL     1       6.604  -0.558 -10.095  1.00  0.00    -0.000 C 
BRANCH  24  25
ATOM     25  C   UNL     1       6.567   0.871  -9.528  1.00  0.00    -0.000 C 
BRANCH  25  26
ATOM     26  C   UNL     1       7.809   1.215  -8.684  1.00  0.00    -0.000 C 
BRANCH  26  27
ATOM     27  C   UNL     1       8.006   2.716  -8.392  1.00  0.00    -0.000 C 
BRANCH  27  28
ATOM     28  C   UNL     1       7.104   3.668  -9.203  1.00  0.00    -0.000 C 
BRANCH  28  29
ATOM     29  C   UNL     1       6.297   4.678  -8.363  1.00  0.00    -0.000 C 
BRANCH  29  30
ATOM     30  C   UNL     1       6.931   6.075  -8.244  1.00  0.00    -0.000 C 
BRANCH  30  31
ATOM     31  C   UNL     1       5.997   7.100  -7.585  1.00  0.00    -0.003 C 
ATOM     32  C   UNL     1       6.691   8.452  -7.427  1.00  0.00     0.004 C 
ENDBRANCH  30  31
ENDBRANCH  29  30
ENDBRANCH  28  29
ENDBRANCH  27  28
ENDBRANCH  26  27
ENDBRANCH  25  26
ENDBRANCH  24  25
ENDBRANCH  23  24
ENDBRANCH  22  23
ENDBRANCH  21  22
ENDBRANCH  20  21
ENDBRANCH  19  20
ENDBRANCH  18  19
ENDBRANCH   1  18
TORSDOF 28
ENDMDL
MODEL 6
REMARK VINA RESULT:    -2.571      7.752     13.194
REMARK INTER + INTRA:         -10.880
REMARK INTER:                  -8.882
REMARK INTRA:                  -1.999
REMARK UNBOUND:                -4.100
REMARK SMILES CCCCCCCCCCCCCCCCCCCCCCCCCCCCCC(=O)[O-]
REMARK SMILES IDX 16 1 17 2 18 3 19 4 20 5 21 6 22 7 23 8 24 9 25 10 26 11
REMARK SMILES IDX 27 12 28 13 29 14 30 15 31 16 32 17 15 18 14 19 13 20 12 21
REMARK SMILES IDX 11 22 10 23 9 24 8 25 7 26 6 27 5 28 4 29 3 30 2 31 1 32
REMARK H PARENT
REMARK Flexibility Score: inf
ROOT
ATOM      1  C   UNL     1      -0.352  -0.835  -9.225  1.00  0.00     0.000 C 
ENDROOT
BRANCH   1   2
ATOM      2  C   UNL     1      -1.410   0.207  -8.832  1.00  0.00     0.000 C 
BRANCH   2   3
ATOM      3  C   UNL     1      -2.513   0.306  -9.897  1.00  0.00     0.000 C 
BRANCH   3   4
ATOM      4  C   UNL     1      -3.049   1.737 -10.067  1.00  0.00     0.000 C 
BRANCH   4   5
ATOM      5  C   UNL     1      -1.928   2.784 -10.125  1.00  0.00     0.000 C 
BRANCH   5   6
ATOM      6  C   UNL     1      -2.498   4.205 -10.002  1.00  0.00     0.000 C 
BRANCH   6   7
ATOM      7  C   UNL     1      -1.434   5.237  -9.587  1.00  0.00     0.000 C 
BRANCH   7   8
ATOM      8  C   UNL     1      -1.833   6.710  -9.807  1.00  0.00     0.000 C 
BRANCH   8   9
ATOM      9  C   UNL     1      -2.521   7.391  -8.607  1.00  0.00     0.000 C 
BRANCH   9  10
ATOM     10  C   UNL     1      -3.972   7.838  -8.859  1.00  0.00     0.000 C 
BRANCH  10  11
ATOM     11  C   UNL     1      -4.872   7.656  -7.624  1.00  0.00     0.000 C 
BRANCH  11  12
ATOM     12  C   UNL     1      -5.220   6.184  -7.357  1.00  0.00     0.000 C 
BRANCH  12  13
ATOM     13  C   UNL     1      -6.652   6.005  -6.830  1.00  0.00     0.006 C 
BRANCH  13  14
ATOM     14  C   UNL     1      -7.106   4.546  -6.960  1.00  0.00     0.053 C 
BRANCH  14  15
ATOM     15  C   UNL     1      -8.440   4.459  -7.637  1.00  0.00     0.041 C 
ATOM     16  O   UNL     1      -9.497   4.686  -6.990  1.00  0.00    -0.550 OA
ATOM     17  O   UNL     1      -8.514   4.134  -8.987  1.00  0.00    -0.550 OA
ENDBRANCH  14  15
ENDBRANCH  13  14
ENDBRANCH  12  13
ENDBRANCH  11  12
ENDBRANCH  10  11
ENDBRANCH   9  10
ENDBRANCH   8   9
ENDBRANCH   7   8
ENDBRANCH   6   7
ENDBRANCH   5   6
ENDBRANCH   4   5
ENDBRANCH   3   4
ENDBRANCH   2   3
ENDBRANCH   1   2
BRANCH   1  18
ATOM     18  C   UNL     1      -0.926  -2.257  -9.362  1.00  0.00     0.000 C 
BRANCH  18  19
ATOM     19  C   UNL     1       0.121  -3.359  -9.608  1.00  0.00     0.000 C 
BRANCH  19  20
ATOM     20  C   UNL     1       1.493  -3.028  -8.995  1.00  0.00     0.000 C 
BRANCH  20  21
ATOM     21  C   UNL     1       1.749  -3.797  -7.690  1.00  0.00     0.000 C 
BRANCH  21  22
ATOM     22  C   UNL     1       2.893  -4.818  -7.824  1.00  0.00     0.000 C 
BRANCH  22  23
ATOM     23  C   UNL     1       2.578  -5.940  -8.830  1.00  0.00     0.000 C 
BRANCH  23  24
ATOM     24  C   UNL     1       3.594  -7.096  -8.859  1.00  0.00    -0.000 C 
BRANCH  24  25
ATOM     25  C   UNL     1       2.959  -8.463  -8.555  1.00  0.00    -0.000 C 
BRANCH  25  26
ATOM     26  C   UNL     1       3.995  -9.598  -8.452  1.00  0.00    -0.000 C 
BRANCH  26  27
ATOM     27  C   UNL     1       4.944  -9.512  -7.240  1.00  0.00    -0.000 C 
BRANCH  27  28
ATOM     28  C   UNL     1       6.357  -8.976  -7.547  1.00  0.00    -0.000 C 
BRANCH  28  29
ATOM     29  C   UNL     1       6.771  -7.727  -6.745  1.00  0.00    -0.000 C 
BRANCH  29  30
ATOM     30  C   UNL     1       6.407  -7.767  -5.250  1.00  0.00    -0.000 C 
BRANCH  30  31
ATOM     31  C   UNL     1       5.844  -6.434  -4.737  1.00  0.00    -0.003 C 
ATOM     32  C   UNL     1       4.329  -6.368  -4.928  1.00  0.00     0.004 C 
ENDBRANCH  30  31
ENDBRANCH  29  30
ENDBRANCH  28  29
ENDBRANCH  27  28
ENDBRANCH  26  27
ENDBRANCH  25  26
ENDBRANCH  24  25
ENDBRANCH  23  24
ENDBRANCH  22  23
ENDBRANCH  21  22
ENDBRANCH  20  21
ENDBRANCH  19  20
ENDBRANCH  18  19
ENDBRANCH   1  18
TORSDOF 28
ENDMDL
MODEL 7
REMARK VINA RESULT:    -2.476      2.225      4.331
REMARK INTER + INTRA:         -10.630
REMARK INTER:                  -8.634
REMARK INTRA:                  -1.996
REMARK UNBOUND:                -4.100
REMARK SMILES CCCCCCCCCCCCCCCCCCCCCCCCCCCCCC(=O)[O-]
REMARK SMILES IDX 16 1 17 2 18 3 19 4 20 5 21 6 22 7 23 8 24 9 25 10 26 11
REMARK SMILES IDX 27 12 28 13 29 14 30 15 31 16 32 17 15 18 14 19 13 20 12 21
REMARK SMILES IDX 11 22 10 23 9 24 8 25 7 26 6 27 5 28 4 29 3 30 2 31 1 32
REMARK H PARENT
REMARK Flexibility Score: inf
ROOT
ATOM      1  C   UNL     1       6.425  -5.403  -8.907  1.00  0.00     0.000 C 
ENDROOT
BRANCH   1   2
ATOM      2  C   UNL     1       6.855  -6.813  -8.473  1.00  0.00     0.000 C 
BRANCH   2   3
ATOM      3  C   UNL     1       8.095  -7.279  -9.252  1.00  0.00     0.000 C 
BRANCH   3   4
ATOM      4  C   UNL     1       8.438  -8.755  -8.995  1.00  0.00     0.000 C 
BRANCH   4   5
ATOM      5  C   UNL     1       9.626  -8.928  -8.038  1.00  0.00     0.000 C 
BRANCH   5   6
ATOM      6  C   UNL     1       9.279  -9.901  -6.902  1.00  0.00     0.000 C 
BRANCH   6   7
ATOM      7  C   UNL     1       9.567  -9.314  -5.509  1.00  0.00     0.000 C 
BRANCH   7   8
ATOM      8  C   UNL     1       9.270  -7.808  -5.362  1.00  0.00     0.000 C 
BRANCH   8   9
ATOM      9  C   UNL     1       7.795  -7.454  -5.084  1.00  0.00     0.000 C 
BRANCH   9  10
ATOM     10  C   UNL     1       6.913  -8.641  -4.655  1.00  0.00     0.000 C 
BRANCH  10  11
ATOM     11  C   UNL     1       5.736  -8.213  -3.761  1.00  0.00     0.000 C 
BRANCH  11  12
ATOM     12  C   UNL     1       4.382  -8.306  -4.481  1.00  0.00     0.000 C 
BRANCH  12  13
ATOM     13  C   UNL     1       4.521  -8.783  -5.936  1.00  0.00     0.006 C 
BRANCH  13  14
ATOM     14  C   UNL     1       3.839  -7.806  -6.900  1.00  0.00     0.053 C 
BRANCH  14  15
ATOM     15  C   UNL     1       3.599  -6.482  -6.241  1.00  0.00     0.041 C 
ATOM     16  O   UNL     1       2.444  -6.168  -5.847  1.00  0.00    -0.550 OA
ATOM     17  O   UNL     1       4.656  -5.597  -6.054  1.00  0.00    -0.550 OA
ENDBRANCH  14  15
ENDBRANCH  13  14
ENDBRANCH  12  13
ENDBRANCH  11  12
ENDBRANCH  10  11
ENDBRANCH   9  10
ENDBRANCH   8   9
ENDBRANCH   7   8
ENDBRANCH   6   7
ENDBRANCH   5   6
ENDBRANCH   4   5
ENDBRANCH   3   4
ENDBRANCH   2   3
ENDBRANCH   1   2
BRANCH   1  18
ATOM     18  C   UNL     1       5.444  -5.409 -10.094  1.00  0.00     0.000 C 
BRANCH  18  19
ATOM     19  C   UNL     1       3.955  -5.435  -9.705  1.00  0.00     0.000 C 
BRANCH  19  20
ATOM     20  C   UNL     1       3.236  -4.106 -10.000  1.00  0.00     0.000 C 
BRANCH  20  21
ATOM     21  C   UNL     1       2.105  -3.822  -9.001  1.00  0.00     0.000 C 
BRANCH  21  22
ATOM     22  C   UNL     1       2.617  -3.171  -7.703  1.00  0.00     0.000 C 
BRANCH  22  23
ATOM     23  C   UNL     1       4.083  -2.709  -7.805  1.00  0.00     0.000 C 
BRANCH  23  24
ATOM     24  C   UNL     1       4.429  -1.907  -9.073  1.00  0.00    -0.000 C 
BRANCH  24  25
ATOM     25  C   UNL     1       5.808  -1.231  -8.999  1.00  0.00    -0.000 C 
BRANCH  25  26
ATOM     26  C   UNL     1       5.972  -0.334  -7.757  1.00  0.00    -0.000 C 
BRANCH  26  27
ATOM     27  C   UNL     1       6.971   0.830  -7.917  1.00  0.00    -0.000 C 
BRANCH  27  28
ATOM     28  C   UNL     1       6.643   1.826  -9.048  1.00  0.00    -0.000 C 
BRANCH  28  29
ATOM     29  C   UNL     1       6.336   3.264  -8.583  1.00  0.00    -0.000 C 
BRANCH  29  30
ATOM     30  C   UNL     1       5.613   4.140  -9.621  1.00  0.00    -0.000 C 
BRANCH  30  31
ATOM     31  C   UNL     1       5.428   5.590  -9.153  1.00  0.00    -0.003 C 
ATOM     32  C   UNL     1       6.208   5.855  -7.867  1.00  0.00     0.004 C 
ENDBRANCH  30  31
ENDBRANCH  29  30
ENDBRANCH  28  29
ENDBRANCH  27  28
ENDBRANCH  26  27
ENDBRANCH  25  26
ENDBRANCH  24  25
ENDBRANCH  23  24
ENDBRANCH  22  23
ENDBRANCH  21  22
ENDBRANCH  20  21
ENDBRANCH  19  20
ENDBRANCH  18  19
ENDBRANCH   1  18
TORSDOF 28
ENDMDL
MODEL 8
REMARK VINA RESULT:    -2.106      7.719     13.415
REMARK INTER + INTRA:          -9.652
REMARK INTER:                  -8.452
REMARK INTRA:                  -1.200
REMARK UNBOUND:                -4.100
REMARK SMILES CCCCCCCCCCCCCCCCCCCCCCCCCCCCCC(=O)[O-]
REMARK SMILES IDX 16 1 17 2 18 3 19 4 20 5 21 6 22 7 23 8 24 9 25 10 26 11
REMARK SMILES IDX 27 12 28 13 29 14 30 15 31 16 32 17 15 18 14 19 13 20 12 21
REMARK SMILES IDX 11 22 10 23 9 24 8 25 7 26 6 27 5 28 4 29 3 30 2 31 1 32
REMARK H PARENT
REMARK Flexibility Score: inf
ROOT
ATOM      1  C   UNL     1      -0.993  -0.762  -9.589  1.00  0.00     0.000 C 
ENDROOT
BRANCH   1   2
ATOM      2  C   UNL     1      -1.949   0.300  -9.024  1.00  0.00     0.000 C 
BRANCH   2   3
ATOM      3  C   UNL     1      -2.856   0.872 -10.124  1.00  0.00     0.000 C 
BRANCH   3   4
ATOM      4  C   UNL     1      -3.162   2.365  -9.927  1.00  0.00     0.000 C 
BRANCH   4   5
ATOM      5  C   UNL     1      -1.900   3.238  -9.981  1.00  0.00     0.000 C 
BRANCH   5   6
ATOM      6  C   UNL     1      -2.266   4.724 -10.114  1.00  0.00     0.000 C 
BRANCH   6   7
ATOM      7  C   UNL     1      -1.603   5.597  -9.033  1.00  0.00     0.000 C 
BRANCH   7   8
ATOM      8  C   UNL     1      -1.708   7.117  -9.269  1.00  0.00     0.000 C 
BRANCH   8   9
ATOM      9  C   UNL     1      -2.901   7.808  -8.579  1.00  0.00     0.000 C 
BRANCH   9  10
ATOM     10  C   UNL     1      -3.862   8.545  -9.530  1.00  0.00     0.000 C 
BRANCH  10  11
ATOM     11  C   UNL     1      -5.102   9.100  -8.809  1.00  0.00     0.000 C 
BRANCH  11  12
ATOM     12  C   UNL     1      -5.088   8.812  -7.300  1.00  0.00     0.000 C 
BRANCH  12  13
ATOM     13  C   UNL     1      -6.219   7.864  -6.871  1.00  0.00     0.006 C 
BRANCH  13  14
ATOM     14  C   UNL     1      -7.005   7.363  -8.088  1.00  0.00     0.053 C 
BRANCH  14  15
ATOM     15  C   UNL     1      -6.891   5.875  -8.223  1.00  0.00     0.041 C 
ATOM     16  O   UNL     1      -5.758   5.329  -8.302  1.00  0.00    -0.550 OA
ATOM     17  O   UNL     1      -8.039   5.090  -8.255  1.00  0.00    -0.550 OA
ENDBRANCH  14  15
ENDBRANCH  13  14
ENDBRANCH  12  13
ENDBRANCH  11  12
ENDBRANCH  10  11
ENDBRANCH   9  10
ENDBRANCH   8   9
ENDBRANCH   7   8
ENDBRANCH   6   7
ENDBRANCH   5   6
ENDBRANCH   4   5
ENDBRANCH   3   4
ENDBRANCH   2   3
ENDBRANCH   1   2
BRANCH   1  18
ATOM     18  C   UNL     1      -1.686  -2.107  -9.877  1.00  0.00     0.000 C 
BRANCH  18  19
ATOM     19  C   UNL     1      -0.780  -3.344  -9.748  1.00  0.00     0.000 C 
BRANCH  19  20
ATOM     20  C   UNL     1       0.709  -2.984  -9.603  1.00  0.00     0.000 C 
BRANCH  20  21
ATOM     21  C   UNL     1       1.061  -2.520  -8.181  1.00  0.00     0.000 C 
BRANCH  21  22
ATOM     22  C   UNL     1       2.185  -3.363  -7.551  1.00  0.00     0.000 C 
BRANCH  22  23
ATOM     23  C   UNL     1       2.570  -4.583  -8.408  1.00  0.00     0.000 C 
BRANCH  23  24
ATOM     24  C   UNL     1       3.548  -5.568  -7.740  1.00  0.00    -0.000 C 
BRANCH  24  25
ATOM     25  C   UNL     1       2.900  -6.386  -6.611  1.00  0.00    -0.000 C 
BRANCH  25  26
ATOM     26  C   UNL     1       3.878  -6.714  -5.468  1.00  0.00    -0.000 C 
BRANCH  26  27
ATOM     27  C   UNL     1       5.297  -6.132  -5.633  1.00  0.00    -0.000 C 
BRANCH  27  28
ATOM     28  C   UNL     1       6.375  -7.143  -6.073  1.00  0.00    -0.000 C 
BRANCH  28  29
ATOM     29  C   UNL     1       7.317  -7.623  -4.951  1.00  0.00    -0.000 C 
BRANCH  29  30
ATOM     30  C   UNL     1       8.645  -8.231  -5.436  1.00  0.00    -0.000 C 
BRANCH  30  31
ATOM     31  C   UNL     1       9.281  -7.436  -6.586  1.00  0.00    -0.003 C 
ATOM     32  C   UNL     1       9.001  -8.101  -7.933  1.00  0.00     0.004 C 
ENDBRANCH  30  31
ENDBRANCH  29  30
ENDBRANCH  28  29
ENDBRANCH  27  28
ENDBRANCH  26  27
ENDBRANCH  25  26
ENDBRANCH  24  25
ENDBRANCH  23  24
ENDBRANCH  22  23
ENDBRANCH  21  22
ENDBRANCH  20  21
ENDBRANCH  19  20
ENDBRANCH  18  19
ENDBRANCH   1  18
TORSDOF 28
ENDMDL
MODEL 9
REMARK VINA RESULT:    -1.898     10.216     15.310
REMARK INTER + INTRA:          -9.104
REMARK INTER:                  -5.807
REMARK INTRA:                  -3.298
REMARK UNBOUND:                -4.100
REMARK SMILES CCCCCCCCCCCCCCCCCCCCCCCCCCCCCC(=O)[O-]
REMARK SMILES IDX 16 1 17 2 18 3 19 4 20 5 21 6 22 7 23 8 24 9 25 10 26 11
REMARK SMILES IDX 27 12 28 13 29 14 30 15 31 16 32 17 15 18 14 19 13 20 12 21
REMARK SMILES IDX 11 22 10 23 9 24 8 25 7 26 6 27 5 28 4 29 3 30 2 31 1 32
REMARK H PARENT
REMARK Flexibility Score: inf
ROOT
ATOM      1  C   UNL     1      -5.207   5.097  -5.039  1.00  0.00     0.000 C 
ENDROOT
BRANCH   1   2
ATOM      2  C   UNL     1      -6.677   5.253  -5.460  1.00  0.00     0.000 C 
BRANCH   2   3
ATOM      3  C   UNL     1      -6.994   6.707  -5.841  1.00  0.00     0.000 C 
BRANCH   3   4
ATOM      4  C   UNL     1      -7.713   7.471  -4.718  1.00  0.00     0.000 C 
BRANCH   4   5
ATOM      5  C   UNL     1      -8.456   8.714  -5.231  1.00  0.00     0.000 C 
BRANCH   5   6
ATOM      6  C   UNL     1      -8.167   8.951  -6.721  1.00  0.00     0.000 C 
BRANCH   6   7
ATOM      7  C   UNL     1      -7.197  10.123  -6.957  1.00  0.00     0.000 C 
BRANCH   7   8
ATOM      8  C   UNL     1      -5.903   9.756  -7.710  1.00  0.00     0.000 C 
BRANCH   8   9
ATOM      9  C   UNL     1      -5.934  10.007  -9.231  1.00  0.00     0.000 C 
BRANCH   9  10
ATOM     10  C   UNL     1      -6.062   8.740 -10.095  1.00  0.00     0.000 C 
BRANCH  10  11
ATOM     11  C   UNL     1      -6.198   7.459  -9.254  1.00  0.00     0.000 C 
BRANCH  11  12
ATOM     12  C   UNL     1      -6.417   6.205 -10.115  1.00  0.00     0.000 C 
BRANCH  12  13
ATOM     13  C   UNL     1      -7.879   5.733 -10.105  1.00  0.00     0.006 C 
BRANCH  13  14
ATOM     14  C   UNL     1      -8.429   5.681  -8.676  1.00  0.00     0.053 C 
BRANCH  14  15
ATOM     15  C   UNL     1      -9.142   4.388  -8.423  1.00  0.00     0.041 C 
ATOM     16  O   UNL     1      -9.299   3.555  -9.356  1.00  0.00    -0.550 OA
ATOM     17  O   UNL     1      -9.627   4.099  -7.152  1.00  0.00    -0.550 OA
ENDBRANCH  14  15
ENDBRANCH  13  14
ENDBRANCH  12  13
ENDBRANCH  11  12
ENDBRANCH  10  11
ENDBRANCH   9  10
ENDBRANCH   8   9
ENDBRANCH   7   8
ENDBRANCH   6   7
ENDBRANCH   5   6
ENDBRANCH   4   5
ENDBRANCH   3   4
ENDBRANCH   2   3
ENDBRANCH   1   2
BRANCH   1  18
ATOM     18  C   UNL     1      -4.423   6.422  -5.083  1.00  0.00     0.000 C 
BRANCH  18  19
ATOM     19  C   UNL     1      -3.141   6.389  -5.935  1.00  0.00     0.000 C 
BRANCH  19  20
ATOM     20  C   UNL     1      -3.093   7.509  -6.988  1.00  0.00     0.000 C 
BRANCH  20  21
ATOM     21  C   UNL     1      -3.055   6.959  -8.423  1.00  0.00     0.000 C 
BRANCH  21  22
ATOM     22  C   UNL     1      -2.343   7.913  -9.398  1.00  0.00     0.000 C 
BRANCH  22  23
ATOM     23  C   UNL     1      -1.146   7.257 -10.111  1.00  0.00     0.000 C 
BRANCH  23  24
ATOM     24  C   UNL     1      -0.096   6.626  -9.178  1.00  0.00    -0.000 C 
BRANCH  24  25
ATOM     25  C   UNL     1      -0.035   5.094  -9.290  1.00  0.00    -0.000 C 
BRANCH  25  26
ATOM     26  C   UNL     1       1.402   4.560  -9.446  1.00  0.00    -0.000 C 
BRANCH  26  27
ATOM     27  C   UNL     1       2.502   5.639  -9.481  1.00  0.00    -0.000 C 
BRANCH  27  28
ATOM     28  C   UNL     1       3.890   5.148  -9.941  1.00  0.00    -0.000 C 
BRANCH  28  29
ATOM     29  C   UNL     1       5.045   6.141  -9.706  1.00  0.00    -0.000 C 
BRANCH  29  30
ATOM     30  C   UNL     1       5.800   5.955  -8.378  1.00  0.00    -0.000 C 
BRANCH  30  31
ATOM     31  C   UNL     1       6.290   7.281  -7.778  1.00  0.00    -0.003 C 
ATOM     32  C   UNL     1       7.087   8.085  -8.804  1.00  0.00     0.004 C 
ENDBRANCH  30  31
ENDBRANCH  29  30
ENDBRANCH  28  29
ENDBRANCH  27  28
ENDBRANCH  26  27
ENDBRANCH  25  26
ENDBRANCH  24  25
ENDBRANCH  23  24
ENDBRANCH  22  23
ENDBRANCH  21  22
ENDBRANCH  20  21
ENDBRANCH  19  20
ENDBRANCH  18  19
ENDBRANCH   1  18
TORSDOF 28
ENDMDL
