MODEL 1
REMARK VINA RESULT:    -7.077      0.000      0.000
REMARK INTER + INTRA:          -9.193
REMARK INTER:                  -8.732
REMARK INTRA:                  -0.461
REMARK UNBOUND:                -0.461
REMARK SMILES CC(C)=CCC[C@H](C)c1ccc(C)cc1
REMARK SMILES IDX 6 1 7 2 8 3 9 4 13 5 12 6 11 7 14 8 10 9 15 10 5 11 4 12
REMARK SMILES IDX 2 13 1 14 3 15
REMARK H PARENT
REMARK Flexibility Score: inf
ROOT
ATOM      1  C   UNL     1      16.930  -3.847  24.445  1.00  0.00     0.012 C 
ENDROOT
BRANCH   1   2
ATOM      2  C   UNL     1      15.864  -4.620  23.635  1.00  0.00     0.016 C 
ATOM      3  C   UNL     1      16.166  -6.125  23.562  1.00  0.00     0.013 C 
BRANCH   2   4
ATOM      4  C   UNL     1      15.738  -4.038  22.238  1.00  0.00    -0.045 A 
ATOM      5  C   UNL     1      15.340  -2.382  18.269  1.00  0.00     0.044 C 
ATOM      6  C   UNL     1      15.492  -2.932  19.656  1.00  0.00    -0.051 A 
ATOM      7  C   UNL     1      14.473  -2.752  20.602  1.00  0.00     0.004 A 
ATOM      8  C   UNL     1      16.624  -3.686  19.997  1.00  0.00     0.004 A 
ATOM      9  C   UNL     1      14.598  -3.296  21.884  1.00  0.00     0.004 A 
ATOM     10  C   UNL     1      16.749  -4.229  21.279  1.00  0.00     0.004 A 
ENDBRANCH   2   4
ENDBRANCH   1   2
BRANCH   1  11
ATOM     11  C   UNL     1      16.589  -3.762  25.940  1.00  0.00     0.028 C 
BRANCH  11  12
ATOM     12  C   UNL     1      16.464  -2.324  26.379  1.00  0.00    -0.028 C 
ATOM     13  C   UNL     1      16.234  -1.934  27.652  1.00  0.00    -0.080 C 
ATOM     14  C   UNL     1      16.097  -0.467  27.974  1.00  0.00     0.039 C 
ATOM     15  C   UNL     1      16.149  -2.920  28.791  1.00  0.00     0.039 C 
ENDBRANCH  11  12
ENDBRANCH   1  11
TORSDOF 4
ENDMDL
MODEL 2
REMARK VINA RESULT:    -6.833     14.040     16.130
REMARK INTER + INTRA:          -8.892
REMARK INTER:                  -8.298
REMARK INTRA:                  -0.594
REMARK UNBOUND:                -0.461
REMARK SMILES CC(C)=CCC[C@H](C)c1ccc(C)cc1
REMARK SMILES IDX 6 1 7 2 8 3 9 4 13 5 12 6 11 7 14 8 10 9 15 10 5 11 4 12
REMARK SMILES IDX 2 13 1 14 3 15
REMARK H PARENT
REMARK Flexibility Score: inf
ROOT
ATOM      1  C   UNL     1       7.971   9.510  19.602  1.00  0.00     0.012 C 
ENDROOT
BRANCH   1   2
ATOM      2  C   UNL     1       6.583   8.855  19.786  1.00  0.00     0.016 C 
ATOM      3  C   UNL     1       5.500   9.537  18.936  1.00  0.00     0.013 C 
BRANCH   2   4
ATOM      4  C   UNL     1       6.186   8.860  21.251  1.00  0.00    -0.045 A 
ATOM      5  C   UNL     1       5.084   8.850  25.428  1.00  0.00     0.044 C 
ATOM      6  C   UNL     1       5.474   8.883  23.979  1.00  0.00    -0.051 A 
ATOM      7  C   UNL     1       6.779   8.550  23.592  1.00  0.00     0.004 A 
ATOM      8  C   UNL     1       4.519   9.181  22.998  1.00  0.00     0.004 A 
ATOM      9  C   UNL     1       7.134   8.544  22.240  1.00  0.00     0.004 A 
ATOM     10  C   UNL     1       4.873   9.176  21.645  1.00  0.00     0.004 A 
ENDBRANCH   2   4
ENDBRANCH   1   2
BRANCH   1  11
ATOM     11  C   UNL     1       9.062   8.492  19.237  1.00  0.00     0.028 C 
BRANCH  11  12
ATOM     12  C   UNL     1      10.365   9.190  18.934  1.00  0.00    -0.028 C 
ATOM     13  C   UNL     1      11.268   9.556  19.870  1.00  0.00    -0.080 C 
ATOM     14  C   UNL     1      12.526  10.277  19.457  1.00  0.00     0.039 C 
ATOM     15  C   UNL     1      11.087   9.228  21.331  1.00  0.00     0.039 C 
ENDBRANCH  11  12
ENDBRANCH   1  11
TORSDOF 4
ENDMDL
MODEL 3
REMARK VINA RESULT:    -6.748     14.255     15.641
REMARK INTER + INTRA:          -8.788
REMARK INTER:                  -7.842
REMARK INTRA:                  -0.945
REMARK UNBOUND:                -0.461
REMARK SMILES CC(C)=CCC[C@H](C)c1ccc(C)cc1
REMARK SMILES IDX 6 1 7 2 8 3 9 4 13 5 12 6 11 7 14 8 10 9 15 10 5 11 4 12
REMARK SMILES IDX 2 13 1 14 3 15
REMARK H PARENT
REMARK Flexibility Score: inf
ROOT
ATOM      1  C   UNL     1       4.470   7.391  21.373  1.00  0.00     0.012 C 
ENDROOT
BRANCH   1   2
ATOM      2  C   UNL     1       5.073   8.804  21.540  1.00  0.00     0.016 C 
ATOM      3  C   UNL     1       4.165   9.897  20.958  1.00  0.00     0.013 C 
BRANCH   2   4
ATOM      4  C   UNL     1       6.451   8.869  20.906  1.00  0.00    -0.045 A 
ATOM      5  C   UNL     1      10.358   9.044  19.072  1.00  0.00     0.044 C 
ATOM      6  C   UNL     1       9.002   9.013  19.712  1.00  0.00    -0.051 A 
ATOM      7  C   UNL     1       7.846   9.091  18.923  1.00  0.00     0.004 A 
ATOM      8  C   UNL     1       8.879   8.839  21.098  1.00  0.00     0.004 A 
ATOM      9  C   UNL     1       6.581   9.026  19.515  1.00  0.00     0.004 A 
ATOM     10  C   UNL     1       7.615   8.774  21.692  1.00  0.00     0.004 A 
ENDBRANCH   2   4
ENDBRANCH   1   2
BRANCH   1  11
ATOM     11  C   UNL     1       4.477   6.586  22.681  1.00  0.00     0.028 C 
BRANCH  11  12
ATOM     12  C   UNL     1       4.014   7.440  23.836  1.00  0.00    -0.028 C 
ATOM     13  C   UNL     1       4.750   7.689  24.942  1.00  0.00    -0.080 C 
ATOM     14  C   UNL     1       4.176   8.533  26.051  1.00  0.00     0.039 C 
ATOM     15  C   UNL     1       6.163   7.182  25.096  1.00  0.00     0.039 C 
ENDBRANCH  11  12
ENDBRANCH   1  11
TORSDOF 4
ENDMDL
MODEL 4
REMARK VINA RESULT:    -6.713      1.041      6.606
REMARK INTER + INTRA:          -8.744
REMARK INTER:                  -8.149
REMARK INTRA:                  -0.595
REMARK UNBOUND:                -0.461
REMARK SMILES CC(C)=CCC[C@H](C)c1ccc(C)cc1
REMARK SMILES IDX 6 1 7 2 8 3 9 4 13 5 12 6 11 7 14 8 10 9 15 10 5 11 4 12
REMARK SMILES IDX 2 13 1 14 3 15
REMARK H PARENT
REMARK Flexibility Score: inf
ROOT
ATOM      1  C   UNL     1      16.694  -3.876  23.614  1.00  0.00     0.012 C 
ENDROOT
BRANCH   1   2
ATOM      2  C   UNL     1      16.974  -4.793  24.826  1.00  0.00     0.016 C 
ATOM      3  C   UNL     1      16.184  -6.109  24.755  1.00  0.00     0.013 C 
BRANCH   2   4
ATOM      4  C   UNL     1      16.671  -4.064  26.122  1.00  0.00    -0.045 A 
ATOM      5  C   UNL     1      15.792  -2.018  29.824  1.00  0.00     0.044 C 
ATOM      6  C   UNL     1      16.127  -2.727  28.545  1.00  0.00    -0.051 A 
ATOM      7  C   UNL     1      16.153  -4.128  28.500  1.00  0.00     0.004 A 
ATOM      8  C   UNL     1      16.350  -1.996  27.369  1.00  0.00     0.004 A 
ATOM      9  C   UNL     1      16.429  -4.791  27.301  1.00  0.00     0.004 A 
ATOM     10  C   UNL     1      16.626  -2.658  26.169  1.00  0.00     0.004 A 
ENDBRANCH   2   4
ENDBRANCH   1   2
BRANCH   1  11
ATOM     11  C   UNL     1      15.754  -4.525  22.585  1.00  0.00     0.028 C 
BRANCH  11  12
ATOM     12  C   UNL     1      14.917  -3.478  21.892  1.00  0.00    -0.028 C 
ATOM     13  C   UNL     1      15.202  -2.957  20.678  1.00  0.00    -0.080 C 
ATOM     14  C   UNL     1      14.310  -1.892  20.091  1.00  0.00     0.039 C 
ATOM     15  C   UNL     1      16.370  -3.437  19.853  1.00  0.00     0.039 C 
ENDBRANCH  11  12
ENDBRANCH   1  11
TORSDOF 4
ENDMDL
MODEL 5
REMARK VINA RESULT:    -6.690     14.478     16.303
REMARK INTER + INTRA:          -8.715
REMARK INTER:                  -7.642
REMARK INTRA:                  -1.073
REMARK UNBOUND:                -0.461
REMARK SMILES CC(C)=CCC[C@H](C)c1ccc(C)cc1
REMARK SMILES IDX 6 1 7 2 8 3 9 4 13 5 12 6 11 7 14 8 10 9 15 10 5 11 4 12
REMARK SMILES IDX 2 13 1 14 3 15
REMARK H PARENT
REMARK Flexibility Score: inf
ROOT
ATOM      1  C   UNL     1       5.982   7.250  24.421  1.00  0.00     0.012 C 
ENDROOT
BRANCH   1   2
ATOM      2  C   UNL     1       6.328   8.652  23.871  1.00  0.00     0.016 C 
ATOM      3  C   UNL     1       5.955   9.772  24.854  1.00  0.00     0.013 C 
BRANCH   2   4
ATOM      4  C   UNL     1       5.650   8.877  22.532  1.00  0.00    -0.045 A 
ATOM      5  C   UNL     1       3.753   9.515  18.704  1.00  0.00     0.044 C 
ATOM      6  C   UNL     1       4.398   9.266  20.035  1.00  0.00    -0.051 A 
ATOM      7  C   UNL     1       5.661   8.662  20.106  1.00  0.00     0.004 A 
ATOM      8  C   UNL     1       3.772   9.697  21.214  1.00  0.00     0.004 A 
ATOM      9  C   UNL     1       6.279   8.463  21.345  1.00  0.00     0.004 A 
ATOM     10  C   UNL     1       4.390   9.499  22.453  1.00  0.00     0.004 A 
ENDBRANCH   2   4
ENDBRANCH   1   2
BRANCH   1  11
ATOM     11  C   UNL     1       4.584   6.776  23.996  1.00  0.00     0.028 C 
BRANCH  11  12
ATOM     12  C   UNL     1       4.652   5.407  23.365  1.00  0.00    -0.028 C 
ATOM     13  C   UNL     1       4.015   5.063  22.224  1.00  0.00    -0.080 C 
ATOM     14  C   UNL     1       4.129   3.654  21.697  1.00  0.00     0.039 C 
ATOM     15  C   UNL     1       3.216   6.057  21.419  1.00  0.00     0.039 C 
ENDBRANCH  11  12
ENDBRANCH   1  11
TORSDOF 4
ENDMDL
MODEL 6
REMARK VINA RESULT:    -6.685     13.962     15.252
REMARK INTER + INTRA:          -8.710
REMARK INTER:                  -7.883
REMARK INTRA:                  -0.827
REMARK UNBOUND:                -0.461
REMARK SMILES CC(C)=CCC[C@H](C)c1ccc(C)cc1
REMARK SMILES IDX 6 1 7 2 8 3 9 4 13 5 12 6 11 7 14 8 10 9 15 10 5 11 4 12
REMARK SMILES IDX 2 13 1 14 3 15
REMARK H PARENT
REMARK Flexibility Score: inf
ROOT
ATOM      1  C   UNL     1       6.032   7.540  23.708  1.00  0.00     0.012 C 
ENDROOT
BRANCH   1   2
ATOM      2  C   UNL     1       6.027   8.861  22.905  1.00  0.00     0.016 C 
ATOM      3  C   UNL     1       4.670   9.132  22.238  1.00  0.00     0.013 C 
BRANCH   2   4
ATOM      4  C   UNL     1       7.134   8.852  21.867  1.00  0.00    -0.045 A 
ATOM      5  C   UNL     1      10.261   8.814  18.886  1.00  0.00     0.044 C 
ATOM      6  C   UNL     1       9.176   8.858  19.922  1.00  0.00    -0.051 A 
ATOM      7  C   UNL     1       7.830   8.879  19.533  1.00  0.00     0.004 A 
ATOM      8  C   UNL     1       9.499   8.810  21.286  1.00  0.00     0.004 A 
ATOM      9  C   UNL     1       6.817   8.882  20.498  1.00  0.00     0.004 A 
ATOM     10  C   UNL     1       8.487   8.814  22.250  1.00  0.00     0.004 A 
ENDBRANCH   2   4
ENDBRANCH   1   2
BRANCH   1  11
ATOM     11  C   UNL     1       4.635   6.911  23.821  1.00  0.00     0.028 C 
BRANCH  11  12
ATOM     12  C   UNL     1       4.665   5.464  23.393  1.00  0.00    -0.028 C 
ATOM     13  C   UNL     1       4.113   4.997  22.251  1.00  0.00    -0.080 C 
ATOM     14  C   UNL     1       4.175   3.524  21.936  1.00  0.00     0.039 C 
ATOM     15  C   UNL     1       3.466   5.911  21.240  1.00  0.00     0.039 C 
ENDBRANCH  11  12
ENDBRANCH   1  11
TORSDOF 4
ENDMDL
MODEL 7
REMARK VINA RESULT:    -6.670     13.539     15.989
REMARK INTER + INTRA:          -8.691
REMARK INTER:                  -8.051
REMARK INTRA:                  -0.640
REMARK UNBOUND:                -0.461
REMARK SMILES CC(C)=CCC[C@H](C)c1ccc(C)cc1
REMARK SMILES IDX 6 1 7 2 8 3 9 4 13 5 12 6 11 7 14 8 10 9 15 10 5 11 4 12
REMARK SMILES IDX 2 13 1 14 3 15
REMARK H PARENT
REMARK Flexibility Score: inf
ROOT
ATOM      1  C   UNL     1       4.497   4.876  22.684  1.00  0.00     0.012 C 
ENDROOT
BRANCH   1   2
ATOM      2  C   UNL     1       3.753   6.224  22.560  1.00  0.00     0.016 C 
ATOM      3  C   UNL     1       3.456   6.594  21.099  1.00  0.00     0.013 C 
BRANCH   2   4
ATOM      4  C   UNL     1       4.545   7.330  23.234  1.00  0.00    -0.045 A 
ATOM      5  C   UNL     1       6.831  10.465  25.133  1.00  0.00     0.044 C 
ATOM      6  C   UNL     1       6.019   9.397  24.460  1.00  0.00    -0.051 A 
ATOM      7  C   UNL     1       6.411   8.894  23.212  1.00  0.00     0.004 A 
ATOM      8  C   UNL     1       4.902   8.848  25.105  1.00  0.00     0.004 A 
ATOM      9  C   UNL     1       5.677   7.873  22.601  1.00  0.00     0.004 A 
ATOM     10  C   UNL     1       4.167   7.827  24.495  1.00  0.00     0.004 A 
ENDBRANCH   2   4
ENDBRANCH   1   2
BRANCH   1  11
ATOM     11  C   UNL     1       3.615   3.676  22.307  1.00  0.00     0.028 C 
BRANCH  11  12
ATOM     12  C   UNL     1       4.373   2.709  21.431  1.00  0.00    -0.028 C 
ATOM     13  C   UNL     1       4.201   2.597  20.095  1.00  0.00    -0.080 C 
ATOM     14  C   UNL     1       4.992   1.574  19.321  1.00  0.00     0.039 C 
ATOM     15  C   UNL     1       3.265   3.498  19.328  1.00  0.00     0.039 C 
ENDBRANCH  11  12
ENDBRANCH   1  11
TORSDOF 4
ENDMDL
MODEL 8
REMARK VINA RESULT:    -6.632     14.301     16.592
REMARK INTER + INTRA:          -8.645
REMARK INTER:                  -7.681
REMARK INTRA:                  -0.964
REMARK UNBOUND:                -0.461
REMARK SMILES CC(C)=CCC[C@H](C)c1ccc(C)cc1
REMARK SMILES IDX 6 1 7 2 8 3 9 4 13 5 12 6 11 7 14 8 10 9 15 10 5 11 4 12
REMARK SMILES IDX 2 13 1 14 3 15
REMARK H PARENT
REMARK Flexibility Score: inf
ROOT
ATOM      1  C   UNL     1       5.401   8.348  19.453  1.00  0.00     0.012 C 
ENDROOT
BRANCH   1   2
ATOM      2  C   UNL     1       4.211   8.556  20.417  1.00  0.00     0.016 C 
ATOM      3  C   UNL     1       3.598   9.959  20.292  1.00  0.00     0.013 C 
BRANCH   2   4
ATOM      4  C   UNL     1       4.638   8.292  21.850  1.00  0.00    -0.045 A 
ATOM      5  C   UNL     1       5.871   7.573  25.926  1.00  0.00     0.044 C 
ATOM      6  C   UNL     1       5.414   7.824  24.520  1.00  0.00    -0.051 A 
ATOM      7  C   UNL     1       5.387   9.130  24.010  1.00  0.00     0.004 A 
ATOM      8  C   UNL     1       5.075   6.750  23.685  1.00  0.00     0.004 A 
ATOM      9  C   UNL     1       4.996   9.362  22.687  1.00  0.00     0.004 A 
ATOM     10  C   UNL     1       4.684   6.982  22.362  1.00  0.00     0.004 A 
ENDBRANCH   2   4
ENDBRANCH   1   2
BRANCH   1  11
ATOM     11  C   UNL     1       6.225   9.628  19.246  1.00  0.00     0.028 C 
BRANCH  11  12
ATOM     12  C   UNL     1       7.638   9.294  18.837  1.00  0.00    -0.028 C 
ATOM     13  C   UNL     1       8.624   8.968  19.704  1.00  0.00    -0.080 C 
ATOM     14  C   UNL     1      10.011   8.681  19.187  1.00  0.00     0.039 C 
ATOM     15  C   UNL     1       8.378   8.835  21.186  1.00  0.00     0.039 C 
ENDBRANCH  11  12
ENDBRANCH   1  11
TORSDOF 4
ENDMDL
MODEL 9
REMARK VINA RESULT:    -6.550     13.895     15.614
REMARK INTER + INTRA:          -8.543
REMARK INTER:                  -8.008
REMARK INTRA:                  -0.535
REMARK UNBOUND:                -0.461
REMARK SMILES CC(C)=CCC[C@H](C)c1ccc(C)cc1
REMARK SMILES IDX 6 1 7 2 8 3 9 4 13 5 12 6 11 7 14 8 10 9 15 10 5 11 4 12
REMARK SMILES IDX 2 13 1 14 3 15
REMARK H PARENT
REMARK Flexibility Score: inf
ROOT
ATOM      1  C   UNL     1       4.000   7.718  21.014  1.00  0.00     0.012 C 
ENDROOT
BRANCH   1   2
ATOM      2  C   UNL     1       2.907   6.839  20.364  1.00  0.00     0.016 C 
ATOM      3  C   UNL     1       1.601   6.841  21.173  1.00  0.00     0.013 C 
BRANCH   2   4
ATOM      4  C   UNL     1       3.411   5.419  20.177  1.00  0.00    -0.045 A 
ATOM      5  C   UNL     1       4.840   1.383  19.610  1.00  0.00     0.044 C 
ATOM      6  C   UNL     1       4.372   2.793  19.816  1.00  0.00    -0.051 A 
ATOM      7  C   UNL     1       4.404   3.710  18.756  1.00  0.00     0.004 A 
ATOM      8  C   UNL     1       3.836   3.186  21.051  1.00  0.00     0.004 A 
ATOM      9  C   UNL     1       3.933   5.014  18.937  1.00  0.00     0.004 A 
ATOM     10  C   UNL     1       3.366   4.490  21.233  1.00  0.00     0.004 A 
ENDBRANCH   2   4
ENDBRANCH   1   2
BRANCH   1  11
ATOM     11  C   UNL     1       3.770   7.932  22.518  1.00  0.00     0.028 C 
BRANCH  11  12
ATOM     12  C   UNL     1       4.856   8.799  23.106  1.00  0.00    -0.028 C 
ATOM     13  C   UNL     1       5.126   8.888  24.428  1.00  0.00    -0.080 C 
ATOM     14  C   UNL     1       6.217   9.811  24.909  1.00  0.00     0.039 C 
ATOM     15  C   UNL     1       4.398   8.056  25.454  1.00  0.00     0.039 C 
ENDBRANCH  11  12
ENDBRANCH   1  11
TORSDOF 4
ENDMDL
