MODEL 1
REMARK VINA RESULT:    -7.040      0.000      0.000
REMARK INTER + INTRA:          -8.537
REMARK INTER:                  -8.274
REMARK INTRA:                  -0.263
REMARK UNBOUND:                -0.263
REMARK SMILES O=c1cc(-c2ccc(O)c(O)c2)oc2cc(O)cc(O)c12
REMARK SMILES IDX 4 1 3 2 2 3 1 4 21 5 19 6 18 7 16 8 15 9 14 10 13 11 5 12
REMARK SMILES IDX 6 13 7 14 8 15 12 16 10 17 9 18 11 20 20 22 17 24
REMARK H PARENT 9 19 11 21 20 23 17 25
REMARK Flexibility Score: inf
ROOT
ATOM      1  C   UNL     1      32.266  -0.146 165.438  1.00  0.00     0.138 A 
ATOM      2  C   UNL     1      32.070  -0.800 164.213  1.00  0.00     0.100 A 
ATOM      3  C   UNL     1      30.965  -1.637 164.046  1.00  0.00     0.197 A 
ATOM      4  O   UNL     1      30.783  -2.159 162.916  1.00  0.00    -0.289 OA
ATOM      5  C   UNL     1      30.069  -1.843 165.122  1.00  0.00     0.107 A 
ATOM      6  C   UNL     1      28.933  -2.704 165.079  1.00  0.00     0.134 A 
ATOM      7  C   UNL     1      28.052  -2.740 166.166  1.00  0.00     0.093 A 
ATOM      8  C   UNL     1      28.300  -1.990 167.320  1.00  0.00     0.123 A 
ATOM      9  C   UNL     1      29.436  -1.187 167.392  1.00  0.00     0.094 A 
ATOM     10  C   UNL     1      30.315  -1.104 166.310  1.00  0.00     0.146 A 
ATOM     11  O   UNL     1      31.379  -0.315 166.414  1.00  0.00    -0.456 OA
ENDROOT
BRANCH   1  12
ATOM     12  C   UNL     1      33.423   0.752 165.671  1.00  0.00     0.021 A 
ATOM     13  C   UNL     1      33.283   2.153 165.677  1.00  0.00     0.016 A 
ATOM     14  C   UNL     1      34.393   2.976 165.888  1.00  0.00     0.051 A 
ATOM     15  C   UNL     1      35.661   2.416 166.090  1.00  0.00     0.157 A 
ATOM     16  C   UNL     1      34.703   0.199 165.860  1.00  0.00     0.062 A 
ATOM     17  C   UNL     1      35.815   1.021 166.073  1.00  0.00     0.158 A 
BRANCH  15  18
ATOM     18  O   UNL     1      36.765   3.240 166.302  1.00  0.00    -0.504 OA
ATOM     19  H   UNL     1      36.698   4.248 166.224  1.00  0.00     0.293 HD
ENDBRANCH  15  18
BRANCH  17  20
ATOM     20  O   UNL     1      37.065   0.432 166.266  1.00  0.00    -0.504 OA
ATOM     21  H   UNL     1      37.330  -0.431 165.806  1.00  0.00     0.293 HD
ENDBRANCH  17  20
ENDBRANCH   1  12
BRANCH   6  22
ATOM     22  O   UNL     1      28.640  -3.558 164.011  1.00  0.00    -0.507 OA
ATOM     23  H   UNL     1      29.259  -3.747 163.237  1.00  0.00     0.293 HD
ENDBRANCH   6  22
BRANCH   8  24
ATOM     24  O   UNL     1      27.426  -2.043 168.403  1.00  0.00    -0.508 OA
ATOM     25  H   UNL     1      27.753  -1.924 169.355  1.00  0.00     0.293 HD
ENDBRANCH   8  24
TORSDOF 5
ENDMDL
MODEL 2
REMARK VINA RESULT:    -7.022      1.375      2.784
REMARK INTER + INTRA:          -8.517
REMARK INTER:                  -8.210
REMARK INTRA:                  -0.307
REMARK UNBOUND:                -0.263
REMARK SMILES O=c1cc(-c2ccc(O)c(O)c2)oc2cc(O)cc(O)c12
REMARK SMILES IDX 4 1 3 2 2 3 1 4 21 5 19 6 18 7 16 8 15 9 14 10 13 11 5 12
REMARK SMILES IDX 6 13 7 14 8 15 12 16 10 17 9 18 11 20 20 22 17 24
REMARK H PARENT 9 19 11 21 20 23 17 25
REMARK Flexibility Score: inf
ROOT
ATOM      1  C   UNL     1      31.824   0.289 166.140  1.00  0.00     0.138 A 
ATOM      2  C   UNL     1      31.213   0.493 167.386  1.00  0.00     0.100 A 
ATOM      3  C   UNL     1      30.094  -0.263 167.737  1.00  0.00     0.197 A 
ATOM      4  O   UNL     1      29.606  -0.101 168.886  1.00  0.00    -0.289 OA
ATOM      5  C   UNL     1      29.565  -1.205 166.823  1.00  0.00     0.107 A 
ATOM      6  C   UNL     1      28.405  -2.001 167.057  1.00  0.00     0.134 A 
ATOM      7  C   UNL     1      28.044  -2.984 166.128  1.00  0.00     0.093 A 
ATOM      8  C   UNL     1      28.766  -3.157 164.944  1.00  0.00     0.123 A 
ATOM      9  C   UNL     1      29.869  -2.348 164.681  1.00  0.00     0.094 A 
ATOM     10  C   UNL     1      30.275  -1.383 165.605  1.00  0.00     0.146 A 
ATOM     11  O   UNL     1      31.341  -0.640 165.323  1.00  0.00    -0.456 OA
ENDROOT
BRANCH   1  12
ATOM     12  C   UNL     1      33.016   1.065 165.715  1.00  0.00     0.021 A 
ATOM     13  C   UNL     1      33.234   2.385 166.153  1.00  0.00     0.016 A 
ATOM     14  C   UNL     1      34.360   3.096 165.728  1.00  0.00     0.051 A 
ATOM     15  C   UNL     1      35.282   2.507 164.855  1.00  0.00     0.157 A 
ATOM     16  C   UNL     1      33.939   0.486 164.826  1.00  0.00     0.062 A 
ATOM     17  C   UNL     1      35.068   1.196 164.400  1.00  0.00     0.158 A 
BRANCH  15  18
ATOM     18  O   UNL     1      36.403   3.219 164.434  1.00  0.00    -0.504 OA
ATOM     19  H   UNL     1      36.352   3.895 163.681  1.00  0.00     0.293 HD
ENDBRANCH  15  18
BRANCH  17  20
ATOM     20  O   UNL     1      35.964   0.581 163.526  1.00  0.00    -0.504 OA
ATOM     21  H   UNL     1      36.967   0.668 163.635  1.00  0.00     0.293 HD
ENDBRANCH  17  20
ENDBRANCH   1  12
BRANCH   6  22
ATOM     22  O   UNL     1      27.566  -1.852 168.166  1.00  0.00    -0.507 OA
ATOM     23  H   UNL     1      27.815  -1.374 169.018  1.00  0.00     0.293 HD
ENDBRANCH   6  22
BRANCH   8  24
ATOM     24  O   UNL     1      28.390  -4.128 164.018  1.00  0.00    -0.508 OA
ATOM     25  H   UNL     1      28.717  -5.084 164.090  1.00  0.00     0.293 HD
ENDBRANCH   8  24
TORSDOF 5
ENDMDL
MODEL 3
REMARK VINA RESULT:    -6.931      0.609      1.458
REMARK INTER + INTRA:          -8.409
REMARK INTER:                  -8.137
REMARK INTRA:                  -0.273
REMARK UNBOUND:                -0.263
REMARK SMILES O=c1cc(-c2ccc(O)c(O)c2)oc2cc(O)cc(O)c12
REMARK SMILES IDX 4 1 3 2 2 3 1 4 21 5 19 6 18 7 16 8 15 9 14 10 13 11 5 12
REMARK SMILES IDX 6 13 7 14 8 15 12 16 10 17 9 18 11 20 20 22 17 24
REMARK H PARENT 9 19 11 21 20 23 17 25
REMARK Flexibility Score: inf
ROOT
ATOM      1  C   UNL     1      32.365  -0.349 165.300  1.00  0.00     0.138 A 
ATOM      2  C   UNL     1      32.084  -0.974 164.077  1.00  0.00     0.100 A 
ATOM      3  C   UNL     1      30.921  -1.732 163.940  1.00  0.00     0.197 A 
ATOM      4  O   UNL     1      30.665  -2.229 162.813  1.00  0.00    -0.289 OA
ATOM      5  C   UNL     1      30.050  -1.891 165.045  1.00  0.00     0.107 A 
ATOM      6  C   UNL     1      28.858  -2.674 165.034  1.00  0.00     0.134 A 
ATOM      7  C   UNL     1      28.014  -2.663 166.151  1.00  0.00     0.093 A 
ATOM      8  C   UNL     1      28.352  -1.944 167.302  1.00  0.00     0.123 A 
ATOM      9  C   UNL     1      29.541  -1.220 167.342  1.00  0.00     0.094 A 
ATOM     10  C   UNL     1      30.386  -1.184 166.231  1.00  0.00     0.146 A 
ATOM     11  O   UNL     1      31.504  -0.469 166.305  1.00  0.00    -0.456 OA
ENDROOT
BRANCH   1  12
ATOM     12  C   UNL     1      33.588   0.468 165.500  1.00  0.00     0.021 A 
ATOM     13  C   UNL     1      34.871  -0.110 165.503  1.00  0.00     0.016 A 
ATOM     14  C   UNL     1      36.005   0.682 165.704  1.00  0.00     0.051 A 
ATOM     15  C   UNL     1      35.878   2.061 165.913  1.00  0.00     0.157 A 
ATOM     16  C   UNL     1      33.468   1.852 165.725  1.00  0.00     0.062 A 
ATOM     17  C   UNL     1      34.602   2.647 165.926  1.00  0.00     0.158 A 
BRANCH  15  18
ATOM     18  O   UNL     1      37.011   2.847 166.112  1.00  0.00    -0.504 OA
ATOM     19  H   UNL     1      36.993   3.851 165.974  1.00  0.00     0.293 HD
ENDBRANCH  15  18
BRANCH  17  20
ATOM     20  O   UNL     1      34.440   4.016 166.136  1.00  0.00    -0.504 OA
ATOM     21  H   UNL     1      34.834   4.707 165.509  1.00  0.00     0.293 HD
ENDBRANCH  17  20
ENDBRANCH   1  12
BRANCH   6  22
ATOM     22  O   UNL     1      28.472  -3.494 163.969  1.00  0.00    -0.507 OA
ATOM     23  H   UNL     1      28.868  -3.460 163.042  1.00  0.00     0.293 HD
ENDBRANCH   6  22
BRANCH   8  24
ATOM     24  O   UNL     1      27.514  -1.951 168.415  1.00  0.00    -0.508 OA
ATOM     25  H   UNL     1      26.718  -2.576 168.476  1.00  0.00     0.293 HD
ENDBRANCH   8  24
TORSDOF 5
ENDMDL
MODEL 4
REMARK VINA RESULT:    -6.841      2.506      7.098
REMARK INTER + INTRA:          -8.304
REMARK INTER:                  -7.989
REMARK INTRA:                  -0.315
REMARK UNBOUND:                -0.263
REMARK SMILES O=c1cc(-c2ccc(O)c(O)c2)oc2cc(O)cc(O)c12
REMARK SMILES IDX 4 1 3 2 2 3 1 4 21 5 19 6 18 7 16 8 15 9 14 10 13 11 5 12
REMARK SMILES IDX 6 13 7 14 8 15 12 16 10 17 9 18 11 20 20 22 17 24
REMARK H PARENT 9 19 11 21 20 23 17 25
REMARK Flexibility Score: inf
ROOT
ATOM      1  C   UNL     1      32.597   1.134 165.740  1.00  0.00     0.138 A 
ATOM      2  C   UNL     1      32.895   0.681 164.447  1.00  0.00     0.100 A 
ATOM      3  C   UNL     1      33.897   1.312 163.708  1.00  0.00     0.197 A 
ATOM      4  O   UNL     1      34.184   0.844 162.576  1.00  0.00    -0.289 OA
ATOM      5  C   UNL     1      34.583   2.422 164.257  1.00  0.00     0.107 A 
ATOM      6  C   UNL     1      35.594   3.168 163.581  1.00  0.00     0.134 A 
ATOM      7  C   UNL     1      36.285   4.174 164.268  1.00  0.00     0.093 A 
ATOM      8  C   UNL     1      35.958   4.501 165.587  1.00  0.00     0.123 A 
ATOM      9  C   UNL     1      34.936   3.815 166.238  1.00  0.00     0.094 A 
ATOM     10  C   UNL     1      34.252   2.783 165.591  1.00  0.00     0.146 A 
ATOM     11  O   UNL     1      33.293   2.143 166.252  1.00  0.00    -0.456 OA
ENDROOT
BRANCH   1  12
ATOM     12  C   UNL     1      31.540   0.501 166.568  1.00  0.00     0.021 A 
ATOM     13  C   UNL     1      30.982  -0.746 166.229  1.00  0.00     0.016 A 
ATOM     14  C   UNL     1      29.981  -1.314 167.022  1.00  0.00     0.051 A 
ATOM     15  C   UNL     1      29.514  -0.645 168.160  1.00  0.00     0.157 A 
ATOM     16  C   UNL     1      31.055   1.172 167.705  1.00  0.00     0.062 A 
ATOM     17  C   UNL     1      30.053   0.605 168.500  1.00  0.00     0.158 A 
BRANCH  15  18
ATOM     18  O   UNL     1      28.516  -1.216 168.948  1.00  0.00    -0.504 OA
ATOM     19  H   UNL     1      27.708  -0.683 169.249  1.00  0.00     0.293 HD
ENDBRANCH  15  18
BRANCH  17  20
ATOM     20  O   UNL     1      29.608   1.300 169.625  1.00  0.00    -0.504 OA
ATOM     21  H   UNL     1      30.216   1.502 170.409  1.00  0.00     0.293 HD
ENDBRANCH  17  20
ENDBRANCH   1  12
BRANCH   6  22
ATOM     22  O   UNL     1      35.938   2.979 162.239  1.00  0.00    -0.507 OA
ATOM     23  H   UNL     1      36.415   2.168 161.875  1.00  0.00     0.293 HD
ENDBRANCH   6  22
BRANCH   8  24
ATOM     24  O   UNL     1      36.641   5.514 166.257  1.00  0.00    -0.508 OA
ATOM     25  H   UNL     1      36.443   6.493 166.082  1.00  0.00     0.293 HD
ENDBRANCH   8  24
TORSDOF 5
ENDMDL
MODEL 5
REMARK VINA RESULT:    -6.766      1.708      6.799
REMARK INTER + INTRA:          -8.216
REMARK INTER:                  -7.925
REMARK INTRA:                  -0.292
REMARK UNBOUND:                -0.263
REMARK SMILES O=c1cc(-c2ccc(O)c(O)c2)oc2cc(O)cc(O)c12
REMARK SMILES IDX 4 1 3 2 2 3 1 4 21 5 19 6 18 7 16 8 15 9 14 10 13 11 5 12
REMARK SMILES IDX 6 13 7 14 8 15 12 16 10 17 9 18 11 20 20 22 17 24
REMARK H PARENT 9 19 11 21 20 23 17 25
REMARK Flexibility Score: inf
ROOT
ATOM      1  C   UNL     1      32.034  -0.503 165.452  1.00  0.00     0.138 A 
ATOM      2  C   UNL     1      32.425  -1.206 164.304  1.00  0.00     0.100 A 
ATOM      3  C   UNL     1      33.574  -0.816 163.613  1.00  0.00     0.197 A 
ATOM      4  O   UNL     1      33.933  -1.505 162.623  1.00  0.00    -0.289 OA
ATOM      5  C   UNL     1      34.317   0.303 164.058  1.00  0.00     0.107 A 
ATOM      6  C   UNL     1      35.481   0.815 163.411  1.00  0.00     0.134 A 
ATOM      7  C   UNL     1      36.201   1.856 164.009  1.00  0.00     0.093 A 
ATOM      8  C   UNL     1      35.764   2.444 165.199  1.00  0.00     0.123 A 
ATOM      9  C   UNL     1      34.600   1.987 165.811  1.00  0.00     0.094 A 
ATOM     10  C   UNL     1      33.879   0.927 165.257  1.00  0.00     0.146 A 
ATOM     11  O   UNL     1      32.781   0.511 165.880  1.00  0.00    -0.456 OA
ENDROOT
BRANCH   1  12
ATOM     12  C   UNL     1      30.821  -0.873 166.223  1.00  0.00     0.021 A 
ATOM     13  C   UNL     1      30.631  -0.449 167.552  1.00  0.00     0.016 A 
ATOM     14  C   UNL     1      29.484  -0.821 168.257  1.00  0.00     0.051 A 
ATOM     15  C   UNL     1      28.511  -1.627 167.653  1.00  0.00     0.157 A 
ATOM     16  C   UNL     1      29.846  -1.694 165.629  1.00  0.00     0.062 A 
ATOM     17  C   UNL     1      28.696  -2.067 166.333  1.00  0.00     0.158 A 
BRANCH  15  18
ATOM     18  O   UNL     1      27.368  -1.995 168.360  1.00  0.00    -0.504 OA
ATOM     19  H   UNL     1      26.467  -1.572 168.171  1.00  0.00     0.293 HD
ENDBRANCH  15  18
BRANCH  17  20
ATOM     20  O   UNL     1      27.749  -2.875 165.703  1.00  0.00    -0.504 OA
ATOM     21  H   UNL     1      27.791  -3.886 165.745  1.00  0.00     0.293 HD
ENDBRANCH  17  20
ENDBRANCH   1  12
BRANCH   6  22
ATOM     22  O   UNL     1      35.954   0.357 162.178  1.00  0.00    -0.507 OA
ATOM     23  H   UNL     1      36.591  -0.416 162.055  1.00  0.00     0.293 HD
ENDBRANCH   6  22
BRANCH   8  24
ATOM     24  O   UNL     1      36.480   3.491 165.779  1.00  0.00    -0.508 OA
ATOM     25  H   UNL     1      37.442   3.375 166.074  1.00  0.00     0.293 HD
ENDBRANCH   8  24
TORSDOF 5
ENDMDL
MODEL 6
REMARK VINA RESULT:    -6.722      2.132      7.063
REMARK INTER + INTRA:          -8.165
REMARK INTER:                  -7.855
REMARK INTRA:                  -0.309
REMARK UNBOUND:                -0.263
REMARK SMILES O=c1cc(-c2ccc(O)c(O)c2)oc2cc(O)cc(O)c12
REMARK SMILES IDX 4 1 3 2 2 3 1 4 21 5 19 6 18 7 16 8 15 9 14 10 13 11 5 12
REMARK SMILES IDX 6 13 7 14 8 15 12 16 10 17 9 18 11 20 20 22 17 24
REMARK H PARENT 9 19 11 21 20 23 17 25
REMARK Flexibility Score: inf
ROOT
ATOM      1  C   UNL     1      32.203   0.590 165.986  1.00  0.00     0.138 A 
ATOM      2  C   UNL     1      32.628   1.887 166.305  1.00  0.00     0.100 A 
ATOM      3  C   UNL     1      33.709   2.447 165.622  1.00  0.00     0.197 A 
ATOM      4  O   UNL     1      34.026   3.636 165.887  1.00  0.00    -0.289 OA
ATOM      5  C   UNL     1      34.388   1.690 164.638  1.00  0.00     0.107 A 
ATOM      6  C   UNL     1      35.527   2.143 163.908  1.00  0.00     0.134 A 
ATOM      7  C   UNL     1      36.045   1.352 162.875  1.00  0.00     0.093 A 
ATOM      8  C   UNL     1      35.501   0.096 162.588  1.00  0.00     0.123 A 
ATOM      9  C   UNL     1      34.422  -0.377 163.330  1.00  0.00     0.094 A 
ATOM     10  C   UNL     1      33.862   0.404 164.344  1.00  0.00     0.146 A 
ATOM     11  O   UNL     1      32.824  -0.079 165.019  1.00  0.00    -0.456 OA
ENDROOT
BRANCH   1  12
ATOM     12  C   UNL     1      31.061  -0.054 166.680  1.00  0.00     0.021 A 
ATOM     13  C   UNL     1      30.704   0.293 167.997  1.00  0.00     0.016 A 
ATOM     14  C   UNL     1      29.629  -0.338 168.630  1.00  0.00     0.051 A 
ATOM     15  C   UNL     1      28.898  -1.328 167.965  1.00  0.00     0.157 A 
ATOM     16  C   UNL     1      30.329  -1.061 166.024  1.00  0.00     0.062 A 
ATOM     17  C   UNL     1      29.252  -1.693 166.656  1.00  0.00     0.158 A 
BRANCH  15  18
ATOM     18  O   UNL     1      27.826  -1.954 168.599  1.00  0.00    -0.504 OA
ATOM     19  H   UNL     1      26.867  -1.768 168.329  1.00  0.00     0.293 HD
ENDBRANCH  15  18
BRANCH  17  20
ATOM     20  O   UNL     1      28.547  -2.679 165.966  1.00  0.00    -0.504 OA
ATOM     21  H   UNL     1      28.681  -2.843 164.976  1.00  0.00     0.293 HD
ENDBRANCH  17  20
ENDBRANCH   1  12
BRANCH   6  22
ATOM     22  O   UNL     1      36.199   3.341 164.172  1.00  0.00    -0.507 OA
ATOM     23  H   UNL     1      36.746   3.856 163.499  1.00  0.00     0.293 HD
ENDBRANCH   6  22
BRANCH   8  24
ATOM     24  O   UNL     1      36.032  -0.691 161.568  1.00  0.00    -0.508 OA
ATOM     25  H   UNL     1      36.900  -0.446 161.107  1.00  0.00     0.293 HD
ENDBRANCH   8  24
TORSDOF 5
ENDMDL
MODEL 7
REMARK VINA RESULT:    -6.515      2.146      3.421
REMARK INTER + INTRA:          -7.920
REMARK INTER:                  -7.626
REMARK INTRA:                  -0.294
REMARK UNBOUND:                -0.263
REMARK SMILES O=c1cc(-c2ccc(O)c(O)c2)oc2cc(O)cc(O)c12
REMARK SMILES IDX 4 1 3 2 2 3 1 4 21 5 19 6 18 7 16 8 15 9 14 10 13 11 5 12
REMARK SMILES IDX 6 13 7 14 8 15 12 16 10 17 9 18 11 20 20 22 17 24
REMARK H PARENT 9 19 11 21 20 23 17 25
REMARK Flexibility Score: inf
ROOT
ATOM      1  C   UNL     1      32.444  -0.402 164.996  1.00  0.00     0.138 A 
ATOM      2  C   UNL     1      32.443   0.196 166.264  1.00  0.00     0.100 A 
ATOM      3  C   UNL     1      31.382  -0.044 167.140  1.00  0.00     0.197 A 
ATOM      4  O   UNL     1      31.440   0.456 168.293  1.00  0.00    -0.289 OA
ATOM      5  C   UNL     1      30.302  -0.862 166.729  1.00  0.00     0.107 A 
ATOM      6  C   UNL     1      29.150  -1.143 167.521  1.00  0.00     0.134 A 
ATOM      7  C   UNL     1      28.200  -2.061 167.057  1.00  0.00     0.093 A 
ATOM      8  C   UNL     1      28.331  -2.660 165.801  1.00  0.00     0.123 A 
ATOM      9  C   UNL     1      29.426  -2.352 164.997  1.00  0.00     0.094 A 
ATOM     10  C   UNL     1      30.408  -1.467 165.448  1.00  0.00     0.146 A 
ATOM     11  O   UNL     1      31.444  -1.209 164.657  1.00  0.00    -0.456 OA
ENDROOT
BRANCH   1  12
ATOM     12  C   UNL     1      33.545  -0.180 164.026  1.00  0.00     0.021 A 
ATOM     13  C   UNL     1      33.623  -0.899 162.819  1.00  0.00     0.016 A 
ATOM     14  C   UNL     1      34.677  -0.676 161.928  1.00  0.00     0.051 A 
ATOM     15  C   UNL     1      35.673   0.260 162.230  1.00  0.00     0.157 A 
ATOM     16  C   UNL     1      34.558   0.748 164.328  1.00  0.00     0.062 A 
ATOM     17  C   UNL     1      35.614   0.973 163.438  1.00  0.00     0.158 A 
BRANCH  15  18
ATOM     18  O   UNL     1      36.722   0.479 161.338  1.00  0.00    -0.504 OA
ATOM     19  H   UNL     1      37.690   0.370 161.619  1.00  0.00     0.293 HD
ENDBRANCH  15  18
BRANCH  17  20
ATOM     20  O   UNL     1      36.593   1.910 163.771  1.00  0.00    -0.504 OA
ATOM     21  H   UNL     1      36.627   2.827 163.342  1.00  0.00     0.293 HD
ENDBRANCH  17  20
ENDBRANCH   1  12
BRANCH   6  22
ATOM     22  O   UNL     1      28.879  -0.534 168.751  1.00  0.00    -0.507 OA
ATOM     23  H   UNL     1      29.259  -0.831 169.637  1.00  0.00     0.293 HD
ENDBRANCH   6  22
BRANCH   8  24
ATOM     24  O   UNL     1      27.373  -3.561 165.340  1.00  0.00    -0.508 OA
ATOM     25  H   UNL     1      27.522  -4.563 165.385  1.00  0.00     0.293 HD
ENDBRANCH   8  24
TORSDOF 5
ENDMDL
MODEL 8
REMARK VINA RESULT:    -6.419      2.459      2.820
REMARK INTER + INTRA:          -7.808
REMARK INTER:                  -7.523
REMARK INTRA:                  -0.285
REMARK UNBOUND:                -0.263
REMARK SMILES O=c1cc(-c2ccc(O)c(O)c2)oc2cc(O)cc(O)c12
REMARK SMILES IDX 4 1 3 2 2 3 1 4 21 5 19 6 18 7 16 8 15 9 14 10 13 11 5 12
REMARK SMILES IDX 6 13 7 14 8 15 12 16 10 17 9 18 11 20 20 22 17 24
REMARK H PARENT 9 19 11 21 20 23 17 25
REMARK Flexibility Score: inf
ROOT
ATOM      1  C   UNL     1      33.278   0.912 164.794  1.00  0.00     0.138 A 
ATOM      2  C   UNL     1      32.746  -0.245 164.207  1.00  0.00     0.100 A 
ATOM      3  C   UNL     1      31.685  -0.908 164.825  1.00  0.00     0.197 A 
ATOM      4  O   UNL     1      31.189  -1.907 164.242  1.00  0.00    -0.289 OA
ATOM      5  C   UNL     1      31.176  -0.428 166.056  1.00  0.00     0.107 A 
ATOM      6  C   UNL     1      30.126  -1.046 166.797  1.00  0.00     0.134 A 
ATOM      7  C   UNL     1      29.626  -0.416 167.943  1.00  0.00     0.093 A 
ATOM      8  C   UNL     1      30.181   0.780 168.407  1.00  0.00     0.123 A 
ATOM      9  C   UNL     1      31.243   1.363 167.721  1.00  0.00     0.094 A 
ATOM     10  C   UNL     1      31.740   0.776 166.555  1.00  0.00     0.146 A 
ATOM     11  O   UNL     1      32.745   1.372 165.922  1.00  0.00    -0.456 OA
ENDROOT
BRANCH   1  12
ATOM     12  C   UNL     1      34.405   1.656 164.180  1.00  0.00     0.021 A 
ATOM     13  C   UNL     1      34.526   3.052 164.304  1.00  0.00     0.016 A 
ATOM     14  C   UNL     1      35.593   3.728 163.706  1.00  0.00     0.051 A 
ATOM     15  C   UNL     1      36.553   3.024 162.970  1.00  0.00     0.157 A 
ATOM     16  C   UNL     1      35.367   0.958 163.426  1.00  0.00     0.062 A 
ATOM     17  C   UNL     1      36.437   1.632 162.828  1.00  0.00     0.158 A 
BRANCH  15  18
ATOM     18  O   UNL     1      37.617   3.702 162.376  1.00  0.00    -0.504 OA
ATOM     19  H   UNL     1      38.572   3.380 162.473  1.00  0.00     0.293 HD
ENDBRANCH  15  18
BRANCH  17  20
ATOM     20  O   UNL     1      37.374   0.902 162.097  1.00  0.00    -0.504 OA
ATOM     21  H   UNL     1      38.293   0.687 162.463  1.00  0.00     0.293 HD
ENDBRANCH  17  20
ENDBRANCH   1  12
BRANCH   6  22
ATOM     22  O   UNL     1      29.559  -2.281 166.467  1.00  0.00    -0.507 OA
ATOM     23  H   UNL     1      29.595  -2.707 165.553  1.00  0.00     0.293 HD
ENDBRANCH   6  22
BRANCH   8  24
ATOM     24  O   UNL     1      29.687   1.392 169.558  1.00  0.00    -0.508 OA
ATOM     25  H   UNL     1      30.209   1.387 170.427  1.00  0.00     0.293 HD
ENDBRANCH   8  24
TORSDOF 5
ENDMDL
MODEL 9
REMARK VINA RESULT:    -6.350      1.070      1.305
REMARK INTER + INTRA:          -7.726
REMARK INTER:                  -7.463
REMARK INTRA:                  -0.263
REMARK UNBOUND:                -0.263
REMARK SMILES O=c1cc(-c2ccc(O)c(O)c2)oc2cc(O)cc(O)c12
REMARK SMILES IDX 4 1 3 2 2 3 1 4 21 5 19 6 18 7 16 8 15 9 14 10 13 11 5 12
REMARK SMILES IDX 6 13 7 14 8 15 12 16 10 17 9 18 11 20 20 22 17 24
REMARK H PARENT 9 19 11 21 20 23 17 25
REMARK Flexibility Score: inf
ROOT
ATOM      1  C   UNL     1      33.005   0.846 165.600  1.00  0.00     0.138 A 
ATOM      2  C   UNL     1      32.744   0.175 164.397  1.00  0.00     0.100 A 
ATOM      3  C   UNL     1      31.674  -0.719 164.323  1.00  0.00     0.197 A 
ATOM      4  O   UNL     1      31.427  -1.258 163.213  1.00  0.00    -0.289 OA
ATOM      5  C   UNL     1      30.883  -0.965 165.470  1.00  0.00     0.107 A 
ATOM      6  C   UNL     1      29.794  -1.885 165.523  1.00  0.00     0.134 A 
ATOM      7  C   UNL     1      29.008  -1.960 166.679  1.00  0.00     0.093 A 
ATOM      8  C   UNL     1      29.312  -1.191 167.807  1.00  0.00     0.123 A 
ATOM      9  C   UNL     1      30.405  -0.329 167.783  1.00  0.00     0.094 A 
ATOM     10  C   UNL     1      31.186  -0.207 166.632  1.00  0.00     0.146 A 
ATOM     11  O   UNL     1      32.213   0.637 166.646  1.00  0.00    -0.456 OA
ENDROOT
BRANCH   1  12
ATOM     12  C   UNL     1      34.129   1.806 165.734  1.00  0.00     0.021 A 
ATOM     13  C   UNL     1      33.961   3.181 165.486  1.00  0.00     0.016 A 
ATOM     14  C   UNL     1      35.041   4.061 165.610  1.00  0.00     0.051 A 
ATOM     15  C   UNL     1      36.305   3.583 165.976  1.00  0.00     0.157 A 
ATOM     16  C   UNL     1      35.406   1.332 166.087  1.00  0.00     0.062 A 
ATOM     17  C   UNL     1      36.487   2.211 166.213  1.00  0.00     0.158 A 
BRANCH  15  18
ATOM     18  O   UNL     1      37.378   4.464 166.100  1.00  0.00    -0.504 OA
ATOM     19  H   UNL     1      38.251   4.310 165.609  1.00  0.00     0.293 HD
ENDBRANCH  15  18
BRANCH  17  20
ATOM     20  O   UNL     1      37.735   1.702 166.575  1.00  0.00    -0.504 OA
ATOM     21  H   UNL     1      38.346   2.186 167.221  1.00  0.00     0.293 HD
ENDBRANCH  17  20
ENDBRANCH   1  12
BRANCH   6  22
ATOM     22  O   UNL     1      29.459  -2.760 164.484  1.00  0.00    -0.507 OA
ATOM     23  H   UNL     1      28.567  -2.781 164.013  1.00  0.00     0.293 HD
ENDBRANCH   6  22
BRANCH   8  24
ATOM     24  O   UNL     1      28.533  -1.283 168.959  1.00  0.00    -0.508 OA
ATOM     25  H   UNL     1      27.804  -0.608 169.162  1.00  0.00     0.293 HD
ENDBRANCH   8  24
TORSDOF 5
ENDMDL
