MODEL 1
REMARK VINA RESULT:    -6.675      0.000      0.000
REMARK INTER + INTRA:          -6.871
REMARK INTER:                  -6.871
REMARK INTRA:                   0.000
REMARK UNBOUND:                 0.000
REMARK SMILES C=C1CCC[C@@]2(C)C[C@]3(O)OC(=O)C(C)=C3C[C@@H]12
REMARK SMILES IDX 15 1 14 2 16 3 17 4 18 5 2 6 1 7 3 8 4 9 5 10 6 11 8 12 9 13
REMARK SMILES IDX 11 14 12 15 13 16 7 17 10 18
REMARK H PARENT 10 19
REMARK Flexibility Score: inf
ROOT
ATOM      1  C   UNL     1      39.999 -24.163  -3.074  1.00  0.00     0.052 C 
ATOM      2  C   UNL     1      38.827 -24.610  -3.893  1.00  0.00     0.040 C 
ATOM      3  C   UNL     1      38.878 -25.249  -5.065  1.00  0.00     0.012 C 
ATOM      4  C   UNL     1      40.105 -25.468  -5.889  1.00  0.00     0.047 C 
ATOM      5  C   UNL     1      40.260 -24.337  -6.950  1.00  0.00     0.025 C 
ATOM      6  C   UNL     1      41.255 -24.726  -8.064  1.00  0.00    -0.073 C 
ATOM      7  C   UNL     1      42.282 -25.571  -7.838  1.00  0.00     0.008 C 
ATOM      8  C   UNL     1      41.239 -24.042  -9.413  1.00  0.00     0.031 C 
ATOM      9  C   UNL     1      40.190 -22.946  -9.504  1.00  0.00     0.005 C 
ATOM     10  C   UNL     1      38.852 -23.478  -9.006  1.00  0.00     0.008 C 
ATOM     11  C   UNL     1      38.857 -23.758  -7.472  1.00  0.00    -0.019 C 
ATOM     12  C   UNL     1      37.667 -24.745  -7.197  1.00  0.00     0.092 C 
ATOM     13  C   UNL     1      37.540 -25.247  -5.738  1.00  0.00     0.235 C 
ATOM     14  O   UNL     1      36.755 -24.385  -4.916  1.00  0.00    -0.426 OA
ATOM     15  C   UNL     1      37.487 -24.072  -3.785  1.00  0.00     0.336 C 
ATOM     16  O   UNL     1      37.056 -23.353  -2.845  1.00  0.00    -0.246 OA
ATOM     17  C   UNL     1      38.557 -22.412  -6.756  1.00  0.00     0.012 C 
ENDROOT
BRANCH  13  18
ATOM     18  O   UNL     1      37.005 -26.544  -5.704  1.00  0.00    -0.353 OA
ATOM     19  H   UNL     1      37.763 -27.169  -5.842  1.00  0.00     0.215 HD
ENDBRANCH  13  18
TORSDOF 1
ENDMDL
MODEL 2
REMARK VINA RESULT:    -6.653     14.354     16.855
REMARK INTER + INTRA:          -6.847
REMARK INTER:                  -6.847
REMARK INTRA:                   0.000
REMARK UNBOUND:                 0.000
REMARK SMILES C=C1CCC[C@@]2(C)C[C@]3(O)OC(=O)C(C)=C3C[C@@H]12
REMARK SMILES IDX 15 1 14 2 16 3 17 4 18 5 2 6 1 7 3 8 4 9 5 10 6 11 8 12 9 13
REMARK SMILES IDX 11 14 12 15 13 16 7 17 10 18
REMARK H PARENT 10 19
REMARK Flexibility Score: inf
ROOT
ATOM      1  C   UNL     1      55.071 -33.463  -5.092  1.00  0.00     0.052 C 
ATOM      2  C   UNL     1      54.308 -34.701  -5.452  1.00  0.00     0.040 C 
ATOM      3  C   UNL     1      53.602 -34.897  -6.569  1.00  0.00     0.012 C 
ATOM      4  C   UNL     1      53.265 -33.855  -7.585  1.00  0.00     0.047 C 
ATOM      5  C   UNL     1      51.869 -33.229  -7.285  1.00  0.00     0.025 C 
ATOM      6  C   UNL     1      51.309 -32.464  -8.502  1.00  0.00    -0.073 C 
ATOM      7  C   UNL     1      52.117 -31.880  -9.411  1.00  0.00     0.008 C 
ATOM      8  C   UNL     1      49.830 -32.174  -8.642  1.00  0.00     0.031 C 
ATOM      9  C   UNL     1      49.018 -32.677  -7.459  1.00  0.00     0.005 C 
ATOM     10  C   UNL     1      49.392 -34.124  -7.163  1.00  0.00     0.008 C 
ATOM     11  C   UNL     1      50.843 -34.261  -6.607  1.00  0.00    -0.019 C 
ATOM     12  C   UNL     1      51.266 -35.756  -6.833  1.00  0.00     0.092 C 
ATOM     13  C   UNL     1      52.723 -36.104  -6.445  1.00  0.00     0.235 C 
ATOM     14  O   UNL     1      52.864 -36.479  -5.075  1.00  0.00    -0.426 OA
ATOM     15  C   UNL     1      53.858 -35.702  -4.508  1.00  0.00     0.336 C 
ATOM     16  O   UNL     1      54.244 -35.815  -3.315  1.00  0.00    -0.246 OA
ATOM     17  C   UNL     1      50.779 -33.992  -5.078  1.00  0.00     0.012 C 
ENDROOT
BRANCH  13  18
ATOM     18  O   UNL     1      53.225 -37.126  -7.265  1.00  0.00    -0.353 OA
ATOM     19  H   UNL     1      54.008 -37.513  -6.792  1.00  0.00     0.215 HD
ENDBRANCH  13  18
TORSDOF 1
ENDMDL
MODEL 3
REMARK VINA RESULT:    -6.499      3.618      7.262
REMARK INTER + INTRA:          -6.689
REMARK INTER:                  -6.689
REMARK INTRA:                   0.000
REMARK UNBOUND:                 0.000
REMARK SMILES C=C1CCC[C@@]2(C)C[C@]3(O)OC(=O)C(C)=C3C[C@@H]12
REMARK SMILES IDX 15 1 14 2 16 3 17 4 18 5 2 6 1 7 3 8 4 9 5 10 6 11 8 12 9 13
REMARK SMILES IDX 11 14 12 15 13 16 7 17 10 18
REMARK H PARENT 10 19
REMARK Flexibility Score: inf
ROOT
ATOM      1  C   UNL     1      39.355 -24.990  -3.854  1.00  0.00     0.052 C 
ATOM      2  C   UNL     1      39.138 -23.641  -3.239  1.00  0.00     0.040 C 
ATOM      3  C   UNL     1      39.672 -23.197  -2.098  1.00  0.00     0.012 C 
ATOM      4  C   UNL     1      40.429 -24.021  -1.108  1.00  0.00     0.047 C 
ATOM      5  C   UNL     1      39.476 -24.548   0.007  1.00  0.00     0.025 C 
ATOM      6  C   UNL     1      40.256 -25.045   1.242  1.00  0.00    -0.073 C 
ATOM      7  C   UNL     1      41.504 -25.549   1.142  1.00  0.00     0.008 C 
ATOM      8  C   UNL     1      39.597 -25.163   2.599  1.00  0.00     0.031 C 
ATOM      9  C   UNL     1      38.125 -24.783   2.573  1.00  0.00     0.005 C 
ATOM     10  C   UNL     1      37.956 -23.448   1.859  1.00  0.00     0.008 C 
ATOM     11  C   UNL     1      38.265 -23.546   0.333  1.00  0.00    -0.019 C 
ATOM     12  C   UNL     1      38.555 -22.083  -0.156  1.00  0.00     0.092 C 
ATOM     13  C   UNL     1      38.989 -21.947  -1.636  1.00  0.00     0.235 C 
ATOM     14  O   UNL     1      37.888 -21.817  -2.533  1.00  0.00    -0.426 OA
ATOM     15  C   UNL     1      38.019 -22.769  -3.528  1.00  0.00     0.336 C 
ATOM     16  O   UNL     1      37.219 -22.891  -4.493  1.00  0.00    -0.246 OA
ATOM     17  C   UNL     1      36.974 -24.053  -0.367  1.00  0.00     0.012 C 
ENDROOT
BRANCH  13  18
ATOM     18  O   UNL     1      39.860 -20.858  -1.800  1.00  0.00    -0.353 OA
ATOM     19  H   UNL     1      39.993 -20.460  -0.900  1.00  0.00     0.215 HD
ENDBRANCH  13  18
TORSDOF 1
ENDMDL
MODEL 4
REMARK VINA RESULT:    -6.464     14.736     17.461
REMARK INTER + INTRA:          -6.653
REMARK INTER:                  -6.653
REMARK INTRA:                   0.000
REMARK UNBOUND:                 0.000
REMARK SMILES C=C1CCC[C@@]2(C)C[C@]3(O)OC(=O)C(C)=C3C[C@@H]12
REMARK SMILES IDX 15 1 14 2 16 3 17 4 18 5 2 6 1 7 3 8 4 9 5 10 6 11 8 12 9 13
REMARK SMILES IDX 11 14 12 15 13 16 7 17 10 18
REMARK H PARENT 10 19
REMARK Flexibility Score: inf
ROOT
ATOM      1  C   UNL     1      48.621 -26.009   3.761  1.00  0.00     0.052 C 
ATOM      2  C   UNL     1      49.599 -26.741   4.627  1.00  0.00     0.040 C 
ATOM      3  C   UNL     1      49.307 -27.680   5.531  1.00  0.00     0.012 C 
ATOM      4  C   UNL     1      47.937 -28.045   6.001  1.00  0.00     0.047 C 
ATOM      5  C   UNL     1      47.572 -27.252   7.293  1.00  0.00     0.025 C 
ATOM      6  C   UNL     1      46.369 -27.876   8.031  1.00  0.00    -0.073 C 
ATOM      7  C   UNL     1      45.406 -28.556   7.376  1.00  0.00     0.008 C 
ATOM      8  C   UNL     1      46.113 -27.603   9.497  1.00  0.00     0.031 C 
ATOM      9  C   UNL     1      47.126 -26.646  10.103  1.00  0.00     0.005 C 
ATOM     10  C   UNL     1      48.535 -27.099   9.743  1.00  0.00     0.008 C 
ATOM     11  C   UNL     1      48.842 -26.934   8.223  1.00  0.00    -0.019 C 
ATOM     12  C   UNL     1      50.059 -27.876   7.911  1.00  0.00     0.092 C 
ATOM     13  C   UNL     1      50.479 -27.953   6.423  1.00  0.00     0.235 C 
ATOM     14  O   UNL     1      51.420 -26.946   6.053  1.00  0.00    -0.426 OA
ATOM     15  C   UNL     1      50.935 -26.280   4.942  1.00  0.00     0.336 C 
ATOM     16  O   UNL     1      51.552 -25.354   4.353  1.00  0.00    -0.246 OA
ATOM     17  C   UNL     1      49.288 -25.462   7.999  1.00  0.00     0.012 C 
ENDROOT
BRANCH  13  18
ATOM     18  O   UNL     1      51.004 -29.219   6.120  1.00  0.00    -0.353 OA
ATOM     19  H   UNL     1      51.826 -29.326   6.666  1.00  0.00     0.215 HD
ENDBRANCH  13  18
TORSDOF 1
ENDMDL
MODEL 5
REMARK VINA RESULT:    -6.415      1.924      3.195
REMARK INTER + INTRA:          -6.603
REMARK INTER:                  -6.603
REMARK INTRA:                   0.000
REMARK UNBOUND:                 0.000
REMARK SMILES C=C1CCC[C@@]2(C)C[C@]3(O)OC(=O)C(C)=C3C[C@@H]12
REMARK SMILES IDX 15 1 14 2 16 3 17 4 18 5 2 6 1 7 3 8 4 9 5 10 6 11 8 12 9 13
REMARK SMILES IDX 11 14 12 15 13 16 7 17 10 18
REMARK H PARENT 10 19
REMARK Flexibility Score: inf
ROOT
ATOM      1  C   UNL     1      40.247 -25.493  -5.570  1.00  0.00     0.052 C 
ATOM      2  C   UNL     1      38.998 -25.024  -4.888  1.00  0.00     0.040 C 
ATOM      3  C   UNL     1      37.823 -24.773  -5.474  1.00  0.00     0.012 C 
ATOM      4  C   UNL     1      37.575 -24.717  -6.946  1.00  0.00     0.047 C 
ATOM      5  C   UNL     1      37.696 -23.252  -7.465  1.00  0.00     0.025 C 
ATOM      6  C   UNL     1      37.061 -23.083  -8.862  1.00  0.00    -0.073 C 
ATOM      7  C   UNL     1      37.006 -24.100  -9.747  1.00  0.00     0.008 C 
ATOM      8  C   UNL     1      36.633 -21.727  -9.377  1.00  0.00     0.031 C 
ATOM      9  C   UNL     1      36.937 -20.603  -8.399  1.00  0.00     0.005 C 
ATOM     10  C   UNL     1      36.430 -20.984  -7.013  1.00  0.00     0.008 C 
ATOM     11  C   UNL     1      37.245 -22.155  -6.383  1.00  0.00    -0.019 C 
ATOM     12  C   UNL     1      36.341 -22.768  -5.255  1.00  0.00     0.092 C 
ATOM     13  C   UNL     1      36.911 -24.024  -4.552  1.00  0.00     0.235 C 
ATOM     14  O   UNL     1      37.747 -23.712  -3.438  1.00  0.00    -0.426 OA
ATOM     15  C   UNL     1      38.954 -24.368  -3.598  1.00  0.00     0.336 C 
ATOM     16  O   UNL     1      39.895 -24.321  -2.763  1.00  0.00    -0.246 OA
ATOM     17  C   UNL     1      38.507 -21.536  -5.721  1.00  0.00     0.012 C 
ENDROOT
BRANCH  13  18
ATOM     18  O   UNL     1      35.875 -24.875  -4.137  1.00  0.00    -0.353 OA
ATOM     19  H   UNL     1      35.746 -25.542  -4.860  1.00  0.00     0.215 HD
ENDBRANCH  13  18
TORSDOF 1
ENDMDL
MODEL 6
REMARK VINA RESULT:    -6.360     15.337     17.252
REMARK INTER + INTRA:          -6.546
REMARK INTER:                  -6.546
REMARK INTRA:                   0.000
REMARK UNBOUND:                 0.000
REMARK SMILES C=C1CCC[C@@]2(C)C[C@]3(O)OC(=O)C(C)=C3C[C@@H]12
REMARK SMILES IDX 15 1 14 2 16 3 17 4 18 5 2 6 1 7 3 8 4 9 5 10 6 11 8 12 9 13
REMARK SMILES IDX 11 14 12 15 13 16 7 17 10 18
REMARK H PARENT 10 19
REMARK Flexibility Score: inf
ROOT
ATOM      1  C   UNL     1      52.255 -32.012  -8.646  1.00  0.00     0.052 C 
ATOM      2  C   UNL     1      52.827 -32.683  -7.434  1.00  0.00     0.040 C 
ATOM      3  C   UNL     1      53.174 -33.969  -7.332  1.00  0.00     0.012 C 
ATOM      4  C   UNL     1      52.878 -35.037  -8.333  1.00  0.00     0.047 C 
ATOM      5  C   UNL     1      51.555 -35.777  -7.968  1.00  0.00     0.025 C 
ATOM      6  C   UNL     1      51.422 -37.120  -8.715  1.00  0.00    -0.073 C 
ATOM      7  C   UNL     1      51.983 -37.321  -9.926  1.00  0.00     0.008 C 
ATOM      8  C   UNL     1      50.508 -38.217  -8.215  1.00  0.00     0.031 C 
ATOM      9  C   UNL     1      49.744 -37.820  -6.962  1.00  0.00     0.005 C 
ATOM     10  C   UNL     1      50.711 -37.235  -5.940  1.00  0.00     0.008 C 
ATOM     11  C   UNL     1      51.287 -35.856  -6.387  1.00  0.00    -0.019 C 
ATOM     12  C   UNL     1      52.594 -35.628  -5.549  1.00  0.00     0.092 C 
ATOM     13  C   UNL     1      53.399 -34.353  -5.901  1.00  0.00     0.235 C 
ATOM     14  O   UNL     1      52.971 -33.201  -5.176  1.00  0.00    -0.426 OA
ATOM     15  C   UNL     1      52.708 -32.187  -6.079  1.00  0.00     0.336 C 
ATOM     16  O   UNL     1      52.341 -31.029  -5.748  1.00  0.00    -0.246 OA
ATOM     17  C   UNL     1      50.249 -34.770  -5.986  1.00  0.00     0.012 C 
ENDROOT
BRANCH  13  18
ATOM     18  O   UNL     1      54.771 -34.557  -5.690  1.00  0.00    -0.353 OA
ATOM     19  H   UNL     1      55.117 -35.029  -6.491  1.00  0.00     0.215 HD
ENDBRANCH  13  18
TORSDOF 1
ENDMDL
MODEL 7
REMARK VINA RESULT:    -6.318     14.620     16.378
REMARK INTER + INTRA:          -6.503
REMARK INTER:                  -6.503
REMARK INTRA:                   0.000
REMARK UNBOUND:                 0.000
REMARK SMILES C=C1CCC[C@@]2(C)C[C@]3(O)OC(=O)C(C)=C3C[C@@H]12
REMARK SMILES IDX 15 1 14 2 16 3 17 4 18 5 2 6 1 7 3 8 4 9 5 10 6 11 8 12 9 13
REMARK SMILES IDX 11 14 12 15 13 16 7 17 10 18
REMARK H PARENT 10 19
REMARK Flexibility Score: inf
ROOT
ATOM      1  C   UNL     1      52.059 -33.128  -4.500  1.00  0.00     0.052 C 
ATOM      2  C   UNL     1      51.659 -32.642  -5.859  1.00  0.00     0.040 C 
ATOM      3  C   UNL     1      50.862 -33.276  -6.723  1.00  0.00     0.012 C 
ATOM      4  C   UNL     1      50.371 -34.681  -6.592  1.00  0.00     0.047 C 
ATOM      5  C   UNL     1      51.314 -35.663  -7.353  1.00  0.00     0.025 C 
ATOM      6  C   UNL     1      50.647 -37.034  -7.588  1.00  0.00    -0.073 C 
ATOM      7  C   UNL     1      49.714 -37.527  -6.746  1.00  0.00     0.008 C 
ATOM      8  C   UNL     1      51.132 -37.975  -8.670  1.00  0.00     0.031 C 
ATOM      9  C   UNL     1      52.332 -37.431  -9.427  1.00  0.00     0.005 C 
ATOM     10  C   UNL     1      52.053 -35.997  -9.861  1.00  0.00     0.008 C 
ATOM     11  C   UNL     1      51.992 -35.011  -8.654  1.00  0.00    -0.019 C 
ATOM     12  C   UNL     1      51.217 -33.742  -9.157  1.00  0.00     0.092 C 
ATOM     13  C   UNL     1      50.944 -32.658  -8.085  1.00  0.00     0.235 C 
ATOM     14  O   UNL     1      52.007 -31.715  -7.959  1.00  0.00    -0.426 OA
ATOM     15  C   UNL     1      52.377 -31.647  -6.628  1.00  0.00     0.336 C 
ATOM     16  O   UNL     1      53.270 -30.878  -6.185  1.00  0.00    -0.246 OA
ATOM     17  C   UNL     1      53.452 -34.598  -8.321  1.00  0.00     0.012 C 
ENDROOT
BRANCH  13  18
ATOM     18  O   UNL     1      49.746 -31.981  -8.357  1.00  0.00    -0.353 OA
ATOM     19  H   UNL     1      49.009 -32.620  -8.177  1.00  0.00     0.215 HD
ENDBRANCH  13  18
TORSDOF 1
ENDMDL
MODEL 8
REMARK VINA RESULT:    -6.296     15.128     17.127
REMARK INTER + INTRA:          -6.480
REMARK INTER:                  -6.480
REMARK INTRA:                   0.000
REMARK UNBOUND:                 0.000
REMARK SMILES C=C1CCC[C@@]2(C)C[C@]3(O)OC(=O)C(C)=C3C[C@@H]12
REMARK SMILES IDX 15 1 14 2 16 3 17 4 18 5 2 6 1 7 3 8 4 9 5 10 6 11 8 12 9 13
REMARK SMILES IDX 11 14 12 15 13 16 7 17 10 18
REMARK H PARENT 10 19
REMARK Flexibility Score: inf
ROOT
ATOM      1  C   UNL     1      46.870 -27.501   5.623  1.00  0.00     0.052 C 
ATOM      2  C   UNL     1      47.982 -26.941   6.457  1.00  0.00     0.040 C 
ATOM      3  C   UNL     1      49.184 -26.556   6.018  1.00  0.00     0.012 C 
ATOM      4  C   UNL     1      49.731 -26.793   4.648  1.00  0.00     0.047 C 
ATOM      5  C   UNL     1      50.578 -28.101   4.616  1.00  0.00     0.025 C 
ATOM      6  C   UNL     1      51.479 -28.172   3.366  1.00  0.00    -0.073 C 
ATOM      7  C   UNL     1      51.137 -27.574   2.206  1.00  0.00     0.008 C 
ATOM      8  C   UNL     1      52.700 -29.065   3.320  1.00  0.00     0.031 C 
ATOM      9  C   UNL     1      52.885 -29.874   4.594  1.00  0.00     0.005 C 
ATOM     10  C   UNL     1      52.772 -28.953   5.803  1.00  0.00     0.008 C 
ATOM     11  C   UNL     1      51.325 -28.409   6.004  1.00  0.00    -0.019 C 
ATOM     12  C   UNL     1      51.452 -27.131   6.907  1.00  0.00     0.092 C 
ATOM     13  C   UNL     1      50.134 -26.357   7.158  1.00  0.00     0.235 C 
ATOM     14  O   UNL     1      49.407 -26.840   8.286  1.00  0.00    -0.426 OA
ATOM     15  C   UNL     1      48.110 -27.110   7.889  1.00  0.00     0.336 C 
ATOM     16  O   UNL     1      47.209 -27.522   8.666  1.00  0.00    -0.246 OA
ATOM     17  C   UNL     1      50.530 -29.490   6.787  1.00  0.00     0.012 C 
ENDROOT
BRANCH  13  18
ATOM     18  O   UNL     1      50.386 -24.986   7.314  1.00  0.00    -0.353 OA
ATOM     19  H   UNL     1      49.945 -24.708   8.158  1.00  0.00     0.215 HD
ENDBRANCH  13  18
TORSDOF 1
ENDMDL
MODEL 9
REMARK VINA RESULT:    -6.250     16.071     17.760
REMARK INTER + INTRA:          -6.432
REMARK INTER:                  -6.432
REMARK INTRA:                   0.000
REMARK UNBOUND:                 0.000
REMARK SMILES C=C1CCC[C@@]2(C)C[C@]3(O)OC(=O)C(C)=C3C[C@@H]12
REMARK SMILES IDX 15 1 14 2 16 3 17 4 18 5 2 6 1 7 3 8 4 9 5 10 6 11 8 12 9 13
REMARK SMILES IDX 11 14 12 15 13 16 7 17 10 18
REMARK H PARENT 10 19
REMARK Flexibility Score: inf
ROOT
ATOM      1  C   UNL     1      53.857 -35.253  -4.359  1.00  0.00     0.052 C 
ATOM      2  C   UNL     1      53.368 -36.155  -5.451  1.00  0.00     0.040 C 
ATOM      3  C   UNL     1      53.722 -36.103  -6.738  1.00  0.00     0.012 C 
ATOM      4  C   UNL     1      54.517 -35.015  -7.383  1.00  0.00     0.047 C 
ATOM      5  C   UNL     1      53.572 -33.945  -8.010  1.00  0.00     0.025 C 
ATOM      6  C   UNL     1      54.315 -33.041  -9.016  1.00  0.00    -0.073 C 
ATOM      7  C   UNL     1      55.632 -32.776  -8.899  1.00  0.00     0.008 C 
ATOM      8  C   UNL     1      53.570 -32.261 -10.078  1.00  0.00     0.031 C 
ATOM      9  C   UNL     1      52.064 -32.446  -9.996  1.00  0.00     0.005 C 
ATOM     10  C   UNL     1      51.738 -33.932  -9.904  1.00  0.00     0.008 C 
ATOM     11  C   UNL     1      52.188 -34.557  -8.547  1.00  0.00    -0.019 C 
ATOM     12  C   UNL     1      52.273 -36.107  -8.779  1.00  0.00     0.092 C 
ATOM     13  C   UNL     1      52.804 -36.933  -7.582  1.00  0.00     0.235 C 
ATOM     14  O   UNL     1      51.778 -37.325  -6.672  1.00  0.00    -0.426 OA
ATOM     15  C   UNL     1      52.149 -36.935  -5.398  1.00  0.00     0.336 C 
ATOM     16  O   UNL     1      51.466 -37.166  -4.365  1.00  0.00    -0.246 OA
ATOM     17  C   UNL     1      51.064 -34.273  -7.512  1.00  0.00     0.012 C 
ENDROOT
BRANCH  13  18
ATOM     18  O   UNL     1      53.493 -38.070  -8.030  1.00  0.00    -0.353 OA
ATOM     19  H   UNL     1      54.179 -38.279  -7.343  1.00  0.00     0.215 HD
ENDBRANCH  13  18
TORSDOF 1
ENDMDL
