MODEL 1
REMARK VINA RESULT:    -4.606      0.000      0.000
REMARK INTER + INTRA:         -13.881
REMARK INTER:                 -10.529
REMARK INTRA:                  -3.352
REMARK UNBOUND:                -3.352
REMARK SMILES CCCCCCCCCCCCCCCCCCCCCCCC(=O)[O-]
REMARK SMILES IDX 13 1 14 2 15 3 16 4 17 5 18 6 19 7 20 8 21 9 22 10 23 11
REMARK SMILES IDX 24 12 25 13 26 14 12 15 11 16 10 17 9 18 8 19 7 20 6 21 5 22
REMARK SMILES IDX 4 23 3 24 2 25 1 26
REMARK H PARENT
REMARK Flexibility Score: inf
ROOT
ATOM      1  C   UNL     1      -9.889  -1.164 -21.973  1.00  0.00     0.000 C 
ENDROOT
BRANCH   1   2
ATOM      2  C   UNL     1     -10.219   0.043 -22.874  1.00  0.00     0.000 C 
BRANCH   2   3
ATOM      3  C   UNL     1      -9.442   1.339 -22.568  1.00  0.00     0.000 C 
BRANCH   3   4
ATOM      4  C   UNL     1      -8.809   1.409 -21.167  1.00  0.00     0.000 C 
BRANCH   4   5
ATOM      5  C   UNL     1      -9.453   2.475 -20.268  1.00  0.00     0.000 C 
BRANCH   5   6
ATOM      6  C   UNL     1     -10.197   1.820 -19.098  1.00  0.00     0.000 C 
BRANCH   6   7
ATOM      7  C   UNL     1     -11.459   1.092 -19.585  1.00  0.00     0.000 C 
BRANCH   7   8
ATOM      8  C   UNL     1     -12.593   2.056 -19.969  1.00  0.00     0.000 C 
BRANCH   8   9
ATOM      9  C   UNL     1     -12.933   2.103 -21.473  1.00  0.00     0.000 C 
BRANCH   9  10
ATOM     10  C   UNL     1     -14.328   2.692 -21.785  1.00  0.00     0.006 C 
BRANCH  10  11
ATOM     11  C   UNL     1     -14.367   3.555 -23.059  1.00  0.00     0.053 C 
BRANCH  11  12
ATOM     12  C   UNL     1     -14.156   5.008 -22.758  1.00  0.00     0.041 C 
ATOM     13  O   UNL     1     -13.403   5.703 -23.489  1.00  0.00    -0.550 OA
ATOM     14  O   UNL     1     -14.796   5.597 -21.674  1.00  0.00    -0.550 OA
ENDBRANCH  11  12
ENDBRANCH  10  11
ENDBRANCH   9  10
ENDBRANCH   8   9
ENDBRANCH   7   8
ENDBRANCH   6   7
ENDBRANCH   5   6
ENDBRANCH   4   5
ENDBRANCH   3   4
ENDBRANCH   2   3
ENDBRANCH   1   2
BRANCH   1  15
ATOM     15  C   UNL     1     -11.107  -2.042 -21.615  1.00  0.00     0.000 C 
BRANCH  15  16
ATOM     16  C   UNL     1     -12.414  -1.556 -22.267  1.00  0.00     0.000 C 
BRANCH  16  17
ATOM     17  C   UNL     1     -12.873  -2.456 -23.424  1.00  0.00     0.000 C 
BRANCH  17  18
ATOM     18  C   UNL     1     -12.190  -3.832 -23.416  1.00  0.00    -0.000 C 
BRANCH  18  19
ATOM     19  C   UNL     1     -11.364  -4.037 -24.691  1.00  0.00    -0.000 C 
BRANCH  19  20
ATOM     20  C   UNL     1     -11.057  -2.695 -25.377  1.00  0.00    -0.000 C 
BRANCH  20  21
ATOM     21  C   UNL     1      -9.540  -2.450 -25.530  1.00  0.00    -0.000 C 
BRANCH  21  22
ATOM     22  C   UNL     1      -8.802  -3.558 -26.311  1.00  0.00    -0.000 C 
BRANCH  22  23
ATOM     23  C   UNL     1      -8.173  -3.110 -27.639  1.00  0.00    -0.000 C 
BRANCH  23  24
ATOM     24  C   UNL     1      -9.191  -2.476 -28.599  1.00  0.00    -0.000 C 
BRANCH  24  25
ATOM     25  C   UNL     1     -10.230  -3.508 -29.054  1.00  0.00    -0.003 C 
ATOM     26  C   UNL     1     -11.606  -2.870 -29.214  1.00  0.00     0.004 C 
ENDBRANCH  24  25
ENDBRANCH  23  24
ENDBRANCH  22  23
ENDBRANCH  21  22
ENDBRANCH  20  21
ENDBRANCH  19  20
ENDBRANCH  18  19
ENDBRANCH  17  18
ENDBRANCH  16  17
ENDBRANCH  15  16
ENDBRANCH   1  15
TORSDOF 22
ENDMDL
MODEL 2
REMARK VINA RESULT:    -4.436     12.786     15.790
REMARK INTER + INTRA:         -13.493
REMARK INTER:                 -10.512
REMARK INTRA:                  -2.980
REMARK UNBOUND:                -3.352
REMARK SMILES CCCCCCCCCCCCCCCCCCCCCCCC(=O)[O-]
REMARK SMILES IDX 13 1 14 2 15 3 16 4 17 5 18 6 19 7 20 8 21 9 22 10 23 11
REMARK SMILES IDX 24 12 25 13 26 14 12 15 11 16 10 17 9 18 8 19 7 20 6 21 5 22
REMARK SMILES IDX 4 23 3 24 2 25 1 26
REMARK H PARENT
REMARK Flexibility Score: inf
ROOT
ATOM      1  C   UNL     1      -5.727   6.895 -36.233  1.00  0.00     0.000 C 
ENDROOT
BRANCH   1   2
ATOM      2  C   UNL     1      -5.180   6.651 -37.653  1.00  0.00     0.000 C 
BRANCH   2   3
ATOM      3  C   UNL     1      -4.121   7.658 -38.144  1.00  0.00     0.000 C 
BRANCH   3   4
ATOM      4  C   UNL     1      -2.716   7.074 -38.374  1.00  0.00     0.000 C 
BRANCH   4   5
ATOM      5  C   UNL     1      -2.020   6.649 -37.072  1.00  0.00     0.000 C 
BRANCH   5   6
ATOM      6  C   UNL     1      -1.329   7.847 -36.411  1.00  0.00     0.000 C 
BRANCH   6   7
ATOM      7  C   UNL     1      -0.875   7.503 -34.984  1.00  0.00     0.000 C 
BRANCH   7   8
ATOM      8  C   UNL     1      -1.769   8.138 -33.906  1.00  0.00     0.000 C 
BRANCH   8   9
ATOM      9  C   UNL     1      -2.383   9.502 -34.284  1.00  0.00     0.000 C 
BRANCH   9  10
ATOM     10  C   UNL     1      -2.339  10.549 -33.148  1.00  0.00     0.006 C 
BRANCH  10  11
ATOM     11  C   UNL     1      -3.466  11.594 -33.222  1.00  0.00     0.053 C 
BRANCH  11  12
ATOM     12  C   UNL     1      -4.308  11.601 -31.981  1.00  0.00     0.041 C 
ATOM     13  O   UNL     1      -5.411  10.994 -31.962  1.00  0.00    -0.550 OA
ATOM     14  O   UNL     1      -3.873  12.273 -30.846  1.00  0.00    -0.550 OA
ENDBRANCH  11  12
ENDBRANCH  10  11
ENDBRANCH   9  10
ENDBRANCH   8   9
ENDBRANCH   7   8
ENDBRANCH   6   7
ENDBRANCH   5   6
ENDBRANCH   4   5
ENDBRANCH   3   4
ENDBRANCH   2   3
ENDBRANCH   1   2
BRANCH   1  15
ATOM     15  C   UNL     1      -5.270   8.224 -35.594  1.00  0.00     0.000 C 
BRANCH  15  16
ATOM     16  C   UNL     1      -5.628   8.329 -34.100  1.00  0.00     0.000 C 
BRANCH  16  17
ATOM     17  C   UNL     1      -5.887   6.961 -33.452  1.00  0.00     0.000 C 
BRANCH  17  18
ATOM     18  C   UNL     1      -6.874   7.034 -32.277  1.00  0.00    -0.000 C 
BRANCH  18  19
ATOM     19  C   UNL     1      -7.881   5.880 -32.340  1.00  0.00    -0.000 C 
BRANCH  19  20
ATOM     20  C   UNL     1      -7.623   4.980 -33.560  1.00  0.00    -0.000 C 
BRANCH  20  21
ATOM     21  C   UNL     1      -8.718   5.130 -34.638  1.00  0.00    -0.000 C 
BRANCH  21  22
ATOM     22  C   UNL     1      -9.386   3.799 -35.042  1.00  0.00    -0.000 C 
BRANCH  22  23
ATOM     23  C   UNL     1      -8.509   2.861 -35.886  1.00  0.00    -0.000 C 
BRANCH  23  24
ATOM     24  C   UNL     1      -7.547   3.617 -36.815  1.00  0.00    -0.000 C 
BRANCH  24  25
ATOM     25  C   UNL     1      -6.090   3.252 -36.506  1.00  0.00    -0.003 C 
ATOM     26  C   UNL     1      -5.315   2.949 -37.785  1.00  0.00     0.004 C 
ENDBRANCH  24  25
ENDBRANCH  23  24
ENDBRANCH  22  23
ENDBRANCH  21  22
ENDBRANCH  20  21
ENDBRANCH  19  20
ENDBRANCH  18  19
ENDBRANCH  17  18
ENDBRANCH  16  17
ENDBRANCH  15  16
ENDBRANCH   1  15
TORSDOF 22
ENDMDL
MODEL 3
REMARK VINA RESULT:    -4.404      3.028      6.560
REMARK INTER + INTRA:         -13.420
REMARK INTER:                  -9.859
REMARK INTRA:                  -3.561
REMARK UNBOUND:                -3.352
REMARK SMILES CCCCCCCCCCCCCCCCCCCCCCCC(=O)[O-]
REMARK SMILES IDX 13 1 14 2 15 3 16 4 17 5 18 6 19 7 20 8 21 9 22 10 23 11
REMARK SMILES IDX 24 12 25 13 26 14 12 15 11 16 10 17 9 18 8 19 7 20 6 21 5 22
REMARK SMILES IDX 4 23 3 24 2 25 1 26
REMARK H PARENT
REMARK Flexibility Score: inf
ROOT
ATOM      1  C   UNL     1      -9.356  -2.279 -27.848  1.00  0.00     0.000 C 
ENDROOT
BRANCH   1   2
ATOM      2  C   UNL     1      -9.189  -2.211 -26.317  1.00  0.00     0.000 C 
BRANCH   2   3
ATOM      3  C   UNL     1      -8.801  -3.534 -25.627  1.00  0.00     0.000 C 
BRANCH   3   4
ATOM      4  C   UNL     1      -9.907  -4.179 -24.774  1.00  0.00     0.000 C 
BRANCH   4   5
ATOM      5  C   UNL     1     -11.002  -4.851 -25.615  1.00  0.00     0.000 C 
BRANCH   5   6
ATOM      6  C   UNL     1     -12.393  -4.389 -25.165  1.00  0.00     0.000 C 
BRANCH   6   7
ATOM      7  C   UNL     1     -12.341  -2.968 -24.584  1.00  0.00     0.000 C 
BRANCH   7   8
ATOM      8  C   UNL     1     -13.209  -2.807 -23.325  1.00  0.00     0.000 C 
BRANCH   8   9
ATOM      9  C   UNL     1     -12.522  -2.093 -22.142  1.00  0.00     0.000 C 
BRANCH   9  10
ATOM     10  C   UNL     1     -11.147  -1.480 -22.490  1.00  0.00     0.006 C 
BRANCH  10  11
ATOM     11  C   UNL     1     -11.014   0.005 -22.109  1.00  0.00     0.053 C 
BRANCH  11  12
ATOM     12  C   UNL     1      -9.936   0.691 -22.892  1.00  0.00     0.041 C 
ATOM     13  O   UNL     1      -9.128   1.464 -22.313  1.00  0.00    -0.550 OA
ATOM     14  O   UNL     1      -9.819   0.473 -24.260  1.00  0.00    -0.550 OA
ENDBRANCH  11  12
ENDBRANCH  10  11
ENDBRANCH   9  10
ENDBRANCH   8   9
ENDBRANCH   7   8
ENDBRANCH   6   7
ENDBRANCH   5   6
ENDBRANCH   4   5
ENDBRANCH   3   4
ENDBRANCH   2   3
ENDBRANCH   1   2
BRANCH   1  15
ATOM     15  C   UNL     1      -8.505  -3.370 -28.533  1.00  0.00     0.000 C 
BRANCH  15  16
ATOM     16  C   UNL     1      -9.347  -4.540 -29.073  1.00  0.00     0.000 C 
BRANCH  16  17
ATOM     17  C   UNL     1      -9.604  -4.441 -30.585  1.00  0.00     0.000 C 
BRANCH  17  18
ATOM     18  C   UNL     1      -9.043  -3.150 -31.201  1.00  0.00    -0.000 C 
BRANCH  18  19
ATOM     19  C   UNL     1      -9.791  -2.793 -32.491  1.00  0.00    -0.000 C 
BRANCH  19  20
ATOM     20  C   UNL     1     -11.111  -3.574 -32.603  1.00  0.00    -0.000 C 
BRANCH  20  21
ATOM     21  C   UNL     1     -12.346  -2.667 -32.408  1.00  0.00    -0.000 C 
BRANCH  21  22
ATOM     22  C   UNL     1     -13.180  -3.006 -31.155  1.00  0.00    -0.000 C 
BRANCH  22  23
ATOM     23  C   UNL     1     -12.734  -2.298 -29.866  1.00  0.00    -0.000 C 
BRANCH  23  24
ATOM     24  C   UNL     1     -12.750  -3.224 -28.640  1.00  0.00    -0.000 C 
BRANCH  24  25
ATOM     25  C   UNL     1     -14.030  -4.068 -28.608  1.00  0.00    -0.003 C 
ATOM     26  C   UNL     1     -13.708  -5.551 -28.454  1.00  0.00     0.004 C 
ENDBRANCH  24  25
ENDBRANCH  23  24
ENDBRANCH  22  23
ENDBRANCH  21  22
ENDBRANCH  20  21
ENDBRANCH  19  20
ENDBRANCH  18  19
ENDBRANCH  17  18
ENDBRANCH  16  17
ENDBRANCH  15  16
ENDBRANCH   1  15
TORSDOF 22
ENDMDL
MODEL 4
REMARK VINA RESULT:    -4.397      7.057     11.205
REMARK INTER + INTRA:         -13.405
REMARK INTER:                 -10.684
REMARK INTRA:                  -2.722
REMARK UNBOUND:                -3.352
REMARK SMILES CCCCCCCCCCCCCCCCCCCCCCCC(=O)[O-]
REMARK SMILES IDX 13 1 14 2 15 3 16 4 17 5 18 6 19 7 20 8 21 9 22 10 23 11
REMARK SMILES IDX 24 12 25 13 26 14 12 15 11 16 10 17 9 18 8 19 7 20 6 21 5 22
REMARK SMILES IDX 4 23 3 24 2 25 1 26
REMARK H PARENT
REMARK Flexibility Score: inf
ROOT
ATOM      1  C   UNL     1      -9.132  -2.740 -32.767  1.00  0.00     0.000 C 
ENDROOT
BRANCH   1   2
ATOM      2  C   UNL     1      -9.639  -4.155 -32.424  1.00  0.00     0.000 C 
BRANCH   2   3
ATOM      3  C   UNL     1     -10.955  -4.220 -31.624  1.00  0.00     0.000 C 
BRANCH   3   4
ATOM      4  C   UNL     1     -11.706  -2.884 -31.488  1.00  0.00     0.000 C 
BRANCH   4   5
ATOM      5  C   UNL     1     -13.232  -3.051 -31.451  1.00  0.00     0.000 C 
BRANCH   5   6
ATOM      6  C   UNL     1     -13.692  -3.528 -30.068  1.00  0.00     0.000 C 
BRANCH   6   7
ATOM      7  C   UNL     1     -13.104  -2.646 -28.957  1.00  0.00     0.000 C 
BRANCH   7   8
ATOM      8  C   UNL     1     -12.559  -3.462 -27.773  1.00  0.00     0.000 C 
BRANCH   8   9
ATOM      9  C   UNL     1     -11.067  -3.841 -27.871  1.00  0.00     0.000 C 
BRANCH   9  10
ATOM     10  C   UNL     1     -10.101  -2.644 -27.716  1.00  0.00     0.006 C 
BRANCH  10  11
ATOM     11  C   UNL     1      -9.076  -2.521 -28.856  1.00  0.00     0.053 C 
BRANCH  11  12
ATOM     12  C   UNL     1      -7.950  -3.499 -28.707  1.00  0.00     0.041 C 
ATOM     13  O   UNL     1      -7.709  -4.331 -29.620  1.00  0.00    -0.550 OA
ATOM     14  O   UNL     1      -7.163  -3.487 -27.561  1.00  0.00    -0.550 OA
ENDBRANCH  11  12
ENDBRANCH  10  11
ENDBRANCH   9  10
ENDBRANCH   8   9
ENDBRANCH   7   8
ENDBRANCH   6   7
ENDBRANCH   5   6
ENDBRANCH   4   5
ENDBRANCH   3   4
ENDBRANCH   2   3
ENDBRANCH   1   2
BRANCH   1  15
ATOM     15  C   UNL     1      -8.964  -2.473 -34.278  1.00  0.00     0.000 C 
BRANCH  15  16
ATOM     16  C   UNL     1     -10.198  -2.881 -35.104  1.00  0.00     0.000 C 
BRANCH  16  17
ATOM     17  C   UNL     1     -10.972  -1.673 -35.652  1.00  0.00     0.000 C 
BRANCH  17  18
ATOM     18  C   UNL     1     -11.899  -1.035 -34.607  1.00  0.00    -0.000 C 
BRANCH  18  19
ATOM     19  C   UNL     1     -11.675   0.480 -34.533  1.00  0.00    -0.000 C 
BRANCH  19  20
ATOM     20  C   UNL     1     -10.572   0.927 -35.506  1.00  0.00    -0.000 C 
BRANCH  20  21
ATOM     21  C   UNL     1     -10.355   2.456 -35.481  1.00  0.00    -0.000 C 
BRANCH  21  22
ATOM     22  C   UNL     1      -8.890   2.878 -35.245  1.00  0.00    -0.000 C 
BRANCH  22  23
ATOM     23  C   UNL     1      -8.696   4.331 -34.783  1.00  0.00    -0.000 C 
BRANCH  23  24
ATOM     24  C   UNL     1      -7.667   4.466 -33.650  1.00  0.00    -0.000 C 
BRANCH  24  25
ATOM     25  C   UNL     1      -8.065   5.585 -32.681  1.00  0.00    -0.003 C 
ATOM     26  C   UNL     1      -6.948   6.613 -32.537  1.00  0.00     0.004 C 
ENDBRANCH  24  25
ENDBRANCH  23  24
ENDBRANCH  22  23
ENDBRANCH  21  22
ENDBRANCH  20  21
ENDBRANCH  19  20
ENDBRANCH  18  19
ENDBRANCH  17  18
ENDBRANCH  16  17
ENDBRANCH  15  16
ENDBRANCH   1  15
TORSDOF 22
ENDMDL
MODEL 5
REMARK VINA RESULT:    -4.340      1.161      2.792
REMARK INTER + INTRA:         -13.275
REMARK INTER:                 -10.025
REMARK INTRA:                  -3.250
REMARK UNBOUND:                -3.352
REMARK SMILES CCCCCCCCCCCCCCCCCCCCCCCC(=O)[O-]
REMARK SMILES IDX 13 1 14 2 15 3 16 4 17 5 18 6 19 7 20 8 21 9 22 10 23 11
REMARK SMILES IDX 24 12 25 13 26 14 12 15 11 16 10 17 9 18 8 19 7 20 6 21 5 22
REMARK SMILES IDX 4 23 3 24 2 25 1 26
REMARK H PARENT
REMARK Flexibility Score: inf
ROOT
ATOM      1  C   UNL     1     -12.497  -1.561 -22.240  1.00  0.00     0.000 C 
ENDROOT
BRANCH   1   2
ATOM      2  C   UNL     1     -11.172  -1.910 -21.533  1.00  0.00     0.000 C 
BRANCH   2   3
ATOM      3  C   UNL     1      -9.947  -1.075 -21.956  1.00  0.00     0.000 C 
BRANCH   3   4
ATOM      4  C   UNL     1     -10.248   0.096 -22.907  1.00  0.00     0.000 C 
BRANCH   4   5
ATOM      5  C   UNL     1      -9.389   1.337 -22.625  1.00  0.00     0.000 C 
BRANCH   5   6
ATOM      6  C   UNL     1      -8.812   1.287 -21.205  1.00  0.00     0.000 C 
BRANCH   6   7
ATOM      7  C   UNL     1      -9.430   2.379 -20.320  1.00  0.00     0.000 C 
BRANCH   7   8
ATOM      8  C   UNL     1     -10.129   1.811 -19.073  1.00  0.00     0.000 C 
BRANCH   8   9
ATOM      9  C   UNL     1     -11.482   1.120 -19.339  1.00  0.00     0.000 C 
BRANCH   9  10
ATOM     10  C   UNL     1     -12.342   1.811 -20.421  1.00  0.00     0.006 C 
BRANCH  10  11
ATOM     11  C   UNL     1     -13.573   2.545 -19.861  1.00  0.00     0.053 C 
BRANCH  11  12
ATOM     12  C   UNL     1     -14.345   3.248 -20.937  1.00  0.00     0.041 C 
ATOM     13  O   UNL     1     -14.383   2.772 -22.101  1.00  0.00    -0.550 OA
ATOM     14  O   UNL     1     -15.025   4.425 -20.652  1.00  0.00    -0.550 OA
ENDBRANCH  11  12
ENDBRANCH  10  11
ENDBRANCH   9  10
ENDBRANCH   8   9
ENDBRANCH   7   8
ENDBRANCH   6   7
ENDBRANCH   5   6
ENDBRANCH   4   5
ENDBRANCH   3   4
ENDBRANCH   2   3
ENDBRANCH   1   2
BRANCH   1  15
ATOM     15  C   UNL     1     -12.906  -2.553 -23.349  1.00  0.00     0.000 C 
BRANCH  15  16
ATOM     16  C   UNL     1     -12.097  -3.863 -23.316  1.00  0.00     0.000 C 
BRANCH  16  17
ATOM     17  C   UNL     1     -11.115  -3.985 -24.492  1.00  0.00     0.000 C 
BRANCH  17  18
ATOM     18  C   UNL     1     -10.961  -2.675 -25.279  1.00  0.00    -0.000 C 
BRANCH  18  19
ATOM     19  C   UNL     1      -9.502  -2.460 -25.697  1.00  0.00    -0.000 C 
BRANCH  19  20
ATOM     20  C   UNL     1      -9.373  -2.332 -27.224  1.00  0.00    -0.000 C 
BRANCH  20  21
ATOM     21  C   UNL     1      -9.380  -3.707 -27.928  1.00  0.00    -0.000 C 
BRANCH  21  22
ATOM     22  C   UNL     1     -10.712  -4.045 -28.629  1.00  0.00    -0.000 C 
BRANCH  22  23
ATOM     23  C   UNL     1     -11.290  -2.923 -29.504  1.00  0.00    -0.000 C 
BRANCH  23  24
ATOM     24  C   UNL     1     -12.776  -2.651 -29.223  1.00  0.00    -0.000 C 
BRANCH  24  25
ATOM     25  C   UNL     1     -13.243  -3.407 -27.974  1.00  0.00    -0.003 C 
ATOM     26  C   UNL     1     -14.113  -4.603 -28.347  1.00  0.00     0.004 C 
ENDBRANCH  24  25
ENDBRANCH  23  24
ENDBRANCH  22  23
ENDBRANCH  21  22
ENDBRANCH  20  21
ENDBRANCH  19  20
ENDBRANCH  18  19
ENDBRANCH  17  18
ENDBRANCH  16  17
ENDBRANCH  15  16
ENDBRANCH   1  15
TORSDOF 22
ENDMDL
MODEL 6
REMARK VINA RESULT:    -4.313      5.677      9.826
REMARK INTER + INTRA:         -13.213
REMARK INTER:                  -9.923
REMARK INTRA:                  -3.290
REMARK UNBOUND:                -3.352
REMARK SMILES CCCCCCCCCCCCCCCCCCCCCCCC(=O)[O-]
REMARK SMILES IDX 13 1 14 2 15 3 16 4 17 5 18 6 19 7 20 8 21 9 22 10 23 11
REMARK SMILES IDX 24 12 25 13 26 14 12 15 11 16 10 17 9 18 8 19 7 20 6 21 5 22
REMARK SMILES IDX 4 23 3 24 2 25 1 26
REMARK H PARENT
REMARK Flexibility Score: inf
ROOT
ATOM      1  C   UNL     1     -14.300  -3.672 -29.388  1.00  0.00     0.000 C 
ENDROOT
BRANCH   1   2
ATOM      2  C   UNL     1     -13.246  -2.559 -29.548  1.00  0.00     0.000 C 
BRANCH   2   3
ATOM      3  C   UNL     1     -12.415  -2.604 -30.846  1.00  0.00     0.000 C 
BRANCH   3   4
ATOM      4  C   UNL     1     -13.076  -3.344 -32.022  1.00  0.00     0.000 C 
BRANCH   4   5
ATOM      5  C   UNL     1     -12.209  -4.481 -32.582  1.00  0.00     0.000 C 
BRANCH   5   6
ATOM      6  C   UNL     1     -10.851  -4.528 -31.873  1.00  0.00     0.000 C 
BRANCH   6   7
ATOM      7  C   UNL     1      -9.704  -4.267 -32.861  1.00  0.00     0.000 C 
BRANCH   7   8
ATOM      8  C   UNL     1      -9.254  -2.796 -32.877  1.00  0.00     0.000 C 
BRANCH   8   9
ATOM      9  C   UNL     1      -9.341  -2.100 -34.251  1.00  0.00     0.000 C 
BRANCH   9  10
ATOM     10  C   UNL     1     -10.785  -1.862 -34.747  1.00  0.00     0.006 C 
BRANCH  10  11
ATOM     11  C   UNL     1     -10.917  -0.695 -35.741  1.00  0.00     0.053 C 
BRANCH  11  12
ATOM     12  C   UNL     1     -11.286   0.586 -35.056  1.00  0.00     0.041 C 
ATOM     13  O   UNL     1     -12.200   0.600 -34.191  1.00  0.00    -0.550 OA
ATOM     14  O   UNL     1     -10.617   1.763 -35.370  1.00  0.00    -0.550 OA
ENDBRANCH  11  12
ENDBRANCH  10  11
ENDBRANCH   9  10
ENDBRANCH   8   9
ENDBRANCH   7   8
ENDBRANCH   6   7
ENDBRANCH   5   6
ENDBRANCH   4   5
ENDBRANCH   3   4
ENDBRANCH   2   3
ENDBRANCH   1   2
BRANCH   1  15
ATOM     15  C   UNL     1     -13.977  -4.701 -28.283  1.00  0.00     0.000 C 
BRANCH  15  16
ATOM     16  C   UNL     1     -12.563  -4.534 -27.699  1.00  0.00     0.000 C 
BRANCH  16  17
ATOM     17  C   UNL     1     -12.549  -4.541 -26.163  1.00  0.00     0.000 C 
BRANCH  17  18
ATOM     18  C   UNL     1     -12.465  -3.130 -25.560  1.00  0.00    -0.000 C 
BRANCH  18  19
ATOM     19  C   UNL     1     -11.298  -3.028 -24.573  1.00  0.00    -0.000 C 
BRANCH  19  20
ATOM     20  C   UNL     1     -10.177  -2.133 -25.126  1.00  0.00    -0.000 C 
BRANCH  20  21
ATOM     21  C   UNL     1      -9.286  -2.875 -26.147  1.00  0.00    -0.000 C 
BRANCH  21  22
ATOM     22  C   UNL     1      -9.167  -2.162 -27.509  1.00  0.00    -0.000 C 
BRANCH  22  23
ATOM     23  C   UNL     1      -9.448  -3.046 -28.734  1.00  0.00    -0.000 C 
BRANCH  23  24
ATOM     24  C   UNL     1      -8.170  -3.457 -29.481  1.00  0.00    -0.000 C 
BRANCH  24  25
ATOM     25  C   UNL     1      -7.478  -4.629 -28.775  1.00  0.00    -0.003 C 
ATOM     26  C   UNL     1      -6.030  -4.290 -28.437  1.00  0.00     0.004 C 
ENDBRANCH  24  25
ENDBRANCH  23  24
ENDBRANCH  22  23
ENDBRANCH  21  22
ENDBRANCH  20  21
ENDBRANCH  19  20
ENDBRANCH  18  19
ENDBRANCH  17  18
ENDBRANCH  16  17
ENDBRANCH  15  16
ENDBRANCH   1  15
TORSDOF 22
ENDMDL
MODEL 7
REMARK VINA RESULT:    -4.308      2.724      5.954
REMARK INTER + INTRA:         -13.201
REMARK INTER:                  -9.552
REMARK INTRA:                  -3.650
REMARK UNBOUND:                -3.352
REMARK SMILES CCCCCCCCCCCCCCCCCCCCCCCC(=O)[O-]
REMARK SMILES IDX 13 1 14 2 15 3 16 4 17 5 18 6 19 7 20 8 21 9 22 10 23 11
REMARK SMILES IDX 24 12 25 13 26 14 12 15 11 16 10 17 9 18 8 19 7 20 6 21 5 22
REMARK SMILES IDX 4 23 3 24 2 25 1 26
REMARK H PARENT
REMARK Flexibility Score: inf
ROOT
ATOM      1  C   UNL     1      -9.423  -3.705 -27.727  1.00  0.00     0.000 C 
ENDROOT
BRANCH   1   2
ATOM      2  C   UNL     1      -9.519  -2.361 -26.978  1.00  0.00     0.000 C 
BRANCH   2   3
ATOM      3  C   UNL     1      -9.742  -2.458 -25.456  1.00  0.00     0.000 C 
BRANCH   3   4
ATOM      4  C   UNL     1     -10.064  -3.866 -24.927  1.00  0.00     0.000 C 
BRANCH   4   5
ATOM      5  C   UNL     1     -11.571  -4.143 -24.829  1.00  0.00     0.000 C 
BRANCH   5   6
ATOM      6  C   UNL     1     -12.357  -2.831 -24.717  1.00  0.00     0.000 C 
BRANCH   6   7
ATOM      7  C   UNL     1     -13.040  -2.714 -23.346  1.00  0.00     0.000 C 
BRANCH   7   8
ATOM      8  C   UNL     1     -12.448  -1.591 -22.479  1.00  0.00     0.000 C 
BRANCH   8   9
ATOM      9  C   UNL     1     -11.187  -1.976 -21.679  1.00  0.00     0.000 C 
BRANCH   9  10
ATOM     10  C   UNL     1      -9.943  -1.121 -22.012  1.00  0.00     0.006 C 
BRANCH  10  11
ATOM     11  C   UNL     1     -10.264   0.165 -22.794  1.00  0.00     0.053 C 
BRANCH  11  12
ATOM     12  C   UNL     1     -10.001   1.396 -21.981  1.00  0.00     0.041 C 
ATOM     13  O   UNL     1     -10.959   2.114 -21.591  1.00  0.00    -0.550 OA
ATOM     14  O   UNL     1      -8.698   1.749 -21.650  1.00  0.00    -0.550 OA
ENDBRANCH  11  12
ENDBRANCH  10  11
ENDBRANCH   9  10
ENDBRANCH   8   9
ENDBRANCH   7   8
ENDBRANCH   6   7
ENDBRANCH   5   6
ENDBRANCH   4   5
ENDBRANCH   3   4
ENDBRANCH   2   3
ENDBRANCH   1   2
BRANCH   1  15
ATOM     15  C   UNL     1     -10.712  -4.113 -28.472  1.00  0.00     0.000 C 
BRANCH  15  16
ATOM     16  C   UNL     1     -11.598  -2.910 -28.847  1.00  0.00     0.000 C 
BRANCH  16  17
ATOM     17  C   UNL     1     -13.015  -3.011 -28.263  1.00  0.00     0.000 C 
BRANCH  17  18
ATOM     18  C   UNL     1     -13.532  -4.456 -28.197  1.00  0.00    -0.000 C 
BRANCH  18  19
ATOM     19  C   UNL     1     -14.819  -4.612 -29.015  1.00  0.00    -0.000 C 
BRANCH  19  20
ATOM     20  C   UNL     1     -14.514  -5.062 -30.453  1.00  0.00    -0.000 C 
BRANCH  20  21
ATOM     21  C   UNL     1     -14.382  -3.867 -31.424  1.00  0.00    -0.000 C 
BRANCH  21  22
ATOM     22  C   UNL     1     -13.194  -3.983 -32.401  1.00  0.00    -0.000 C 
BRANCH  22  23
ATOM     23  C   UNL     1     -12.005  -4.809 -31.886  1.00  0.00    -0.000 C 
BRANCH  23  24
ATOM     24  C   UNL     1     -10.736  -4.623 -32.731  1.00  0.00    -0.000 C 
BRANCH  24  25
ATOM     25  C   UNL     1      -9.776  -3.630 -32.064  1.00  0.00    -0.003 C 
ATOM     26  C   UNL     1      -9.120  -2.720 -33.098  1.00  0.00     0.004 C 
ENDBRANCH  24  25
ENDBRANCH  23  24
ENDBRANCH  22  23
ENDBRANCH  21  22
ENDBRANCH  20  21
ENDBRANCH  19  20
ENDBRANCH  18  19
ENDBRANCH  17  18
ENDBRANCH  16  17
ENDBRANCH  15  16
ENDBRANCH   1  15
TORSDOF 22
ENDMDL
MODEL 8
REMARK VINA RESULT:    -4.303      5.531     10.249
REMARK INTER + INTRA:         -13.190
REMARK INTER:                  -9.567
REMARK INTRA:                  -3.622
REMARK UNBOUND:                -3.352
REMARK SMILES CCCCCCCCCCCCCCCCCCCCCCCC(=O)[O-]
REMARK SMILES IDX 13 1 14 2 15 3 16 4 17 5 18 6 19 7 20 8 21 9 22 10 23 11
REMARK SMILES IDX 24 12 25 13 26 14 12 15 11 16 10 17 9 18 8 19 7 20 6 21 5 22
REMARK SMILES IDX 4 23 3 24 2 25 1 26
REMARK H PARENT
REMARK Flexibility Score: inf
ROOT
ATOM      1  C   UNL     1     -12.711  -2.549 -31.239  1.00  0.00     0.000 C 
ENDROOT
BRANCH   1   2
ATOM      2  C   UNL     1     -12.295  -3.987 -31.605  1.00  0.00     0.000 C 
BRANCH   2   3
ATOM      3  C   UNL     1     -10.869  -4.149 -32.169  1.00  0.00     0.000 C 
BRANCH   3   4
ATOM      4  C   UNL     1      -9.988  -2.890 -32.097  1.00  0.00     0.000 C 
BRANCH   4   5
ATOM      5  C   UNL     1      -8.987  -2.788 -33.256  1.00  0.00     0.000 C 
BRANCH   5   6
ATOM      6  C   UNL     1      -9.190  -3.936 -34.252  1.00  0.00     0.000 C 
BRANCH   6   7
ATOM      7  C   UNL     1      -9.815  -3.427 -35.560  1.00  0.00     0.000 C 
BRANCH   7   8
ATOM      8  C   UNL     1     -11.347  -3.563 -35.580  1.00  0.00     0.000 C 
BRANCH   8   9
ATOM      9  C   UNL     1     -12.123  -2.230 -35.561  1.00  0.00     0.000 C 
BRANCH   9  10
ATOM     10  C   UNL     1     -11.285  -1.020 -35.089  1.00  0.00     0.006 C 
BRANCH  10  11
ATOM     11  C   UNL     1     -12.078  -0.006 -34.246  1.00  0.00     0.053 C 
BRANCH  11  12
ATOM     12  C   UNL     1     -12.307   1.279 -34.982  1.00  0.00     0.041 C 
ATOM     13  O   UNL     1     -11.331   1.926 -35.445  1.00  0.00    -0.550 OA
ATOM     14  O   UNL     1     -13.598   1.760 -35.162  1.00  0.00    -0.550 OA
ENDBRANCH  11  12
ENDBRANCH  10  11
ENDBRANCH   9  10
ENDBRANCH   8   9
ENDBRANCH   7   8
ENDBRANCH   6   7
ENDBRANCH   5   6
ENDBRANCH   4   5
ENDBRANCH   3   4
ENDBRANCH   2   3
ENDBRANCH   1   2
BRANCH   1  15
ATOM     15  C   UNL     1     -12.861  -2.296 -29.724  1.00  0.00     0.000 C 
BRANCH  15  16
ATOM     16  C   UNL     1     -13.022  -3.592 -28.909  1.00  0.00     0.000 C 
BRANCH  16  17
ATOM     17  C   UNL     1     -12.992  -3.349 -27.392  1.00  0.00     0.000 C 
BRANCH  17  18
ATOM     18  C   UNL     1     -12.690  -4.623 -26.590  1.00  0.00    -0.000 C 
BRANCH  18  19
ATOM     19  C   UNL     1     -12.477  -4.295 -25.108  1.00  0.00    -0.000 C 
BRANCH  19  20
ATOM     20  C   UNL     1     -12.222  -2.793 -24.901  1.00  0.00    -0.000 C 
BRANCH  20  21
ATOM     21  C   UNL     1     -10.913  -2.524 -24.126  1.00  0.00    -0.000 C 
BRANCH  21  22
ATOM     22  C   UNL     1      -9.778  -1.942 -24.994  1.00  0.00    -0.000 C 
BRANCH  22  23
ATOM     23  C   UNL     1      -9.368  -2.810 -26.195  1.00  0.00    -0.000 C 
BRANCH  23  24
ATOM     24  C   UNL     1      -9.424  -2.049 -27.529  1.00  0.00    -0.000 C 
BRANCH  24  25
ATOM     25  C   UNL     1      -9.105  -2.982 -28.703  1.00  0.00    -0.003 C 
ATOM     26  C   UNL     1      -9.401  -4.435 -28.347  1.00  0.00     0.004 C 
ENDBRANCH  24  25
ENDBRANCH  23  24
ENDBRANCH  22  23
ENDBRANCH  21  22
ENDBRANCH  20  21
ENDBRANCH  19  20
ENDBRANCH  18  19
ENDBRANCH  17  18
ENDBRANCH  16  17
ENDBRANCH  15  16
ENDBRANCH   1  15
TORSDOF 22
ENDMDL
MODEL 9
REMARK VINA RESULT:    -4.265      2.978      5.888
REMARK INTER + INTRA:         -13.104
REMARK INTER:                  -9.322
REMARK INTRA:                  -3.781
REMARK UNBOUND:                -3.352
REMARK SMILES CCCCCCCCCCCCCCCCCCCCCCCC(=O)[O-]
REMARK SMILES IDX 13 1 14 2 15 3 16 4 17 5 18 6 19 7 20 8 21 9 22 10 23 11
REMARK SMILES IDX 24 12 25 13 26 14 12 15 11 16 10 17 9 18 8 19 7 20 6 21 5 22
REMARK SMILES IDX 4 23 3 24 2 25 1 26
REMARK H PARENT
REMARK Flexibility Score: inf
ROOT
ATOM      1  C   UNL     1      -9.078  -2.272 -27.752  1.00  0.00     0.000 C 
ENDROOT
BRANCH   1   2
ATOM      2  C   UNL     1      -9.134  -2.889 -26.341  1.00  0.00     0.000 C 
BRANCH   2   3
ATOM      3  C   UNL     1     -10.138  -2.242 -25.367  1.00  0.00     0.000 C 
BRANCH   3   4
ATOM      4  C   UNL     1     -11.081  -3.222 -24.648  1.00  0.00     0.000 C 
BRANCH   4   5
ATOM      5  C   UNL     1     -12.509  -2.679 -24.491  1.00  0.00     0.000 C 
BRANCH   5   6
ATOM      6  C   UNL     1     -13.081  -3.047 -23.117  1.00  0.00     0.000 C 
BRANCH   6   7
ATOM      7  C   UNL     1     -12.440  -2.200 -22.008  1.00  0.00     0.000 C 
BRANCH   7   8
ATOM      8  C   UNL     1     -11.741  -3.053 -20.936  1.00  0.00     0.000 C 
BRANCH   8   9
ATOM      9  C   UNL     1     -10.297  -2.629 -20.600  1.00  0.00     0.000 C 
BRANCH   9  10
ATOM     10  C   UNL     1      -9.666  -1.667 -21.633  1.00  0.00     0.006 C 
BRANCH  10  11
ATOM     11  C   UNL     1      -9.322  -0.280 -21.062  1.00  0.00     0.053 C 
BRANCH  11  12
ATOM     12  C   UNL     1      -9.709   0.824 -21.999  1.00  0.00     0.041 C 
ATOM     13  O   UNL     1     -10.102   0.556 -23.164  1.00  0.00    -0.550 OA
ATOM     14  O   UNL     1      -9.641   2.148 -21.583  1.00  0.00    -0.550 OA
ENDBRANCH  11  12
ENDBRANCH  10  11
ENDBRANCH   9  10
ENDBRANCH   8   9
ENDBRANCH   7   8
ENDBRANCH   6   7
ENDBRANCH   5   6
ENDBRANCH   4   5
ENDBRANCH   3   4
ENDBRANCH   2   3
ENDBRANCH   1   2
BRANCH   1  15
ATOM     15  C   UNL     1      -8.289  -3.110 -28.782  1.00  0.00     0.000 C 
BRANCH  15  16
ATOM     16  C   UNL     1      -8.911  -3.075 -30.190  1.00  0.00     0.000 C 
BRANCH  16  17
ATOM     17  C   UNL     1      -9.253  -4.474 -30.724  1.00  0.00     0.000 C 
BRANCH  17  18
ATOM     18  C   UNL     1      -9.543  -5.485 -29.605  1.00  0.00    -0.000 C 
BRANCH  18  19
ATOM     19  C   UNL     1     -11.052  -5.630 -29.378  1.00  0.00    -0.000 C 
BRANCH  19  20
ATOM     20  C   UNL     1     -11.407  -5.488 -27.889  1.00  0.00    -0.000 C 
BRANCH  20  21
ATOM     21  C   UNL     1     -12.697  -4.665 -27.672  1.00  0.00    -0.000 C 
BRANCH  21  22
ATOM     22  C   UNL     1     -12.580  -3.190 -28.109  1.00  0.00    -0.000 C 
BRANCH  22  23
ATOM     23  C   UNL     1     -13.485  -2.784 -29.282  1.00  0.00    -0.000 C 
BRANCH  23  24
ATOM     24  C   UNL     1     -12.695  -2.321 -30.515  1.00  0.00    -0.000 C 
BRANCH  24  25
ATOM     25  C   UNL     1     -13.161  -3.062 -31.773  1.00  0.00    -0.003 C 
ATOM     26  C   UNL     1     -12.011  -3.255 -32.757  1.00  0.00     0.004 C 
ENDBRANCH  24  25
ENDBRANCH  23  24
ENDBRANCH  22  23
ENDBRANCH  21  22
ENDBRANCH  20  21
ENDBRANCH  19  20
ENDBRANCH  18  19
ENDBRANCH  17  18
ENDBRANCH  16  17
ENDBRANCH  15  16
ENDBRANCH   1  15
TORSDOF 22
ENDMDL
