MODEL 1
REMARK VINA RESULT:    -5.207      0.000      0.000
REMARK INTER + INTRA:          -5.359
REMARK INTER:                  -5.359
REMARK INTRA:                   0.000
REMARK UNBOUND:                 0.000
REMARK SMILES Nc1ncnc2nc[nH]c12
REMARK SMILES IDX 8 1 7 2 6 3 5 4 4 5 3 6 2 7 10 8 9 9 1 11
REMARK H PARENT 9 10 1 12 1 13
REMARK Flexibility Score: inf
ROOT
ATOM      1  C   UNL     1     309.263 222.297 203.619  1.00  0.00     0.199 A 
ATOM      2  N   UNL     1     308.228 223.132 203.909  1.00  0.00    -0.217 NA
ATOM      3  C   UNL     1     308.835 224.328 203.975  1.00  0.00     0.182 A 
ATOM      4  N   UNL     1     308.248 225.519 204.240  1.00  0.00    -0.215 NA
ATOM      5  C   UNL     1     309.036 226.636 204.265  1.00  0.00     0.226 A 
ATOM      6  N   UNL     1     310.384 226.543 204.027  1.00  0.00    -0.217 NA
ATOM      7  C   UNL     1     310.978 225.342 203.759  1.00  0.00     0.152 A 
ATOM      8  C   UNL     1     310.162 224.214 203.737  1.00  0.00     0.127 A 
ATOM      9  N   UNL     1     310.459 222.929 203.508  1.00  0.00    -0.340 N 
ATOM     10  H   UNL     1     311.386 222.502 203.293  1.00  0.00     0.168 HD
ENDROOT
BRANCH   7  11
ATOM     11  N   UNL     1     312.383 225.269 203.514  1.00  0.00    -0.382 N 
ATOM     12  H   UNL     1     313.075 225.332 204.294  1.00  0.00     0.158 HD
ATOM     13  H   UNL     1     312.738 225.151 202.540  1.00  0.00     0.158 HD
ENDBRANCH   7  11
TORSDOF 1
ENDMDL
MODEL 2
REMARK VINA RESULT:    -4.901      0.936      2.969
REMARK INTER + INTRA:          -5.045
REMARK INTER:                  -5.045
REMARK INTRA:                   0.000
REMARK UNBOUND:                 0.000
REMARK SMILES Nc1ncnc2nc[nH]c12
REMARK SMILES IDX 8 1 7 2 6 3 5 4 4 5 3 6 2 7 10 8 9 9 1 11
REMARK H PARENT 9 10 1 12 1 13
REMARK Flexibility Score: inf
ROOT
ATOM      1  C   UNL     1     309.209 227.693 204.259  1.00  0.00     0.199 A 
ATOM      2  N   UNL     1     308.201 226.796 204.435  1.00  0.00    -0.217 NA
ATOM      3  C   UNL     1     308.798 225.632 204.132  1.00  0.00     0.182 A 
ATOM      4  N   UNL     1     308.227 224.404 204.147  1.00  0.00    -0.215 NA
ATOM      5  C   UNL     1     309.000 223.329 203.805  1.00  0.00     0.226 A 
ATOM      6  N   UNL     1     310.316 223.500 203.457  1.00  0.00    -0.217 NA
ATOM      7  C   UNL     1     310.893 224.738 203.441  1.00  0.00     0.152 A 
ATOM      8  C   UNL     1     310.093 225.822 203.792  1.00  0.00     0.127 A 
ATOM      9  N   UNL     1     310.379 227.128 203.865  1.00  0.00    -0.340 N 
ATOM     10  H   UNL     1     311.284 227.610 203.669  1.00  0.00     0.168 HD
ENDROOT
BRANCH   7  11
ATOM     11  N   UNL     1     312.265 224.892 203.076  1.00  0.00    -0.382 N 
ATOM     12  H   UNL     1     312.741 224.206 202.448  1.00  0.00     0.158 HD
ATOM     13  H   UNL     1     312.814 225.702 203.437  1.00  0.00     0.158 HD
ENDBRANCH   7  11
TORSDOF 1
ENDMDL
MODEL 3
REMARK VINA RESULT:    -4.748      1.417      3.765
REMARK INTER + INTRA:          -4.887
REMARK INTER:                  -4.887
REMARK INTRA:                   0.000
REMARK UNBOUND:                 0.000
REMARK SMILES Nc1ncnc2nc[nH]c12
REMARK SMILES IDX 8 1 7 2 6 3 5 4 4 5 3 6 2 7 10 8 9 9 1 11
REMARK H PARENT 9 10 1 12 1 13
REMARK Flexibility Score: inf
ROOT
ATOM      1  C   UNL     1     310.608 225.424 203.808  1.00  0.00     0.199 A 
ATOM      2  N   UNL     1     310.679 224.132 203.386  1.00  0.00    -0.217 NA
ATOM      3  C   UNL     1     309.598 223.582 203.962  1.00  0.00     0.182 A 
ATOM      4  N   UNL     1     309.197 222.293 203.862  1.00  0.00    -0.215 NA
ATOM      5  C   UNL     1     308.062 221.916 204.525  1.00  0.00     0.226 A 
ATOM      6  N   UNL     1     307.356 222.827 205.269  1.00  0.00    -0.217 NA
ATOM      7  C   UNL     1     307.759 224.129 205.371  1.00  0.00     0.152 A 
ATOM      8  C   UNL     1     308.916 224.496 204.690  1.00  0.00     0.127 A 
ATOM      9  N   UNL     1     309.541 225.678 204.607  1.00  0.00    -0.340 N 
ATOM     10  H   UNL     1     309.278 226.587 205.049  1.00  0.00     0.168 HD
ENDROOT
BRANCH   7  11
ATOM     11  N   UNL     1     307.007 225.059 206.151  1.00  0.00    -0.382 N 
ATOM     12  H   UNL     1     306.607 224.793 207.078  1.00  0.00     0.158 HD
ATOM     13  H   UNL     1     306.848 226.028 205.798  1.00  0.00     0.158 HD
ENDBRANCH   7  11
TORSDOF 1
ENDMDL
MODEL 4
REMARK VINA RESULT:    -4.667      1.428      3.332
REMARK INTER + INTRA:          -4.804
REMARK INTER:                  -4.804
REMARK INTRA:                   0.000
REMARK UNBOUND:                 0.000
REMARK SMILES Nc1ncnc2nc[nH]c12
REMARK SMILES IDX 8 1 7 2 6 3 5 4 4 5 3 6 2 7 10 8 9 9 1 11
REMARK H PARENT 9 10 1 12 1 13
REMARK Flexibility Score: inf
ROOT
ATOM      1  C   UNL     1     310.594 225.087 203.521  1.00  0.00     0.199 A 
ATOM      2  N   UNL     1     309.467 225.445 204.195  1.00  0.00    -0.217 NA
ATOM      3  C   UNL     1     308.881 224.258 204.422  1.00  0.00     0.182 A 
ATOM      4  N   UNL     1     307.710 224.046 205.068  1.00  0.00    -0.215 NA
ATOM      5  C   UNL     1     307.271 222.758 205.202  1.00  0.00     0.226 A 
ATOM      6  N   UNL     1     308.003 221.716 204.691  1.00  0.00    -0.217 NA
ATOM      7  C   UNL     1     309.184 221.928 204.038  1.00  0.00     0.152 A 
ATOM      8  C   UNL     1     309.617 223.245 203.911  1.00  0.00     0.127 A 
ATOM      9  N   UNL     1     310.715 223.749 203.331  1.00  0.00    -0.340 N 
ATOM     10  H   UNL     1     311.487 223.242 202.846  1.00  0.00     0.168 HD
ENDROOT
BRANCH   7  11
ATOM     11  N   UNL     1     309.929 220.828 203.515  1.00  0.00    -0.382 N 
ATOM     12  H   UNL     1     310.643 220.331 204.092  1.00  0.00     0.158 HD
ATOM     13  H   UNL     1     309.765 220.504 202.536  1.00  0.00     0.158 HD
ENDBRANCH   7  11
TORSDOF 1
ENDMDL
MODEL 5
REMARK VINA RESULT:    -4.650      1.629      3.069
REMARK INTER + INTRA:          -4.786
REMARK INTER:                  -4.786
REMARK INTRA:                   0.000
REMARK UNBOUND:                 0.000
REMARK SMILES Nc1ncnc2nc[nH]c12
REMARK SMILES IDX 8 1 7 2 6 3 5 4 4 5 3 6 2 7 10 8 9 9 1 11
REMARK H PARENT 9 10 1 12 1 13
REMARK Flexibility Score: inf
ROOT
ATOM      1  C   UNL     1     307.062 221.847 205.599  1.00  0.00     0.199 A 
ATOM      2  N   UNL     1     308.067 221.460 204.767  1.00  0.00    -0.217 NA
ATOM      3  C   UNL     1     308.615 222.635 204.415  1.00  0.00     0.182 A 
ATOM      4  N   UNL     1     309.669 222.818 203.585  1.00  0.00    -0.215 NA
ATOM      5  C   UNL     1     310.086 224.098 203.344  1.00  0.00     0.226 A 
ATOM      6  N   UNL     1     309.447 225.160 203.932  1.00  0.00    -0.217 NA
ATOM      7  C   UNL     1     308.383 224.977 204.770  1.00  0.00     0.152 A 
ATOM      8  C   UNL     1     307.971 223.668 205.004  1.00  0.00     0.127 A 
ATOM      9  N   UNL     1     306.977 223.191 205.764  1.00  0.00    -0.340 N 
ATOM     10  H   UNL     1     306.293 223.718 206.350  1.00  0.00     0.168 HD
ENDROOT
BRANCH   7  11
ATOM     11  N   UNL     1     307.734 226.098 205.370  1.00  0.00    -0.382 N 
ATOM     12  H   UNL     1     306.982 225.973 206.084  1.00  0.00     0.158 HD
ATOM     13  H   UNL     1     308.009 227.068 205.099  1.00  0.00     0.158 HD
ENDBRANCH   7  11
TORSDOF 1
ENDMDL
MODEL 6
REMARK VINA RESULT:    -4.549      1.217      2.854
REMARK INTER + INTRA:          -4.682
REMARK INTER:                  -4.682
REMARK INTRA:                   0.000
REMARK UNBOUND:                 0.000
REMARK SMILES Nc1ncnc2nc[nH]c12
REMARK SMILES IDX 8 1 7 2 6 3 5 4 4 5 3 6 2 7 10 8 9 9 1 11
REMARK H PARENT 9 10 1 12 1 13
REMARK Flexibility Score: inf
ROOT
ATOM      1  C   UNL     1     307.104 225.745 205.379  1.00  0.00     0.199 A 
ATOM      2  N   UNL     1     306.897 224.425 205.119  1.00  0.00    -0.217 NA
ATOM      3  C   UNL     1     308.051 224.064 204.534  1.00  0.00     0.182 A 
ATOM      4  N   UNL     1     308.372 222.833 204.072  1.00  0.00    -0.215 NA
ATOM      5  C   UNL     1     309.603 222.657 203.503  1.00  0.00     0.226 A 
ATOM      6  N   UNL     1     310.481 223.707 203.407  1.00  0.00    -0.217 NA
ATOM      7  C   UNL     1     310.158 224.950 203.872  1.00  0.00     0.152 A 
ATOM      8  C   UNL     1     308.902 225.112 204.449  1.00  0.00     0.127 A 
ATOM      9  N   UNL     1     308.321 226.195 204.981  1.00  0.00    -0.340 N 
ATOM     10  H   UNL     1     308.703 227.161 205.074  1.00  0.00     0.168 HD
ENDROOT
BRANCH   7  11
ATOM     11  N   UNL     1     311.089 226.028 203.761  1.00  0.00    -0.382 N 
ATOM     12  H   UNL     1     310.950 226.797 203.069  1.00  0.00     0.158 HD
ATOM     13  H   UNL     1     311.929 226.058 204.379  1.00  0.00     0.158 HD
ENDBRANCH   7  11
TORSDOF 1
ENDMDL
MODEL 7
REMARK VINA RESULT:    -4.425      1.820      4.209
REMARK INTER + INTRA:          -4.555
REMARK INTER:                  -4.555
REMARK INTRA:                   0.000
REMARK UNBOUND:                 0.000
REMARK SMILES Nc1ncnc2nc[nH]c12
REMARK SMILES IDX 8 1 7 2 6 3 5 4 4 5 3 6 2 7 10 8 9 9 1 11
REMARK H PARENT 9 10 1 12 1 13
REMARK Flexibility Score: inf
ROOT
ATOM      1  C   UNL     1     307.358 226.076 205.435  1.00  0.00     0.199 A 
ATOM      2  N   UNL     1     308.424 225.987 204.593  1.00  0.00    -0.217 NA
ATOM      3  C   UNL     1     308.559 224.659 204.441  1.00  0.00     0.182 A 
ATOM      4  N   UNL     1     309.488 224.023 203.690  1.00  0.00    -0.215 NA
ATOM      5  C   UNL     1     309.468 222.656 203.660  1.00  0.00     0.226 A 
ATOM      6  N   UNL     1     308.528 221.958 204.376  1.00  0.00    -0.217 NA
ATOM      7  C   UNL     1     307.591 222.599 205.135  1.00  0.00     0.152 A 
ATOM      8  C   UNL     1     307.625 223.990 205.155  1.00  0.00     0.127 A 
ATOM      9  N   UNL     1     306.847 224.872 205.796  1.00  0.00    -0.340 N 
ATOM     10  H   UNL     1     306.037 224.688 206.428  1.00  0.00     0.168 HD
ENDROOT
BRANCH   7  11
ATOM     11  N   UNL     1     306.622 221.851 205.871  1.00  0.00    -0.382 N 
ATOM     12  H   UNL     1     305.601 222.048 205.783  1.00  0.00     0.158 HD
ATOM     13  H   UNL     1     306.930 221.089 206.515  1.00  0.00     0.158 HD
ENDBRANCH   7  11
TORSDOF 1
ENDMDL
MODEL 8
REMARK VINA RESULT:    -4.276      1.744      2.302
REMARK INTER + INTRA:          -4.401
REMARK INTER:                  -4.401
REMARK INTRA:                   0.000
REMARK UNBOUND:                 0.000
REMARK SMILES Nc1ncnc2nc[nH]c12
REMARK SMILES IDX 8 1 7 2 6 3 5 4 4 5 3 6 2 7 10 8 9 9 1 11
REMARK H PARENT 9 10 1 12 1 13
REMARK Flexibility Score: inf
ROOT
ATOM      1  C   UNL     1     307.416 221.075 205.093  1.00  0.00     0.199 A 
ATOM      2  N   UNL     1     306.535 222.093 205.294  1.00  0.00    -0.217 NA
ATOM      3  C   UNL     1     307.225 223.159 204.856  1.00  0.00     0.182 A 
ATOM      4  N   UNL     1     306.799 224.444 204.835  1.00  0.00    -0.215 NA
ATOM      5  C   UNL     1     307.650 225.399 204.350  1.00  0.00     0.226 A 
ATOM      6  N   UNL     1     308.899 225.053 203.899  1.00  0.00    -0.217 NA
ATOM      7  C   UNL     1     309.330 223.757 203.920  1.00  0.00     0.152 A 
ATOM      8  C   UNL     1     308.452 222.798 204.417  1.00  0.00     0.127 A 
ATOM      9  N   UNL     1     308.598 221.474 204.558  1.00  0.00    -0.340 N 
ATOM     10  H   UNL     1     309.420 220.878 204.316  1.00  0.00     0.168 HD
ENDROOT
BRANCH   7  11
ATOM     11  N   UNL     1     310.635 223.422 203.445  1.00  0.00    -0.382 N 
ATOM     12  H   UNL     1     310.871 223.462 202.429  1.00  0.00     0.158 HD
ATOM     13  H   UNL     1     311.376 223.129 204.118  1.00  0.00     0.158 HD
ENDBRANCH   7  11
TORSDOF 1
ENDMDL
MODEL 9
REMARK VINA RESULT:    -4.189     14.381     16.011
REMARK INTER + INTRA:          -4.312
REMARK INTER:                  -4.312
REMARK INTRA:                   0.000
REMARK UNBOUND:                 0.000
REMARK SMILES Nc1ncnc2nc[nH]c12
REMARK SMILES IDX 8 1 7 2 6 3 5 4 4 5 3 6 2 7 10 8 9 9 1 11
REMARK H PARENT 9 10 1 12 1 13
REMARK Flexibility Score: inf
ROOT
ATOM      1  C   UNL     1     319.945 234.132 200.692  1.00  0.00     0.199 A 
ATOM      2  N   UNL     1     320.364 233.244 199.750  1.00  0.00    -0.217 NA
ATOM      3  C   UNL     1     321.693 233.222 199.948  1.00  0.00     0.182 A 
ATOM      4  N   UNL     1     322.600 232.487 199.262  1.00  0.00    -0.215 NA
ATOM      5  C   UNL     1     323.917 232.598 199.611  1.00  0.00     0.226 A 
ATOM      6  N   UNL     1     324.299 233.434 200.630  1.00  0.00    -0.217 NA
ATOM      7  C   UNL     1     323.385 234.177 201.323  1.00  0.00     0.152 A 
ATOM      8  C   UNL     1     322.048 234.052 200.955  1.00  0.00     0.127 A 
ATOM      9  N   UNL     1     320.952 234.644 201.445  1.00  0.00    -0.340 N 
ATOM     10  H   UNL     1     320.876 235.336 202.223  1.00  0.00     0.168 HD
ENDROOT
BRANCH   7  11
ATOM     11  N   UNL     1     323.807 235.040 202.379  1.00  0.00    -0.382 N 
ATOM     12  H   UNL     1     323.209 235.831 202.707  1.00  0.00     0.158 HD
ATOM     13  H   UNL     1     324.730 234.888 202.842  1.00  0.00     0.158 HD
ENDBRANCH   7  11
TORSDOF 1
ENDMDL
