MODEL 1
REMARK VINA RESULT:    -4.212      0.000      0.000
REMARK INTER + INTRA:          -8.452
REMARK INTER:                  -7.413
REMARK INTRA:                  -1.040
REMARK UNBOUND:                -1.040
REMARK SMILES CCCCCCCCCCCCCCC(=O)[O-]
REMARK SMILES IDX 9 1 10 2 11 3 12 4 13 5 14 6 15 7 16 8 17 9 8 10 7 11 6 12
REMARK SMILES IDX 5 13 4 14 3 15 2 16 1 17
REMARK H PARENT
REMARK Flexibility Score: inf
ROOT
ATOM      1  C   UNL     1      -7.466  -7.697  -0.326  1.00  0.00     0.000 C 
ENDROOT
BRANCH   1   2
ATOM      2  C   UNL     1      -6.829  -6.966   0.864  1.00  0.00     0.000 C 
BRANCH   2   3
ATOM      3  C   UNL     1      -7.415  -7.462   2.192  1.00  0.00     0.000 C 
BRANCH   3   4
ATOM      4  C   UNL     1      -7.950  -6.290   3.029  1.00  0.00     0.000 C 
BRANCH   4   5
ATOM      5  C   UNL     1      -8.792  -5.302   2.201  1.00  0.00     0.006 C 
BRANCH   5   6
ATOM      6  C   UNL     1      -9.955  -4.658   2.974  1.00  0.00     0.053 C 
BRANCH   6   7
ATOM      7  C   UNL     1     -11.170  -4.482   2.117  1.00  0.00     0.041 C 
ATOM      8  O   UNL     1     -11.124  -4.757   0.888  1.00  0.00    -0.550 OA
ATOM      9  O   UNL     1     -12.363  -4.047   2.680  1.00  0.00    -0.550 OA
ENDBRANCH   6   7
ENDBRANCH   5   6
ENDBRANCH   4   5
ENDBRANCH   3   4
ENDBRANCH   2   3
ENDBRANCH   1   2
BRANCH   1  10
ATOM     10  C   UNL     1      -7.689  -9.197  -0.061  1.00  0.00     0.000 C 
BRANCH  10  11
ATOM     11  C   UNL     1      -6.536 -10.116  -0.501  1.00  0.00    -0.000 C 
BRANCH  11  12
ATOM     12  C   UNL     1      -5.709 -10.648   0.682  1.00  0.00    -0.000 C 
BRANCH  12  13
ATOM     13  C   UNL     1      -6.593 -11.095   1.858  1.00  0.00    -0.000 C 
BRANCH  13  14
ATOM     14  C   UNL     1      -6.149 -12.444   2.450  1.00  0.00    -0.000 C 
BRANCH  14  15
ATOM     15  C   UNL     1      -5.478 -13.349   1.395  1.00  0.00    -0.000 C 
BRANCH  15  16
ATOM     16  C   UNL     1      -6.468 -14.255   0.643  1.00  0.00    -0.003 C 
ATOM     17  C   UNL     1      -6.287 -15.737   0.965  1.00  0.00     0.004 C 
ENDBRANCH  15  16
ENDBRANCH  14  15
ENDBRANCH  13  14
ENDBRANCH  12  13
ENDBRANCH  11  12
ENDBRANCH  10  11
ENDBRANCH   1  10
TORSDOF 13
ENDMDL
MODEL 2
REMARK VINA RESULT:    -4.113      2.857      5.738
REMARK INTER + INTRA:          -8.279
REMARK INTER:                  -7.613
REMARK INTRA:                  -0.665
REMARK UNBOUND:                -1.040
REMARK SMILES CCCCCCCCCCCCCCC(=O)[O-]
REMARK SMILES IDX 9 1 10 2 11 3 12 4 13 5 14 6 15 7 16 8 17 9 8 10 7 11 6 12
REMARK SMILES IDX 5 13 4 14 3 15 2 16 1 17
REMARK H PARENT
REMARK Flexibility Score: inf
ROOT
ATOM      1  C   UNL     1      -5.862 -13.081   0.411  1.00  0.00     0.000 C 
ENDROOT
BRANCH   1   2
ATOM      2  C   UNL     1      -5.002 -12.035   1.134  1.00  0.00     0.000 C 
BRANCH   2   3
ATOM      3  C   UNL     1      -5.479 -10.613   0.814  1.00  0.00     0.000 C 
BRANCH   3   4
ATOM      4  C   UNL     1      -6.548 -10.627  -0.289  1.00  0.00     0.000 C 
BRANCH   4   5
ATOM      5  C   UNL     1      -7.225  -9.258  -0.481  1.00  0.00     0.006 C 
BRANCH   5   6
ATOM      6  C   UNL     1      -7.368  -8.436   0.810  1.00  0.00     0.053 C 
BRANCH   6   7
ATOM      7  C   UNL     1      -7.218  -6.966   0.561  1.00  0.00     0.041 C 
ATOM      8  O   UNL     1      -7.912  -6.140   1.210  1.00  0.00    -0.550 OA
ATOM      9  O   UNL     1      -6.289  -6.508  -0.364  1.00  0.00    -0.550 OA
ENDBRANCH   6   7
ENDBRANCH   5   6
ENDBRANCH   4   5
ENDBRANCH   3   4
ENDBRANCH   2   3
ENDBRANCH   1   2
BRANCH   1  10
ATOM     10  C   UNL     1      -5.540 -14.524   0.840  1.00  0.00     0.000 C 
BRANCH  10  11
ATOM     11  C   UNL     1      -6.748 -15.477   0.882  1.00  0.00    -0.000 C 
BRANCH  11  12
ATOM     12  C   UNL     1      -6.361 -16.920   1.247  1.00  0.00    -0.000 C 
BRANCH  12  13
ATOM     13  C   UNL     1      -5.213 -17.455   0.375  1.00  0.00    -0.000 C 
BRANCH  13  14
ATOM     14  C   UNL     1      -5.463 -18.893  -0.111  1.00  0.00    -0.000 C 
BRANCH  14  15
ATOM     15  C   UNL     1      -6.917 -19.346   0.136  1.00  0.00    -0.000 C 
BRANCH  15  16
ATOM     16  C   UNL     1      -7.434 -20.350  -0.908  1.00  0.00    -0.003 C 
ATOM     17  C   UNL     1      -6.370 -20.757  -1.926  1.00  0.00     0.004 C 
ENDBRANCH  15  16
ENDBRANCH  14  15
ENDBRANCH  13  14
ENDBRANCH  12  13
ENDBRANCH  11  12
ENDBRANCH  10  11
ENDBRANCH   1  10
TORSDOF 13
ENDMDL
MODEL 3
REMARK VINA RESULT:    -4.037      6.084     10.568
REMARK INTER + INTRA:          -8.144
REMARK INTER:                  -7.700
REMARK INTRA:                  -0.444
REMARK UNBOUND:                -1.040
REMARK SMILES CCCCCCCCCCCCCCC(=O)[O-]
REMARK SMILES IDX 9 1 10 2 11 3 12 4 13 5 14 6 15 7 16 8 17 9 8 10 7 11 6 12
REMARK SMILES IDX 5 13 4 14 3 15 2 16 1 17
REMARK H PARENT
REMARK Flexibility Score: inf
ROOT
ATOM      1  C   UNL     1      -6.027 -13.640   0.678  1.00  0.00     0.000 C 
ENDROOT
BRANCH   1   2
ATOM      2  C   UNL     1      -5.425 -15.024   0.957  1.00  0.00     0.000 C 
BRANCH   2   3
ATOM      3  C   UNL     1      -6.517 -16.102   0.992  1.00  0.00     0.000 C 
BRANCH   3   4
ATOM      4  C   UNL     1      -5.910 -17.490   1.241  1.00  0.00     0.000 C 
BRANCH   4   5
ATOM      5  C   UNL     1      -6.554 -18.586   0.372  1.00  0.00     0.006 C 
BRANCH   5   6
ATOM      6  C   UNL     1      -5.591 -19.250  -0.626  1.00  0.00     0.053 C 
BRANCH   6   7
ATOM      7  C   UNL     1      -6.290 -20.238  -1.509  1.00  0.00     0.041 C 
ATOM      8  O   UNL     1      -5.673 -20.781  -2.464  1.00  0.00    -0.550 OA
ATOM      9  O   UNL     1      -7.611 -20.583  -1.258  1.00  0.00    -0.550 OA
ENDBRANCH   6   7
ENDBRANCH   5   6
ENDBRANCH   4   5
ENDBRANCH   3   4
ENDBRANCH   2   3
ENDBRANCH   1   2
BRANCH   1  10
ATOM     10  C   UNL     1      -5.135 -12.767  -0.224  1.00  0.00     0.000 C 
BRANCH  10  11
ATOM     11  C   UNL     1      -5.196 -11.256   0.063  1.00  0.00    -0.000 C 
BRANCH  11  12
ATOM     12  C   UNL     1      -6.457 -10.588  -0.511  1.00  0.00    -0.000 C 
BRANCH  12  13
ATOM     13  C   UNL     1      -7.026  -9.511   0.428  1.00  0.00    -0.000 C 
BRANCH  13  14
ATOM     14  C   UNL     1      -7.606  -8.309  -0.337  1.00  0.00    -0.000 C 
BRANCH  14  15
ATOM     15  C   UNL     1      -6.654  -7.094  -0.318  1.00  0.00    -0.000 C 
BRANCH  15  16
ATOM     16  C   UNL     1      -6.588  -6.386   1.046  1.00  0.00    -0.003 C 
ATOM     17  C   UNL     1      -7.965  -6.022   1.600  1.00  0.00     0.004 C 
ENDBRANCH  15  16
ENDBRANCH  14  15
ENDBRANCH  13  14
ENDBRANCH  12  13
ENDBRANCH  11  12
ENDBRANCH  10  11
ENDBRANCH   1  10
TORSDOF 13
ENDMDL
MODEL 4
REMARK VINA RESULT:    -3.915      3.975      8.090
REMARK INTER + INTRA:          -7.930
REMARK INTER:                  -6.858
REMARK INTRA:                  -1.071
REMARK UNBOUND:                -1.040
REMARK SMILES CCCCCCCCCCCCCCC(=O)[O-]
REMARK SMILES IDX 9 1 10 2 11 3 12 4 13 5 14 6 15 7 16 8 17 9 8 10 7 11 6 12
REMARK SMILES IDX 5 13 4 14 3 15 2 16 1 17
REMARK H PARENT
REMARK Flexibility Score: inf
ROOT
ATOM      1  C   UNL     1      -7.425  -9.642   0.240  1.00  0.00     0.000 C 
ENDROOT
BRANCH   1   2
ATOM      2  C   UNL     1      -6.331 -10.550  -0.338  1.00  0.00     0.000 C 
BRANCH   2   3
ATOM      3  C   UNL     1      -5.262 -10.865   0.717  1.00  0.00     0.000 C 
BRANCH   3   4
ATOM      4  C   UNL     1      -5.858 -10.823   2.132  1.00  0.00     0.000 C 
BRANCH   4   5
ATOM      5  C   UNL     1      -5.646 -12.137   2.906  1.00  0.00     0.006 C 
BRANCH   5   6
ATOM      6  C   UNL     1      -6.783 -13.159   2.743  1.00  0.00     0.053 C 
BRANCH   6   7
ATOM      7  C   UNL     1      -6.367 -14.335   1.914  1.00  0.00     0.041 C 
ATOM      8  O   UNL     1      -6.013 -15.408   2.470  1.00  0.00    -0.550 OA
ATOM      9  O   UNL     1      -6.401 -14.256   0.528  1.00  0.00    -0.550 OA
ENDBRANCH   6   7
ENDBRANCH   5   6
ENDBRANCH   4   5
ENDBRANCH   3   4
ENDBRANCH   2   3
ENDBRANCH   1   2
BRANCH   1  10
ATOM     10  C   UNL     1      -7.572  -8.315  -0.527  1.00  0.00     0.000 C 
BRANCH  10  11
ATOM     11  C   UNL     1      -7.544  -7.049   0.348  1.00  0.00    -0.000 C 
BRANCH  11  12
ATOM     12  C   UNL     1      -7.082  -7.326   1.788  1.00  0.00    -0.000 C 
BRANCH  12  13
ATOM     13  C   UNL     1      -7.893  -6.531   2.825  1.00  0.00    -0.000 C 
BRANCH  13  14
ATOM     14  C   UNL     1      -8.628  -5.331   2.203  1.00  0.00    -0.000 C 
BRANCH  14  15
ATOM     15  C   UNL     1     -10.108  -5.270   2.634  1.00  0.00    -0.000 C 
BRANCH  15  16
ATOM     16  C   UNL     1     -10.725  -3.865   2.517  1.00  0.00    -0.003 C 
ATOM     17  C   UNL     1     -12.246  -3.865   2.654  1.00  0.00     0.004 C 
ENDBRANCH  15  16
ENDBRANCH  14  15
ENDBRANCH  13  14
ENDBRANCH  12  13
ENDBRANCH  11  12
ENDBRANCH  10  11
ENDBRANCH   1  10
TORSDOF 13
ENDMDL
MODEL 5
REMARK VINA RESULT:    -3.868      5.465      9.170
REMARK INTER + INTRA:          -7.848
REMARK INTER:                  -6.734
REMARK INTRA:                  -1.114
REMARK UNBOUND:                -1.040
REMARK SMILES CCCCCCCCCCCCCCC(=O)[O-]
REMARK SMILES IDX 9 1 10 2 11 3 12 4 13 5 14 6 15 7 16 8 17 9 8 10 7 11 6 12
REMARK SMILES IDX 5 13 4 14 3 15 2 16 1 17
REMARK H PARENT
REMARK Flexibility Score: inf
ROOT
ATOM      1  C   UNL     1      -5.528 -11.711  -0.286  1.00  0.00     0.000 C 
ENDROOT
BRANCH   1   2
ATOM      2  C   UNL     1      -5.556 -13.170   0.193  1.00  0.00     0.000 C 
BRANCH   2   3
ATOM      3  C   UNL     1      -6.140 -13.275   1.607  1.00  0.00     0.000 C 
BRANCH   3   4
ATOM      4  C   UNL     1      -6.157 -14.733   2.088  1.00  0.00     0.000 C 
BRANCH   4   5
ATOM      5  C   UNL     1      -6.545 -15.723   0.974  1.00  0.00     0.006 C 
BRANCH   5   6
ATOM      6  C   UNL     1      -5.625 -16.951   0.870  1.00  0.00     0.053 C 
BRANCH   6   7
ATOM      7  C   UNL     1      -6.368 -18.231   1.105  1.00  0.00     0.041 C 
ATOM      8  O   UNL     1      -6.630 -18.604   2.279  1.00  0.00    -0.550 OA
ATOM      9  O   UNL     1      -6.799 -18.993   0.028  1.00  0.00    -0.550 OA
ENDBRANCH   6   7
ENDBRANCH   5   6
ENDBRANCH   4   5
ENDBRANCH   3   4
ENDBRANCH   2   3
ENDBRANCH   1   2
BRANCH   1  10
ATOM     10  C   UNL     1      -4.876 -10.757   0.731  1.00  0.00     0.000 C 
BRANCH  10  11
ATOM     11  C   UNL     1      -5.754  -9.572   1.170  1.00  0.00    -0.000 C 
BRANCH  11  12
ATOM     12  C   UNL     1      -7.221  -9.719   0.734  1.00  0.00    -0.000 C 
BRANCH  12  13
ATOM     13  C   UNL     1      -7.613  -8.700  -0.349  1.00  0.00    -0.000 C 
BRANCH  13  14
ATOM     14  C   UNL     1      -6.887  -7.354  -0.182  1.00  0.00    -0.000 C 
BRANCH  14  15
ATOM     15  C   UNL     1      -7.696  -6.360   0.677  1.00  0.00    -0.000 C 
BRANCH  15  16
ATOM     16  C   UNL     1      -6.880  -5.730   1.819  1.00  0.00    -0.003 C 
ATOM     17  C   UNL     1      -6.886  -6.570   3.094  1.00  0.00     0.004 C 
ENDBRANCH  15  16
ENDBRANCH  14  15
ENDBRANCH  13  14
ENDBRANCH  12  13
ENDBRANCH  11  12
ENDBRANCH  10  11
ENDBRANCH   1  10
TORSDOF 13
ENDMDL
MODEL 6
REMARK VINA RESULT:    -3.765     19.452     21.482
REMARK INTER + INTRA:          -7.666
REMARK INTER:                  -5.948
REMARK INTRA:                  -1.719
REMARK UNBOUND:                -1.040
REMARK SMILES CCCCCCCCCCCCCCC(=O)[O-]
REMARK SMILES IDX 9 1 10 2 11 3 12 4 13 5 14 6 15 7 16 8 17 9 8 10 7 11 6 12
REMARK SMILES IDX 5 13 4 14 3 15 2 16 1 17
REMARK H PARENT
REMARK Flexibility Score: inf
ROOT
ATOM      1  C   UNL     1     -23.039  -4.602 -12.757  1.00  0.00     0.000 C 
ENDROOT
BRANCH   1   2
ATOM      2  C   UNL     1     -21.972  -3.509 -12.608  1.00  0.00     0.000 C 
BRANCH   2   3
ATOM      3  C   UNL     1     -22.544  -2.130 -12.961  1.00  0.00     0.000 C 
BRANCH   3   4
ATOM      4  C   UNL     1     -21.616  -1.381 -13.929  1.00  0.00     0.000 C 
BRANCH   4   5
ATOM      5  C   UNL     1     -22.156  -1.352 -15.370  1.00  0.00     0.006 C 
BRANCH   5   6
ATOM      6  C   UNL     1     -21.308  -2.140 -16.381  1.00  0.00     0.053 C 
BRANCH   6   7
ATOM      7  C   UNL     1     -19.847  -2.081 -16.056  1.00  0.00     0.041 C 
ATOM      8  O   UNL     1     -19.173  -1.061 -16.356  1.00  0.00    -0.550 OA
ATOM      9  O   UNL     1     -19.238  -3.138 -15.392  1.00  0.00    -0.550 OA
ENDBRANCH   6   7
ENDBRANCH   5   6
ENDBRANCH   4   5
ENDBRANCH   3   4
ENDBRANCH   2   3
ENDBRANCH   1   2
BRANCH   1  10
ATOM     10  C   UNL     1     -23.827  -4.498 -14.076  1.00  0.00     0.000 C 
BRANCH  10  11
ATOM     11  C   UNL     1     -23.114  -5.083 -15.309  1.00  0.00    -0.000 C 
BRANCH  11  12
ATOM     12  C   UNL     1     -22.302  -6.349 -14.987  1.00  0.00    -0.000 C 
BRANCH  12  13
ATOM     13  C   UNL     1     -20.800  -6.163 -15.253  1.00  0.00    -0.000 C 
BRANCH  13  14
ATOM     14  C   UNL     1     -19.926  -7.020 -14.320  1.00  0.00    -0.000 C 
BRANCH  14  15
ATOM     15  C   UNL     1     -20.413  -6.968 -12.857  1.00  0.00    -0.000 C 
BRANCH  15  16
ATOM     16  C   UNL     1     -20.702  -8.354 -12.256  1.00  0.00    -0.003 C 
ATOM     17  C   UNL     1     -20.120  -9.499 -13.084  1.00  0.00     0.004 C 
ENDBRANCH  15  16
ENDBRANCH  14  15
ENDBRANCH  13  14
ENDBRANCH  12  13
ENDBRANCH  11  12
ENDBRANCH  10  11
ENDBRANCH   1  10
TORSDOF 13
ENDMDL
MODEL 7
REMARK VINA RESULT:    -3.700      4.340      8.368
REMARK INTER + INTRA:          -7.552
REMARK INTER:                  -6.513
REMARK INTRA:                  -1.039
REMARK UNBOUND:                -1.040
REMARK SMILES CCCCCCCCCCCCCCC(=O)[O-]
REMARK SMILES IDX 9 1 10 2 11 3 12 4 13 5 14 6 15 7 16 8 17 9 8 10 7 11 6 12
REMARK SMILES IDX 5 13 4 14 3 15 2 16 1 17
REMARK H PARENT
REMARK Flexibility Score: inf
ROOT
ATOM      1  C   UNL     1      -7.679  -9.096  -0.393  1.00  0.00     0.000 C 
ENDROOT
BRANCH   1   2
ATOM      2  C   UNL     1      -6.799 -10.295  -0.011  1.00  0.00     0.000 C 
BRANCH   2   3
ATOM      3  C   UNL     1      -6.544 -10.331   1.501  1.00  0.00     0.000 C 
BRANCH   3   4
ATOM      4  C   UNL     1      -6.048 -11.717   1.942  1.00  0.00     0.000 C 
BRANCH   4   5
ATOM      5  C   UNL     1      -6.015 -12.733   0.786  1.00  0.00     0.006 C 
BRANCH   5   6
ATOM      6  C   UNL     1      -5.197 -14.001   1.080  1.00  0.00     0.053 C 
BRANCH   6   7
ATOM      7  C   UNL     1      -6.073 -15.167   1.424  1.00  0.00     0.041 C 
ATOM      8  O   UNL     1      -5.829 -15.862   2.446  1.00  0.00    -0.550 OA
ATOM      9  O   UNL     1      -7.176 -15.466   0.636  1.00  0.00    -0.550 OA
ENDBRANCH   6   7
ENDBRANCH   5   6
ENDBRANCH   4   5
ENDBRANCH   3   4
ENDBRANCH   2   3
ENDBRANCH   1   2
BRANCH   1  10
ATOM     10  C   UNL     1      -6.948  -7.748  -0.260  1.00  0.00     0.000 C 
BRANCH  10  11
ATOM     11  C   UNL     1      -7.730  -6.652   0.485  1.00  0.00    -0.000 C 
BRANCH  11  12
ATOM     12  C   UNL     1      -7.580  -6.743   2.014  1.00  0.00    -0.000 C 
BRANCH  12  13
ATOM     13  C   UNL     1      -8.584  -5.843   2.753  1.00  0.00    -0.000 C 
BRANCH  13  14
ATOM     14  C   UNL     1      -8.395  -4.353   2.421  1.00  0.00    -0.000 C 
BRANCH  14  15
ATOM     15  C   UNL     1      -6.974  -3.857   2.761  1.00  0.00    -0.000 C 
BRANCH  15  16
ATOM     16  C   UNL     1      -6.284  -3.125   1.597  1.00  0.00    -0.003 C 
ATOM     17  C   UNL     1      -5.260  -3.991   0.867  1.00  0.00     0.004 C 
ENDBRANCH  15  16
ENDBRANCH  14  15
ENDBRANCH  13  14
ENDBRANCH  12  13
ENDBRANCH  11  12
ENDBRANCH  10  11
ENDBRANCH   1  10
TORSDOF 13
ENDMDL
MODEL 8
REMARK VINA RESULT:    -3.681     19.666     21.846
REMARK INTER + INTRA:          -7.518
REMARK INTER:                  -5.585
REMARK INTRA:                  -1.933
REMARK UNBOUND:                -1.040
REMARK SMILES CCCCCCCCCCCCCCC(=O)[O-]
REMARK SMILES IDX 9 1 10 2 11 3 12 4 13 5 14 6 15 7 16 8 17 9 8 10 7 11 6 12
REMARK SMILES IDX 5 13 4 14 3 15 2 16 1 17
REMARK H PARENT
REMARK Flexibility Score: inf
ROOT
ATOM      1  C   UNL     1     -24.549  -4.516 -14.547  1.00  0.00     0.000 C 
ENDROOT
BRANCH   1   2
ATOM      2  C   UNL     1     -23.800  -3.787 -15.671  1.00  0.00     0.000 C 
BRANCH   2   3
ATOM      3  C   UNL     1     -24.127  -2.288 -15.670  1.00  0.00     0.000 C 
BRANCH   3   4
ATOM      4  C   UNL     1     -22.868  -1.451 -15.401  1.00  0.00     0.000 C 
BRANCH   4   5
ATOM      5  C   UNL     1     -21.574  -2.164 -15.834  1.00  0.00     0.006 C 
BRANCH   5   6
ATOM      6  C   UNL     1     -20.283  -1.483 -15.352  1.00  0.00     0.053 C 
BRANCH   6   7
ATOM      7  C   UNL     1     -19.059  -2.140 -15.910  1.00  0.00     0.041 C 
ATOM      8  O   UNL     1     -19.103  -3.339 -16.295  1.00  0.00    -0.550 OA
ATOM      9  O   UNL     1     -17.878  -1.420 -16.037  1.00  0.00    -0.550 OA
ENDBRANCH   6   7
ENDBRANCH   5   6
ENDBRANCH   4   5
ENDBRANCH   3   4
ENDBRANCH   2   3
ENDBRANCH   1   2
BRANCH   1  10
ATOM     10  C   UNL     1     -24.077  -4.100 -13.142  1.00  0.00     0.000 C 
BRANCH  10  11
ATOM     11  C   UNL     1     -22.861  -4.876 -12.606  1.00  0.00    -0.000 C 
BRANCH  11  12
ATOM     12  C   UNL     1     -21.581  -4.024 -12.552  1.00  0.00    -0.000 C 
BRANCH  12  13
ATOM     13  C   UNL     1     -20.401  -4.696 -13.273  1.00  0.00    -0.000 C 
BRANCH  13  14
ATOM     14  C   UNL     1     -20.859  -5.691 -14.353  1.00  0.00    -0.000 C 
BRANCH  14  15
ATOM     15  C   UNL     1     -20.124  -7.044 -14.247  1.00  0.00    -0.000 C 
BRANCH  15  16
ATOM     16  C   UNL     1     -20.371  -7.774 -12.915  1.00  0.00    -0.003 C 
ATOM     17  C   UNL     1     -20.316  -9.295 -13.046  1.00  0.00     0.004 C 
ENDBRANCH  15  16
ENDBRANCH  14  15
ENDBRANCH  13  14
ENDBRANCH  12  13
ENDBRANCH  11  12
ENDBRANCH  10  11
ENDBRANCH   1  10
TORSDOF 13
ENDMDL
MODEL 9
REMARK VINA RESULT:    -3.673     19.678     22.328
REMARK INTER + INTRA:          -7.505
REMARK INTER:                  -5.287
REMARK INTRA:                  -2.218
REMARK UNBOUND:                -1.040
REMARK SMILES CCCCCCCCCCCCCCC(=O)[O-]
REMARK SMILES IDX 9 1 10 2 11 3 12 4 13 5 14 6 15 7 16 8 17 9 8 10 7 11 6 12
REMARK SMILES IDX 5 13 4 14 3 15 2 16 1 17
REMARK H PARENT
REMARK Flexibility Score: inf
ROOT
ATOM      1  C   UNL     1     -22.741  -4.650 -12.783  1.00  0.00     0.000 C 
ENDROOT
BRANCH   1   2
ATOM      2  C   UNL     1     -21.412  -3.883 -12.731  1.00  0.00     0.000 C 
BRANCH   2   3
ATOM      3  C   UNL     1     -20.221  -4.832 -12.916  1.00  0.00     0.000 C 
BRANCH   3   4
ATOM      4  C   UNL     1     -20.054  -5.223 -14.392  1.00  0.00     0.000 C 
BRANCH   4   5
ATOM      5  C   UNL     1     -20.518  -6.662 -14.683  1.00  0.00     0.006 C 
BRANCH   5   6
ATOM      6  C   UNL     1     -19.583  -7.752 -14.134  1.00  0.00     0.053 C 
BRANCH   6   7
ATOM      7  C   UNL     1     -20.257  -8.603 -13.102  1.00  0.00     0.041 C 
ATOM      8  O   UNL     1     -20.915  -8.068 -12.171  1.00  0.00    -0.550 OA
ATOM      9  O   UNL     1     -20.188  -9.988 -13.188  1.00  0.00    -0.550 OA
ENDBRANCH   6   7
ENDBRANCH   5   6
ENDBRANCH   4   5
ENDBRANCH   3   4
ENDBRANCH   2   3
ENDBRANCH   1   2
BRANCH   1  10
ATOM     10  C   UNL     1     -23.922  -3.776 -13.243  1.00  0.00     0.000 C 
BRANCH  10  11
ATOM     11  C   UNL     1     -24.566  -4.199 -14.575  1.00  0.00    -0.000 C 
BRANCH  11  12
ATOM     12  C   UNL     1     -23.835  -5.374 -15.248  1.00  0.00    -0.000 C 
BRANCH  12  13
ATOM     13  C   UNL     1     -23.249  -4.989 -16.617  1.00  0.00    -0.000 C 
BRANCH  13  14
ATOM     14  C   UNL     1     -23.176  -3.465 -16.819  1.00  0.00    -0.000 C 
BRANCH  14  15
ATOM     15  C   UNL     1     -21.729  -2.937 -16.731  1.00  0.00    -0.000 C 
BRANCH  15  16
ATOM     16  C   UNL     1     -21.554  -1.789 -15.721  1.00  0.00    -0.003 C 
ATOM     17  C   UNL     1     -20.094  -1.529 -15.356  1.00  0.00     0.004 C 
ENDBRANCH  15  16
ENDBRANCH  14  15
ENDBRANCH  13  14
ENDBRANCH  12  13
ENDBRANCH  11  12
ENDBRANCH  10  11
ENDBRANCH   1  10
TORSDOF 13
ENDMDL
