MODEL 1
REMARK VINA RESULT:    -3.821      0.000      0.000
REMARK INTER + INTRA:         -12.513
REMARK INTER:                  -8.288
REMARK INTRA:                  -4.225
REMARK UNBOUND:                -4.225
REMARK SMILES CCCCCCCCCCCCCCCCCCCCCC(=O)[O-]
REMARK SMILES IDX 12 1 11 2 10 3 9 4 8 5 7 6 6 7 5 8 4 9 3 10 2 11 1 12 13 13
REMARK SMILES IDX 14 14 15 15 16 16 17 17 18 18 19 19 20 20 21 21 22 22 23 23
REMARK SMILES IDX 24 24
REMARK H PARENT
REMARK Flexibility Score: inf
ROOT
ATOM      1  C   UNL     1      86.376 124.369 129.109  1.00  0.00     0.000 C 
ENDROOT
BRANCH   1   2
ATOM      2  C   UNL     1      85.302 123.793 128.171  1.00  0.00     0.000 C 
BRANCH   2   3
ATOM      3  C   UNL     1      84.484 124.891 127.468  1.00  0.00     0.000 C 
BRANCH   3   4
ATOM      4  C   UNL     1      82.968 124.656 127.572  1.00  0.00    -0.000 C 
BRANCH   4   5
ATOM      5  C   UNL     1      82.343 124.232 126.231  1.00  0.00    -0.000 C 
BRANCH   5   6
ATOM      6  C   UNL     1      83.399 123.989 125.139  1.00  0.00    -0.000 C 
BRANCH   6   7
ATOM      7  C   UNL     1      83.356 122.559 124.580  1.00  0.00    -0.000 C 
BRANCH   7   8
ATOM      8  C   UNL     1      84.377 121.661 125.290  1.00  0.00    -0.000 C 
BRANCH   8   9
ATOM      9  C   UNL     1      83.670 120.610 126.161  1.00  0.00    -0.000 C 
BRANCH   9  10
ATOM     10  C   UNL     1      84.432 120.311 127.462  1.00  0.00    -0.000 C 
BRANCH  10  11
ATOM     11  C   UNL     1      83.650 120.732 128.716  1.00  0.00    -0.003 C 
ATOM     12  C   UNL     1      82.223 121.141 128.361  1.00  0.00     0.004 C 
ENDBRANCH  10  11
ENDBRANCH   9  10
ENDBRANCH   8   9
ENDBRANCH   7   8
ENDBRANCH   6   7
ENDBRANCH   5   6
ENDBRANCH   4   5
ENDBRANCH   3   4
ENDBRANCH   2   3
ENDBRANCH   1   2
BRANCH   1  13
ATOM     13  C   UNL     1      87.482 123.351 129.437  1.00  0.00     0.000 C 
BRANCH  13  14
ATOM     14  C   UNL     1      87.340 122.760 130.849  1.00  0.00     0.000 C 
BRANCH  14  15
ATOM     15  C   UNL     1      86.742 121.345 130.840  1.00  0.00     0.000 C 
BRANCH  15  16
ATOM     16  C   UNL     1      85.597 121.228 131.855  1.00  0.00     0.000 C 
BRANCH  16  17
ATOM     17  C   UNL     1      85.566 122.392 132.861  1.00  0.00     0.000 C 
BRANCH  17  18
ATOM     18  C   UNL     1      84.287 123.253 132.827  1.00  0.00     0.000 C 
BRANCH  18  19
ATOM     19  C   UNL     1      83.521 123.233 131.492  1.00  0.00     0.000 C 
BRANCH  19  20
ATOM     20  C   UNL     1      82.988 124.620 131.090  1.00  0.00     0.006 C 
BRANCH  20  21
ATOM     21  C   UNL     1      83.929 125.750 131.527  1.00  0.00     0.053 C 
BRANCH  21  22
ATOM     22  C   UNL     1      83.889 126.906 130.574  1.00  0.00     0.041 C 
ATOM     23  O   UNL     1      84.960 127.398 130.129  1.00  0.00    -0.550 OA
ATOM     24  O   UNL     1      82.670 127.458 130.202  1.00  0.00    -0.550 OA
ENDBRANCH  21  22
ENDBRANCH  20  21
ENDBRANCH  19  20
ENDBRANCH  18  19
ENDBRANCH  17  18
ENDBRANCH  16  17
ENDBRANCH  15  16
ENDBRANCH  14  15
ENDBRANCH  13  14
ENDBRANCH   1  13
TORSDOF 20
ENDMDL
MODEL 2
REMARK VINA RESULT:    -3.781     11.897     15.087
REMARK INTER + INTRA:         -12.426
REMARK INTER:                 -11.183
REMARK INTRA:                  -1.243
REMARK UNBOUND:                -4.225
REMARK SMILES CCCCCCCCCCCCCCCCCCCCCC(=O)[O-]
REMARK SMILES IDX 12 1 11 2 10 3 9 4 8 5 7 6 6 7 5 8 4 9 3 10 2 11 1 12 13 13
REMARK SMILES IDX 14 14 15 15 16 16 17 17 18 18 19 19 20 20 21 21 22 22 23 23
REMARK SMILES IDX 24 24
REMARK H PARENT
REMARK Flexibility Score: inf
ROOT
ATOM      1  C   UNL     1      93.417 123.447 123.479  1.00  0.00     0.000 C 
ENDROOT
BRANCH   1   2
ATOM      2  C   UNL     1      93.569 123.047 124.955  1.00  0.00     0.000 C 
BRANCH   2   3
ATOM      3  C   UNL     1      95.015 122.667 125.316  1.00  0.00     0.000 C 
BRANCH   3   4
ATOM      4  C   UNL     1      96.054 123.548 124.603  1.00  0.00    -0.000 C 
BRANCH   4   5
ATOM      5  C   UNL     1      96.723 124.558 125.552  1.00  0.00    -0.000 C 
BRANCH   5   6
ATOM      6  C   UNL     1      98.026 124.017 126.165  1.00  0.00    -0.000 C 
BRANCH   6   7
ATOM      7  C   UNL     1      98.222 122.514 125.913  1.00  0.00    -0.000 C 
BRANCH   7   8
ATOM      8  C   UNL     1      99.629 122.068 126.327  1.00  0.00    -0.000 C 
BRANCH   8   9
ATOM      9  C   UNL     1      99.745 120.536 126.315  1.00  0.00    -0.000 C 
BRANCH   9  10
ATOM     10  C   UNL     1     101.183 120.049 126.556  1.00  0.00    -0.000 C 
BRANCH  10  11
ATOM     11  C   UNL     1     101.744 119.252 125.369  1.00  0.00    -0.003 C 
ATOM     12  C   UNL     1     100.731 119.176 124.230  1.00  0.00     0.004 C 
ENDBRANCH  10  11
ENDBRANCH   9  10
ENDBRANCH   8   9
ENDBRANCH   7   8
ENDBRANCH   6   7
ENDBRANCH   5   6
ENDBRANCH   4   5
ENDBRANCH   3   4
ENDBRANCH   2   3
ENDBRANCH   1   2
BRANCH   1  13
ATOM     13  C   UNL     1      93.102 122.247 122.568  1.00  0.00     0.000 C 
BRANCH  13  14
ATOM     14  C   UNL     1      93.213 122.594 121.075  1.00  0.00     0.000 C 
BRANCH  14  15
ATOM     15  C   UNL     1      94.589 122.244 120.488  1.00  0.00     0.000 C 
BRANCH  15  16
ATOM     16  C   UNL     1      94.596 120.817 119.922  1.00  0.00     0.000 C 
BRANCH  16  17
ATOM     17  C   UNL     1      94.964 120.767 118.428  1.00  0.00     0.000 C 
BRANCH  17  18
ATOM     18  C   UNL     1      93.764 120.743 117.459  1.00  0.00     0.000 C 
BRANCH  18  19
ATOM     19  C   UNL     1      92.384 120.892 118.123  1.00  0.00     0.000 C 
BRANCH  19  20
ATOM     20  C   UNL     1      91.501 121.949 117.435  1.00  0.00     0.006 C 
BRANCH  20  21
ATOM     21  C   UNL     1      92.257 122.705 116.336  1.00  0.00     0.053 C 
BRANCH  21  22
ATOM     22  C   UNL     1      92.637 124.087 116.772  1.00  0.00     0.041 C 
ATOM     23  O   UNL     1      93.287 124.260 117.837  1.00  0.00    -0.550 OA
ATOM     24  O   UNL     1      92.247 125.187 116.017  1.00  0.00    -0.550 OA
ENDBRANCH  21  22
ENDBRANCH  20  21
ENDBRANCH  19  20
ENDBRANCH  18  19
ENDBRANCH  17  18
ENDBRANCH  16  17
ENDBRANCH  15  16
ENDBRANCH  14  15
ENDBRANCH  13  14
ENDBRANCH   1  13
TORSDOF 20
ENDMDL
MODEL 3
REMARK VINA RESULT:    -3.770      2.462      5.428
REMARK INTER + INTRA:         -12.402
REMARK INTER:                  -8.521
REMARK INTRA:                  -3.881
REMARK UNBOUND:                -4.225
REMARK SMILES CCCCCCCCCCCCCCCCCCCCCC(=O)[O-]
REMARK SMILES IDX 12 1 11 2 10 3 9 4 8 5 7 6 6 7 5 8 4 9 3 10 2 11 1 12 13 13
REMARK SMILES IDX 14 14 15 15 16 16 17 17 18 18 19 19 20 20 21 21 22 22 23 23
REMARK SMILES IDX 24 24
REMARK H PARENT
REMARK Flexibility Score: inf
ROOT
ATOM      1  C   UNL     1      87.468 122.687 130.156  1.00  0.00     0.000 C 
ENDROOT
BRANCH   1   2
ATOM      2  C   UNL     1      86.464 123.255 131.172  1.00  0.00     0.000 C 
BRANCH   2   3
ATOM      3  C   UNL     1      86.902 124.619 131.733  1.00  0.00     0.000 C 
BRANCH   3   4
ATOM      4  C   UNL     1      85.859 125.229 132.685  1.00  0.00    -0.000 C 
BRANCH   4   5
ATOM      5  C   UNL     1      84.593 124.363 132.806  1.00  0.00    -0.000 C 
BRANCH   5   6
ATOM      6  C   UNL     1      83.338 125.073 132.270  1.00  0.00    -0.000 C 
BRANCH   6   7
ATOM      7  C   UNL     1      83.431 126.603 132.376  1.00  0.00    -0.000 C 
BRANCH   7   8
ATOM      8  C   UNL     1      83.025 127.270 131.057  1.00  0.00    -0.000 C 
BRANCH   8   9
ATOM      9  C   UNL     1      83.775 126.643 129.871  1.00  0.00    -0.000 C 
BRANCH   9  10
ATOM     10  C   UNL     1      85.178 127.239 129.675  1.00  0.00    -0.000 C 
BRANCH  10  11
ATOM     11  C   UNL     1      85.890 126.682 128.434  1.00  0.00    -0.003 C 
ATOM     12  C   UNL     1      85.488 125.232 128.175  1.00  0.00     0.004 C 
ENDBRANCH  10  11
ENDBRANCH   9  10
ENDBRANCH   8   9
ENDBRANCH   7   8
ENDBRANCH   6   7
ENDBRANCH   5   6
ENDBRANCH   4   5
ENDBRANCH   3   4
ENDBRANCH   2   3
ENDBRANCH   1   2
BRANCH   1  13
ATOM     13  C   UNL     1      87.494 121.148 130.144  1.00  0.00     0.000 C 
BRANCH  13  14
ATOM     14  C   UNL     1      86.494 120.534 131.136  1.00  0.00     0.000 C 
BRANCH  14  15
ATOM     15  C   UNL     1      85.666 119.400 130.514  1.00  0.00     0.000 C 
BRANCH  15  16
ATOM     16  C   UNL     1      84.183 119.533 130.889  1.00  0.00     0.000 C 
BRANCH  16  17
ATOM     17  C   UNL     1      83.805 120.956 131.340  1.00  0.00     0.000 C 
BRANCH  17  18
ATOM     18  C   UNL     1      82.716 121.643 130.491  1.00  0.00     0.000 C 
BRANCH  18  19
ATOM     19  C   UNL     1      83.237 122.633 129.434  1.00  0.00     0.000 C 
BRANCH  19  20
ATOM     20  C   UNL     1      83.330 122.011 128.029  1.00  0.00     0.006 C 
BRANCH  20  21
ATOM     21  C   UNL     1      82.777 122.947 126.946  1.00  0.00     0.053 C 
BRANCH  21  22
ATOM     22  C   UNL     1      83.711 123.061 125.780  1.00  0.00     0.041 C 
ATOM     23  O   UNL     1      84.506 122.122 125.509  1.00  0.00    -0.550 OA
ATOM     24  O   UNL     1      83.724 124.217 125.010  1.00  0.00    -0.550 OA
ENDBRANCH  21  22
ENDBRANCH  20  21
ENDBRANCH  19  20
ENDBRANCH  18  19
ENDBRANCH  17  18
ENDBRANCH  16  17
ENDBRANCH  15  16
ENDBRANCH  14  15
ENDBRANCH  13  14
ENDBRANCH   1  13
TORSDOF 20
ENDMDL
MODEL 4
REMARK VINA RESULT:    -3.767      1.504      4.239
REMARK INTER + INTRA:         -12.397
REMARK INTER:                  -8.453
REMARK INTRA:                  -3.944
REMARK UNBOUND:                -4.225
REMARK SMILES CCCCCCCCCCCCCCCCCCCCCC(=O)[O-]
REMARK SMILES IDX 12 1 11 2 10 3 9 4 8 5 7 6 6 7 5 8 4 9 3 10 2 11 1 12 13 13
REMARK SMILES IDX 14 14 15 15 16 16 17 17 18 18 19 19 20 20 21 21 22 22 23 23
REMARK SMILES IDX 24 24
REMARK H PARENT
REMARK Flexibility Score: inf
ROOT
ATOM      1  C   UNL     1      86.053 124.600 131.656  1.00  0.00     0.000 C 
ENDROOT
BRANCH   1   2
ATOM      2  C   UNL     1      87.474 124.132 131.306  1.00  0.00     0.000 C 
BRANCH   2   3
ATOM      3  C   UNL     1      87.505 123.211 130.074  1.00  0.00     0.000 C 
BRANCH   3   4
ATOM      4  C   UNL     1      87.848 121.755 130.433  1.00  0.00    -0.000 C 
BRANCH   4   5
ATOM      5  C   UNL     1      86.836 120.750 129.855  1.00  0.00    -0.000 C 
BRANCH   5   6
ATOM      6  C   UNL     1      86.134 119.926 130.947  1.00  0.00    -0.000 C 
BRANCH   6   7
ATOM      7  C   UNL     1      84.968 119.087 130.402  1.00  0.00    -0.000 C 
BRANCH   7   8
ATOM      8  C   UNL     1      84.822 119.272 128.886  1.00  0.00    -0.000 C 
BRANCH   8   9
ATOM      9  C   UNL     1      83.348 119.474 128.498  1.00  0.00    -0.000 C 
BRANCH   9  10
ATOM     10  C   UNL     1      83.177 119.906 127.033  1.00  0.00    -0.000 C 
BRANCH  10  11
ATOM     11  C   UNL     1      84.432 120.584 126.465  1.00  0.00    -0.003 C 
ATOM     12  C   UNL     1      84.077 121.529 125.320  1.00  0.00     0.004 C 
ENDBRANCH  10  11
ENDBRANCH   9  10
ENDBRANCH   8   9
ENDBRANCH   7   8
ENDBRANCH   6   7
ENDBRANCH   5   6
ENDBRANCH   4   5
ENDBRANCH   3   4
ENDBRANCH   2   3
ENDBRANCH   1   2
BRANCH   1  13
ATOM     13  C   UNL     1      85.306 123.603 132.560  1.00  0.00     0.000 C 
BRANCH  13  14
ATOM     14  C   UNL     1      84.262 122.777 131.791  1.00  0.00     0.000 C 
BRANCH  14  15
ATOM     15  C   UNL     1      83.456 123.624 130.794  1.00  0.00     0.000 C 
BRANCH  15  16
ATOM     16  C   UNL     1      83.470 122.987 129.397  1.00  0.00     0.000 C 
BRANCH  16  17
ATOM     17  C   UNL     1      84.518 123.617 128.462  1.00  0.00     0.000 C 
BRANCH  17  18
ATOM     18  C   UNL     1      84.204 125.055 128.003  1.00  0.00     0.000 C 
BRANCH  18  19
ATOM     19  C   UNL     1      85.329 126.078 128.241  1.00  0.00     0.000 C 
BRANCH  19  20
ATOM     20  C   UNL     1      85.040 127.017 129.426  1.00  0.00     0.006 C 
BRANCH  20  21
ATOM     21  C   UNL     1      83.553 127.031 129.803  1.00  0.00     0.053 C 
BRANCH  21  22
ATOM     22  C   UNL     1      83.333 127.595 131.173  1.00  0.00     0.041 C 
ATOM     23  O   UNL     1      83.664 126.934 132.193  1.00  0.00    -0.550 OA
ATOM     24  O   UNL     1      82.734 128.840 131.324  1.00  0.00    -0.550 OA
ENDBRANCH  21  22
ENDBRANCH  20  21
ENDBRANCH  19  20
ENDBRANCH  18  19
ENDBRANCH  17  18
ENDBRANCH  16  17
ENDBRANCH  15  16
ENDBRANCH  14  15
ENDBRANCH  13  14
ENDBRANCH   1  13
TORSDOF 20
ENDMDL
MODEL 5
REMARK VINA RESULT:    -3.752      1.186      3.016
REMARK INTER + INTRA:         -12.363
REMARK INTER:                  -8.591
REMARK INTRA:                  -3.772
REMARK UNBOUND:                -4.225
REMARK SMILES CCCCCCCCCCCCCCCCCCCCCC(=O)[O-]
REMARK SMILES IDX 12 1 11 2 10 3 9 4 8 5 7 6 6 7 5 8 4 9 3 10 2 11 1 12 13 13
REMARK SMILES IDX 14 14 15 15 16 16 17 17 18 18 19 19 20 20 21 21 22 22 23 23
REMARK SMILES IDX 24 24
REMARK H PARENT
REMARK Flexibility Score: inf
ROOT
ATOM      1  C   UNL     1      87.161 121.235 130.535  1.00  0.00     0.000 C 
ENDROOT
BRANCH   1   2
ATOM      2  C   UNL     1      85.933 120.453 130.040  1.00  0.00     0.000 C 
BRANCH   2   3
ATOM      3  C   UNL     1      85.285 121.098 128.802  1.00  0.00     0.000 C 
BRANCH   3   4
ATOM      4  C   UNL     1      83.798 120.730 128.655  1.00  0.00    -0.000 C 
BRANCH   4   5
ATOM      5  C   UNL     1      83.323 120.770 127.192  1.00  0.00    -0.000 C 
BRANCH   5   6
ATOM      6  C   UNL     1      84.478 120.994 126.202  1.00  0.00    -0.000 C 
BRANCH   6   7
ATOM      7  C   UNL     1      84.006 121.571 124.859  1.00  0.00    -0.000 C 
BRANCH   7   8
ATOM      8  C   UNL     1      82.979 122.689 125.073  1.00  0.00    -0.000 C 
BRANCH   8   9
ATOM      9  C   UNL     1      83.678 124.036 125.317  1.00  0.00    -0.000 C 
BRANCH   9  10
ATOM     10  C   UNL     1      83.584 124.494 126.781  1.00  0.00    -0.000 C 
BRANCH  10  11
ATOM     11  C   UNL     1      84.940 124.451 127.502  1.00  0.00    -0.003 C 
ATOM     12  C   UNL     1      85.375 125.847 127.938  1.00  0.00     0.004 C 
ENDBRANCH  10  11
ENDBRANCH   9  10
ENDBRANCH   8   9
ENDBRANCH   7   8
ENDBRANCH   6   7
ENDBRANCH   5   6
ENDBRANCH   4   5
ENDBRANCH   3   4
ENDBRANCH   2   3
ENDBRANCH   1   2
BRANCH   1  13
ATOM     13  C   UNL     1      87.258 122.640 129.916  1.00  0.00     0.000 C 
BRANCH  13  14
ATOM     14  C   UNL     1      87.541 123.728 130.963  1.00  0.00     0.000 C 
BRANCH  14  15
ATOM     15  C   UNL     1      86.424 124.780 131.039  1.00  0.00     0.000 C 
BRANCH  15  16
ATOM     16  C   UNL     1      85.598 124.610 132.322  1.00  0.00     0.000 C 
BRANCH  16  17
ATOM     17  C   UNL     1      84.434 123.616 132.159  1.00  0.00     0.000 C 
BRANCH  17  18
ATOM     18  C   UNL     1      83.749 123.633 130.778  1.00  0.00     0.000 C 
BRANCH  18  19
ATOM     19  C   UNL     1      82.251 123.987 130.795  1.00  0.00     0.000 C 
BRANCH  19  20
ATOM     20  C   UNL     1      81.987 125.448 131.199  1.00  0.00     0.006 C 
BRANCH  20  21
ATOM     21  C   UNL     1      82.356 126.432 130.081  1.00  0.00     0.053 C 
BRANCH  21  22
ATOM     22  C   UNL     1      83.136 127.600 130.604  1.00  0.00     0.041 C 
ATOM     23  O   UNL     1      84.394 127.555 130.645  1.00  0.00    -0.550 OA
ATOM     24  O   UNL     1      82.471 128.726 131.073  1.00  0.00    -0.550 OA
ENDBRANCH  21  22
ENDBRANCH  20  21
ENDBRANCH  19  20
ENDBRANCH  18  19
ENDBRANCH  17  18
ENDBRANCH  16  17
ENDBRANCH  15  16
ENDBRANCH  14  15
ENDBRANCH  13  14
ENDBRANCH   1  13
TORSDOF 20
ENDMDL
MODEL 6
REMARK VINA RESULT:    -3.666      1.165      1.623
REMARK INTER + INTRA:         -12.178
REMARK INTER:                  -8.296
REMARK INTRA:                  -3.882
REMARK UNBOUND:                -4.225
REMARK SMILES CCCCCCCCCCCCCCCCCCCCCC(=O)[O-]
REMARK SMILES IDX 12 1 11 2 10 3 9 4 8 5 7 6 6 7 5 8 4 9 3 10 2 11 1 12 13 13
REMARK SMILES IDX 14 14 15 15 16 16 17 17 18 18 19 19 20 20 21 21 22 22 23 23
REMARK SMILES IDX 24 24
REMARK H PARENT
REMARK Flexibility Score: inf
ROOT
ATOM      1  C   UNL     1      85.829 125.472 128.785  1.00  0.00     0.000 C 
ENDROOT
BRANCH   1   2
ATOM      2  C   UNL     1      84.336 125.642 128.461  1.00  0.00     0.000 C 
BRANCH   2   3
ATOM      3  C   UNL     1      83.610 124.295 128.307  1.00  0.00     0.000 C 
BRANCH   3   4
ATOM      4  C   UNL     1      82.280 124.424 127.544  1.00  0.00    -0.000 C 
BRANCH   4   5
ATOM      5  C   UNL     1      82.361 123.857 126.116  1.00  0.00    -0.000 C 
BRANCH   5   6
ATOM      6  C   UNL     1      83.740 124.078 125.471  1.00  0.00    -0.000 C 
BRANCH   6   7
ATOM      7  C   UNL     1      84.385 122.770 124.987  1.00  0.00    -0.000 C 
BRANCH   7   8
ATOM      8  C   UNL     1      83.577 121.554 125.454  1.00  0.00    -0.000 C 
BRANCH   8   9
ATOM      9  C   UNL     1      84.395 120.694 126.431  1.00  0.00    -0.000 C 
BRANCH   9  10
ATOM     10  C   UNL     1      83.663 120.450 127.760  1.00  0.00    -0.000 C 
BRANCH  10  11
ATOM     11  C   UNL     1      84.504 120.850 128.981  1.00  0.00    -0.003 C 
ATOM     12  C   UNL     1      85.558 119.791 129.293  1.00  0.00     0.004 C 
ENDBRANCH  10  11
ENDBRANCH   9  10
ENDBRANCH   8   9
ENDBRANCH   7   8
ENDBRANCH   6   7
ENDBRANCH   5   6
ENDBRANCH   4   5
ENDBRANCH   3   4
ENDBRANCH   2   3
ENDBRANCH   1   2
BRANCH   1  13
ATOM     13  C   UNL     1      86.401 124.141 128.267  1.00  0.00     0.000 C 
BRANCH  13  14
ATOM     14  C   UNL     1      87.195 123.382 129.342  1.00  0.00     0.000 C 
BRANCH  14  15
ATOM     15  C   UNL     1      86.793 123.785 130.769  1.00  0.00     0.000 C 
BRANCH  15  16
ATOM     16  C   UNL     1      86.490 122.547 131.624  1.00  0.00     0.000 C 
BRANCH  16  17
ATOM     17  C   UNL     1      85.245 122.723 132.513  1.00  0.00     0.000 C 
BRANCH  17  18
ATOM     18  C   UNL     1      84.011 123.312 131.800  1.00  0.00     0.000 C 
BRANCH  18  19
ATOM     19  C   UNL     1      83.180 124.300 132.638  1.00  0.00     0.000 C 
BRANCH  19  20
ATOM     20  C   UNL     1      82.676 125.501 131.819  1.00  0.00     0.006 C 
BRANCH  20  21
ATOM     21  C   UNL     1      83.655 126.681 131.860  1.00  0.00     0.053 C 
BRANCH  21  22
ATOM     22  C   UNL     1      83.023 127.946 131.364  1.00  0.00     0.041 C 
ATOM     23  O   UNL     1      82.463 127.975 130.236  1.00  0.00    -0.550 OA
ATOM     24  O   UNL     1      83.077 129.099 132.136  1.00  0.00    -0.550 OA
ENDBRANCH  21  22
ENDBRANCH  20  21
ENDBRANCH  19  20
ENDBRANCH  18  19
ENDBRANCH  17  18
ENDBRANCH  16  17
ENDBRANCH  15  16
ENDBRANCH  14  15
ENDBRANCH  13  14
ENDBRANCH   1  13
TORSDOF 20
ENDMDL
MODEL 7
REMARK VINA RESULT:    -3.618      1.372      3.506
REMARK INTER + INTRA:         -12.072
REMARK INTER:                  -8.335
REMARK INTRA:                  -3.737
REMARK UNBOUND:                -4.225
REMARK SMILES CCCCCCCCCCCCCCCCCCCCCC(=O)[O-]
REMARK SMILES IDX 12 1 11 2 10 3 9 4 8 5 7 6 6 7 5 8 4 9 3 10 2 11 1 12 13 13
REMARK SMILES IDX 14 14 15 15 16 16 17 17 18 18 19 19 20 20 21 21 22 22 23 23
REMARK SMILES IDX 24 24
REMARK H PARENT
REMARK Flexibility Score: inf
ROOT
ATOM      1  C   UNL     1      87.209 123.217 130.053  1.00  0.00     0.000 C 
ENDROOT
BRANCH   1   2
ATOM      2  C   UNL     1      87.570 121.788 130.490  1.00  0.00     0.000 C 
BRANCH   2   3
ATOM      3  C   UNL     1      86.707 120.723 129.790  1.00  0.00     0.000 C 
BRANCH   3   4
ATOM      4  C   UNL     1      85.555 120.219 130.677  1.00  0.00    -0.000 C 
BRANCH   4   5
ATOM      5  C   UNL     1      84.237 120.968 130.413  1.00  0.00    -0.000 C 
BRANCH   5   6
ATOM      6  C   UNL     1      84.176 121.576 129.002  1.00  0.00    -0.000 C 
BRANCH   6   7
ATOM      7  C   UNL     1      83.553 120.623 127.970  1.00  0.00    -0.000 C 
BRANCH   7   8
ATOM      8  C   UNL     1      84.380 120.595 126.679  1.00  0.00    -0.000 C 
BRANCH   8   9
ATOM      9  C   UNL     1      83.738 121.478 125.597  1.00  0.00    -0.000 C 
BRANCH   9  10
ATOM     10  C   UNL     1      84.507 122.789 125.370  1.00  0.00    -0.000 C 
BRANCH  10  11
ATOM     11  C   UNL     1      83.598 124.025 125.426  1.00  0.00    -0.003 C 
ATOM     12  C   UNL     1      82.274 123.703 126.113  1.00  0.00     0.004 C 
ENDBRANCH  10  11
ENDBRANCH   9  10
ENDBRANCH   8   9
ENDBRANCH   7   8
ENDBRANCH   6   7
ENDBRANCH   5   6
ENDBRANCH   4   5
ENDBRANCH   3   4
ENDBRANCH   2   3
ENDBRANCH   1   2
BRANCH   1  13
ATOM     13  C   UNL     1      87.214 124.214 131.225  1.00  0.00     0.000 C 
BRANCH  13  14
ATOM     14  C   UNL     1      86.026 124.010 132.178  1.00  0.00     0.000 C 
BRANCH  14  15
ATOM     15  C   UNL     1      85.467 125.334 132.718  1.00  0.00     0.000 C 
BRANCH  15  16
ATOM     16  C   UNL     1      83.953 125.235 132.955  1.00  0.00     0.000 C 
BRANCH  16  17
ATOM     17  C   UNL     1      83.351 123.917 132.436  1.00  0.00     0.000 C 
BRANCH  17  18
ATOM     18  C   UNL     1      82.394 124.063 131.236  1.00  0.00     0.000 C 
BRANCH  18  19
ATOM     19  C   UNL     1      82.226 125.497 130.703  1.00  0.00     0.000 C 
BRANCH  19  20
ATOM     20  C   UNL     1      82.722 125.658 129.255  1.00  0.00     0.006 C 
BRANCH  20  21
ATOM     21  C   UNL     1      84.187 125.232 129.095  1.00  0.00     0.053 C 
BRANCH  21  22
ATOM     22  C   UNL     1      85.109 126.412 129.057  1.00  0.00     0.041 C 
ATOM     23  O   UNL     1      86.030 126.470 128.201  1.00  0.00    -0.550 OA
ATOM     24  O   UNL     1      84.968 127.434 129.988  1.00  0.00    -0.550 OA
ENDBRANCH  21  22
ENDBRANCH  20  21
ENDBRANCH  19  20
ENDBRANCH  18  19
ENDBRANCH  17  18
ENDBRANCH  16  17
ENDBRANCH  15  16
ENDBRANCH  14  15
ENDBRANCH  13  14
ENDBRANCH   1  13
TORSDOF 20
ENDMDL
MODEL 8
REMARK VINA RESULT:    -3.586      0.957      3.165
REMARK INTER + INTRA:         -12.003
REMARK INTER:                  -8.066
REMARK INTRA:                  -3.938
REMARK UNBOUND:                -4.225
REMARK SMILES CCCCCCCCCCCCCCCCCCCCCC(=O)[O-]
REMARK SMILES IDX 12 1 11 2 10 3 9 4 8 5 7 6 6 7 5 8 4 9 3 10 2 11 1 12 13 13
REMARK SMILES IDX 14 14 15 15 16 16 17 17 18 18 19 19 20 20 21 21 22 22 23 23
REMARK SMILES IDX 24 24
REMARK H PARENT
REMARK Flexibility Score: inf
ROOT
ATOM      1  C   UNL     1      83.580 120.157 129.724  1.00  0.00     0.000 C 
ENDROOT
BRANCH   1   2
ATOM      2  C   UNL     1      83.172 120.768 128.374  1.00  0.00     0.000 C 
BRANCH   2   3
ATOM      3  C   UNL     1      84.126 120.369 127.235  1.00  0.00     0.000 C 
BRANCH   3   4
ATOM      4  C   UNL     1      83.383 120.035 125.930  1.00  0.00    -0.000 C 
BRANCH   4   5
ATOM      5  C   UNL     1      83.057 121.289 125.099  1.00  0.00    -0.000 C 
BRANCH   5   6
ATOM      6  C   UNL     1      84.209 122.308 125.092  1.00  0.00    -0.000 C 
BRANCH   6   7
ATOM      7  C   UNL     1      83.715 123.762 125.111  1.00  0.00    -0.000 C 
BRANCH   7   8
ATOM      8  C   UNL     1      82.637 123.961 126.182  1.00  0.00    -0.000 C 
BRANCH   8   9
ATOM      9  C   UNL     1      83.268 124.308 127.540  1.00  0.00    -0.000 C 
BRANCH   9  10
ATOM     10  C   UNL     1      84.776 124.586 127.437  1.00  0.00    -0.000 C 
BRANCH  10  11
ATOM     11  C   UNL     1      85.620 123.570 128.222  1.00  0.00    -0.003 C 
ATOM     12  C   UNL     1      86.997 124.139 128.554  1.00  0.00     0.004 C 
ENDBRANCH  10  11
ENDBRANCH   9  10
ENDBRANCH   8   9
ENDBRANCH   7   8
ENDBRANCH   6   7
ENDBRANCH   5   6
ENDBRANCH   4   5
ENDBRANCH   3   4
ENDBRANCH   2   3
ENDBRANCH   1   2
BRANCH   1  13
ATOM     13  C   UNL     1      84.937 119.435 129.662  1.00  0.00     0.000 C 
BRANCH  13  14
ATOM     14  C   UNL     1      85.825 119.742 130.879  1.00  0.00     0.000 C 
BRANCH  14  15
ATOM     15  C   UNL     1      86.737 120.957 130.653  1.00  0.00     0.000 C 
BRANCH  15  16
ATOM     16  C   UNL     1      86.381 122.096 131.618  1.00  0.00     0.000 C 
BRANCH  16  17
ATOM     17  C   UNL     1      85.255 121.721 132.598  1.00  0.00     0.000 C 
BRANCH  17  18
ATOM     18  C   UNL     1      83.991 122.600 132.510  1.00  0.00     0.000 C 
BRANCH  18  19
ATOM     19  C   UNL     1      83.998 123.645 131.380  1.00  0.00     0.000 C 
BRANCH  19  20
ATOM     20  C   UNL     1      84.060 125.091 131.905  1.00  0.00     0.006 C 
BRANCH  20  21
ATOM     21  C   UNL     1      85.211 125.885 131.275  1.00  0.00     0.053 C 
BRANCH  21  22
ATOM     22  C   UNL     1      84.722 126.830 130.219  1.00  0.00     0.041 C 
ATOM     23  O   UNL     1      83.501 127.128 130.152  1.00  0.00    -0.550 OA
ATOM     24  O   UNL     1      85.612 127.357 129.292  1.00  0.00    -0.550 OA
ENDBRANCH  21  22
ENDBRANCH  20  21
ENDBRANCH  19  20
ENDBRANCH  18  19
ENDBRANCH  17  18
ENDBRANCH  16  17
ENDBRANCH  15  16
ENDBRANCH  14  15
ENDBRANCH  13  14
ENDBRANCH   1  13
TORSDOF 20
ENDMDL
MODEL 9
REMARK VINA RESULT:    -3.437      1.448      3.727
REMARK INTER + INTRA:         -11.680
REMARK INTER:                  -8.433
REMARK INTRA:                  -3.248
REMARK UNBOUND:                -4.225
REMARK SMILES CCCCCCCCCCCCCCCCCCCCCC(=O)[O-]
REMARK SMILES IDX 12 1 11 2 10 3 9 4 8 5 7 6 6 7 5 8 4 9 3 10 2 11 1 12 13 13
REMARK SMILES IDX 14 14 15 15 16 16 17 17 18 18 19 19 20 20 21 21 22 22 23 23
REMARK SMILES IDX 24 24
REMARK H PARENT
REMARK Flexibility Score: inf
ROOT
ATOM      1  C   UNL     1      86.649 120.680 130.166  1.00  0.00     0.000 C 
ENDROOT
BRANCH   1   2
ATOM      2  C   UNL     1      86.070 120.080 131.457  1.00  0.00     0.000 C 
BRANCH   2   3
ATOM      3  C   UNL     1      84.650 120.591 131.759  1.00  0.00     0.000 C 
BRANCH   3   4
ATOM      4  C   UNL     1      84.225 121.740 130.828  1.00  0.00    -0.000 C 
BRANCH   4   5
ATOM      5  C   UNL     1      83.002 121.380 129.968  1.00  0.00    -0.000 C 
BRANCH   5   6
ATOM      6  C   UNL     1      82.999 119.904 129.534  1.00  0.00    -0.000 C 
BRANCH   6   7
ATOM      7  C   UNL     1      83.763 119.668 128.222  1.00  0.00    -0.000 C 
BRANCH   7   8
ATOM      8  C   UNL     1      83.667 120.893 127.304  1.00  0.00    -0.000 C 
BRANCH   8   9
ATOM      9  C   UNL     1      83.743 120.478 125.826  1.00  0.00    -0.000 C 
BRANCH   9  10
ATOM     10  C   UNL     1      83.738 121.683 124.873  1.00  0.00    -0.000 C 
BRANCH  10  11
ATOM     11  C   UNL     1      84.410 122.922 125.482  1.00  0.00    -0.003 C 
ATOM     12  C   UNL     1      83.594 124.182 125.205  1.00  0.00     0.004 C 
ENDBRANCH  10  11
ENDBRANCH   9  10
ENDBRANCH   8   9
ENDBRANCH   7   8
ENDBRANCH   6   7
ENDBRANCH   5   6
ENDBRANCH   4   5
ENDBRANCH   3   4
ENDBRANCH   2   3
ENDBRANCH   1   2
BRANCH   1  13
ATOM     13  C   UNL     1      87.883 121.563 130.423  1.00  0.00     0.000 C 
BRANCH  13  14
ATOM     14  C   UNL     1      87.686 123.008 129.937  1.00  0.00     0.000 C 
BRANCH  14  15
ATOM     15  C   UNL     1      87.224 123.951 131.058  1.00  0.00     0.000 C 
BRANCH  15  16
ATOM     16  C   UNL     1      86.248 125.007 130.519  1.00  0.00     0.000 C 
BRANCH  16  17
ATOM     17  C   UNL     1      85.877 124.780 129.042  1.00  0.00     0.000 C 
BRANCH  17  18
ATOM     18  C   UNL     1      84.634 125.552 128.555  1.00  0.00     0.000 C 
BRANCH  18  19
ATOM     19  C   UNL     1      83.291 124.832 128.766  1.00  0.00     0.000 C 
BRANCH  19  20
ATOM     20  C   UNL     1      82.537 125.327 130.013  1.00  0.00     0.006 C 
BRANCH  20  21
ATOM     21  C   UNL     1      82.447 126.857 130.063  1.00  0.00     0.053 C 
BRANCH  21  22
ATOM     22  C   UNL     1      83.115 127.414 131.283  1.00  0.00     0.041 C 
ATOM     23  O   UNL     1      83.239 128.659 131.426  1.00  0.00    -0.550 OA
ATOM     24  O   UNL     1      83.628 126.556 132.248  1.00  0.00    -0.550 OA
ENDBRANCH  21  22
ENDBRANCH  20  21
ENDBRANCH  19  20
ENDBRANCH  18  19
ENDBRANCH  17  18
ENDBRANCH  16  17
ENDBRANCH  15  16
ENDBRANCH  14  15
ENDBRANCH  13  14
ENDBRANCH   1  13
TORSDOF 20
ENDMDL
