MODEL 1
REMARK VINA RESULT:    -3.846      0.000      0.000
REMARK INTER + INTRA:          -8.493
REMARK INTER:                  -6.768
REMARK INTRA:                  -1.725
REMARK UNBOUND:                -1.725
REMARK SMILES CCCCCCCCCCCCCCC(=O)[O-]
REMARK SMILES IDX 9 1 10 2 11 3 12 4 13 5 14 6 15 7 16 8 17 9 8 10 7 11 6 12
REMARK SMILES IDX 5 13 4 14 3 15 2 16 1 17
REMARK H PARENT
REMARK Flexibility Score: inf
ROOT
ATOM      1  C   UNL     1     161.614 177.490 185.158  1.00  0.00     0.000 C 
ENDROOT
BRANCH   1   2
ATOM      2  C   UNL     1     160.250 177.587 184.458  1.00  0.00     0.000 C 
BRANCH   2   3
ATOM      3  C   UNL     1     160.004 176.363 183.562  1.00  0.00     0.000 C 
BRANCH   3   4
ATOM      4  C   UNL     1     161.292 175.843 182.905  1.00  0.00     0.000 C 
BRANCH   4   5
ATOM      5  C   UNL     1     161.308 176.056 181.381  1.00  0.00     0.006 C 
BRANCH   5   6
ATOM      6  C   UNL     1     162.496 176.913 180.928  1.00  0.00     0.053 C 
BRANCH   6   7
ATOM      7  C   UNL     1     162.444 178.290 181.516  1.00  0.00     0.041 C 
ATOM      8  O   UNL     1     161.560 179.105 181.143  1.00  0.00    -0.550 OA
ATOM      9  O   UNL     1     163.394 178.684 182.451  1.00  0.00    -0.550 OA
ENDBRANCH   6   7
ENDBRANCH   5   6
ENDBRANCH   4   5
ENDBRANCH   3   4
ENDBRANCH   2   3
ENDBRANCH   1   2
BRANCH   1  10
ATOM     10  C   UNL     1     161.631 178.204 186.519  1.00  0.00     0.000 C 
BRANCH  10  11
ATOM     11  C   UNL     1     160.700 177.539 187.548  1.00  0.00    -0.000 C 
BRANCH  11  12
ATOM     12  C   UNL     1     161.054 176.065 187.806  1.00  0.00    -0.000 C 
BRANCH  12  13
ATOM     13  C   UNL     1     159.894 175.090 187.507  1.00  0.00    -0.000 C 
BRANCH  13  14
ATOM     14  C   UNL     1     160.345 173.895 186.647  1.00  0.00    -0.000 C 
BRANCH  14  15
ATOM     15  C   UNL     1     161.855 173.607 186.791  1.00  0.00    -0.000 C 
BRANCH  15  16
ATOM     16  C   UNL     1     162.182 172.541 187.850  1.00  0.00    -0.003 C 
ATOM     17  C   UNL     1     161.077 171.498 188.007  1.00  0.00     0.004 C 
ENDBRANCH  15  16
ENDBRANCH  14  15
ENDBRANCH  13  14
ENDBRANCH  12  13
ENDBRANCH  11  12
ENDBRANCH  10  11
ENDBRANCH   1  10
TORSDOF 13
ENDMDL
MODEL 2
REMARK VINA RESULT:    -3.810      2.238      4.183
REMARK INTER + INTRA:          -8.431
REMARK INTER:                  -6.595
REMARK INTRA:                  -1.837
REMARK UNBOUND:                -1.725
REMARK SMILES CCCCCCCCCCCCCCC(=O)[O-]
REMARK SMILES IDX 9 1 10 2 11 3 12 4 13 5 14 6 15 7 16 8 17 9 8 10 7 11 6 12
REMARK SMILES IDX 5 13 4 14 3 15 2 16 1 17
REMARK H PARENT
REMARK Flexibility Score: inf
ROOT
ATOM      1  C   UNL     1     160.403 178.221 187.046  1.00  0.00     0.000 C 
ENDROOT
BRANCH   1   2
ATOM      2  C   UNL     1     160.993 177.475 188.252  1.00  0.00     0.000 C 
BRANCH   2   3
ATOM      3  C   UNL     1     162.528 177.477 188.200  1.00  0.00     0.000 C 
BRANCH   3   4
ATOM      4  C   UNL     1     163.110 176.093 187.871  1.00  0.00     0.000 C 
BRANCH   4   5
ATOM      5  C   UNL     1     164.301 176.167 186.899  1.00  0.00     0.006 C 
BRANCH   5   6
ATOM      6  C   UNL     1     164.975 177.545 186.911  1.00  0.00     0.053 C 
BRANCH   6   7
ATOM      7  C   UNL     1     165.429 177.953 185.543  1.00  0.00     0.041 C 
ATOM      8  O   UNL     1     164.627 177.920 184.573  1.00  0.00    -0.550 OA
ATOM      9  O   UNL     1     166.748 178.335 185.332  1.00  0.00    -0.550 OA
ENDBRANCH   6   7
ENDBRANCH   5   6
ENDBRANCH   4   5
ENDBRANCH   3   4
ENDBRANCH   2   3
ENDBRANCH   1   2
BRANCH   1  10
ATOM     10  C   UNL     1     161.258 178.065 185.779  1.00  0.00     0.000 C 
BRANCH  10  11
ATOM     11  C   UNL     1     160.424 177.683 184.544  1.00  0.00    -0.000 C 
BRANCH  11  12
ATOM     12  C   UNL     1     161.203 176.816 183.542  1.00  0.00    -0.000 C 
BRANCH  12  13
ATOM     13  C   UNL     1     161.656 175.458 184.122  1.00  0.00    -0.000 C 
BRANCH  13  14
ATOM     14  C   UNL     1     160.614 174.349 183.891  1.00  0.00    -0.000 C 
BRANCH  14  15
ATOM     15  C   UNL     1     160.302 173.560 185.182  1.00  0.00    -0.000 C 
BRANCH  15  16
ATOM     16  C   UNL     1     160.579 174.353 186.470  1.00  0.00    -0.003 C 
ATOM     17  C   UNL     1     159.875 173.770 187.694  1.00  0.00     0.004 C 
ENDBRANCH  15  16
ENDBRANCH  14  15
ENDBRANCH  13  14
ENDBRANCH  12  13
ENDBRANCH  11  12
ENDBRANCH  10  11
ENDBRANCH   1  10
TORSDOF 13
ENDMDL
MODEL 3
REMARK VINA RESULT:    -3.785      3.589      6.091
REMARK INTER + INTRA:          -8.386
REMARK INTER:                  -6.339
REMARK INTRA:                  -2.048
REMARK UNBOUND:                -1.725
REMARK SMILES CCCCCCCCCCCCCCC(=O)[O-]
REMARK SMILES IDX 9 1 10 2 11 3 12 4 13 5 14 6 15 7 16 8 17 9 8 10 7 11 6 12
REMARK SMILES IDX 5 13 4 14 3 15 2 16 1 17
REMARK H PARENT
REMARK Flexibility Score: inf
ROOT
ATOM      1  C   UNL     1     161.679 174.117 185.027  1.00  0.00     0.000 C 
ENDROOT
BRANCH   1   2
ATOM      2  C   UNL     1     160.247 173.970 185.563  1.00  0.00     0.000 C 
BRANCH   2   3
ATOM      3  C   UNL     1     160.242 173.889 187.097  1.00  0.00     0.000 C 
BRANCH   3   4
ATOM      4  C   UNL     1     161.252 172.865 187.639  1.00  0.00     0.000 C 
BRANCH   4   5
ATOM      5  C   UNL     1     160.571 171.628 188.251  1.00  0.00     0.006 C 
BRANCH   5   6
ATOM      6  C   UNL     1     161.115 170.318 187.663  1.00  0.00     0.053 C 
BRANCH   6   7
ATOM      7  C   UNL     1     161.179 170.366 186.167  1.00  0.00     0.041 C 
ATOM      8  O   UNL     1     160.119 170.359 185.487  1.00  0.00    -0.550 OA
ATOM      9  O   UNL     1     162.410 170.381 185.523  1.00  0.00    -0.550 OA
ENDBRANCH   6   7
ENDBRANCH   5   6
ENDBRANCH   4   5
ENDBRANCH   3   4
ENDBRANCH   2   3
ENDBRANCH   1   2
BRANCH   1  10
ATOM     10  C   UNL     1     161.954 175.518 184.456  1.00  0.00     0.000 C 
BRANCH  10  11
ATOM     11  C   UNL     1     160.698 176.167 183.851  1.00  0.00    -0.000 C 
BRANCH  11  12
ATOM     12  C   UNL     1     160.307 177.479 184.553  1.00  0.00    -0.000 C 
BRANCH  12  13
ATOM     13  C   UNL     1     161.278 177.888 185.682  1.00  0.00    -0.000 C 
BRANCH  13  14
ATOM     14  C   UNL     1     160.677 177.656 187.081  1.00  0.00    -0.000 C 
BRANCH  14  15
ATOM     15  C   UNL     1     161.743 177.734 188.196  1.00  0.00    -0.000 C 
BRANCH  15  16
ATOM     16  C   UNL     1     163.145 177.296 187.741  1.00  0.00    -0.003 C 
ATOM     17  C   UNL     1     163.385 175.796 187.906  1.00  0.00     0.004 C 
ENDBRANCH  15  16
ENDBRANCH  14  15
ENDBRANCH  13  14
ENDBRANCH  12  13
ENDBRANCH  11  12
ENDBRANCH  10  11
ENDBRANCH   1  10
TORSDOF 13
ENDMDL
MODEL 4
REMARK VINA RESULT:    -3.777      2.030      3.680
REMARK INTER + INTRA:          -8.372
REMARK INTER:                  -6.258
REMARK INTRA:                  -2.114
REMARK UNBOUND:                -1.725
REMARK SMILES CCCCCCCCCCCCCCC(=O)[O-]
REMARK SMILES IDX 9 1 10 2 11 3 12 4 13 5 14 6 15 7 16 8 17 9 8 10 7 11 6 12
REMARK SMILES IDX 5 13 4 14 3 15 2 16 1 17
REMARK H PARENT
REMARK Flexibility Score: inf
ROOT
ATOM      1  C   UNL     1     163.550 177.114 187.506  1.00  0.00     0.000 C 
ENDROOT
BRANCH   1   2
ATOM      2  C   UNL     1     164.015 178.523 187.107  1.00  0.00     0.000 C 
BRANCH   2   3
ATOM      3  C   UNL     1     164.515 178.544 185.655  1.00  0.00     0.000 C 
BRANCH   3   4
ATOM      4  C   UNL     1     164.640 177.137 185.051  1.00  0.00     0.000 C 
BRANCH   4   5
ATOM      5  C   UNL     1     165.051 177.162 183.569  1.00  0.00     0.006 C 
BRANCH   5   6
ATOM      6  C   UNL     1     163.985 176.537 182.660  1.00  0.00     0.053 C 
BRANCH   6   7
ATOM      7  C   UNL     1     163.219 177.580 181.905  1.00  0.00     0.041 C 
ATOM      8  O   UNL     1     163.227 178.778 182.294  1.00  0.00    -0.550 OA
ATOM      9  O   UNL     1     162.469 177.223 180.791  1.00  0.00    -0.550 OA
ENDBRANCH   6   7
ENDBRANCH   5   6
ENDBRANCH   4   5
ENDBRANCH   3   4
ENDBRANCH   2   3
ENDBRANCH   1   2
BRANCH   1  10
ATOM     10  C   UNL     1     162.312 177.137 188.417  1.00  0.00     0.000 C 
BRANCH  10  11
ATOM     11  C   UNL     1     161.000 176.947 187.638  1.00  0.00    -0.000 C 
BRANCH  11  12
ATOM     12  C   UNL     1     160.307 178.278 187.304  1.00  0.00    -0.000 C 
BRANCH  12  13
ATOM     13  C   UNL     1     160.127 178.518 185.789  1.00  0.00    -0.000 C 
BRANCH  13  14
ATOM     14  C   UNL     1     160.979 177.556 184.941  1.00  0.00    -0.000 C 
BRANCH  14  15
ATOM     15  C   UNL     1     160.152 176.857 183.840  1.00  0.00    -0.000 C 
BRANCH  15  16
ATOM     16  C   UNL     1     160.651 175.443 183.498  1.00  0.00    -0.003 C 
ATOM     17  C   UNL     1     161.020 174.625 184.734  1.00  0.00     0.004 C 
ENDBRANCH  15  16
ENDBRANCH  14  15
ENDBRANCH  13  14
ENDBRANCH  12  13
ENDBRANCH  11  12
ENDBRANCH  10  11
ENDBRANCH   1  10
TORSDOF 13
ENDMDL
MODEL 5
REMARK VINA RESULT:    -3.777      3.477      5.521
REMARK INTER + INTRA:          -8.372
REMARK INTER:                  -6.239
REMARK INTRA:                  -2.133
REMARK UNBOUND:                -1.725
REMARK SMILES CCCCCCCCCCCCCCC(=O)[O-]
REMARK SMILES IDX 9 1 10 2 11 3 12 4 13 5 14 6 15 7 16 8 17 9 8 10 7 11 6 12
REMARK SMILES IDX 5 13 4 14 3 15 2 16 1 17
REMARK H PARENT
REMARK Flexibility Score: inf
ROOT
ATOM      1  C   UNL     1     163.218 177.431 187.651  1.00  0.00     0.000 C 
ENDROOT
BRANCH   1   2
ATOM      2  C   UNL     1     163.657 178.608 186.767  1.00  0.00     0.000 C 
BRANCH   2   3
ATOM      3  C   UNL     1     164.129 178.115 185.391  1.00  0.00     0.000 C 
BRANCH   3   4
ATOM      4  C   UNL     1     164.543 176.636 185.403  1.00  0.00     0.000 C 
BRANCH   4   5
ATOM      5  C   UNL     1     166.070 176.447 185.367  1.00  0.00     0.006 C 
BRANCH   5   6
ATOM      6  C   UNL     1     166.684 176.422 186.773  1.00  0.00     0.053 C 
BRANCH   6   7
ATOM      7  C   UNL     1     167.476 177.662 187.055  1.00  0.00     0.041 C 
ATOM      8  O   UNL     1     167.735 177.992 188.243  1.00  0.00    -0.550 OA
ATOM      9  O   UNL     1     167.899 178.472 186.008  1.00  0.00    -0.550 OA
ENDBRANCH   6   7
ENDBRANCH   5   6
ENDBRANCH   4   5
ENDBRANCH   3   4
ENDBRANCH   2   3
ENDBRANCH   1   2
BRANCH   1  10
ATOM     10  C   UNL     1     161.861 177.677 188.330  1.00  0.00     0.000 C 
BRANCH  10  11
ATOM     11  C   UNL     1     160.680 177.135 187.507  1.00  0.00    -0.000 C 
BRANCH  11  12
ATOM     12  C   UNL     1     161.020 175.834 186.760  1.00  0.00    -0.000 C 
BRANCH  12  13
ATOM     13  C   UNL     1     160.841 175.936 185.230  1.00  0.00    -0.000 C 
BRANCH  13  14
ATOM     14  C   UNL     1     160.535 177.374 184.773  1.00  0.00    -0.000 C 
BRANCH  14  15
ATOM     15  C   UNL     1     160.712 177.554 183.249  1.00  0.00    -0.000 C 
BRANCH  15  16
ATOM     16  C   UNL     1     161.922 176.798 182.675  1.00  0.00    -0.003 C 
ATOM     17  C   UNL     1     162.887 177.706 181.915  1.00  0.00     0.004 C 
ENDBRANCH  15  16
ENDBRANCH  14  15
ENDBRANCH  13  14
ENDBRANCH  12  13
ENDBRANCH  11  12
ENDBRANCH  10  11
ENDBRANCH   1  10
TORSDOF 13
ENDMDL
MODEL 6
REMARK VINA RESULT:    -3.761      3.127      5.317
REMARK INTER + INTRA:          -8.345
REMARK INTER:                  -5.945
REMARK INTRA:                  -2.399
REMARK UNBOUND:                -1.725
REMARK SMILES CCCCCCCCCCCCCCC(=O)[O-]
REMARK SMILES IDX 9 1 10 2 11 3 12 4 13 5 14 6 15 7 16 8 17 9 8 10 7 11 6 12
REMARK SMILES IDX 5 13 4 14 3 15 2 16 1 17
REMARK H PARENT
REMARK Flexibility Score: inf
ROOT
ATOM      1  C   UNL     1     164.314 176.673 185.715  1.00  0.00     0.000 C 
ENDROOT
BRANCH   1   2
ATOM      2  C   UNL     1     164.306 175.138 185.771  1.00  0.00     0.000 C 
BRANCH   2   3
ATOM      3  C   UNL     1     162.868 174.598 185.797  1.00  0.00     0.000 C 
BRANCH   3   4
ATOM      4  C   UNL     1     162.500 173.961 187.146  1.00  0.00     0.000 C 
BRANCH   4   5
ATOM      5  C   UNL     1     161.056 173.429 187.176  1.00  0.00     0.006 C 
BRANCH   5   6
ATOM      6  C   UNL     1     160.298 173.738 185.878  1.00  0.00     0.053 C 
BRANCH   6   7
ATOM      7  C   UNL     1     160.216 172.538 184.985  1.00  0.00     0.041 C 
ATOM      8  O   UNL     1     159.997 171.399 185.473  1.00  0.00    -0.550 OA
ATOM      9  O   UNL     1     160.416 172.674 183.616  1.00  0.00    -0.550 OA
ENDBRANCH   6   7
ENDBRANCH   5   6
ENDBRANCH   4   5
ENDBRANCH   3   4
ENDBRANCH   2   3
ENDBRANCH   1   2
BRANCH   1  10
ATOM     10  C   UNL     1     164.489 177.313 187.101  1.00  0.00     0.000 C 
BRANCH  10  11
ATOM     11  C   UNL     1     163.302 178.209 187.495  1.00  0.00    -0.000 C 
BRANCH  11  12
ATOM     12  C   UNL     1     162.223 177.453 188.289  1.00  0.00    -0.000 C 
BRANCH  12  13
ATOM     13  C   UNL     1     160.880 177.323 187.537  1.00  0.00    -0.000 C 
BRANCH  13  14
ATOM     14  C   UNL     1     160.852 178.160 186.245  1.00  0.00    -0.000 C 
BRANCH  14  15
ATOM     15  C   UNL     1     160.311 177.359 185.041  1.00  0.00    -0.000 C 
BRANCH  15  16
ATOM     16  C   UNL     1     161.275 177.318 183.844  1.00  0.00    -0.003 C 
ATOM     17  C   UNL     1     160.991 176.162 182.887  1.00  0.00     0.004 C 
ENDBRANCH  15  16
ENDBRANCH  14  15
ENDBRANCH  13  14
ENDBRANCH  12  13
ENDBRANCH  11  12
ENDBRANCH  10  11
ENDBRANCH   1  10
TORSDOF 13
ENDMDL
MODEL 7
REMARK VINA RESULT:    -3.753      2.224      4.332
REMARK INTER + INTRA:          -8.330
REMARK INTER:                  -6.324
REMARK INTRA:                  -2.006
REMARK UNBOUND:                -1.725
REMARK SMILES CCCCCCCCCCCCCCC(=O)[O-]
REMARK SMILES IDX 9 1 10 2 11 3 12 4 13 5 14 6 15 7 16 8 17 9 8 10 7 11 6 12
REMARK SMILES IDX 5 13 4 14 3 15 2 16 1 17
REMARK H PARENT
REMARK Flexibility Score: inf
ROOT
ATOM      1  C   UNL     1     161.088 176.982 188.212  1.00  0.00     0.000 C 
ENDROOT
BRANCH   1   2
ATOM      2  C   UNL     1     160.678 175.651 187.564  1.00  0.00     0.000 C 
BRANCH   2   3
ATOM      3  C   UNL     1     161.903 174.755 187.329  1.00  0.00     0.000 C 
BRANCH   3   4
ATOM      4  C   UNL     1     163.205 175.385 187.846  1.00  0.00     0.000 C 
BRANCH   4   5
ATOM      5  C   UNL     1     164.119 175.875 186.709  1.00  0.00     0.006 C 
BRANCH   5   6
ATOM      6  C   UNL     1     164.612 177.310 186.939  1.00  0.00     0.053 C 
BRANCH   6   7
ATOM      7  C   UNL     1     165.145 177.921 185.680  1.00  0.00     0.041 C 
ATOM      8  O   UNL     1     164.398 178.056 184.675  1.00  0.00    -0.550 OA
ATOM      9  O   UNL     1     166.477 178.310 185.604  1.00  0.00    -0.550 OA
ENDBRANCH   6   7
ENDBRANCH   5   6
ENDBRANCH   4   5
ENDBRANCH   3   4
ENDBRANCH   2   3
ENDBRANCH   1   2
BRANCH   1  10
ATOM     10  C   UNL     1     160.596 178.201 187.416  1.00  0.00     0.000 C 
BRANCH  10  11
ATOM     11  C   UNL     1     161.118 178.215 185.970  1.00  0.00    -0.000 C 
BRANCH  11  12
ATOM     12  C   UNL     1     159.988 178.218 184.927  1.00  0.00    -0.000 C 
BRANCH  12  13
ATOM     13  C   UNL     1     160.247 177.275 183.732  1.00  0.00    -0.000 C 
BRANCH  13  14
ATOM     14  C   UNL     1     161.375 176.267 184.018  1.00  0.00    -0.000 C 
BRANCH  14  15
ATOM     15  C   UNL     1     161.262 174.999 183.144  1.00  0.00    -0.000 C 
BRANCH  15  16
ATOM     16  C   UNL     1     160.429 173.878 183.790  1.00  0.00    -0.003 C 
ATOM     17  C   UNL     1     161.285 172.734 184.331  1.00  0.00     0.004 C 
ENDBRANCH  15  16
ENDBRANCH  14  15
ENDBRANCH  13  14
ENDBRANCH  12  13
ENDBRANCH  11  12
ENDBRANCH  10  11
ENDBRANCH   1  10
TORSDOF 13
ENDMDL
MODEL 8
REMARK VINA RESULT:    -3.719      1.478      3.020
REMARK INTER + INTRA:          -8.270
REMARK INTER:                  -6.432
REMARK INTRA:                  -1.838
REMARK UNBOUND:                -1.725
REMARK SMILES CCCCCCCCCCCCCCC(=O)[O-]
REMARK SMILES IDX 9 1 10 2 11 3 12 4 13 5 14 6 15 7 16 8 17 9 8 10 7 11 6 12
REMARK SMILES IDX 5 13 4 14 3 15 2 16 1 17
REMARK H PARENT
REMARK Flexibility Score: inf
ROOT
ATOM      1  C   UNL     1     163.016 176.872 187.764  1.00  0.00     0.000 C 
ENDROOT
BRANCH   1   2
ATOM      2  C   UNL     1     161.732 177.501 188.325  1.00  0.00     0.000 C 
BRANCH   2   3
ATOM      3  C   UNL     1     160.657 177.618 187.233  1.00  0.00     0.000 C 
BRANCH   3   4
ATOM      4  C   UNL     1     161.249 177.933 185.851  1.00  0.00     0.000 C 
BRANCH   4   5
ATOM      5  C   UNL     1     160.231 177.743 184.713  1.00  0.00     0.006 C 
BRANCH   5   6
ATOM      6  C   UNL     1     160.577 176.545 183.819  1.00  0.00     0.053 C 
BRANCH   6   7
ATOM      7  C   UNL     1     161.181 176.979 182.519  1.00  0.00     0.041 C 
ATOM      8  O   UNL     1     161.500 176.123 181.652  1.00  0.00    -0.550 OA
ATOM      9  O   UNL     1     161.424 178.326 182.279  1.00  0.00    -0.550 OA
ENDBRANCH   6   7
ENDBRANCH   5   6
ENDBRANCH   4   5
ENDBRANCH   3   4
ENDBRANCH   2   3
ENDBRANCH   1   2
BRANCH   1  10
ATOM     10  C   UNL     1     163.014 175.338 187.863  1.00  0.00     0.000 C 
BRANCH  10  11
ATOM     11  C   UNL     1     162.965 174.656 186.485  1.00  0.00    -0.000 C 
BRANCH  11  12
ATOM     12  C   UNL     1     161.645 173.905 186.238  1.00  0.00    -0.000 C 
BRANCH  12  13
ATOM     13  C   UNL     1     160.716 173.867 187.471  1.00  0.00    -0.000 C 
BRANCH  13  14
ATOM     14  C   UNL     1     160.163 172.456 187.741  1.00  0.00    -0.000 C 
BRANCH  14  15
ATOM     15  C   UNL     1     161.269 171.378 187.710  1.00  0.00    -0.000 C 
BRANCH  15  16
ATOM     16  C   UNL     1     162.121 171.332 188.990  1.00  0.00    -0.003 C 
ATOM     17  C   UNL     1     163.592 171.023 188.717  1.00  0.00     0.004 C 
ENDBRANCH  15  16
ENDBRANCH  14  15
ENDBRANCH  13  14
ENDBRANCH  12  13
ENDBRANCH  11  12
ENDBRANCH  10  11
ENDBRANCH   1  10
TORSDOF 13
ENDMDL
MODEL 9
REMARK VINA RESULT:    -3.678      4.259      5.462
REMARK INTER + INTRA:          -8.199
REMARK INTER:                  -6.732
REMARK INTRA:                  -1.466
REMARK UNBOUND:                -1.725
REMARK SMILES CCCCCCCCCCCCCCC(=O)[O-]
REMARK SMILES IDX 9 1 10 2 11 3 12 4 13 5 14 6 15 7 16 8 17 9 8 10 7 11 6 12
REMARK SMILES IDX 5 13 4 14 3 15 2 16 1 17
REMARK H PARENT
REMARK Flexibility Score: inf
ROOT
ATOM      1  C   UNL     1     163.639 178.598 186.870  1.00  0.00     0.000 C 
ENDROOT
BRANCH   1   2
ATOM      2  C   UNL     1     164.656 177.962 185.911  1.00  0.00     0.000 C 
BRANCH   2   3
ATOM      3  C   UNL     1     165.100 176.582 186.418  1.00  0.00     0.000 C 
BRANCH   3   4
ATOM      4  C   UNL     1     166.585 176.545 186.809  1.00  0.00     0.000 C 
BRANCH   4   5
ATOM      5  C   UNL     1     167.070 177.870 187.422  1.00  0.00     0.006 C 
BRANCH   5   6
ATOM      6  C   UNL     1     168.594 177.901 187.605  1.00  0.00     0.053 C 
BRANCH   6   7
ATOM      7  C   UNL     1     169.277 178.581 186.458  1.00  0.00     0.041 C 
ATOM      8  O   UNL     1     170.512 178.820 186.509  1.00  0.00    -0.550 OA
ATOM      9  O   UNL     1     168.543 178.984 185.350  1.00  0.00    -0.550 OA
ENDBRANCH   6   7
ENDBRANCH   5   6
ENDBRANCH   4   5
ENDBRANCH   3   4
ENDBRANCH   2   3
ENDBRANCH   1   2
BRANCH   1  10
ATOM     10  C   UNL     1     163.062 177.586 187.874  1.00  0.00     0.000 C 
BRANCH  10  11
ATOM     11  C   UNL     1     161.592 177.871 188.223  1.00  0.00    -0.000 C 
BRANCH  11  12
ATOM     12  C   UNL     1     160.645 177.670 187.028  1.00  0.00    -0.000 C 
BRANCH  12  13
ATOM     13  C   UNL     1     160.683 176.242 186.443  1.00  0.00    -0.000 C 
BRANCH  13  14
ATOM     14  C   UNL     1     160.240 175.180 187.465  1.00  0.00    -0.000 C 
BRANCH  14  15
ATOM     15  C   UNL     1     160.790 173.777 187.128  1.00  0.00    -0.000 C 
BRANCH  15  16
ATOM     16  C   UNL     1     162.286 173.771 186.773  1.00  0.00    -0.003 C 
ATOM     17  C   UNL     1     163.192 173.862 188.000  1.00  0.00     0.004 C 
ENDBRANCH  15  16
ENDBRANCH  14  15
ENDBRANCH  13  14
ENDBRANCH  12  13
ENDBRANCH  11  12
ENDBRANCH  10  11
ENDBRANCH   1  10
TORSDOF 13
ENDMDL
