MODEL 1
REMARK VINA RESULT:    -4.743      0.000      0.000
REMARK INTER + INTRA:          -5.313
REMARK INTER:                  -5.159
REMARK INTRA:                  -0.154
REMARK UNBOUND:                -0.154
REMARK SMILES O=C([O-])c1ccccc1O
REMARK SMILES IDX 4 1 9 2 5 3 8 4 6 5 7 6 2 7 1 8 3 9 10 10
REMARK H PARENT 10 11
REMARK Flexibility Score: inf
ROOT
ATOM      1  C   UNL     1      16.849 -24.864  30.576  1.00  0.00     0.039 A 
ATOM      2  C   UNL     1      17.348 -25.060  31.890  1.00  0.00     0.124 A 
ATOM      3  C   UNL     1      15.742 -24.017  30.388  1.00  0.00     0.014 A 
ATOM      4  C   UNL     1      16.694 -24.460  32.975  1.00  0.00     0.047 A 
ATOM      5  C   UNL     1      15.114 -23.411  31.478  1.00  0.00     0.001 A 
ATOM      6  C   UNL     1      15.584 -23.640  32.771  1.00  0.00     0.004 A 
ENDROOT
BRANCH   1   7
ATOM      7  C   UNL     1      17.425 -25.540  29.392  1.00  0.00     0.075 C 
ATOM      8  O   UNL     1      18.036 -24.885  28.506  1.00  0.00    -0.545 OA
ATOM      9  O   UNL     1      17.358 -26.924  29.281  1.00  0.00    -0.545 OA
ENDBRANCH   1   7
BRANCH   2  10
ATOM     10  O   UNL     1      18.498 -25.805  32.159  1.00  0.00    -0.507 OA
ATOM     11  H   UNL     1      19.427 -25.513  31.893  1.00  0.00     0.293 HD
ENDBRANCH   2  10
TORSDOF 2
ENDMDL
MODEL 2
REMARK VINA RESULT:    -4.706      8.729      9.274
REMARK INTER + INTRA:          -5.273
REMARK INTER:                  -5.021
REMARK INTRA:                  -0.251
REMARK UNBOUND:                -0.154
REMARK SMILES O=C([O-])c1ccccc1O
REMARK SMILES IDX 4 1 9 2 5 3 8 4 6 5 7 6 2 7 1 8 3 9 10 10
REMARK H PARENT 10 11
REMARK Flexibility Score: inf
ROOT
ATOM      1  C   UNL     1       8.942 -29.592  29.939  1.00  0.00     0.039 A 
ATOM      2  C   UNL     1      10.285 -29.362  30.337  1.00  0.00     0.124 A 
ATOM      3  C   UNL     1       7.999 -29.967  30.914  1.00  0.00     0.014 A 
ATOM      4  C   UNL     1      10.657 -29.570  31.671  1.00  0.00     0.047 A 
ATOM      5  C   UNL     1       8.383 -30.152  32.244  1.00  0.00     0.001 A 
ATOM      6  C   UNL     1       9.712 -29.963  32.620  1.00  0.00     0.004 A 
ENDROOT
BRANCH   1   7
ATOM      7  C   UNL     1       8.493 -29.487  28.533  1.00  0.00     0.075 C 
ATOM      8  O   UNL     1       7.706 -30.338  28.039  1.00  0.00    -0.545 OA
ATOM      9  O   UNL     1       8.884 -28.401  27.759  1.00  0.00    -0.545 OA
ENDBRANCH   1   7
BRANCH   2  10
ATOM     10  O   UNL     1      11.263 -28.895  29.456  1.00  0.00    -0.507 OA
ATOM     11  H   UNL     1      12.165 -29.335  29.340  1.00  0.00     0.293 HD
ENDBRANCH   2  10
TORSDOF 2
ENDMDL
MODEL 3
REMARK VINA RESULT:    -4.623      8.768      9.507
REMARK INTER + INTRA:          -5.183
REMARK INTER:                  -4.973
REMARK INTRA:                  -0.210
REMARK UNBOUND:                -0.154
REMARK SMILES O=C([O-])c1ccccc1O
REMARK SMILES IDX 4 1 9 2 5 3 8 4 6 5 7 6 2 7 1 8 3 9 10 10
REMARK H PARENT 10 11
REMARK Flexibility Score: inf
ROOT
ATOM      1  C   UNL     1       8.989 -29.671  30.463  1.00  0.00     0.039 A 
ATOM      2  C   UNL     1      10.376 -29.393  30.349  1.00  0.00     0.124 A 
ATOM      3  C   UNL     1       8.180 -29.571  29.316  1.00  0.00     0.014 A 
ATOM      4  C   UNL     1      10.899 -28.968  29.120  1.00  0.00     0.047 A 
ATOM      5  C   UNL     1       8.720 -29.165  28.094  1.00  0.00     0.001 A 
ATOM      6  C   UNL     1      10.076 -28.855  27.999  1.00  0.00     0.004 A 
ENDROOT
BRANCH   1   7
ATOM      7  C   UNL     1       8.346 -30.030  31.746  1.00  0.00     0.075 C 
ATOM      8  O   UNL     1       7.092 -30.098  31.846  1.00  0.00    -0.545 OA
ATOM      9  O   UNL     1       9.129 -30.368  32.844  1.00  0.00    -0.545 OA
ENDBRANCH   1   7
BRANCH   2  10
ATOM     10  O   UNL     1      11.269 -29.559  31.410  1.00  0.00    -0.507 OA
ATOM     11  H   UNL     1      12.268 -29.646  31.292  1.00  0.00     0.293 HD
ENDBRANCH   2  10
TORSDOF 2
ENDMDL
MODEL 4
REMARK VINA RESULT:    -4.600      1.905      3.365
REMARK INTER + INTRA:          -5.157
REMARK INTER:                  -4.933
REMARK INTRA:                  -0.224
REMARK UNBOUND:                -0.154
REMARK SMILES O=C([O-])c1ccccc1O
REMARK SMILES IDX 4 1 9 2 5 3 8 4 6 5 7 6 2 7 1 8 3 9 10 10
REMARK H PARENT 10 11
REMARK Flexibility Score: inf
ROOT
ATOM      1  C   UNL     1      16.572 -24.531  31.518  1.00  0.00     0.039 A 
ATOM      2  C   UNL     1      17.883 -25.057  31.382  1.00  0.00     0.124 A 
ATOM      3  C   UNL     1      15.913 -24.043  30.374  1.00  0.00     0.014 A 
ATOM      4  C   UNL     1      18.516 -25.025  30.132  1.00  0.00     0.047 A 
ATOM      5  C   UNL     1      16.550 -24.036  29.132  1.00  0.00     0.001 A 
ATOM      6  C   UNL     1      17.853 -24.517  29.013  1.00  0.00     0.004 A 
ENDROOT
BRANCH   1   7
ATOM      7  C   UNL     1      15.876 -24.441  32.821  1.00  0.00     0.075 C 
ATOM      8  O   UNL     1      14.887 -23.675  32.976  1.00  0.00    -0.545 OA
ATOM      9  O   UNL     1      16.265 -25.261  33.873  1.00  0.00    -0.545 OA
ENDBRANCH   1   7
BRANCH   2  10
ATOM     10  O   UNL     1      18.573 -25.648  32.442  1.00  0.00    -0.507 OA
ATOM     11  H   UNL     1      18.119 -26.044  33.253  1.00  0.00     0.293 HD
ENDBRANCH   2  10
TORSDOF 2
ENDMDL
MODEL 5
REMARK VINA RESULT:    -4.575      1.941      3.861
REMARK INTER + INTRA:          -5.130
REMARK INTER:                  -4.947
REMARK INTRA:                  -0.183
REMARK UNBOUND:                -0.154
REMARK SMILES O=C([O-])c1ccccc1O
REMARK SMILES IDX 4 1 9 2 5 3 8 4 6 5 7 6 2 7 1 8 3 9 10 10
REMARK H PARENT 10 11
REMARK Flexibility Score: inf
ROOT
ATOM      1  C   UNL     1      17.010 -25.225  29.813  1.00  0.00     0.039 A 
ATOM      2  C   UNL     1      17.436 -24.239  28.885  1.00  0.00     0.124 A 
ATOM      3  C   UNL     1      16.292 -26.338  29.340  1.00  0.00     0.014 A 
ATOM      4  C   UNL     1      17.081 -24.361  27.534  1.00  0.00     0.047 A 
ATOM      5  C   UNL     1      15.963 -26.455  27.988  1.00  0.00     0.001 A 
ATOM      6  C   UNL     1      16.349 -25.462  27.088  1.00  0.00     0.004 A 
ENDROOT
BRANCH   1   7
ATOM      7  C   UNL     1      17.262 -25.118  31.267  1.00  0.00     0.075 C 
ATOM      8  O   UNL     1      18.430 -25.209  31.731  1.00  0.00    -0.545 OA
ATOM      9  O   UNL     1      16.212 -24.842  32.135  1.00  0.00    -0.545 OA
ENDBRANCH   1   7
BRANCH   2  10
ATOM     10  O   UNL     1      18.234 -23.153  29.249  1.00  0.00    -0.507 OA
ATOM     11  H   UNL     1      17.899 -22.372  29.796  1.00  0.00     0.293 HD
ENDBRANCH   2  10
TORSDOF 2
ENDMDL
MODEL 6
REMARK VINA RESULT:    -4.510      2.257      3.091
REMARK INTER + INTRA:          -5.059
REMARK INTER:                  -4.868
REMARK INTRA:                  -0.191
REMARK UNBOUND:                -0.154
REMARK SMILES O=C([O-])c1ccccc1O
REMARK SMILES IDX 4 1 9 2 5 3 8 4 6 5 7 6 2 7 1 8 3 9 10 10
REMARK H PARENT 10 11
REMARK Flexibility Score: inf
ROOT
ATOM      1  C   UNL     1      16.708 -25.366  28.312  1.00  0.00     0.039 A 
ATOM      2  C   UNL     1      17.219 -26.361  29.186  1.00  0.00     0.124 A 
ATOM      3  C   UNL     1      16.706 -24.024  28.737  1.00  0.00     0.014 A 
ATOM      4  C   UNL     1      17.652 -25.999  30.469  1.00  0.00     0.047 A 
ATOM      5  C   UNL     1      17.160 -23.678  30.011  1.00  0.00     0.001 A 
ATOM      6  C   UNL     1      17.623 -24.666  30.880  1.00  0.00     0.004 A 
ENDROOT
BRANCH   1   7
ATOM      7  C   UNL     1      16.144 -25.681  26.981  1.00  0.00     0.075 C 
ATOM      8  O   UNL     1      15.142 -26.436  26.865  1.00  0.00    -0.545 OA
ATOM      9  O   UNL     1      16.675 -25.086  25.843  1.00  0.00    -0.545 OA
ENDBRANCH   1   7
BRANCH   2  10
ATOM     10  O   UNL     1      17.347 -27.700  28.812  1.00  0.00    -0.507 OA
ATOM     11  H   UNL     1      18.220 -28.118  28.524  1.00  0.00     0.293 HD
ENDBRANCH   2  10
TORSDOF 2
ENDMDL
MODEL 7
REMARK VINA RESULT:    -4.419      9.255     10.161
REMARK INTER + INTRA:          -4.960
REMARK INTER:                  -4.720
REMARK INTRA:                  -0.240
REMARK UNBOUND:                -0.154
REMARK SMILES O=C([O-])c1ccccc1O
REMARK SMILES IDX 4 1 9 2 5 3 8 4 6 5 7 6 2 7 1 8 3 9 10 10
REMARK H PARENT 10 11
REMARK Flexibility Score: inf
ROOT
ATOM      1  C   UNL     1       8.864 -29.730  30.595  1.00  0.00     0.039 A 
ATOM      2  C   UNL     1       8.280 -29.987  29.327  1.00  0.00     0.124 A 
ATOM      3  C   UNL     1      10.137 -29.133  30.649  1.00  0.00     0.014 A 
ATOM      4  C   UNL     1       9.003 -29.700  28.161  1.00  0.00     0.047 A 
ATOM      5  C   UNL     1      10.836 -28.835  29.478  1.00  0.00     0.001 A 
ATOM      6  C   UNL     1      10.274 -29.127  28.236  1.00  0.00     0.004 A 
ENDROOT
BRANCH   1   7
ATOM      7  C   UNL     1       8.204 -30.094  31.869  1.00  0.00     0.075 C 
ATOM      8  O   UNL     1       6.949 -30.091  31.972  1.00  0.00    -0.545 OA
ATOM      9  O   UNL     1       8.968 -30.514  32.951  1.00  0.00    -0.545 OA
ENDBRANCH   1   7
BRANCH   2  10
ATOM     10  O   UNL     1       6.985 -30.487  29.179  1.00  0.00    -0.507 OA
ATOM     11  H   UNL     1       6.164 -29.902  29.111  1.00  0.00     0.293 HD
ENDBRANCH   2  10
TORSDOF 2
ENDMDL
MODEL 8
REMARK VINA RESULT:    -4.360      1.548      3.597
REMARK INTER + INTRA:          -4.897
REMARK INTER:                  -4.662
REMARK INTRA:                  -0.235
REMARK UNBOUND:                -0.154
REMARK SMILES O=C([O-])c1ccccc1O
REMARK SMILES IDX 4 1 9 2 5 3 8 4 6 5 7 6 2 7 1 8 3 9 10 10
REMARK H PARENT 10 11
REMARK Flexibility Score: inf
ROOT
ATOM      1  C   UNL     1      16.699 -24.590  32.944  1.00  0.00     0.039 A 
ATOM      2  C   UNL     1      17.391 -25.029  31.785  1.00  0.00     0.124 A 
ATOM      3  C   UNL     1      15.507 -23.859  32.788  1.00  0.00     0.014 A 
ATOM      4  C   UNL     1      16.910 -24.676  30.517  1.00  0.00     0.047 A 
ATOM      5  C   UNL     1      15.031 -23.532  31.517  1.00  0.00     0.001 A 
ATOM      6  C   UNL     1      15.737 -23.932  30.383  1.00  0.00     0.004 A 
ENDROOT
BRANCH   1   7
ATOM      7  C   UNL     1      17.196 -24.839  34.316  1.00  0.00     0.075 C 
ATOM      8  O   UNL     1      16.404 -24.873  35.295  1.00  0.00    -0.545 OA
ATOM      9  O   UNL     1      18.542 -25.110  34.528  1.00  0.00    -0.545 OA
ENDBRANCH   1   7
BRANCH   2  10
ATOM     10  O   UNL     1      18.527 -25.839  31.845  1.00  0.00    -0.507 OA
ATOM     11  H   UNL     1      18.492 -26.843  31.949  1.00  0.00     0.293 HD
ENDBRANCH   2  10
TORSDOF 2
ENDMDL
MODEL 9
REMARK VINA RESULT:    -4.285      9.625     10.314
REMARK INTER + INTRA:          -4.815
REMARK INTER:                  -4.578
REMARK INTRA:                  -0.237
REMARK UNBOUND:                -0.154
REMARK SMILES O=C([O-])c1ccccc1O
REMARK SMILES IDX 4 1 9 2 5 3 8 4 6 5 7 6 2 7 1 8 3 9 10 10
REMARK H PARENT 10 11
REMARK Flexibility Score: inf
ROOT
ATOM      1  C   UNL     1       8.713 -29.563  30.858  1.00  0.00     0.039 A 
ATOM      2  C   UNL     1       7.539 -30.343  31.024  1.00  0.00     0.124 A 
ATOM      3  C   UNL     1       9.148 -29.258  29.555  1.00  0.00     0.014 A 
ATOM      4  C   UNL     1       6.875 -30.844  29.895  1.00  0.00     0.047 A 
ATOM      5  C   UNL     1       8.463 -29.748  28.441  1.00  0.00     0.001 A 
ATOM      6  C   UNL     1       7.334 -30.548  28.611  1.00  0.00     0.004 A 
ENDROOT
BRANCH   1   7
ATOM      7  C   UNL     1       9.522 -29.081  31.999  1.00  0.00     0.075 C 
ATOM      8  O   UNL     1       9.814 -27.861  32.117  1.00  0.00    -0.545 OA
ATOM      9  O   UNL     1       9.910 -29.966  32.998  1.00  0.00    -0.545 OA
ENDBRANCH   1   7
BRANCH   2  10
ATOM     10  O   UNL     1       6.982 -30.614  32.275  1.00  0.00    -0.507 OA
ATOM     11  H   UNL     1       6.967 -29.949  33.036  1.00  0.00     0.293 HD
ENDBRANCH   2  10
TORSDOF 2
ENDMDL
