MODEL 1
REMARK VINA RESULT:    -5.632      0.000      0.000
REMARK INTER + INTRA:          -5.632
REMARK INTER:                  -5.632
REMARK INTRA:                   0.000
REMARK UNBOUND:                 0.000
REMARK SMILES C[NH+]1CCN(C2=[NH+]c3ccccc3Oc3ccc(Cl)cc32)CC1
REMARK SMILES IDX 7 1 6 2 21 3 5 4 8 5 9 6 13 7 10 8 12 9 14 10 11 11 15 12
REMARK SMILES IDX 16 13 17 14 18 15 20 16 19 17 4 18 22 19 3 20 23 21 2 22
REMARK SMILES IDX 1 23
REMARK H PARENT 7 24 2 25
REMARK Flexibility Score: inf
ROOT
ATOM      1  N   UNL     1     144.116 141.016 125.568  1.00  0.00    -0.237 N 
ATOM      2  C   UNL     1     142.949 140.437 125.677  1.00  0.00     0.286 C 
ATOM      3  C   UNL     1     142.770 138.990 125.970  1.00  0.00     0.108 A 
ATOM      4  N   UNL     1     141.760 141.223 125.454  1.00  0.00    -0.250 N 
ATOM      5  C   UNL     1     145.412 140.409 125.710  1.00  0.00     0.168 A 
ATOM      6  C   UNL     1     146.474 140.928 124.949  1.00  0.00     0.056 A 
ATOM      7  C   UNL     1     145.694 139.457 126.712  1.00  0.00     0.173 A 
ATOM      8  C   UNL     1     147.786 140.503 125.168  1.00  0.00     0.005 A 
ATOM      9  C   UNL     1     147.017 139.064 126.948  1.00  0.00     0.052 A 
ATOM     10  O   UNL     1     144.695 138.876 127.486  1.00  0.00    -0.452 OA
ATOM     11  C   UNL     1     148.059 139.577 126.174  1.00  0.00     0.004 A 
ATOM     12  C   UNL     1     143.555 138.311 126.924  1.00  0.00     0.143 A 
ATOM     13  C   UNL     1     143.201 137.016 127.324  1.00  0.00     0.049 A 
ATOM     14  C   UNL     1     142.110 136.367 126.747  1.00  0.00     0.024 A 
ATOM     15  C   UNL     1     141.354 137.014 125.769  1.00  0.00     0.042 A 
ATOM     16  C   UNL     1     141.677 138.319 125.389  1.00  0.00     0.041 A 
ATOM     17  Cl  UNL     1     139.980 136.201 125.042  1.00  0.00    -0.084 Cl
ATOM     18  C   UNL     1     140.768 141.364 126.523  1.00  0.00     0.298 C 
ATOM     19  C   UNL     1     141.652 142.105 124.290  1.00  0.00     0.298 C 
ATOM     20  C   UNL     1     139.357 141.369 125.923  1.00  0.00     0.308 C 
ATOM     21  C   UNL     1     140.214 142.085 123.759  1.00  0.00     0.308 C 
ATOM     22  N   UNL     1     139.246 142.370 124.841  1.00  0.00    -0.331 N 
ATOM     23  C   UNL     1     137.876 142.379 124.302  1.00  0.00     0.332 C 
ATOM     24  H   UNL     1     144.126 142.030 125.314  1.00  0.00     0.312 HD
ATOM     25  H   UNL     1     139.442 143.323 125.232  1.00  0.00     0.348 HD
ENDROOT
TORSDOF 0
ENDMDL
MODEL 2
REMARK VINA RESULT:    -5.602     11.683     13.924
REMARK INTER + INTRA:          -5.602
REMARK INTER:                  -5.602
REMARK INTRA:                   0.000
REMARK UNBOUND:                 0.000
REMARK SMILES C[NH+]1CCN(C2=[NH+]c3ccccc3Oc3ccc(Cl)cc32)CC1
REMARK SMILES IDX 7 1 6 2 21 3 5 4 8 5 9 6 13 7 10 8 12 9 14 10 11 11 15 12
REMARK SMILES IDX 16 13 17 14 18 15 20 16 19 17 4 18 22 19 3 20 23 21 2 22
REMARK SMILES IDX 1 23
REMARK H PARENT 7 24 2 25
REMARK Flexibility Score: inf
ROOT
ATOM      1  N   UNL     1     135.581 129.568 117.945  1.00  0.00    -0.237 N 
ATOM      2  C   UNL     1     135.525 130.306 119.023  1.00  0.00     0.286 C 
ATOM      3  C   UNL     1     136.614 130.371 120.034  1.00  0.00     0.108 A 
ATOM      4  N   UNL     1     134.329 131.069 119.282  1.00  0.00    -0.250 N 
ATOM      5  C   UNL     1     136.656 128.709 117.526  1.00  0.00     0.168 A 
ATOM      6  C   UNL     1     136.332 127.550 116.798  1.00  0.00     0.056 A 
ATOM      7  C   UNL     1     138.010 129.081 117.646  1.00  0.00     0.173 A 
ATOM      8  C   UNL     1     137.332 126.771 116.211  1.00  0.00     0.005 A 
ATOM      9  C   UNL     1     139.003 128.313 117.025  1.00  0.00     0.052 A 
ATOM     10  O   UNL     1     138.411 130.197 118.374  1.00  0.00    -0.452 OA
ATOM     11  C   UNL     1     138.667 127.157 116.318  1.00  0.00     0.004 A 
ATOM     12  C   UNL     1     137.976 130.429 119.675  1.00  0.00     0.143 A 
ATOM     13  C   UNL     1     138.943 130.716 120.648  1.00  0.00     0.049 A 
ATOM     14  C   UNL     1     138.578 130.891 121.982  1.00  0.00     0.024 A 
ATOM     15  C   UNL     1     137.238 130.791 122.356  1.00  0.00     0.042 A 
ATOM     16  C   UNL     1     136.262 130.540 121.388  1.00  0.00     0.041 A 
ATOM     17  Cl  UNL     1     136.775 131.011 124.034  1.00  0.00    -0.084 Cl
ATOM     18  C   UNL     1     134.403 132.527 119.392  1.00  0.00     0.298 C 
ATOM     19  C   UNL     1     133.006 130.450 119.165  1.00  0.00     0.298 C 
ATOM     20  C   UNL     1     133.432 133.016 120.473  1.00  0.00     0.308 C 
ATOM     21  C   UNL     1     132.080 131.002 120.255  1.00  0.00     0.308 C 
ATOM     22  N   UNL     1     132.073 132.481 120.244  1.00  0.00    -0.331 N 
ATOM     23  C   UNL     1     131.152 132.988 121.275  1.00  0.00     0.332 C 
ATOM     24  H   UNL     1     134.740 129.561 117.326  1.00  0.00     0.312 HD
ATOM     25  H   UNL     1     131.725 132.815 119.313  1.00  0.00     0.348 HD
ENDROOT
TORSDOF 0
ENDMDL
MODEL 3
REMARK VINA RESULT:    -5.567      4.257      7.366
REMARK INTER + INTRA:          -5.567
REMARK INTER:                  -5.567
REMARK INTRA:                   0.000
REMARK UNBOUND:                 0.000
REMARK SMILES C[NH+]1CCN(C2=[NH+]c3ccccc3Oc3ccc(Cl)cc32)CC1
REMARK SMILES IDX 7 1 6 2 21 3 5 4 8 5 9 6 13 7 10 8 12 9 14 10 11 11 15 12
REMARK SMILES IDX 16 13 17 14 18 15 20 16 19 17 4 18 22 19 3 20 23 21 2 22
REMARK SMILES IDX 1 23
REMARK H PARENT 7 24 2 25
REMARK Flexibility Score: inf
ROOT
ATOM      1  N   UNL     1     139.421 142.282 124.833  1.00  0.00    -0.237 N 
ATOM      2  C   UNL     1     139.809 141.769 123.695  1.00  0.00     0.286 C 
ATOM      3  C   UNL     1     138.954 140.894 122.850  1.00  0.00     0.108 A 
ATOM      4  N   UNL     1     141.156 142.020 123.244  1.00  0.00    -0.250 N 
ATOM      5  C   UNL     1     138.144 142.121 125.476  1.00  0.00     0.168 A 
ATOM      6  C   UNL     1     138.103 142.134 126.882  1.00  0.00     0.056 A 
ATOM      7  C   UNL     1     136.930 142.148 124.760  1.00  0.00     0.173 A 
ATOM      8  C   UNL     1     136.884 142.162 127.562  1.00  0.00     0.005 A 
ATOM      9  C   UNL     1     135.713 142.211 125.450  1.00  0.00     0.052 A 
ATOM     10  O   UNL     1     136.887 142.108 123.370  1.00  0.00    -0.452 OA
ATOM     11  C   UNL     1     135.688 142.208 126.846  1.00  0.00     0.004 A 
ATOM     12  C   UNL     1     137.586 141.157 122.633  1.00  0.00     0.143 A 
ATOM     13  C   UNL     1     136.883 140.439 121.657  1.00  0.00     0.049 A 
ATOM     14  C   UNL     1     137.509 139.425 120.932  1.00  0.00     0.024 A 
ATOM     15  C   UNL     1     138.851 139.126 121.172  1.00  0.00     0.042 A 
ATOM     16  C   UNL     1     139.570 139.860 122.118  1.00  0.00     0.041 A 
ATOM     17  Cl  UNL     1     139.642 137.851 120.262  1.00  0.00    -0.084 Cl
ATOM     18  C   UNL     1     141.383 142.702 121.968  1.00  0.00     0.298 C 
ATOM     19  C   UNL     1     142.293 141.857 124.153  1.00  0.00     0.298 C 
ATOM     20  C   UNL     1     142.608 142.101 121.270  1.00  0.00     0.308 C 
ATOM     21  C   UNL     1     143.489 141.280 123.387  1.00  0.00     0.308 C 
ATOM     22  N   UNL     1     143.777 142.080 122.176  1.00  0.00    -0.331 N 
ATOM     23  C   UNL     1     144.948 141.528 121.475  1.00  0.00     0.332 C 
ATOM     24  H   UNL     1     140.119 142.845 125.368  1.00  0.00     0.312 HD
ATOM     25  H   UNL     1     144.008 143.061 122.461  1.00  0.00     0.348 HD
ENDROOT
TORSDOF 0
ENDMDL
MODEL 4
REMARK VINA RESULT:    -5.430      5.047      9.614
REMARK INTER + INTRA:          -5.430
REMARK INTER:                  -5.430
REMARK INTRA:                   0.000
REMARK UNBOUND:                 0.000
REMARK SMILES C[NH+]1CCN(C2=[NH+]c3ccccc3Oc3ccc(Cl)cc32)CC1
REMARK SMILES IDX 7 1 6 2 21 3 5 4 8 5 9 6 13 7 10 8 12 9 14 10 11 11 15 12
REMARK SMILES IDX 16 13 17 14 18 15 20 16 19 17 4 18 22 19 3 20 23 21 2 22
REMARK SMILES IDX 1 23
REMARK H PARENT 7 24 2 25
REMARK Flexibility Score: inf
ROOT
ATOM      1  N   UNL     1     136.338 140.833 121.254  1.00  0.00    -0.237 N 
ATOM      2  C   UNL     1     136.628 140.840 122.529  1.00  0.00     0.286 C 
ATOM      3  C   UNL     1     135.616 141.028 123.603  1.00  0.00     0.108 A 
ATOM      4  N   UNL     1     138.007 140.707 122.929  1.00  0.00    -0.250 N 
ATOM      5  C   UNL     1     135.043 140.990 120.649  1.00  0.00     0.168 A 
ATOM      6  C   UNL     1     134.972 141.610 119.388  1.00  0.00     0.056 A 
ATOM      7  C   UNL     1     133.886 140.380 121.173  1.00  0.00     0.173 A 
ATOM      8  C   UNL     1     133.774 141.635 118.670  1.00  0.00     0.005 A 
ATOM      9  C   UNL     1     132.698 140.379 120.430  1.00  0.00     0.052 A 
ATOM     10  O   UNL     1     133.869 139.771 122.425  1.00  0.00    -0.452 OA
ATOM     11  C   UNL     1     132.639 141.012 119.187  1.00  0.00     0.004 A 
ATOM     12  C   UNL     1     134.350 140.408 123.565  1.00  0.00     0.143 A 
ATOM     13  C   UNL     1     133.526 140.432 124.697  1.00  0.00     0.049 A 
ATOM     14  C   UNL     1     133.922 141.113 125.849  1.00  0.00     0.024 A 
ATOM     15  C   UNL     1     135.153 141.768 125.881  1.00  0.00     0.042 A 
ATOM     16  C   UNL     1     135.997 141.719 124.769  1.00  0.00     0.041 A 
ATOM     17  Cl  UNL     1     135.654 142.624 127.328  1.00  0.00    -0.084 Cl
ATOM     18  C   UNL     1     138.416 139.585 123.778  1.00  0.00     0.298 C 
ATOM     19  C   UNL     1     139.054 141.506 122.287  1.00  0.00     0.298 C 
ATOM     20  C   UNL     1     139.488 140.050 124.770  1.00  0.00     0.308 C 
ATOM     21  C   UNL     1     140.104 141.912 123.327  1.00  0.00     0.308 C 
ATOM     22  N   UNL     1     140.597 140.732 124.070  1.00  0.00    -0.331 N 
ATOM     23  C   UNL     1     141.629 141.140 125.038  1.00  0.00     0.332 C 
ATOM     24  H   UNL     1     137.134 140.739 120.583  1.00  0.00     0.312 HD
ATOM     25  H   UNL     1     141.040 140.063 123.395  1.00  0.00     0.348 HD
ENDROOT
TORSDOF 0
ENDMDL
MODEL 5
REMARK VINA RESULT:    -5.413      4.054      6.633
REMARK INTER + INTRA:          -5.413
REMARK INTER:                  -5.413
REMARK INTRA:                   0.000
REMARK UNBOUND:                 0.000
REMARK SMILES C[NH+]1CCN(C2=[NH+]c3ccccc3Oc3ccc(Cl)cc32)CC1
REMARK SMILES IDX 7 1 6 2 21 3 5 4 8 5 9 6 13 7 10 8 12 9 14 10 11 11 15 12
REMARK SMILES IDX 16 13 17 14 18 15 20 16 19 17 4 18 22 19 3 20 23 21 2 22
REMARK SMILES IDX 1 23
REMARK H PARENT 7 24 2 25
REMARK Flexibility Score: inf
ROOT
ATOM      1  N   UNL     1     140.556 141.601 126.142  1.00  0.00    -0.237 N 
ATOM      2  C   UNL     1     140.279 141.634 124.864  1.00  0.00     0.286 C 
ATOM      3  C   UNL     1     138.899 141.541 124.318  1.00  0.00     0.108 A 
ATOM      4  N   UNL     1     141.365 141.718 123.920  1.00  0.00    -0.250 N 
ATOM      5  C   UNL     1     139.631 141.480 127.236  1.00  0.00     0.168 A 
ATOM      6  C   UNL     1     140.061 140.810 128.396  1.00  0.00     0.056 A 
ATOM      7  C   UNL     1     138.400 142.166 127.263  1.00  0.00     0.173 A 
ATOM      8  C   UNL     1     139.280 140.812 129.554  1.00  0.00     0.005 A 
ATOM      9  C   UNL     1     137.641 142.191 128.440  1.00  0.00     0.052 A 
ATOM     10  O   UNL     1     137.894 142.827 126.149  1.00  0.00    -0.452 OA
ATOM     11  C   UNL     1     138.074 141.509 129.579  1.00  0.00     0.004 A 
ATOM     12  C   UNL     1     137.808 142.218 124.901  1.00  0.00     0.143 A 
ATOM     13  C   UNL     1     136.583 142.281 124.224  1.00  0.00     0.049 A 
ATOM     14  C   UNL     1     136.412 141.633 123.002  1.00  0.00     0.024 A 
ATOM     15  C   UNL     1     137.472 140.922 122.438  1.00  0.00     0.042 A 
ATOM     16  C   UNL     1     138.708 140.882 123.087  1.00  0.00     0.041 A 
ATOM     17  Cl  UNL     1     137.261 140.105 120.900  1.00  0.00    -0.084 Cl
ATOM     18  C   UNL     1     141.445 142.854 122.999  1.00  0.00     0.298 C 
ATOM     19  C   UNL     1     142.534 140.843 124.042  1.00  0.00     0.298 C 
ATOM     20  C   UNL     1     141.967 142.382 121.637  1.00  0.00     0.308 C 
ATOM     21  C   UNL     1     143.020 140.433 122.647  1.00  0.00     0.308 C 
ATOM     22  N   UNL     1     143.224 141.619 121.787  1.00  0.00    -0.331 N 
ATOM     23  C   UNL     1     143.722 141.203 120.465  1.00  0.00     0.332 C 
ATOM     24  H   UNL     1     141.565 141.627 126.413  1.00  0.00     0.312 HD
ATOM     25  H   UNL     1     143.951 142.236 122.223  1.00  0.00     0.348 HD
ENDROOT
TORSDOF 0
ENDMDL
MODEL 6
REMARK VINA RESULT:    -5.238      1.818      2.355
REMARK INTER + INTRA:          -5.238
REMARK INTER:                  -5.238
REMARK INTRA:                   0.000
REMARK UNBOUND:                 0.000
REMARK SMILES C[NH+]1CCN(C2=[NH+]c3ccccc3Oc3ccc(Cl)cc32)CC1
REMARK SMILES IDX 7 1 6 2 21 3 5 4 8 5 9 6 13 7 10 8 12 9 14 10 11 11 15 12
REMARK SMILES IDX 16 13 17 14 18 15 20 16 19 17 4 18 22 19 3 20 23 21 2 22
REMARK SMILES IDX 1 23
REMARK H PARENT 7 24 2 25
REMARK Flexibility Score: inf
ROOT
ATOM      1  N   UNL     1     143.884 142.099 123.474  1.00  0.00    -0.237 N 
ATOM      2  C   UNL     1     143.021 141.268 123.998  1.00  0.00     0.286 C 
ATOM      3  C   UNL     1     143.407 140.030 124.727  1.00  0.00     0.108 A 
ATOM      4  N   UNL     1     141.614 141.528 123.825  1.00  0.00    -0.250 N 
ATOM      5  C   UNL     1     145.319 142.003 123.498  1.00  0.00     0.168 A 
ATOM      6  C   UNL     1     146.036 142.523 122.405  1.00  0.00     0.056 A 
ATOM      7  C   UNL     1     146.030 141.590 124.643  1.00  0.00     0.173 A 
ATOM      8  C   UNL     1     147.429 142.621 122.445  1.00  0.00     0.005 A 
ATOM      9  C   UNL     1     147.423 141.725 124.687  1.00  0.00     0.052 A 
ATOM     10  O   UNL     1     145.395 141.039 125.752  1.00  0.00    -0.452 OA
ATOM     11  C   UNL     1     148.122 142.229 123.588  1.00  0.00     0.004 A 
ATOM     12  C   UNL     1     144.481 139.995 125.640  1.00  0.00     0.143 A 
ATOM     13  C   UNL     1     144.661 138.877 126.464  1.00  0.00     0.049 A 
ATOM     14  C   UNL     1     143.820 137.770 126.353  1.00  0.00     0.024 A 
ATOM     15  C   UNL     1     142.782 137.776 125.420  1.00  0.00     0.042 A 
ATOM     16  C   UNL     1     142.572 138.901 124.619  1.00  0.00     0.041 A 
ATOM     17  Cl  UNL     1     141.722 136.386 125.278  1.00  0.00    -0.084 Cl
ATOM     18  C   UNL     1     140.758 141.721 124.998  1.00  0.00     0.298 C 
ATOM     19  C   UNL     1     141.072 141.875 122.509  1.00  0.00     0.298 C 
ATOM     20  C   UNL     1     139.384 141.089 124.747  1.00  0.00     0.308 C 
ATOM     21  C   UNL     1     139.689 141.237 122.336  1.00  0.00     0.308 C 
ATOM     22  N   UNL     1     138.805 141.570 123.474  1.00  0.00    -0.331 N 
ATOM     23  C   UNL     1     137.474 140.975 123.269  1.00  0.00     0.332 C 
ATOM     24  H   UNL     1     143.503 142.914 122.943  1.00  0.00     0.312 HD
ATOM     25  H   UNL     1     138.687 142.611 123.521  1.00  0.00     0.348 HD
ENDROOT
TORSDOF 0
ENDMDL
MODEL 7
REMARK VINA RESULT:    -5.189      3.190      4.746
REMARK INTER + INTRA:          -5.189
REMARK INTER:                  -5.189
REMARK INTRA:                   0.000
REMARK UNBOUND:                 0.000
REMARK SMILES C[NH+]1CCN(C2=[NH+]c3ccccc3Oc3ccc(Cl)cc32)CC1
REMARK SMILES IDX 7 1 6 2 21 3 5 4 8 5 9 6 13 7 10 8 12 9 14 10 11 11 15 12
REMARK SMILES IDX 16 13 17 14 18 15 20 16 19 17 4 18 22 19 3 20 23 21 2 22
REMARK SMILES IDX 1 23
REMARK H PARENT 7 24 2 25
REMARK Flexibility Score: inf
ROOT
ATOM      1  N   UNL     1     144.528 137.889 125.123  1.00  0.00    -0.237 N 
ATOM      2  C   UNL     1     143.613 138.233 124.254  1.00  0.00     0.286 C 
ATOM      3  C   UNL     1     143.615 139.529 123.525  1.00  0.00     0.108 A 
ATOM      4  N   UNL     1     142.511 137.335 124.015  1.00  0.00    -0.250 N 
ATOM      5  C   UNL     1     145.677 138.651 125.534  1.00  0.00     0.168 A 
ATOM      6  C   UNL     1     146.139 138.494 126.853  1.00  0.00     0.056 A 
ATOM      7  C   UNL     1     146.460 139.386 124.621  1.00  0.00     0.173 A 
ATOM      8  C   UNL     1     147.347 139.065 127.260  1.00  0.00     0.005 A 
ATOM      9  C   UNL     1     147.687 139.925 125.030  1.00  0.00     0.052 A 
ATOM     10  O   UNL     1     146.058 139.609 123.308  1.00  0.00    -0.452 OA
ATOM     11  C   UNL     1     148.125 139.773 126.347  1.00  0.00     0.004 A 
ATOM     12  C   UNL     1     144.792 140.095 122.993  1.00  0.00     0.143 A 
ATOM     13  C   UNL     1     144.710 141.192 122.126  1.00  0.00     0.049 A 
ATOM     14  C   UNL     1     143.476 141.769 121.826  1.00  0.00     0.024 A 
ATOM     15  C   UNL     1     142.309 141.245 122.383  1.00  0.00     0.042 A 
ATOM     16  C   UNL     1     142.378 140.128 123.220  1.00  0.00     0.041 A 
ATOM     17  Cl  UNL     1     140.756 141.967 122.006  1.00  0.00    -0.084 Cl
ATOM     18  C   UNL     1     142.284 136.800 122.670  1.00  0.00     0.298 C 
ATOM     19  C   UNL     1     141.779 136.732 125.131  1.00  0.00     0.298 C 
ATOM     20  C   UNL     1     140.779 136.702 122.398  1.00  0.00     0.308 C 
ATOM     21  C   UNL     1     140.289 136.638 124.782  1.00  0.00     0.308 C 
ATOM     22  N   UNL     1     140.092 135.965 123.480  1.00  0.00    -0.331 N 
ATOM     23  C   UNL     1     138.654 135.856 123.182  1.00  0.00     0.332 C 
ATOM     24  H   UNL     1     144.404 136.974 125.612  1.00  0.00     0.312 HD
ATOM     25  H   UNL     1     140.482 134.993 123.535  1.00  0.00     0.348 HD
ENDROOT
TORSDOF 0
ENDMDL
MODEL 8
REMARK VINA RESULT:    -5.078      2.608      4.686
REMARK INTER + INTRA:          -5.078
REMARK INTER:                  -5.078
REMARK INTRA:                   0.000
REMARK UNBOUND:                 0.000
REMARK SMILES C[NH+]1CCN(C2=[NH+]c3ccccc3Oc3ccc(Cl)cc32)CC1
REMARK SMILES IDX 7 1 6 2 21 3 5 4 8 5 9 6 13 7 10 8 12 9 14 10 11 11 15 12
REMARK SMILES IDX 16 13 17 14 18 15 20 16 19 17 4 18 22 19 3 20 23 21 2 22
REMARK SMILES IDX 1 23
REMARK H PARENT 7 24 2 25
REMARK Flexibility Score: inf
ROOT
ATOM      1  N   UNL     1     145.109 139.703 125.154  1.00  0.00    -0.237 N 
ATOM      2  C   UNL     1     143.860 139.700 124.768  1.00  0.00     0.286 C 
ATOM      3  C   UNL     1     143.163 140.895 124.223  1.00  0.00     0.108 A 
ATOM      4  N   UNL     1     143.090 138.490 124.918  1.00  0.00    -0.250 N 
ATOM      5  C   UNL     1     146.032 140.807 125.128  1.00  0.00     0.168 A 
ATOM      6  C   UNL     1     147.023 140.866 126.124  1.00  0.00     0.056 A 
ATOM      7  C   UNL     1     146.099 141.708 124.047  1.00  0.00     0.173 A 
ATOM      8  C   UNL     1     148.052 141.807 126.054  1.00  0.00     0.005 A 
ATOM      9  C   UNL     1     147.156 142.625 123.967  1.00  0.00     0.052 A 
ATOM     10  O   UNL     1     145.141 141.732 123.038  1.00  0.00    -0.452 OA
ATOM     11  C   UNL     1     148.124 142.681 124.972  1.00  0.00     0.004 A 
ATOM     12  C   UNL     1     143.778 141.778 123.312  1.00  0.00     0.143 A 
ATOM     13  C   UNL     1     143.012 142.752 122.658  1.00  0.00     0.049 A 
ATOM     14  C   UNL     1     141.654 142.895 122.940  1.00  0.00     0.024 A 
ATOM     15  C   UNL     1     141.045 142.056 123.873  1.00  0.00     0.042 A 
ATOM     16  C   UNL     1     141.793 141.058 124.505  1.00  0.00     0.041 A 
ATOM     17  Cl  UNL     1     139.337 142.232 124.230  1.00  0.00    -0.084 Cl
ATOM     18  C   UNL     1     142.502 137.849 123.740  1.00  0.00     0.298 C 
ATOM     19  C   UNL     1     143.111 137.739 126.176  1.00  0.00     0.298 C 
ATOM     20  C   UNL     1     141.129 137.268 124.097  1.00  0.00     0.308 C 
ATOM     21  C   UNL     1     141.719 137.164 126.457  1.00  0.00     0.308 C 
ATOM     22  N   UNL     1     141.215 136.403 125.293  1.00  0.00    -0.331 N 
ATOM     23  C   UNL     1     139.892 135.832 125.598  1.00  0.00     0.332 C 
ATOM     24  H   UNL     1     145.486 138.820 125.566  1.00  0.00     0.312 HD
ATOM     25  H   UNL     1     141.869 135.607 125.096  1.00  0.00     0.348 HD
ENDROOT
TORSDOF 0
ENDMDL
MODEL 9
REMARK VINA RESULT:    -4.581      3.876      5.400
REMARK INTER + INTRA:          -4.581
REMARK INTER:                  -4.581
REMARK INTRA:                   0.000
REMARK UNBOUND:                 0.000
REMARK SMILES C[NH+]1CCN(C2=[NH+]c3ccccc3Oc3ccc(Cl)cc32)CC1
REMARK SMILES IDX 7 1 6 2 21 3 5 4 8 5 9 6 13 7 10 8 12 9 14 10 11 11 15 12
REMARK SMILES IDX 16 13 17 14 18 15 20 16 19 17 4 18 22 19 3 20 23 21 2 22
REMARK SMILES IDX 1 23
REMARK H PARENT 7 24 2 25
REMARK Flexibility Score: inf
ROOT
ATOM      1  N   UNL     1     145.560 138.740 124.392  1.00  0.00    -0.237 N 
ATOM      2  C   UNL     1     144.845 139.300 123.451  1.00  0.00     0.286 C 
ATOM      3  C   UNL     1     144.709 140.772 123.285  1.00  0.00     0.108 A 
ATOM      4  N   UNL     1     144.104 138.456 122.546  1.00  0.00    -0.250 N 
ATOM      5  C   UNL     1     146.334 139.395 125.412  1.00  0.00     0.168 A 
ATOM      6  C   UNL     1     146.463 138.757 126.658  1.00  0.00     0.056 A 
ATOM      7  C   UNL     1     147.116 140.539 125.148  1.00  0.00     0.173 A 
ATOM      8  C   UNL     1     147.341 139.250 127.626  1.00  0.00     0.005 A 
ATOM      9  C   UNL     1     148.019 141.004 126.112  1.00  0.00     0.052 A 
ATOM     10  O   UNL     1     147.023 141.241 123.951  1.00  0.00    -0.452 OA
ATOM     11  C   UNL     1     148.125 140.369 127.351  1.00  0.00     0.004 A 
ATOM     12  C   UNL     1     145.802 141.651 123.424  1.00  0.00     0.143 A 
ATOM     13  C   UNL     1     145.673 142.992 123.038  1.00  0.00     0.049 A 
ATOM     14  C   UNL     1     144.455 143.482 122.568  1.00  0.00     0.024 A 
ATOM     15  C   UNL     1     143.355 142.630 122.469  1.00  0.00     0.042 A 
ATOM     16  C   UNL     1     143.483 141.283 122.817  1.00  0.00     0.041 A 
ATOM     17  Cl  UNL     1     141.821 143.242 121.876  1.00  0.00    -0.084 Cl
ATOM     18  C   UNL     1     144.375 138.513 121.108  1.00  0.00     0.298 C 
ATOM     19  C   UNL     1     143.285 137.352 123.052  1.00  0.00     0.298 C 
ATOM     20  C   UNL     1     143.066 138.351 120.327  1.00  0.00     0.308 C 
ATOM     21  C   UNL     1     142.010 137.227 122.212  1.00  0.00     0.308 C 
ATOM     22  N   UNL     1     142.331 137.146 120.770  1.00  0.00    -0.331 N 
ATOM     23  C   UNL     1     141.095 136.993 119.986  1.00  0.00     0.332 C 
ATOM     24  H   UNL     1     145.548 137.696 124.445  1.00  0.00     0.312 HD
ATOM     25  H   UNL     1     142.925 136.299 120.599  1.00  0.00     0.348 HD
ENDROOT
TORSDOF 0
ENDMDL
