MODEL 1
REMARK VINA RESULT:    -4.989      0.000      0.000
REMARK INTER + INTRA:          -8.421
REMARK INTER:                  -7.322
REMARK INTRA:                  -1.099
REMARK UNBOUND:                -1.099
REMARK SMILES CCCOC(=O)c1ccccc1C(=O)OCCC
REMARK SMILES IDX 7 1 8 2 9 3 10 4 11 5 12 6 5 7 6 8 4 9 3 10 2 11 1 12 13 13
REMARK SMILES IDX 14 14 15 15 16 16 17 17 18 18
REMARK H PARENT
REMARK Flexibility Score: inf
ROOT
ATOM      1  C   UNL     1     -17.171 -12.644   2.545  1.00  0.00     0.074 A 
ATOM      2  C   UNL     1     -18.161 -13.343   1.831  1.00  0.00     0.016 A 
ATOM      3  C   UNL     1     -19.475 -12.875   1.787  1.00  0.00     0.001 A 
ATOM      4  C   UNL     1     -19.821 -11.704   2.457  1.00  0.00     0.001 A 
ATOM      5  C   UNL     1     -18.852 -10.982   3.155  1.00  0.00     0.016 A 
ATOM      6  C   UNL     1     -17.517 -11.424   3.192  1.00  0.00     0.074 A 
ENDROOT
BRANCH   1   7
ATOM      7  C   UNL     1     -15.827 -13.257   2.646  1.00  0.00     0.339 C 
ATOM      8  O   UNL     1     -15.025 -13.196   1.674  1.00  0.00    -0.246 OA
BRANCH   7   9
ATOM      9  O   UNL     1     -15.434 -13.859   3.848  1.00  0.00    -0.462 OA
BRANCH   9  10
ATOM     10  C   UNL     1     -15.764 -15.202   4.199  1.00  0.00     0.233 C 
BRANCH  10  11
ATOM     11  C   UNL     1     -15.277 -15.521   5.616  1.00  0.00     0.038 C 
ATOM     12  C   UNL     1     -14.617 -14.305   6.258  1.00  0.00     0.007 C 
ENDBRANCH  10  11
ENDBRANCH   9  10
ENDBRANCH   7   9
ENDBRANCH   1   7
BRANCH   6  13
ATOM     13  C   UNL     1     -16.519 -10.554   3.854  1.00  0.00     0.339 C 
ATOM     14  O   UNL     1     -16.154 -10.793   5.038  1.00  0.00    -0.246 OA
BRANCH  13  15
ATOM     15  O   UNL     1     -15.939  -9.502   3.137  1.00  0.00    -0.462 OA
BRANCH  15  16
ATOM     16  C   UNL     1     -15.350  -9.661   1.847  1.00  0.00     0.233 C 
BRANCH  16  17
ATOM     17  C   UNL     1     -16.393  -9.435   0.750  1.00  0.00     0.038 C 
ATOM     18  C   UNL     1     -16.302 -10.509  -0.329  1.00  0.00     0.007 C 
ENDBRANCH  16  17
ENDBRANCH  15  16
ENDBRANCH  13  15
ENDBRANCH   6  13
TORSDOF 8
ENDMDL
MODEL 2
REMARK VINA RESULT:    -4.954      0.378      4.971
REMARK INTER + INTRA:          -8.370
REMARK INTER:                  -7.202
REMARK INTRA:                  -1.168
REMARK UNBOUND:                -1.099
REMARK SMILES CCCOC(=O)c1ccccc1C(=O)OCCC
REMARK SMILES IDX 7 1 8 2 9 3 10 4 11 5 12 6 5 7 6 8 4 9 3 10 2 11 1 12 13 13
REMARK SMILES IDX 14 14 15 15 16 16 17 17 18 18
REMARK H PARENT
REMARK Flexibility Score: inf
ROOT
ATOM      1  C   UNL     1     -17.721 -11.469   3.052  1.00  0.00     0.074 A 
ATOM      2  C   UNL     1     -19.087 -11.138   3.001  1.00  0.00     0.016 A 
ATOM      3  C   UNL     1     -19.987 -11.928   2.283  1.00  0.00     0.001 A 
ATOM      4  C   UNL     1     -19.536 -13.057   1.603  1.00  0.00     0.001 A 
ATOM      5  C   UNL     1     -18.189 -13.416   1.657  1.00  0.00     0.016 A 
ATOM      6  C   UNL     1     -17.270 -12.648   2.394  1.00  0.00     0.074 A 
ENDROOT
BRANCH   1   7
ATOM      7  C   UNL     1     -16.805 -10.528   3.735  1.00  0.00     0.339 C 
ATOM      8  O   UNL     1     -16.413 -10.761   4.912  1.00  0.00    -0.246 OA
BRANCH   7   9
ATOM      9  O   UNL     1     -16.337  -9.402   3.046  1.00  0.00    -0.462 OA
BRANCH   9  10
ATOM     10  C   UNL     1     -15.854  -9.446   1.704  1.00  0.00     0.233 C 
BRANCH  10  11
ATOM     11  C   UNL     1     -16.974  -9.100   0.719  1.00  0.00     0.038 C 
ATOM     12  C   UNL     1     -17.112 -10.171  -0.358  1.00  0.00     0.007 C 
ENDBRANCH  10  11
ENDBRANCH   9  10
ENDBRANCH   7   9
ENDBRANCH   1   7
BRANCH   6  13
ATOM     13  C   UNL     1     -15.880 -13.147   2.501  1.00  0.00     0.339 C 
ATOM     14  O   UNL     1     -15.067 -12.971   1.552  1.00  0.00    -0.246 OA
BRANCH  13  15
ATOM     15  O   UNL     1     -15.459 -13.762   3.686  1.00  0.00    -0.462 OA
BRANCH  15  16
ATOM     16  C   UNL     1     -15.772 -15.111   4.026  1.00  0.00     0.233 C 
BRANCH  16  17
ATOM     17  C   UNL     1     -15.358 -15.411   5.469  1.00  0.00     0.038 C 
ATOM     18  C   UNL     1     -14.724 -14.190   6.127  1.00  0.00     0.007 C 
ENDBRANCH  16  17
ENDBRANCH  15  16
ENDBRANCH  13  15
ENDBRANCH   6  13
TORSDOF 8
ENDMDL
MODEL 3
REMARK VINA RESULT:    -4.946      1.231      2.806
REMARK INTER + INTRA:          -8.358
REMARK INTER:                  -7.228
REMARK INTRA:                  -1.130
REMARK UNBOUND:                -1.099
REMARK SMILES CCCOC(=O)c1ccccc1C(=O)OCCC
REMARK SMILES IDX 7 1 8 2 9 3 10 4 11 5 12 6 5 7 6 8 4 9 3 10 2 11 1 12 13 13
REMARK SMILES IDX 14 14 15 15 16 16 17 17 18 18
REMARK H PARENT
REMARK Flexibility Score: inf
ROOT
ATOM      1  C   UNL     1     -15.870 -12.364   1.868  1.00  0.00     0.074 A 
ATOM      2  C   UNL     1     -15.450 -12.666   0.560  1.00  0.00     0.016 A 
ATOM      3  C   UNL     1     -15.098 -11.650  -0.329  1.00  0.00     0.001 A 
ATOM      4  C   UNL     1     -15.162 -10.318   0.072  1.00  0.00     0.001 A 
ATOM      5  C   UNL     1     -15.556  -9.996   1.372  1.00  0.00     0.016 A 
ATOM      6  C   UNL     1     -15.892 -11.005   2.292  1.00  0.00     0.074 A 
ENDROOT
BRANCH   1   7
ATOM      7  C   UNL     1     -16.338 -13.481   2.721  1.00  0.00     0.339 C 
ATOM      8  O   UNL     1     -17.458 -14.020   2.507  1.00  0.00    -0.246 OA
BRANCH   7   9
ATOM      9  O   UNL     1     -15.503 -13.968   3.735  1.00  0.00    -0.462 OA
BRANCH   9  10
ATOM     10  C   UNL     1     -15.629 -15.272   4.299  1.00  0.00     0.233 C 
BRANCH  10  11
ATOM     11  C   UNL     1     -15.204 -15.263   5.770  1.00  0.00     0.038 C 
ATOM     12  C   UNL     1     -14.546 -13.939   6.146  1.00  0.00     0.007 C 
ENDBRANCH  10  11
ENDBRANCH   9  10
ENDBRANCH   7   9
ENDBRANCH   1   7
BRANCH   6  13
ATOM     13  C   UNL     1     -16.193 -10.601   3.683  1.00  0.00     0.339 C 
ATOM     14  O   UNL     1     -15.266 -10.209   4.445  1.00  0.00    -0.246 OA
BRANCH  13  15
ATOM     15  O   UNL     1     -17.520 -10.600   4.129  1.00  0.00    -0.462 OA
BRANCH  15  16
ATOM     16  C   UNL     1     -18.604 -10.074   3.365  1.00  0.00     0.233 C 
BRANCH  16  17
ATOM     17  C   UNL     1     -19.460 -11.209   2.797  1.00  0.00     0.038 C 
ATOM     18  C   UNL     1     -19.441 -11.206   1.272  1.00  0.00     0.007 C 
ENDBRANCH  16  17
ENDBRANCH  15  16
ENDBRANCH  13  15
ENDBRANCH   6  13
TORSDOF 8
ENDMDL
MODEL 4
REMARK VINA RESULT:    -4.856      2.433      5.406
REMARK INTER + INTRA:          -8.225
REMARK INTER:                  -6.786
REMARK INTRA:                  -1.439
REMARK UNBOUND:                -1.099
REMARK SMILES CCCOC(=O)c1ccccc1C(=O)OCCC
REMARK SMILES IDX 7 1 8 2 9 3 10 4 11 5 12 6 5 7 6 8 4 9 3 10 2 11 1 12 13 13
REMARK SMILES IDX 14 14 15 15 16 16 17 17 18 18
REMARK H PARENT
REMARK Flexibility Score: inf
ROOT
ATOM      1  C   UNL     1     -16.281 -10.128   1.433  1.00  0.00     0.074 A 
ATOM      2  C   UNL     1     -15.543 -10.512   0.299  1.00  0.00     0.016 A 
ATOM      3  C   UNL     1     -14.995 -11.792   0.204  1.00  0.00     0.001 A 
ATOM      4  C   UNL     1     -15.172 -12.706   1.239  1.00  0.00     0.001 A 
ATOM      5  C   UNL     1     -15.919 -12.355   2.364  1.00  0.00     0.016 A 
ATOM      6  C   UNL     1     -16.500 -11.078   2.470  1.00  0.00     0.074 A 
ENDROOT
BRANCH   1   7
ATOM      7  C   UNL     1     -16.736  -8.722   1.520  1.00  0.00     0.339 C 
ATOM      8  O   UNL     1     -16.116  -7.895   2.244  1.00  0.00    -0.246 OA
BRANCH   7   9
ATOM      9  O   UNL     1     -17.831  -8.305   0.752  1.00  0.00    -0.462 OA
BRANCH   9  10
ATOM     10  C   UNL     1     -18.494  -7.056   0.941  1.00  0.00     0.233 C 
BRANCH  10  11
ATOM     11  C   UNL     1     -19.941  -7.281   1.391  1.00  0.00     0.038 C 
ATOM     12  C   UNL     1     -20.025  -7.482   2.900  1.00  0.00     0.007 C 
ENDBRANCH  10  11
ENDBRANCH   9  10
ENDBRANCH   7   9
ENDBRANCH   1   7
BRANCH   6  13
ATOM     13  C   UNL     1     -17.371 -10.809   3.637  1.00  0.00     0.339 C 
ATOM     14  O   UNL     1     -16.866 -10.626   4.778  1.00  0.00    -0.246 OA
BRANCH  13  15
ATOM     15  O   UNL     1     -18.755 -10.700   3.452  1.00  0.00    -0.462 OA
BRANCH  15  16
ATOM     16  C   UNL     1     -19.528 -11.654   2.727  1.00  0.00     0.233 C 
BRANCH  16  17
ATOM     17  C   UNL     1     -20.217 -10.990   1.532  1.00  0.00     0.038 C 
ATOM     18  C   UNL     1     -19.540 -11.373   0.220  1.00  0.00     0.007 C 
ENDBRANCH  16  17
ENDBRANCH  15  16
ENDBRANCH  13  15
ENDBRANCH   6  13
TORSDOF 8
ENDMDL
MODEL 5
REMARK VINA RESULT:    -4.845      2.031      4.231
REMARK INTER + INTRA:          -8.209
REMARK INTER:                  -6.664
REMARK INTRA:                  -1.545
REMARK UNBOUND:                -1.099
REMARK SMILES CCCOC(=O)c1ccccc1C(=O)OCCC
REMARK SMILES IDX 7 1 8 2 9 3 10 4 11 5 12 6 5 7 6 8 4 9 3 10 2 11 1 12 13 13
REMARK SMILES IDX 14 14 15 15 16 16 17 17 18 18
REMARK H PARENT
REMARK Flexibility Score: inf
ROOT
ATOM      1  C   UNL     1     -16.096 -12.715   1.625  1.00  0.00     0.074 A 
ATOM      2  C   UNL     1     -15.015 -12.239   0.861  1.00  0.00     0.016 A 
ATOM      3  C   UNL     1     -15.152 -12.020  -0.511  1.00  0.00     0.001 A 
ATOM      4  C   UNL     1     -16.368 -12.275  -1.141  1.00  0.00     0.001 A 
ATOM      5  C   UNL     1     -17.460 -12.727  -0.400  1.00  0.00     0.016 A 
ATOM      6  C   UNL     1     -17.351 -12.931   0.988  1.00  0.00     0.074 A 
ENDROOT
BRANCH   1   7
ATOM      7  C   UNL     1     -15.851 -13.033   3.049  1.00  0.00     0.339 C 
ATOM      8  O   UNL     1     -15.610 -14.220   3.405  1.00  0.00    -0.246 OA
BRANCH   7   9
ATOM      9  O   UNL     1     -15.837 -11.998   3.993  1.00  0.00    -0.462 OA
BRANCH   9  10
ATOM     10  C   UNL     1     -16.444 -10.726   3.774  1.00  0.00     0.233 C 
BRANCH  10  11
ATOM     11  C   UNL     1     -15.378  -9.670   3.464  1.00  0.00     0.038 C 
ATOM     12  C   UNL     1     -15.739  -8.872   2.215  1.00  0.00     0.007 C 
ENDBRANCH  10  11
ENDBRANCH   9  10
ENDBRANCH   7   9
ENDBRANCH   1   7
BRANCH   6  13
ATOM     13  C   UNL     1     -18.576 -13.303   1.731  1.00  0.00     0.339 C 
ATOM     14  O   UNL     1     -18.977 -14.500   1.737  1.00  0.00    -0.246 OA
BRANCH  13  15
ATOM     15  O   UNL     1     -19.253 -12.329   2.474  1.00  0.00    -0.462 OA
BRANCH  15  16
ATOM     16  C   UNL     1     -20.256 -11.477   1.924  1.00  0.00     0.233 C 
BRANCH  16  17
ATOM     17  C   UNL     1     -19.807 -10.015   1.979  1.00  0.00     0.038 C 
ATOM     18  C   UNL     1     -19.048  -9.622   0.715  1.00  0.00     0.007 C 
ENDBRANCH  16  17
ENDBRANCH  15  16
ENDBRANCH  13  15
ENDBRANCH   6  13
TORSDOF 8
ENDMDL
MODEL 6
REMARK VINA RESULT:    -4.822      2.426      4.648
REMARK INTER + INTRA:          -8.175
REMARK INTER:                  -6.775
REMARK INTRA:                  -1.400
REMARK UNBOUND:                -1.099
REMARK SMILES CCCOC(=O)c1ccccc1C(=O)OCCC
REMARK SMILES IDX 7 1 8 2 9 3 10 4 11 5 12 6 5 7 6 8 4 9 3 10 2 11 1 12 13 13
REMARK SMILES IDX 14 14 15 15 16 16 17 17 18 18
REMARK H PARENT
REMARK Flexibility Score: inf
ROOT
ATOM      1  C   UNL     1     -16.415 -11.068   2.548  1.00  0.00     0.074 A 
ATOM      2  C   UNL     1     -15.936 -12.384   2.409  1.00  0.00     0.016 A 
ATOM      3  C   UNL     1     -15.218 -12.766   1.275  1.00  0.00     0.001 A 
ATOM      4  C   UNL     1     -14.970 -11.843   0.262  1.00  0.00     0.001 A 
ATOM      5  C   UNL     1     -15.418 -10.528   0.387  1.00  0.00     0.016 A 
ATOM      6  C   UNL     1     -16.122 -10.115   1.532  1.00  0.00     0.074 A 
ENDROOT
BRANCH   1   7
ATOM      7  C   UNL     1     -17.266 -10.761   3.719  1.00  0.00     0.339 C 
ATOM      8  O   UNL     1     -16.749 -10.612   4.861  1.00  0.00    -0.246 OA
BRANCH   7   9
ATOM      9  O   UNL     1     -18.644 -10.587   3.542  1.00  0.00    -0.462 OA
BRANCH   9  10
ATOM     10  C   UNL     1     -19.469 -11.509   2.831  1.00  0.00     0.233 C 
BRANCH  10  11
ATOM     11  C   UNL     1     -19.992 -10.874   1.539  1.00  0.00     0.038 C 
ATOM     12  C   UNL     1     -19.352 -11.514   0.311  1.00  0.00     0.007 C 
ENDBRANCH  10  11
ENDBRANCH   9  10
ENDBRANCH   7   9
ENDBRANCH   1   7
BRANCH   6  13
ATOM     13  C   UNL     1     -16.470  -8.681   1.651  1.00  0.00     0.339 C 
ATOM     14  O   UNL     1     -15.754  -7.909   2.347  1.00  0.00    -0.246 OA
BRANCH  13  15
ATOM     15  O   UNL     1     -17.563  -8.176   0.937  1.00  0.00    -0.462 OA
BRANCH  15  16
ATOM     16  C   UNL     1     -18.283  -7.008   1.325  1.00  0.00     0.233 C 
BRANCH  16  17
ATOM     17  C   UNL     1     -19.768  -7.329   1.508  1.00  0.00     0.038 C 
ATOM     18  C   UNL     1     -20.145  -7.383   2.985  1.00  0.00     0.007 C 
ENDBRANCH  16  17
ENDBRANCH  15  16
ENDBRANCH  13  15
ENDBRANCH   6  13
TORSDOF 8
ENDMDL
MODEL 7
REMARK VINA RESULT:    -4.810      1.617      3.115
REMARK INTER + INTRA:          -8.158
REMARK INTER:                  -6.871
REMARK INTRA:                  -1.287
REMARK UNBOUND:                -1.099
REMARK SMILES CCCOC(=O)c1ccccc1C(=O)OCCC
REMARK SMILES IDX 7 1 8 2 9 3 10 4 11 5 12 6 5 7 6 8 4 9 3 10 2 11 1 12 13 13
REMARK SMILES IDX 14 14 15 15 16 16 17 17 18 18
REMARK H PARENT
REMARK Flexibility Score: inf
ROOT
ATOM      1  C   UNL     1     -17.115 -12.351   2.482  1.00  0.00     0.074 A 
ATOM      2  C   UNL     1     -18.169 -12.795   1.663  1.00  0.00     0.016 A 
ATOM      3  C   UNL     1     -19.417 -12.171   1.705  1.00  0.00     0.001 A 
ATOM      4  C   UNL     1     -19.632 -11.097   2.566  1.00  0.00     0.001 A 
ATOM      5  C   UNL     1     -18.595 -10.626   3.372  1.00  0.00     0.016 A 
ATOM      6  C   UNL     1     -17.323 -11.225   3.328  1.00  0.00     0.074 A 
ENDROOT
BRANCH   1   7
ATOM      7  C   UNL     1     -15.855 -13.128   2.471  1.00  0.00     0.339 C 
ATOM      8  O   UNL     1     -15.543 -13.849   3.458  1.00  0.00    -0.246 OA
BRANCH   7   9
ATOM      9  O   UNL     1     -15.037 -13.096   1.334  1.00  0.00    -0.462 OA
BRANCH   9  10
ATOM     10  C   UNL     1     -14.703 -11.896   0.639  1.00  0.00     0.233 C 
BRANCH  10  11
ATOM     11  C   UNL     1     -15.281 -11.920  -0.779  1.00  0.00     0.038 C 
ATOM     12  C   UNL     1     -16.311 -10.812  -0.975  1.00  0.00     0.007 C 
ENDBRANCH  10  11
ENDBRANCH   9  10
ENDBRANCH   7   9
ENDBRANCH   1   7
BRANCH   6  13
ATOM     13  C   UNL     1     -16.239 -10.606   4.125  1.00  0.00     0.339 C 
ATOM     14  O   UNL     1     -15.979 -11.034   5.283  1.00  0.00    -0.246 OA
BRANCH  13  15
ATOM     15  O   UNL     1     -15.468  -9.584   3.560  1.00  0.00    -0.462 OA
BRANCH  15  16
ATOM     16  C   UNL     1     -15.619  -9.137   2.214  1.00  0.00     0.233 C 
BRANCH  16  17
ATOM     17  C   UNL     1     -16.440  -7.847   2.165  1.00  0.00     0.038 C 
ATOM     18  C   UNL     1     -17.571  -7.948   1.147  1.00  0.00     0.007 C 
ENDBRANCH  16  17
ENDBRANCH  15  16
ENDBRANCH  13  15
ENDBRANCH   6  13
TORSDOF 8
ENDMDL
MODEL 8
REMARK VINA RESULT:    -4.782      2.439      5.231
REMARK INTER + INTRA:          -8.117
REMARK INTER:                  -6.945
REMARK INTRA:                  -1.173
REMARK UNBOUND:                -1.099
REMARK SMILES CCCOC(=O)c1ccccc1C(=O)OCCC
REMARK SMILES IDX 7 1 8 2 9 3 10 4 11 5 12 6 5 7 6 8 4 9 3 10 2 11 1 12 13 13
REMARK SMILES IDX 14 14 15 15 16 16 17 17 18 18
REMARK H PARENT
REMARK Flexibility Score: inf
ROOT
ATOM      1  C   UNL     1     -16.204 -10.080   1.482  1.00  0.00     0.074 A 
ATOM      2  C   UNL     1     -15.475 -10.451   0.337  1.00  0.00     0.016 A 
ATOM      3  C   UNL     1     -14.967 -11.743   0.203  1.00  0.00     0.001 A 
ATOM      4  C   UNL     1     -15.173 -12.683   1.209  1.00  0.00     0.001 A 
ATOM      5  C   UNL     1     -15.910 -12.344   2.344  1.00  0.00     0.016 A 
ATOM      6  C   UNL     1     -16.453 -11.054   2.489  1.00  0.00     0.074 A 
ENDROOT
BRANCH   1   7
ATOM      7  C   UNL     1     -16.616  -8.664   1.612  1.00  0.00     0.339 C 
ATOM      8  O   UNL     1     -17.702  -8.268   1.108  1.00  0.00    -0.246 OA
BRANCH   7   9
ATOM      9  O   UNL     1     -15.813  -7.779   2.344  1.00  0.00    -0.462 OA
BRANCH   9  10
ATOM     10  C   UNL     1     -16.094  -6.386   2.472  1.00  0.00     0.233 C 
BRANCH  10  11
ATOM     11  C   UNL     1     -14.870  -5.640   3.012  1.00  0.00     0.038 C 
ATOM     12  C   UNL     1     -13.954  -6.577   3.793  1.00  0.00     0.007 C 
ENDBRANCH  10  11
ENDBRANCH   9  10
ENDBRANCH   7   9
ENDBRANCH   1   7
BRANCH   6  13
ATOM     13  C   UNL     1     -17.317 -10.795   3.663  1.00  0.00     0.339 C 
ATOM     14  O   UNL     1     -16.809 -10.670   4.811  1.00  0.00    -0.246 OA
BRANCH  13  15
ATOM     15  O   UNL     1     -18.695 -10.630   3.480  1.00  0.00    -0.462 OA
BRANCH  15  16
ATOM     16  C   UNL     1     -19.506 -11.546   2.746  1.00  0.00     0.233 C 
BRANCH  16  17
ATOM     17  C   UNL     1     -20.130 -10.855   1.531  1.00  0.00     0.038 C 
ATOM     18  C   UNL     1     -19.469 -11.312   0.235  1.00  0.00     0.007 C 
ENDBRANCH  16  17
ENDBRANCH  15  16
ENDBRANCH  13  15
ENDBRANCH   6  13
TORSDOF 8
ENDMDL
MODEL 9
REMARK VINA RESULT:    -4.775      2.010      4.535
REMARK INTER + INTRA:          -8.107
REMARK INTER:                  -6.660
REMARK INTRA:                  -1.447
REMARK UNBOUND:                -1.099
REMARK SMILES CCCOC(=O)c1ccccc1C(=O)OCCC
REMARK SMILES IDX 7 1 8 2 9 3 10 4 11 5 12 6 5 7 6 8 4 9 3 10 2 11 1 12 13 13
REMARK SMILES IDX 14 14 15 15 16 16 17 17 18 18
REMARK H PARENT
REMARK Flexibility Score: inf
ROOT
ATOM      1  C   UNL     1     -17.250 -12.831   0.990  1.00  0.00     0.074 A 
ATOM      2  C   UNL     1     -17.324 -12.553  -0.387  1.00  0.00     0.016 A 
ATOM      3  C   UNL     1     -16.199 -12.122  -1.090  1.00  0.00     0.001 A 
ATOM      4  C   UNL     1     -14.983 -11.959  -0.431  1.00  0.00     0.001 A 
ATOM      5  C   UNL     1     -14.880 -12.248   0.930  1.00  0.00     0.016 A 
ATOM      6  C   UNL     1     -15.996 -12.707   1.654  1.00  0.00     0.074 A 
ENDROOT
BRANCH   1   7
ATOM      7  C   UNL     1     -18.504 -13.173   1.697  1.00  0.00     0.339 C 
ATOM      8  O   UNL     1     -18.864 -14.377   1.810  1.00  0.00    -0.246 OA
BRANCH   7   9
ATOM      9  O   UNL     1     -19.263 -12.152   2.284  1.00  0.00    -0.462 OA
BRANCH   9  10
ATOM     10  C   UNL     1     -20.353 -11.506   1.629  1.00  0.00     0.233 C 
BRANCH  10  11
ATOM     11  C   UNL     1     -20.200  -9.984   1.708  1.00  0.00     0.038 C 
ATOM     12  C   UNL     1     -18.882  -9.529   1.091  1.00  0.00     0.007 C 
ENDBRANCH  10  11
ENDBRANCH   9  10
ENDBRANCH   7   9
ENDBRANCH   1   7
BRANCH   6  13
ATOM     13  C   UNL     1     -15.791 -13.102   3.066  1.00  0.00     0.339 C 
ATOM     14  O   UNL     1     -15.561 -14.307   3.362  1.00  0.00    -0.246 OA
BRANCH  13  15
ATOM     15  O   UNL     1     -15.795 -12.119   4.062  1.00  0.00    -0.462 OA
BRANCH  15  16
ATOM     16  C   UNL     1     -16.392 -10.834   3.896  1.00  0.00     0.233 C 
BRANCH  16  17
ATOM     17  C   UNL     1     -15.315  -9.759   3.730  1.00  0.00     0.038 C 
ATOM     18  C   UNL     1     -15.463  -9.029   2.399  1.00  0.00     0.007 C 
ENDBRANCH  16  17
ENDBRANCH  15  16
ENDBRANCH  13  15
ENDBRANCH   6  13
TORSDOF 8
ENDMDL
