MODEL 1
REMARK VINA RESULT:    -6.112      0.000      0.000
REMARK INTER + INTRA:         -10.498
REMARK INTER:                  -9.327
REMARK INTRA:                  -1.171
REMARK UNBOUND:                -1.171
REMARK SMILES CCCCCCCCCC=CC(=O)[O-]
REMARK SMILES IDX 7 1 8 2 9 3 10 4 11 5 12 6 13 7 14 8 6 9 5 10 4 11 3 12 2 13
REMARK SMILES IDX 1 14
REMARK H PARENT
REMARK Flexibility Score: inf
ROOT
ATOM      1  C   UNL     1      13.539  72.784  71.853  1.00  0.00     0.000 C 
ENDROOT
BRANCH   1   2
ATOM      2  C   UNL     1      12.684  73.591  72.843  1.00  0.00     0.004 C 
BRANCH   2   3
ATOM      3  C   UNL     1      11.479  72.772  73.320  1.00  0.00     0.027 C 
BRANCH   3   4
ATOM      4  C   UNL     1      10.960  71.881  72.229  1.00  0.00    -0.025 C 
ATOM      5  C   UNL     1       9.828  71.185  72.373  1.00  0.00     0.020 C 
BRANCH   5   6
ATOM      6  C   UNL     1       9.316  70.298  71.318  1.00  0.00     0.064 C 
ATOM      7  O   UNL     1       8.152  70.469  70.873  1.00  0.00    -0.545 OA
ATOM      8  O   UNL     1      10.100  69.271  70.804  1.00  0.00    -0.545 OA
ENDBRANCH   5   6
ENDBRANCH   3   4
ENDBRANCH   2   3
ENDBRANCH   1   2
BRANCH   1   9
ATOM      9  C   UNL     1      14.993  72.619  72.322  1.00  0.00     0.000 C 
BRANCH   9  10
ATOM     10  C   UNL     1      15.461  71.156  72.295  1.00  0.00     0.000 C 
BRANCH  10  11
ATOM     11  C   UNL     1      14.273  70.197  72.456  1.00  0.00    -0.000 C 
BRANCH  11  12
ATOM     12  C   UNL     1      14.204  69.556  73.854  1.00  0.00    -0.000 C 
BRANCH  12  13
ATOM     13  C   UNL     1      13.707  70.491  74.970  1.00  0.00    -0.003 C 
ATOM     14  C   UNL     1      14.367  70.214  76.321  1.00  0.00     0.004 C 
ENDBRANCH  12  13
ENDBRANCH  11  12
ENDBRANCH  10  11
ENDBRANCH   9  10
ENDBRANCH   1   9
TORSDOF 9
ENDMDL
MODEL 2
REMARK VINA RESULT:    -6.097      5.180      7.400
REMARK INTER + INTRA:         -10.476
REMARK INTER:                  -9.978
REMARK INTRA:                  -0.498
REMARK UNBOUND:                -1.171
REMARK SMILES CCCCCCCCCC=CC(=O)[O-]
REMARK SMILES IDX 7 1 8 2 9 3 10 4 11 5 12 6 13 7 14 8 6 9 5 10 4 11 3 12 2 13
REMARK SMILES IDX 1 14
REMARK H PARENT
REMARK Flexibility Score: inf
ROOT
ATOM      1  C   UNL     1      18.467  73.401  71.700  1.00  0.00     0.000 C 
ENDROOT
BRANCH   1   2
ATOM      2  C   UNL     1      19.445  72.572  72.546  1.00  0.00     0.004 C 
BRANCH   2   3
ATOM      3  C   UNL     1      20.536  71.947  71.669  1.00  0.00     0.027 C 
BRANCH   3   4
ATOM      4  C   UNL     1      20.100  70.618  71.123  1.00  0.00    -0.025 C 
ATOM      5  C   UNL     1      20.767  70.016  70.134  1.00  0.00     0.020 C 
BRANCH   5   6
ATOM      6  C   UNL     1      20.344  68.721  69.580  1.00  0.00     0.064 C 
ATOM      7  O   UNL     1      19.389  68.099  70.115  1.00  0.00    -0.545 OA
ATOM      8  O   UNL     1      20.981  68.173  68.473  1.00  0.00    -0.545 OA
ENDBRANCH   5   6
ENDBRANCH   3   4
ENDBRANCH   2   3
ENDBRANCH   1   2
BRANCH   1   9
ATOM      9  C   UNL     1      17.001  73.002  71.927  1.00  0.00     0.000 C 
BRANCH   9  10
ATOM     10  C   UNL     1      16.814  71.482  72.054  1.00  0.00     0.000 C 
BRANCH  10  11
ATOM     11  C   UNL     1      15.360  71.137  72.408  1.00  0.00    -0.000 C 
BRANCH  11  12
ATOM     12  C   UNL     1      15.115  71.056  73.926  1.00  0.00    -0.000 C 
BRANCH  12  13
ATOM     13  C   UNL     1      14.008  70.075  74.351  1.00  0.00    -0.003 C 
ATOM     14  C   UNL     1      14.006  69.790  75.852  1.00  0.00     0.004 C 
ENDBRANCH  12  13
ENDBRANCH  11  12
ENDBRANCH  10  11
ENDBRANCH   9  10
ENDBRANCH   1   9
TORSDOF 9
ENDMDL
MODEL 3
REMARK VINA RESULT:    -6.011      6.062      8.173
REMARK INTER + INTRA:         -10.345
REMARK INTER:                  -9.655
REMARK INTRA:                  -0.690
REMARK UNBOUND:                -1.171
REMARK SMILES CCCCCCCCCC=CC(=O)[O-]
REMARK SMILES IDX 7 1 8 2 9 3 10 4 11 5 12 6 13 7 14 8 6 9 5 10 4 11 3 12 2 13
REMARK SMILES IDX 1 14
REMARK H PARENT
REMARK Flexibility Score: inf
ROOT
ATOM      1  C   UNL     1      17.346  71.977  72.022  1.00  0.00     0.000 C 
ENDROOT
BRANCH   1   2
ATOM      2  C   UNL     1      18.750  71.649  72.552  1.00  0.00     0.004 C 
BRANCH   2   3
ATOM      3  C   UNL     1      18.723  71.409  74.066  1.00  0.00     0.027 C 
BRANCH   3   4
ATOM      4  C   UNL     1      20.074  70.999  74.577  1.00  0.00    -0.025 C 
ATOM      5  C   UNL     1      21.117  70.853  73.755  1.00  0.00     0.020 C 
BRANCH   5   6
ATOM      6  C   UNL     1      22.442  70.438  74.239  1.00  0.00     0.064 C 
ATOM      7  O   UNL     1      22.530  69.694  75.250  1.00  0.00    -0.545 OA
ATOM      8  O   UNL     1      23.602  70.856  73.596  1.00  0.00    -0.545 OA
ENDBRANCH   5   6
ENDBRANCH   3   4
ENDBRANCH   2   3
ENDBRANCH   1   2
BRANCH   1   9
ATOM      9  C   UNL     1      16.417  72.536  73.111  1.00  0.00     0.000 C 
BRANCH   9  10
ATOM     10  C   UNL     1      14.932  72.281  72.811  1.00  0.00     0.000 C 
BRANCH  10  11
ATOM     11  C   UNL     1      14.705  70.830  72.362  1.00  0.00    -0.000 C 
BRANCH  11  12
ATOM     12  C   UNL     1      14.320  69.896  73.523  1.00  0.00    -0.000 C 
BRANCH  12  13
ATOM     13  C   UNL     1      13.680  70.598  74.733  1.00  0.00    -0.003 C 
ATOM     14  C   UNL     1      13.919  69.857  76.049  1.00  0.00     0.004 C 
ENDBRANCH  12  13
ENDBRANCH  11  12
ENDBRANCH  10  11
ENDBRANCH   9  10
ENDBRANCH   1   9
TORSDOF 9
ENDMDL
MODEL 4
REMARK VINA RESULT:    -6.011      6.154      8.351
REMARK INTER + INTRA:         -10.345
REMARK INTER:                  -9.834
REMARK INTRA:                  -0.511
REMARK UNBOUND:                -1.171
REMARK SMILES CCCCCCCCCC=CC(=O)[O-]
REMARK SMILES IDX 7 1 8 2 9 3 10 4 11 5 12 6 13 7 14 8 6 9 5 10 4 11 3 12 2 13
REMARK SMILES IDX 1 14
REMARK H PARENT
REMARK Flexibility Score: inf
ROOT
ATOM      1  C   UNL     1      17.780  72.790  71.960  1.00  0.00     0.000 C 
ENDROOT
BRANCH   1   2
ATOM      2  C   UNL     1      19.301  72.608  72.071  1.00  0.00     0.004 C 
BRANCH   2   3
ATOM      3  C   UNL     1      19.741  71.277  71.449  1.00  0.00     0.027 C 
BRANCH   3   4
ATOM      4  C   UNL     1      20.978  70.748  72.116  1.00  0.00    -0.025 C 
ATOM      5  C   UNL     1      21.264  71.036  73.389  1.00  0.00     0.020 C 
BRANCH   5   6
ATOM      6  C   UNL     1      22.479  70.536  74.050  1.00  0.00     0.064 C 
ATOM      7  O   UNL     1      23.607  70.808  73.564  1.00  0.00    -0.545 OA
ATOM      8  O   UNL     1      22.400  69.766  75.205  1.00  0.00    -0.545 OA
ENDBRANCH   5   6
ENDBRANCH   3   4
ENDBRANCH   2   3
ENDBRANCH   1   2
BRANCH   1   9
ATOM      9  C   UNL     1      17.009  71.476  72.159  1.00  0.00     0.000 C 
BRANCH   9  10
ATOM     10  C   UNL     1      15.501  71.697  72.350  1.00  0.00     0.000 C 
BRANCH  10  11
ATOM     11  C   UNL     1      14.740  70.365  72.293  1.00  0.00    -0.000 C 
BRANCH  11  12
ATOM     12  C   UNL     1      13.898  70.099  73.554  1.00  0.00    -0.000 C 
BRANCH  12  13
ATOM     13  C   UNL     1      14.592  70.452  74.882  1.00  0.00    -0.003 C 
ATOM     14  C   UNL     1      13.948  69.775  76.091  1.00  0.00     0.004 C 
ENDBRANCH  12  13
ENDBRANCH  11  12
ENDBRANCH  10  11
ENDBRANCH   9  10
ENDBRANCH   1   9
TORSDOF 9
ENDMDL
MODEL 5
REMARK VINA RESULT:    -5.952      6.577      8.729
REMARK INTER + INTRA:         -10.255
REMARK INTER:                  -9.846
REMARK INTRA:                  -0.409
REMARK UNBOUND:                -1.171
REMARK SMILES CCCCCCCCCC=CC(=O)[O-]
REMARK SMILES IDX 7 1 8 2 9 3 10 4 11 5 12 6 13 7 14 8 6 9 5 10 4 11 3 12 2 13
REMARK SMILES IDX 1 14
REMARK H PARENT
REMARK Flexibility Score: inf
ROOT
ATOM      1  C   UNL     1      17.816  71.606  72.364  1.00  0.00     0.000 C 
ENDROOT
BRANCH   1   2
ATOM      2  C   UNL     1      19.141  72.166  71.824  1.00  0.00     0.004 C 
BRANCH   2   3
ATOM      3  C   UNL     1      20.029  71.041  71.278  1.00  0.00     0.027 C 
BRANCH   3   4
ATOM      4  C   UNL     1      21.446  71.506  71.098  1.00  0.00    -0.025 C 
ATOM      5  C   UNL     1      21.751  72.511  70.271  1.00  0.00     0.020 C 
BRANCH   5   6
ATOM      6  C   UNL     1      23.135  72.967  70.073  1.00  0.00     0.064 C 
ATOM      7  O   UNL     1      23.574  73.136  68.906  1.00  0.00    -0.545 OA
ATOM      8  O   UNL     1      23.968  73.216  71.159  1.00  0.00    -0.545 OA
ENDBRANCH   5   6
ENDBRANCH   3   4
ENDBRANCH   2   3
ENDBRANCH   1   2
BRANCH   1   9
ATOM      9  C   UNL     1      16.604  72.464  71.970  1.00  0.00     0.000 C 
BRANCH   9  10
ATOM     10  C   UNL     1      15.334  72.088  72.747  1.00  0.00     0.000 C 
BRANCH  10  11
ATOM     11  C   UNL     1      14.831  70.697  72.334  1.00  0.00    -0.000 C 
BRANCH  11  12
ATOM     12  C   UNL     1      14.300  69.874  73.521  1.00  0.00    -0.000 C 
BRANCH  12  13
ATOM     13  C   UNL     1      14.367  70.586  74.884  1.00  0.00    -0.003 C 
ATOM     14  C   UNL     1      13.933  69.694  76.047  1.00  0.00     0.004 C 
ENDBRANCH  12  13
ENDBRANCH  11  12
ENDBRANCH  10  11
ENDBRANCH   9  10
ENDBRANCH   1   9
TORSDOF 9
ENDMDL
MODEL 6
REMARK VINA RESULT:    -5.898      3.340      3.981
REMARK INTER + INTRA:         -10.172
REMARK INTER:                  -9.376
REMARK INTRA:                  -0.796
REMARK UNBOUND:                -1.171
REMARK SMILES CCCCCCCCCC=CC(=O)[O-]
REMARK SMILES IDX 7 1 8 2 9 3 10 4 11 5 12 6 13 7 14 8 6 9 5 10 4 11 3 12 2 13
REMARK SMILES IDX 1 14
REMARK H PARENT
REMARK Flexibility Score: inf
ROOT
ATOM      1  C   UNL     1      10.677  72.282  73.873  1.00  0.00     0.000 C 
ENDROOT
BRANCH   1   2
ATOM      2  C   UNL     1      11.286  71.982  75.251  1.00  0.00     0.004 C 
BRANCH   2   3
ATOM      3  C   UNL     1      10.256  72.200  76.365  1.00  0.00     0.027 C 
BRANCH   3   4
ATOM      4  C   UNL     1       8.860  71.947  75.872  1.00  0.00    -0.025 C 
ATOM      5  C   UNL     1       7.798  72.112  76.666  1.00  0.00     0.020 C 
BRANCH   5   6
ATOM      6  C   UNL     1       6.426  71.855  76.201  1.00  0.00     0.064 C 
ATOM      7  O   UNL     1       6.232  71.477  75.017  1.00  0.00    -0.545 OA
ATOM      8  O   UNL     1       5.339  72.023  77.052  1.00  0.00    -0.545 OA
ENDBRANCH   5   6
ENDBRANCH   3   4
ENDBRANCH   2   3
ENDBRANCH   1   2
BRANCH   1   9
ATOM      9  C   UNL     1      11.725  72.748  72.850  1.00  0.00     0.000 C 
BRANCH   9  10
ATOM     10  C   UNL     1      13.133  72.219  73.162  1.00  0.00     0.000 C 
BRANCH  10  11
ATOM     11  C   UNL     1      13.361  70.848  72.508  1.00  0.00    -0.000 C 
BRANCH  11  12
ATOM     12  C   UNL     1      14.082  69.853  73.436  1.00  0.00    -0.000 C 
BRANCH  12  13
ATOM     13  C   UNL     1      14.607  70.458  74.750  1.00  0.00    -0.003 C 
ATOM     14  C   UNL     1      14.000  69.806  75.992  1.00  0.00     0.004 C 
ENDBRANCH  12  13
ENDBRANCH  11  12
ENDBRANCH  10  11
ENDBRANCH   9  10
ENDBRANCH   1   9
TORSDOF 9
ENDMDL
MODEL 7
REMARK VINA RESULT:    -5.846      4.257      6.225
REMARK INTER + INTRA:         -10.093
REMARK INTER:                  -9.267
REMARK INTRA:                  -0.826
REMARK UNBOUND:                -1.171
REMARK SMILES CCCCCCCCCC=CC(=O)[O-]
REMARK SMILES IDX 7 1 8 2 9 3 10 4 11 5 12 6 13 7 14 8 6 9 5 10 4 11 3 12 2 13
REMARK SMILES IDX 1 14
REMARK H PARENT
REMARK Flexibility Score: inf
ROOT
ATOM      1  C   UNL     1      19.160  72.324  72.733  1.00  0.00     0.000 C 
ENDROOT
BRANCH   1   2
ATOM      2  C   UNL     1      17.933  72.116  71.832  1.00  0.00     0.004 C 
BRANCH   2   3
ATOM      3  C   UNL     1      16.748  72.961  72.316  1.00  0.00     0.027 C 
BRANCH   3   4
ATOM      4  C   UNL     1      15.518  72.119  72.497  1.00  0.00    -0.025 C 
ATOM      5  C   UNL     1      15.556  70.959  73.160  1.00  0.00     0.020 C 
BRANCH   5   6
ATOM      6  C   UNL     1      14.363  70.118  73.333  1.00  0.00     0.064 C 
ATOM      7  O   UNL     1      13.651  69.835  72.334  1.00  0.00    -0.545 OA
ATOM      8  O   UNL     1      14.008  69.627  74.585  1.00  0.00    -0.545 OA
ENDBRANCH   5   6
ENDBRANCH   3   4
ENDBRANCH   2   3
ENDBRANCH   1   2
BRANCH   1   9
ATOM      9  C   UNL     1      19.203  71.339  73.912  1.00  0.00     0.000 C 
BRANCH   9  10
ATOM     10  C   UNL     1      20.376  70.352  73.817  1.00  0.00     0.000 C 
BRANCH  10  11
ATOM     11  C   UNL     1      21.202  70.603  72.547  1.00  0.00    -0.000 C 
BRANCH  11  12
ATOM     12  C   UNL     1      21.115  69.446  71.535  1.00  0.00    -0.000 C 
BRANCH  12  13
ATOM     13  C   UNL     1      20.380  69.785  70.227  1.00  0.00    -0.003 C 
ATOM     14  C   UNL     1      20.212  68.577  69.305  1.00  0.00     0.004 C 
ENDBRANCH  12  13
ENDBRANCH  11  12
ENDBRANCH  10  11
ENDBRANCH   9  10
ENDBRANCH   1   9
TORSDOF 9
ENDMDL
MODEL 8
REMARK VINA RESULT:    -5.763      5.114      6.845
REMARK INTER + INTRA:          -9.967
REMARK INTER:                  -9.007
REMARK INTRA:                  -0.959
REMARK UNBOUND:                -1.171
REMARK SMILES CCCCCCCCCC=CC(=O)[O-]
REMARK SMILES IDX 7 1 8 2 9 3 10 4 11 5 12 6 13 7 14 8 6 9 5 10 4 11 3 12 2 13
REMARK SMILES IDX 1 14
REMARK H PARENT
REMARK Flexibility Score: inf
ROOT
ATOM      1  C   UNL     1      15.301  72.301  72.400  1.00  0.00     0.000 C 
ENDROOT
BRANCH   1   2
ATOM      2  C   UNL     1      16.620  72.974  72.809  1.00  0.00     0.004 C 
BRANCH   2   3
ATOM      3  C   UNL     1      17.573  73.085  71.613  1.00  0.00     0.027 C 
BRANCH   3   4
ATOM      4  C   UNL     1      18.919  72.501  71.935  1.00  0.00    -0.025 C 
ATOM      5  C   UNL     1      19.053  71.479  72.784  1.00  0.00     0.020 C 
BRANCH   5   6
ATOM      6  C   UNL     1      20.365  70.907  73.119  1.00  0.00     0.064 C 
ATOM      7  O   UNL     1      20.798  69.920  72.469  1.00  0.00    -0.545 OA
ATOM      8  O   UNL     1      21.139  71.441  74.144  1.00  0.00    -0.545 OA
ENDBRANCH   5   6
ENDBRANCH   3   4
ENDBRANCH   2   3
ENDBRANCH   1   2
BRANCH   1   9
ATOM      9  C   UNL     1      15.436  70.778  72.245  1.00  0.00     0.000 C 
BRANCH   9  10
ATOM     10  C   UNL     1      14.308  70.009  72.948  1.00  0.00     0.000 C 
BRANCH  10  11
ATOM     11  C   UNL     1      13.825  70.763  74.195  1.00  0.00    -0.000 C 
BRANCH  11  12
ATOM     12  C   UNL     1      13.889  69.909  75.475  1.00  0.00    -0.000 C 
BRANCH  12  13
ATOM     13  C   UNL     1      14.885  70.409  76.536  1.00  0.00    -0.003 C 
ATOM     14  C   UNL     1      16.058  71.184  75.937  1.00  0.00     0.004 C 
ENDBRANCH  12  13
ENDBRANCH  11  12
ENDBRANCH  10  11
ENDBRANCH   9  10
ENDBRANCH   1   9
TORSDOF 9
ENDMDL
MODEL 9
REMARK VINA RESULT:    -5.636      1.723      2.274
REMARK INTER + INTRA:          -9.772
REMARK INTER:                  -8.776
REMARK INTRA:                  -0.997
REMARK UNBOUND:                -1.171
REMARK SMILES CCCCCCCCCC=CC(=O)[O-]
REMARK SMILES IDX 7 1 8 2 9 3 10 4 11 5 12 6 13 7 14 8 6 9 5 10 4 11 3 12 2 13
REMARK SMILES IDX 1 14
REMARK H PARENT
REMARK Flexibility Score: inf
ROOT
ATOM      1  C   UNL     1      12.280  72.619  72.991  1.00  0.00     0.000 C 
ENDROOT
BRANCH   1   2
ATOM      2  C   UNL     1      11.147  71.705  72.499  1.00  0.00     0.004 C 
BRANCH   2   3
ATOM      3  C   UNL     1      11.631  70.795  71.363  1.00  0.00     0.027 C 
BRANCH   3   4
ATOM      4  C   UNL     1      10.662  70.796  70.216  1.00  0.00    -0.025 C 
ATOM      5  C   UNL     1       9.831  71.821  70.004  1.00  0.00     0.020 C 
BRANCH   5   6
ATOM      6  C   UNL     1       8.868  71.829  68.892  1.00  0.00     0.064 C 
ATOM      7  O   UNL     1       8.652  72.898  68.264  1.00  0.00    -0.545 OA
ATOM      8  O   UNL     1       8.190  70.672  68.524  1.00  0.00    -0.545 OA
ENDBRANCH   5   6
ENDBRANCH   3   4
ENDBRANCH   2   3
ENDBRANCH   1   2
BRANCH   1   9
ATOM      9  C   UNL     1      13.317  72.918  71.897  1.00  0.00     0.000 C 
BRANCH   9  10
ATOM     10  C   UNL     1      14.762  72.760  72.392  1.00  0.00     0.000 C 
BRANCH  10  11
ATOM     11  C   UNL     1      15.166  71.279  72.442  1.00  0.00    -0.000 C 
BRANCH  11  12
ATOM     12  C   UNL     1      15.290  70.740  73.879  1.00  0.00    -0.000 C 
BRANCH  12  13
ATOM     13  C   UNL     1      14.108  69.873  74.348  1.00  0.00    -0.003 C 
ATOM     14  C   UNL     1      13.963  69.834  75.869  1.00  0.00     0.004 C 
ENDBRANCH  12  13
ENDBRANCH  11  12
ENDBRANCH  10  11
ENDBRANCH   9  10
ENDBRANCH   1   9
TORSDOF 9
ENDMDL
