MODEL 1
REMARK VINA RESULT:    -3.743      0.000      0.000
REMARK INTER + INTRA:         -11.902
REMARK INTER:                  -9.871
REMARK INTRA:                  -2.031
REMARK UNBOUND:                -2.031
REMARK SMILES CCCCCCCCCCCCCCCCCCCCCCCCCCCCCC(=O)[O-]
REMARK SMILES IDX 16 1 17 2 18 3 19 4 20 5 21 6 22 7 23 8 24 9 25 10 26 11
REMARK SMILES IDX 27 12 28 13 29 14 30 15 31 16 32 17 15 18 14 19 13 20 12 21
REMARK SMILES IDX 11 22 10 23 9 24 8 25 7 26 6 27 5 28 4 29 3 30 2 31 1 32
REMARK H PARENT
REMARK Flexibility Score: inf
ROOT
ATOM      1  C   UNL     1      12.040  10.299  -1.911  1.00  0.00     0.000 C 
ENDROOT
BRANCH   1   2
ATOM      2  C   UNL     1      11.266   9.171  -2.612  1.00  0.00     0.000 C 
BRANCH   2   3
ATOM      3  C   UNL     1       9.828   9.028  -2.089  1.00  0.00     0.000 C 
BRANCH   3   4
ATOM      4  C   UNL     1       9.623   7.668  -1.412  1.00  0.00     0.000 C 
BRANCH   4   5
ATOM      5  C   UNL     1      10.848   6.765  -1.606  1.00  0.00     0.000 C 
BRANCH   5   6
ATOM      6  C   UNL     1      11.160   5.979  -0.324  1.00  0.00     0.000 C 
BRANCH   6   7
ATOM      7  C   UNL     1      12.036   4.742  -0.586  1.00  0.00     0.000 C 
BRANCH   7   8
ATOM      8  C   UNL     1      13.019   4.947  -1.747  1.00  0.00     0.000 C 
BRANCH   8   9
ATOM      9  C   UNL     1      13.592   3.607  -2.225  1.00  0.00     0.000 C 
BRANCH   9  10
ATOM     10  C   UNL     1      14.841   3.225  -1.423  1.00  0.00     0.000 C 
BRANCH  10  11
ATOM     11  C   UNL     1      15.400   1.872  -1.888  1.00  0.00     0.000 C 
BRANCH  11  12
ATOM     12  C   UNL     1      16.619   2.012  -2.815  1.00  0.00     0.000 C 
BRANCH  12  13
ATOM     13  C   UNL     1      17.835   1.143  -2.438  1.00  0.00     0.006 C 
BRANCH  13  14
ATOM     14  C   UNL     1      19.177   1.675  -2.975  1.00  0.00     0.053 C 
BRANCH  14  15
ATOM     15  C   UNL     1      20.353   1.110  -2.238  1.00  0.00     0.041 C 
ATOM     16  O   UNL     1      21.288   1.863  -1.861  1.00  0.00    -0.550 OA
ATOM     17  O   UNL     1      20.399  -0.245  -1.931  1.00  0.00    -0.550 OA
ENDBRANCH  14  15
ENDBRANCH  13  14
ENDBRANCH  12  13
ENDBRANCH  11  12
ENDBRANCH  10  11
ENDBRANCH   9  10
ENDBRANCH   8   9
ENDBRANCH   7   8
ENDBRANCH   6   7
ENDBRANCH   5   6
ENDBRANCH   4   5
ENDBRANCH   3   4
ENDBRANCH   2   3
ENDBRANCH   1   2
BRANCH   1  18
ATOM     18  C   UNL     1      12.221  11.538  -2.808  1.00  0.00     0.000 C 
BRANCH  18  19
ATOM     19  C   UNL     1      12.306  12.842  -2.000  1.00  0.00     0.000 C 
BRANCH  19  20
ATOM     20  C   UNL     1      13.586  13.643  -2.301  1.00  0.00     0.000 C 
BRANCH  20  21
ATOM     21  C   UNL     1      13.353  15.164  -2.203  1.00  0.00     0.000 C 
BRANCH  21  22
ATOM     22  C   UNL     1      14.641  15.981  -1.987  1.00  0.00     0.000 C 
BRANCH  22  23
ATOM     23  C   UNL     1      14.553  17.019  -0.847  1.00  0.00     0.000 C 
BRANCH  23  24
ATOM     24  C   UNL     1      13.592  16.649   0.303  1.00  0.00    -0.000 C 
BRANCH  24  25
ATOM     25  C   UNL     1      12.968  17.841   1.056  1.00  0.00    -0.000 C 
BRANCH  25  26
ATOM     26  C   UNL     1      11.432  17.837   1.029  1.00  0.00    -0.000 C 
BRANCH  26  27
ATOM     27  C   UNL     1      10.906  17.021  -0.160  1.00  0.00    -0.000 C 
BRANCH  27  28
ATOM     28  C   UNL     1       9.396  17.236  -0.348  1.00  0.00    -0.000 C 
BRANCH  28  29
ATOM     29  C   UNL     1       8.629  15.921  -0.573  1.00  0.00    -0.000 C 
BRANCH  29  30
ATOM     30  C   UNL     1       9.512  14.692  -0.869  1.00  0.00    -0.000 C 
BRANCH  30  31
ATOM     31  C   UNL     1       8.746  13.368  -1.047  1.00  0.00    -0.003 C 
ATOM     32  C   UNL     1       7.432  13.539  -1.810  1.00  0.00     0.004 C 
ENDBRANCH  30  31
ENDBRANCH  29  30
ENDBRANCH  28  29
ENDBRANCH  27  28
ENDBRANCH  26  27
ENDBRANCH  25  26
ENDBRANCH  24  25
ENDBRANCH  23  24
ENDBRANCH  22  23
ENDBRANCH  21  22
ENDBRANCH  20  21
ENDBRANCH  19  20
ENDBRANCH  18  19
ENDBRANCH   1  18
TORSDOF 28
ENDMDL
MODEL 2
REMARK VINA RESULT:    -3.711      1.853      4.130
REMARK INTER + INTRA:         -11.817
REMARK INTER:                  -8.465
REMARK INTRA:                  -3.352
REMARK UNBOUND:                -2.031
REMARK SMILES CCCCCCCCCCCCCCCCCCCCCCCCCCCCCC(=O)[O-]
REMARK SMILES IDX 16 1 17 2 18 3 19 4 20 5 21 6 22 7 23 8 24 9 25 10 26 11
REMARK SMILES IDX 27 12 28 13 29 14 30 15 31 16 32 17 15 18 14 19 13 20 12 21
REMARK SMILES IDX 11 22 10 23 9 24 8 25 7 26 6 27 5 28 4 29 3 30 2 31 1 32
REMARK H PARENT
REMARK Flexibility Score: inf
ROOT
ATOM      1  C   UNL     1      12.819   8.486  -2.850  1.00  0.00     0.000 C 
ENDROOT
BRANCH   1   2
ATOM      2  C   UNL     1      11.609   8.561  -1.905  1.00  0.00     0.000 C 
BRANCH   2   3
ATOM      3  C   UNL     1      10.271   8.581  -2.658  1.00  0.00     0.000 C 
BRANCH   3   4
ATOM      4  C   UNL     1       9.133   9.051  -1.744  1.00  0.00     0.000 C 
BRANCH   4   5
ATOM      5  C   UNL     1       8.124   7.923  -1.494  1.00  0.00     0.000 C 
BRANCH   5   6
ATOM      6  C   UNL     1       7.854   7.132  -2.783  1.00  0.00     0.000 C 
BRANCH   6   7
ATOM      7  C   UNL     1       8.975   6.131  -3.109  1.00  0.00     0.000 C 
BRANCH   7   8
ATOM      8  C   UNL     1       9.129   5.044  -2.036  1.00  0.00     0.000 C 
BRANCH   8   9
ATOM      9  C   UNL     1      10.546   4.456  -2.048  1.00  0.00     0.000 C 
BRANCH   9  10
ATOM     10  C   UNL     1      11.374   4.989  -0.873  1.00  0.00     0.000 C 
BRANCH  10  11
ATOM     11  C   UNL     1      12.861   5.083  -1.247  1.00  0.00     0.000 C 
BRANCH  11  12
ATOM     12  C   UNL     1      13.153   4.593  -2.674  1.00  0.00     0.000 C 
BRANCH  12  13
ATOM     13  C   UNL     1      13.979   3.295  -2.768  1.00  0.00     0.006 C 
BRANCH  13  14
ATOM     14  C   UNL     1      14.947   3.081  -1.590  1.00  0.00     0.053 C 
BRANCH  14  15
ATOM     15  C   UNL     1      15.865   1.915  -1.807  1.00  0.00     0.041 C 
ATOM     16  O   UNL     1      15.397   0.787  -2.108  1.00  0.00    -0.550 OA
ATOM     17  O   UNL     1      17.242   2.086  -1.719  1.00  0.00    -0.550 OA
ENDBRANCH  14  15
ENDBRANCH  13  14
ENDBRANCH  12  13
ENDBRANCH  11  12
ENDBRANCH  10  11
ENDBRANCH   9  10
ENDBRANCH   8   9
ENDBRANCH   7   8
ENDBRANCH   6   7
ENDBRANCH   5   6
ENDBRANCH   4   5
ENDBRANCH   3   4
ENDBRANCH   2   3
ENDBRANCH   1   2
BRANCH   1  18
ATOM     18  C   UNL     1      13.447   9.866  -3.118  1.00  0.00     0.000 C 
BRANCH  18  19
ATOM     19  C   UNL     1      12.941  10.942  -2.145  1.00  0.00     0.000 C 
BRANCH  19  20
ATOM     20  C   UNL     1      13.081  12.367  -2.712  1.00  0.00     0.000 C 
BRANCH  20  21
ATOM     21  C   UNL     1      11.934  13.289  -2.253  1.00  0.00     0.000 C 
BRANCH  21  22
ATOM     22  C   UNL     1      11.383  12.951  -0.854  1.00  0.00     0.000 C 
BRANCH  22  23
ATOM     23  C   UNL     1       9.909  12.492  -0.845  1.00  0.00     0.000 C 
BRANCH  23  24
ATOM     24  C   UNL     1       9.113  12.818  -2.127  1.00  0.00    -0.000 C 
BRANCH  24  25
ATOM     25  C   UNL     1       8.396  14.183  -2.135  1.00  0.00    -0.000 C 
BRANCH  25  26
ATOM     26  C   UNL     1       8.022  14.680  -0.730  1.00  0.00    -0.000 C 
BRANCH  26  27
ATOM     27  C   UNL     1       8.565  16.094  -0.486  1.00  0.00    -0.000 C 
BRANCH  27  28
ATOM     28  C   UNL     1       9.705  16.422  -1.461  1.00  0.00    -0.000 C 
BRANCH  28  29
ATOM     29  C   UNL     1      10.900  17.107  -0.775  1.00  0.00    -0.000 C 
BRANCH  29  30
ATOM     30  C   UNL     1      12.260  16.901  -1.471  1.00  0.00    -0.000 C 
BRANCH  30  31
ATOM     31  C   UNL     1      13.456  16.713  -0.520  1.00  0.00    -0.003 C 
ATOM     32  C   UNL     1      14.285  15.471  -0.844  1.00  0.00     0.004 C 
ENDBRANCH  30  31
ENDBRANCH  29  30
ENDBRANCH  28  29
ENDBRANCH  27  28
ENDBRANCH  26  27
ENDBRANCH  25  26
ENDBRANCH  24  25
ENDBRANCH  23  24
ENDBRANCH  22  23
ENDBRANCH  21  22
ENDBRANCH  20  21
ENDBRANCH  19  20
ENDBRANCH  18  19
ENDBRANCH   1  18
TORSDOF 28
ENDMDL
MODEL 3
REMARK VINA RESULT:    -3.392      3.497     12.654
REMARK INTER + INTRA:         -10.975
REMARK INTER:                  -8.789
REMARK INTRA:                  -2.185
REMARK UNBOUND:                -2.031
REMARK SMILES CCCCCCCCCCCCCCCCCCCCCCCCCCCCCC(=O)[O-]
REMARK SMILES IDX 16 1 17 2 18 3 19 4 20 5 21 6 22 7 23 8 24 9 25 10 26 11
REMARK SMILES IDX 27 12 28 13 29 14 30 15 31 16 32 17 15 18 14 19 13 20 12 21
REMARK SMILES IDX 11 22 10 23 9 24 8 25 7 26 6 27 5 28 4 29 3 30 2 31 1 32
REMARK H PARENT
REMARK Flexibility Score: inf
ROOT
ATOM      1  C   UNL     1      12.212  10.037  -1.965  1.00  0.00     0.000 C 
ENDROOT
BRANCH   1   2
ATOM      2  C   UNL     1      11.690  11.245  -2.759  1.00  0.00     0.000 C 
BRANCH   2   3
ATOM      3  C   UNL     1      10.840  12.194  -1.900  1.00  0.00     0.000 C 
BRANCH   3   4
ATOM      4  C   UNL     1       9.536  12.564  -2.618  1.00  0.00     0.000 C 
BRANCH   4   5
ATOM      5  C   UNL     1       8.363  12.629  -1.632  1.00  0.00     0.000 C 
BRANCH   5   6
ATOM      6  C   UNL     1       8.582  13.738  -0.592  1.00  0.00     0.000 C 
BRANCH   6   7
ATOM      7  C   UNL     1       8.167  15.126  -1.110  1.00  0.00     0.000 C 
BRANCH   7   8
ATOM      8  C   UNL     1       9.369  16.052  -1.349  1.00  0.00     0.000 C 
BRANCH   8   9
ATOM      9  C   UNL     1       9.427  17.160  -0.291  1.00  0.00     0.000 C 
BRANCH   9  10
ATOM     10  C   UNL     1      10.872  17.607  -0.039  1.00  0.00     0.000 C 
BRANCH  10  11
ATOM     11  C   UNL     1      11.847  16.856  -0.958  1.00  0.00     0.000 C 
BRANCH  11  12
ATOM     12  C   UNL     1      12.476  15.624  -0.286  1.00  0.00     0.000 C 
BRANCH  12  13
ATOM     13  C   UNL     1      13.848  15.198  -0.847  1.00  0.00     0.006 C 
BRANCH  13  14
ATOM     14  C   UNL     1      13.834  14.858  -2.348  1.00  0.00     0.053 C 
BRANCH  14  15
ATOM     15  C   UNL     1      14.995  14.000  -2.752  1.00  0.00     0.041 C 
ATOM     16  O   UNL     1      16.075  14.528  -3.123  1.00  0.00    -0.550 OA
ATOM     17  O   UNL     1      14.899  12.616  -2.677  1.00  0.00    -0.550 OA
ENDBRANCH  14  15
ENDBRANCH  13  14
ENDBRANCH  12  13
ENDBRANCH  11  12
ENDBRANCH  10  11
ENDBRANCH   9  10
ENDBRANCH   8   9
ENDBRANCH   7   8
ENDBRANCH   6   7
ENDBRANCH   5   6
ENDBRANCH   4   5
ENDBRANCH   3   4
ENDBRANCH   2   3
ENDBRANCH   1   2
BRANCH   1  18
ATOM     18  C   UNL     1      11.080   9.231  -1.302  1.00  0.00     0.000 C 
BRANCH  18  19
ATOM     19  C   UNL     1      10.201   8.497  -2.326  1.00  0.00     0.000 C 
BRANCH  19  20
ATOM     20  C   UNL     1      10.066   6.994  -2.022  1.00  0.00     0.000 C 
BRANCH  20  21
ATOM     21  C   UNL     1      10.940   6.564  -0.827  1.00  0.00     0.000 C 
BRANCH  21  22
ATOM     22  C   UNL     1      11.318   5.070  -0.833  1.00  0.00     0.000 C 
BRANCH  22  23
ATOM     23  C   UNL     1      11.054   4.353  -2.175  1.00  0.00     0.000 C 
BRANCH  23  24
ATOM     24  C   UNL     1      12.246   3.548  -2.734  1.00  0.00    -0.000 C 
BRANCH  24  25
ATOM     25  C   UNL     1      13.590   3.762  -2.009  1.00  0.00    -0.000 C 
BRANCH  25  26
ATOM     26  C   UNL     1      14.784   3.145  -2.753  1.00  0.00    -0.000 C 
BRANCH  26  27
ATOM     27  C   UNL     1      15.655   2.316  -1.800  1.00  0.00    -0.000 C 
BRANCH  27  28
ATOM     28  C   UNL     1      16.400   1.207  -2.560  1.00  0.00    -0.000 C 
BRANCH  28  29
ATOM     29  C   UNL     1      17.855   1.583  -2.890  1.00  0.00    -0.000 C 
BRANCH  29  30
ATOM     30  C   UNL     1      18.872   0.431  -2.764  1.00  0.00    -0.000 C 
BRANCH  30  31
ATOM     31  C   UNL     1      20.322   0.870  -2.489  1.00  0.00    -0.003 C 
ATOM     32  C   UNL     1      20.514   2.383  -2.585  1.00  0.00     0.004 C 
ENDBRANCH  30  31
ENDBRANCH  29  30
ENDBRANCH  28  29
ENDBRANCH  27  28
ENDBRANCH  26  27
ENDBRANCH  25  26
ENDBRANCH  24  25
ENDBRANCH  23  24
ENDBRANCH  22  23
ENDBRANCH  21  22
ENDBRANCH  20  21
ENDBRANCH  19  20
ENDBRANCH  18  19
ENDBRANCH   1  18
TORSDOF 28
ENDMDL
MODEL 4
REMARK VINA RESULT:    -3.097      4.112     13.218
REMARK INTER + INTRA:         -10.198
REMARK INTER:                  -8.311
REMARK INTRA:                  -1.887
REMARK UNBOUND:                -2.031
REMARK SMILES CCCCCCCCCCCCCCCCCCCCCCCCCCCCCC(=O)[O-]
REMARK SMILES IDX 16 1 17 2 18 3 19 4 20 5 21 6 22 7 23 8 24 9 25 10 26 11
REMARK SMILES IDX 27 12 28 13 29 14 30 15 31 16 32 17 15 18 14 19 13 20 12 21
REMARK SMILES IDX 11 22 10 23 9 24 8 25 7 26 6 27 5 28 4 29 3 30 2 31 1 32
REMARK H PARENT
REMARK Flexibility Score: inf
ROOT
ATOM      1  C   UNL     1      12.972   9.390  -1.981  1.00  0.00     0.000 C 
ENDROOT
BRANCH   1   2
ATOM      2  C   UNL     1      13.359  10.376  -3.095  1.00  0.00     0.000 C 
BRANCH   2   3
ATOM      3  C   UNL     1      14.400  11.407  -2.637  1.00  0.00     0.000 C 
BRANCH   3   4
ATOM      4  C   UNL     1      13.977  12.828  -3.030  1.00  0.00     0.000 C 
BRANCH   4   5
ATOM      5  C   UNL     1      14.988  13.864  -2.526  1.00  0.00     0.000 C 
BRANCH   5   6
ATOM      6  C   UNL     1      14.370  14.748  -1.432  1.00  0.00     0.000 C 
BRANCH   6   7
ATOM      7  C   UNL     1      13.952  16.133  -1.954  1.00  0.00     0.000 C 
BRANCH   7   8
ATOM      8  C   UNL     1      12.431  16.340  -1.930  1.00  0.00     0.000 C 
BRANCH   8   9
ATOM      9  C   UNL     1      12.040  17.417  -0.910  1.00  0.00     0.000 C 
BRANCH   9  10
ATOM     10  C   UNL     1      10.812  16.988  -0.099  1.00  0.00     0.000 C 
BRANCH  10  11
ATOM     11  C   UNL     1       9.542  17.028  -0.962  1.00  0.00     0.000 C 
BRANCH  11  12
ATOM     12  C   UNL     1       8.647  15.793  -0.771  1.00  0.00     0.000 C 
BRANCH  12  13
ATOM     13  C   UNL     1       9.005  14.578  -1.649  1.00  0.00     0.006 C 
BRANCH  13  14
ATOM     14  C   UNL     1       9.304  13.295  -0.852  1.00  0.00     0.053 C 
BRANCH  14  15
ATOM     15  C   UNL     1       8.994  12.052  -1.631  1.00  0.00     0.041 C 
ATOM     16  O   UNL     1       7.841  11.548  -1.590  1.00  0.00    -0.550 OA
ATOM     17  O   UNL     1       9.967  11.472  -2.437  1.00  0.00    -0.550 OA
ENDBRANCH  14  15
ENDBRANCH  13  14
ENDBRANCH  12  13
ENDBRANCH  11  12
ENDBRANCH  10  11
ENDBRANCH   9  10
ENDBRANCH   8   9
ENDBRANCH   7   8
ENDBRANCH   6   7
ENDBRANCH   5   6
ENDBRANCH   4   5
ENDBRANCH   3   4
ENDBRANCH   2   3
ENDBRANCH   1   2
BRANCH   1  18
ATOM     18  C   UNL     1      12.143   8.203  -2.502  1.00  0.00     0.000 C 
BRANCH  18  19
ATOM     19  C   UNL     1      10.876   7.957  -1.668  1.00  0.00     0.000 C 
BRANCH  19  20
ATOM     20  C   UNL     1       9.722   7.370  -2.501  1.00  0.00     0.000 C 
BRANCH  20  21
ATOM     21  C   UNL     1       9.480   5.881  -2.185  1.00  0.00     0.000 C 
BRANCH  21  22
ATOM     22  C   UNL     1      10.461   4.924  -2.890  1.00  0.00     0.000 C 
BRANCH  22  23
ATOM     23  C   UNL     1      11.405   4.165  -1.935  1.00  0.00     0.000 C 
BRANCH  23  24
ATOM     24  C   UNL     1      12.881   4.101  -2.385  1.00  0.00    -0.000 C 
BRANCH  24  25
ATOM     25  C   UNL     1      13.911   3.903  -1.256  1.00  0.00    -0.000 C 
BRANCH  25  26
ATOM     26  C   UNL     1      15.187   3.183  -1.720  1.00  0.00    -0.000 C 
BRANCH  26  27
ATOM     27  C   UNL     1      14.970   1.665  -1.778  1.00  0.00    -0.000 C 
BRANCH  27  28
ATOM     28  C   UNL     1      15.984   1.001  -2.722  1.00  0.00    -0.000 C 
BRANCH  28  29
ATOM     29  C   UNL     1      17.396   1.600  -2.600  1.00  0.00    -0.000 C 
BRANCH  29  30
ATOM     30  C   UNL     1      18.544   0.659  -3.018  1.00  0.00    -0.000 C 
BRANCH  30  31
ATOM     31  C   UNL     1      19.939   1.075  -2.521  1.00  0.00    -0.003 C 
ATOM     32  C   UNL     1      20.876  -0.114  -2.311  1.00  0.00     0.004 C 
ENDBRANCH  30  31
ENDBRANCH  29  30
ENDBRANCH  28  29
ENDBRANCH  27  28
ENDBRANCH  26  27
ENDBRANCH  25  26
ENDBRANCH  24  25
ENDBRANCH  23  24
ENDBRANCH  22  23
ENDBRANCH  21  22
ENDBRANCH  20  21
ENDBRANCH  19  20
ENDBRANCH  18  19
ENDBRANCH   1  18
TORSDOF 28
ENDMDL
MODEL 5
REMARK VINA RESULT:    -3.088      1.785      2.890
REMARK INTER + INTRA:         -10.173
REMARK INTER:                  -7.821
REMARK INTRA:                  -2.352
REMARK UNBOUND:                -2.031
REMARK SMILES CCCCCCCCCCCCCCCCCCCCCCCCCCCCCC(=O)[O-]
REMARK SMILES IDX 16 1 17 2 18 3 19 4 20 5 21 6 22 7 23 8 24 9 25 10 26 11
REMARK SMILES IDX 27 12 28 13 29 14 30 15 31 16 32 17 15 18 14 19 13 20 12 21
REMARK SMILES IDX 11 22 10 23 9 24 8 25 7 26 6 27 5 28 4 29 3 30 2 31 1 32
REMARK H PARENT
REMARK Flexibility Score: inf
ROOT
ATOM      1  C   UNL     1      12.505  10.755  -0.803  1.00  0.00     0.000 C 
ENDROOT
BRANCH   1   2
ATOM      2  C   UNL     1      11.692   9.690  -1.556  1.00  0.00     0.000 C 
BRANCH   2   3
ATOM      3  C   UNL     1      10.524  10.292  -2.351  1.00  0.00     0.000 C 
BRANCH   3   4
ATOM      4  C   UNL     1       9.581   9.193  -2.858  1.00  0.00     0.000 C 
BRANCH   4   5
ATOM      5  C   UNL     1       8.273   9.177  -2.057  1.00  0.00     0.000 C 
BRANCH   5   6
ATOM      6  C   UNL     1       8.163   7.900  -1.211  1.00  0.00     0.000 C 
BRANCH   6   7
ATOM      7  C   UNL     1       9.150   6.807  -1.655  1.00  0.00     0.000 C 
BRANCH   7   8
ATOM      8  C   UNL     1      10.258   6.555  -0.623  1.00  0.00     0.000 C 
BRANCH   8   9
ATOM      9  C   UNL     1      10.712   5.090  -0.653  1.00  0.00     0.000 C 
BRANCH   9  10
ATOM     10  C   UNL     1      11.106   4.663  -2.072  1.00  0.00     0.000 C 
BRANCH  10  11
ATOM     11  C   UNL     1      12.522   5.145  -2.418  1.00  0.00     0.000 C 
BRANCH  11  12
ATOM     12  C   UNL     1      13.620   4.360  -1.683  1.00  0.00     0.000 C 
BRANCH  12  13
ATOM     13  C   UNL     1      14.285   3.235  -2.501  1.00  0.00     0.006 C 
BRANCH  13  14
ATOM     14  C   UNL     1      14.953   2.145  -1.642  1.00  0.00     0.053 C 
BRANCH  14  15
ATOM     15  C   UNL     1      16.171   1.567  -2.297  1.00  0.00     0.041 C 
ATOM     16  O   UNL     1      17.292   2.122  -2.155  1.00  0.00    -0.550 OA
ATOM     17  O   UNL     1      16.076   0.391  -3.031  1.00  0.00    -0.550 OA
ENDBRANCH  14  15
ENDBRANCH  13  14
ENDBRANCH  12  13
ENDBRANCH  11  12
ENDBRANCH  10  11
ENDBRANCH   9  10
ENDBRANCH   8   9
ENDBRANCH   7   8
ENDBRANCH   6   7
ENDBRANCH   5   6
ENDBRANCH   4   5
ENDBRANCH   3   4
ENDBRANCH   2   3
ENDBRANCH   1   2
BRANCH   1  18
ATOM     18  C   UNL     1      12.174  12.186  -1.261  1.00  0.00     0.000 C 
BRANCH  18  19
ATOM     19  C   UNL     1      13.193  12.731  -2.274  1.00  0.00     0.000 C 
BRANCH  19  20
ATOM     20  C   UNL     1      12.637  13.905  -3.101  1.00  0.00     0.000 C 
BRANCH  20  21
ATOM     21  C   UNL     1      11.982  14.981  -2.213  1.00  0.00     0.000 C 
BRANCH  21  22
ATOM     22  C   UNL     1      12.907  16.168  -1.884  1.00  0.00     0.000 C 
BRANCH  22  23
ATOM     23  C   UNL     1      13.859  15.923  -0.694  1.00  0.00     0.000 C 
BRANCH  23  24
ATOM     24  C   UNL     1      14.596  17.175  -0.174  1.00  0.00    -0.000 C 
BRANCH  24  25
ATOM     25  C   UNL     1      13.773  18.096   0.748  1.00  0.00    -0.000 C 
BRANCH  25  26
ATOM     26  C   UNL     1      12.727  17.341   1.582  1.00  0.00    -0.000 C 
BRANCH  26  27
ATOM     27  C   UNL     1      11.388  18.091   1.592  1.00  0.00    -0.000 C 
BRANCH  27  28
ATOM     28  C   UNL     1      10.516  17.676   0.396  1.00  0.00    -0.000 C 
BRANCH  28  29
ATOM     29  C   UNL     1       9.031  18.030   0.588  1.00  0.00    -0.000 C 
BRANCH  29  30
ATOM     30  C   UNL     1       8.084  17.488  -0.501  1.00  0.00    -0.000 C 
BRANCH  30  31
ATOM     31  C   UNL     1       7.652  16.022  -0.316  1.00  0.00    -0.003 C 
ATOM     32  C   UNL     1       7.469  15.284  -1.641  1.00  0.00     0.004 C 
ENDBRANCH  30  31
ENDBRANCH  29  30
ENDBRANCH  28  29
ENDBRANCH  27  28
ENDBRANCH  26  27
ENDBRANCH  25  26
ENDBRANCH  24  25
ENDBRANCH  23  24
ENDBRANCH  22  23
ENDBRANCH  21  22
ENDBRANCH  20  21
ENDBRANCH  19  20
ENDBRANCH  18  19
ENDBRANCH   1  18
TORSDOF 28
ENDMDL
MODEL 6
REMARK VINA RESULT:    -2.634      4.002      6.197
REMARK INTER + INTRA:          -8.977
REMARK INTER:                  -6.178
REMARK INTRA:                  -2.799
REMARK UNBOUND:                -2.031
REMARK SMILES CCCCCCCCCCCCCCCCCCCCCCCCCCCCCC(=O)[O-]
REMARK SMILES IDX 16 1 17 2 18 3 19 4 20 5 21 6 22 7 23 8 24 9 25 10 26 11
REMARK SMILES IDX 27 12 28 13 29 14 30 15 31 16 32 17 15 18 14 19 13 20 12 21
REMARK SMILES IDX 11 22 10 23 9 24 8 25 7 26 6 27 5 28 4 29 3 30 2 31 1 32
REMARK H PARENT
REMARK Flexibility Score: inf
ROOT
ATOM      1  C   UNL     1      13.688   9.552  -1.506  1.00  0.00     0.000 C 
ENDROOT
BRANCH   1   2
ATOM      2  C   UNL     1      12.680   9.128  -2.586  1.00  0.00     0.000 C 
BRANCH   2   3
ATOM      3  C   UNL     1      11.859  10.310  -3.124  1.00  0.00     0.000 C 
BRANCH   3   4
ATOM      4  C   UNL     1      11.714  11.406  -2.061  1.00  0.00     0.000 C 
BRANCH   4   5
ATOM      5  C   UNL     1      10.705  12.473  -2.503  1.00  0.00     0.000 C 
BRANCH   5   6
ATOM      6  C   UNL     1       9.917  13.016  -1.302  1.00  0.00     0.000 C 
BRANCH   6   7
ATOM      7  C   UNL     1       8.595  12.264  -1.071  1.00  0.00     0.000 C 
BRANCH   7   8
ATOM      8  C   UNL     1       8.055  11.610  -2.350  1.00  0.00     0.000 C 
BRANCH   8   9
ATOM      9  C   UNL     1       8.367  10.108  -2.372  1.00  0.00     0.000 C 
BRANCH   9  10
ATOM     10  C   UNL     1       7.097   9.278  -2.155  1.00  0.00     0.000 C 
BRANCH  10  11
ATOM     11  C   UNL     1       7.367   7.786  -2.398  1.00  0.00     0.000 C 
BRANCH  11  12
ATOM     12  C   UNL     1       8.844   7.485  -2.700  1.00  0.00     0.000 C 
BRANCH  12  13
ATOM     13  C   UNL     1       9.323   6.075  -2.303  1.00  0.00     0.006 C 
BRANCH  13  14
ATOM     14  C   UNL     1      10.813   5.813  -2.593  1.00  0.00     0.053 C 
BRANCH  14  15
ATOM     15  C   UNL     1      11.497   5.095  -1.468  1.00  0.00     0.041 C 
ATOM     16  O   UNL     1      11.025   5.146  -0.303  1.00  0.00    -0.550 OA
ATOM     17  O   UNL     1      12.634   4.334  -1.715  1.00  0.00    -0.550 OA
ENDBRANCH  14  15
ENDBRANCH  13  14
ENDBRANCH  12  13
ENDBRANCH  11  12
ENDBRANCH  10  11
ENDBRANCH   9  10
ENDBRANCH   8   9
ENDBRANCH   7   8
ENDBRANCH   6   7
ENDBRANCH   5   6
ENDBRANCH   4   5
ENDBRANCH   3   4
ENDBRANCH   2   3
ENDBRANCH   1   2
BRANCH   1  18
ATOM     18  C   UNL     1      15.146   9.275  -1.917  1.00  0.00     0.000 C 
BRANCH  18  19
ATOM     19  C   UNL     1      15.588  10.116  -3.124  1.00  0.00     0.000 C 
BRANCH  19  20
ATOM     20  C   UNL     1      15.089  11.571  -3.047  1.00  0.00     0.000 C 
BRANCH  20  21
ATOM     21  C   UNL     1      16.188  12.535  -2.560  1.00  0.00     0.000 C 
BRANCH  21  22
ATOM     22  C   UNL     1      15.962  14.002  -2.974  1.00  0.00     0.000 C 
BRANCH  22  23
ATOM     23  C   UNL     1      14.477  14.398  -3.125  1.00  0.00     0.000 C 
BRANCH  23  24
ATOM     24  C   UNL     1      13.695  14.526  -1.801  1.00  0.00    -0.000 C 
BRANCH  24  25
ATOM     25  C   UNL     1      13.491  15.964  -1.285  1.00  0.00    -0.000 C 
BRANCH  25  26
ATOM     26  C   UNL     1      12.711  16.029   0.036  1.00  0.00    -0.000 C 
BRANCH  26  27
ATOM     27  C   UNL     1      12.083  17.416   0.236  1.00  0.00    -0.000 C 
BRANCH  27  28
ATOM     28  C   UNL     1      10.872  17.609  -0.690  1.00  0.00    -0.000 C 
BRANCH  28  29
ATOM     29  C   UNL     1       9.534  17.613   0.070  1.00  0.00    -0.000 C 
BRANCH  29  30
ATOM     30  C   UNL     1       8.279  17.480  -0.816  1.00  0.00    -0.000 C 
BRANCH  30  31
ATOM     31  C   UNL     1       7.043  16.896  -0.109  1.00  0.00    -0.003 C 
ATOM     32  C   UNL     1       6.886  15.392  -0.332  1.00  0.00     0.004 C 
ENDBRANCH  30  31
ENDBRANCH  29  30
ENDBRANCH  28  29
ENDBRANCH  27  28
ENDBRANCH  26  27
ENDBRANCH  25  26
ENDBRANCH  24  25
ENDBRANCH  23  24
ENDBRANCH  22  23
ENDBRANCH  21  22
ENDBRANCH  20  21
ENDBRANCH  19  20
ENDBRANCH  18  19
ENDBRANCH   1  18
TORSDOF 28
ENDMDL
MODEL 7
REMARK VINA RESULT:    -2.628      2.034      3.513
REMARK INTER + INTRA:          -8.960
REMARK INTER:                  -7.301
REMARK INTRA:                  -1.660
REMARK UNBOUND:                -2.031
REMARK SMILES CCCCCCCCCCCCCCCCCCCCCCCCCCCCCC(=O)[O-]
REMARK SMILES IDX 16 1 17 2 18 3 19 4 20 5 21 6 22 7 23 8 24 9 25 10 26 11
REMARK SMILES IDX 27 12 28 13 29 14 30 15 31 16 32 17 15 18 14 19 13 20 12 21
REMARK SMILES IDX 11 22 10 23 9 24 8 25 7 26 6 27 5 28 4 29 3 30 2 31 1 32
REMARK H PARENT
REMARK Flexibility Score: inf
ROOT
ATOM      1  C   UNL     1      10.703  11.163  -1.001  1.00  0.00     0.000 C 
ENDROOT
BRANCH   1   2
ATOM      2  C   UNL     1       9.602  11.746  -1.902  1.00  0.00     0.000 C 
BRANCH   2   3
ATOM      3  C   UNL     1       9.311  10.864  -3.125  1.00  0.00     0.000 C 
BRANCH   3   4
ATOM      4  C   UNL     1       8.072   9.993  -2.890  1.00  0.00     0.000 C 
BRANCH   4   5
ATOM      5  C   UNL     1       8.180   9.225  -1.567  1.00  0.00     0.000 C 
BRANCH   5   6
ATOM      6  C   UNL     1       8.128   7.709  -1.806  1.00  0.00     0.000 C 
BRANCH   6   7
ATOM      7  C   UNL     1       8.824   7.290  -3.112  1.00  0.00     0.000 C 
BRANCH   7   8
ATOM      8  C   UNL     1      10.353   7.390  -3.026  1.00  0.00     0.000 C 
BRANCH   8   9
ATOM      9  C   UNL     1      10.983   6.008  -2.808  1.00  0.00     0.000 C 
BRANCH   9  10
ATOM     10  C   UNL     1      11.860   5.994  -1.551  1.00  0.00     0.000 C 
BRANCH  10  11
ATOM     11  C   UNL     1      12.451   4.598  -1.309  1.00  0.00     0.000 C 
BRANCH  11  12
ATOM     12  C   UNL     1      12.418   3.707  -2.562  1.00  0.00     0.000 C 
BRANCH  12  13
ATOM     13  C   UNL     1      13.646   2.794  -2.752  1.00  0.00     0.006 C 
BRANCH  13  14
ATOM     14  C   UNL     1      14.845   3.160  -1.858  1.00  0.00     0.053 C 
BRANCH  14  15
ATOM     15  C   UNL     1      15.835   2.040  -1.741  1.00  0.00     0.041 C 
ATOM     16  O   UNL     1      15.437   0.854  -1.607  1.00  0.00    -0.550 OA
ATOM     17  O   UNL     1      17.197   2.302  -1.821  1.00  0.00    -0.550 OA
ENDBRANCH  14  15
ENDBRANCH  13  14
ENDBRANCH  12  13
ENDBRANCH  11  12
ENDBRANCH  10  11
ENDBRANCH   9  10
ENDBRANCH   8   9
ENDBRANCH   7   8
ENDBRANCH   6   7
ENDBRANCH   5   6
ENDBRANCH   4   5
ENDBRANCH   3   4
ENDBRANCH   2   3
ENDBRANCH   1   2
BRANCH   1  18
ATOM     18  C   UNL     1      12.119  11.482  -1.515  1.00  0.00     0.000 C 
BRANCH  18  19
ATOM     19  C   UNL     1      12.450  10.748  -2.824  1.00  0.00     0.000 C 
BRANCH  19  20
ATOM     20  C   UNL     1      13.884  10.189  -2.843  1.00  0.00     0.000 C 
BRANCH  20  21
ATOM     21  C   UNL     1      14.942  11.310  -2.876  1.00  0.00     0.000 C 
BRANCH  21  22
ATOM     22  C   UNL     1      14.358  12.714  -3.124  1.00  0.00     0.000 C 
BRANCH  22  23
ATOM     23  C   UNL     1      15.073  13.846  -2.355  1.00  0.00     0.000 C 
BRANCH  23  24
ATOM     24  C   UNL     1      14.217  14.553  -1.284  1.00  0.00    -0.000 C 
BRANCH  24  25
ATOM     25  C   UNL     1      14.318  16.091  -1.261  1.00  0.00    -0.000 C 
BRANCH  25  26
ATOM     26  C   UNL     1      12.953  16.786  -1.146  1.00  0.00    -0.000 C 
BRANCH  26  27
ATOM     27  C   UNL     1      12.254  16.853  -2.510  1.00  0.00    -0.000 C 
BRANCH  27  28
ATOM     28  C   UNL     1      11.078  15.867  -2.574  1.00  0.00    -0.000 C 
BRANCH  28  29
ATOM     29  C   UNL     1       9.754  16.482  -2.087  1.00  0.00    -0.000 C 
BRANCH  29  30
ATOM     30  C   UNL     1       9.152  15.827  -0.828  1.00  0.00    -0.000 C 
BRANCH  30  31
ATOM     31  C   UNL     1       7.615  15.744  -0.809  1.00  0.00    -0.003 C 
ATOM     32  C   UNL     1       7.098  14.328  -0.561  1.00  0.00     0.004 C 
ENDBRANCH  30  31
ENDBRANCH  29  30
ENDBRANCH  28  29
ENDBRANCH  27  28
ENDBRANCH  26  27
ENDBRANCH  25  26
ENDBRANCH  24  25
ENDBRANCH  23  24
ENDBRANCH  22  23
ENDBRANCH  21  22
ENDBRANCH  20  21
ENDBRANCH  19  20
ENDBRANCH  18  19
ENDBRANCH   1  18
TORSDOF 28
ENDMDL
