MODEL 1
REMARK VINA RESULT:    -3.406      0.000      0.000
REMARK INTER + INTRA:          -4.209
REMARK INTER:                  -4.003
REMARK INTRA:                  -0.205
REMARK UNBOUND:                -0.205
REMARK SMILES [NH3+][C@@H](CO)C(=O)[O-]
REMARK SMILES IDX 3 1 2 2 1 3 5 7 6 8 7 9 4 10
REMARK H PARENT 1 4 1 5 1 6 4 11
REMARK Flexibility Score: inf
ROOT
ATOM      1  C   UNL     1     -13.346   3.247   2.911  1.00  0.00     0.227 C 
ENDROOT
BRANCH   1   2
ATOM      2  C   UNL     1     -13.431   2.377   4.179  1.00  0.00     0.253 C 
BRANCH   2   3
ATOM      3  N   UNL     1     -14.514   1.392   4.073  1.00  0.00    -0.348 N 
ATOM      4  H   UNL     1     -14.300   0.540   4.642  1.00  0.00     0.345 HD
ATOM      5  H   UNL     1     -14.641   1.112   3.072  1.00  0.00     0.345 HD
ATOM      6  H   UNL     1     -15.412   1.811   4.408  1.00  0.00     0.345 HD
ENDBRANCH   2   3
BRANCH   2   7
ATOM      7  C   UNL     1     -13.629   3.248   5.391  1.00  0.00     0.102 C 
ATOM      8  O   UNL     1     -14.481   4.176   5.379  1.00  0.00    -0.544 OA
ATOM      9  O   UNL     1     -12.858   3.042   6.527  1.00  0.00    -0.544 OA
ENDBRANCH   2   7
ENDBRANCH   1   2
BRANCH   1  10
ATOM     10  O   UNL     1     -14.586   3.838   2.630  1.00  0.00    -0.390 OA
ATOM     11  H   UNL     1     -15.188   3.109   2.328  1.00  0.00     0.210 HD
ENDBRANCH   1  10
TORSDOF 4
ENDMDL
MODEL 2
REMARK VINA RESULT:    -3.300      1.470      2.000
REMARK INTER + INTRA:          -4.084
REMARK INTER:                  -3.843
REMARK INTRA:                  -0.242
REMARK UNBOUND:                -0.205
REMARK SMILES [NH3+][C@@H](CO)C(=O)[O-]
REMARK SMILES IDX 3 1 2 2 1 3 5 7 6 8 7 9 4 10
REMARK H PARENT 1 4 1 5 1 6 4 11
REMARK Flexibility Score: inf
ROOT
ATOM      1  C   UNL     1     -14.142   4.096   4.682  1.00  0.00     0.227 C 
ENDROOT
BRANCH   1   2
ATOM      2  C   UNL     1     -13.485   2.704   4.714  1.00  0.00     0.253 C 
BRANCH   2   3
ATOM      3  N   UNL     1     -14.315   1.712   4.018  1.00  0.00    -0.348 N 
ATOM      4  H   UNL     1     -13.734   0.906   3.689  1.00  0.00     0.345 HD
ATOM      5  H   UNL     1     -14.781   2.157   3.193  1.00  0.00     0.345 HD
ATOM      6  H   UNL     1     -15.061   1.358   4.660  1.00  0.00     0.345 HD
ENDBRANCH   2   3
BRANCH   2   7
ATOM      7  C   UNL     1     -13.242   2.279   6.137  1.00  0.00     0.102 C 
ATOM      8  O   UNL     1     -12.637   3.042   6.937  1.00  0.00    -0.544 OA
ATOM      9  O   UNL     1     -13.670   1.032   6.573  1.00  0.00    -0.544 OA
ENDBRANCH   2   7
ENDBRANCH   1   2
BRANCH   1  10
ATOM     10  O   UNL     1     -15.163   4.186   5.640  1.00  0.00    -0.390 OA
ATOM     11  H   UNL     1     -14.930   4.944   6.235  1.00  0.00     0.210 HD
ENDBRANCH   1  10
TORSDOF 4
ENDMDL
MODEL 3
REMARK VINA RESULT:    -3.258     12.334     13.071
REMARK INTER + INTRA:          -4.035
REMARK INTER:                  -3.798
REMARK INTRA:                  -0.237
REMARK UNBOUND:                -0.205
REMARK SMILES [NH3+][C@@H](CO)C(=O)[O-]
REMARK SMILES IDX 3 1 2 2 1 3 5 7 6 8 7 9 4 10
REMARK H PARENT 1 4 1 5 1 6 4 11
REMARK Flexibility Score: inf
ROOT
ATOM      1  C   UNL     1     -15.553  12.220  -4.893  1.00  0.00     0.227 C 
ENDROOT
BRANCH   1   2
ATOM      2  C   UNL     1     -14.154  11.982  -4.295  1.00  0.00     0.253 C 
BRANCH   2   3
ATOM      3  N   UNL     1     -14.184  10.920  -3.283  1.00  0.00    -0.348 N 
ATOM      4  H   UNL     1     -13.439  11.069  -2.564  1.00  0.00     0.345 HD
ATOM      5  H   UNL     1     -14.037   9.990  -3.741  1.00  0.00     0.345 HD
ATOM      6  H   UNL     1     -15.118  10.904  -2.811  1.00  0.00     0.345 HD
ENDBRANCH   2   3
BRANCH   2   7
ATOM      7  C   UNL     1     -13.622  13.259  -3.702  1.00  0.00     0.102 C 
ATOM      8  O   UNL     1     -13.632  13.437  -2.454  1.00  0.00    -0.544 OA
ATOM      9  O   UNL     1     -13.130  14.259  -4.531  1.00  0.00    -0.544 OA
ENDBRANCH   2   7
ENDBRANCH   1   2
BRANCH   1  10
ATOM     10  O   UNL     1     -15.507  13.207  -5.888  1.00  0.00    -0.390 OA
ATOM     11  H   UNL     1     -14.843  13.882  -5.590  1.00  0.00     0.210 HD
ENDBRANCH   1  10
TORSDOF 4
ENDMDL
MODEL 4
REMARK VINA RESULT:    -3.241     12.373     13.482
REMARK INTER + INTRA:          -4.015
REMARK INTER:                  -3.792
REMARK INTRA:                  -0.223
REMARK UNBOUND:                -0.205
REMARK SMILES [NH3+][C@@H](CO)C(=O)[O-]
REMARK SMILES IDX 3 1 2 2 1 3 5 7 6 8 7 9 4 10
REMARK H PARENT 1 4 1 5 1 6 4 11
REMARK Flexibility Score: inf
ROOT
ATOM      1  C   UNL     1     -17.713  -0.132  -6.371  1.00  0.00     0.227 C 
ENDROOT
BRANCH   1   2
ATOM      2  C   UNL     1     -17.232  -1.035  -7.522  1.00  0.00     0.253 C 
BRANCH   2   3
ATOM      3  N   UNL     1     -15.993  -1.736  -7.161  1.00  0.00    -0.348 N 
ATOM      4  H   UNL     1     -15.355  -1.812  -7.987  1.00  0.00     0.345 HD
ATOM      5  H   UNL     1     -16.219  -2.697  -6.813  1.00  0.00     0.345 HD
ATOM      6  H   UNL     1     -15.502  -1.221  -6.395  1.00  0.00     0.345 HD
ENDBRANCH   2   3
BRANCH   2   7
ATOM      7  C   UNL     1     -17.029  -0.217  -8.769  1.00  0.00     0.102 C 
ATOM      8  O   UNL     1     -17.988   0.425  -9.276  1.00  0.00    -0.544 OA
ATOM      9  O   UNL     1     -15.782  -0.181  -9.380  1.00  0.00    -0.544 OA
ENDBRANCH   2   7
ENDBRANCH   1   2
BRANCH   1  10
ATOM     10  O   UNL     1     -19.018   0.322  -6.608  1.00  0.00    -0.390 OA
ATOM     11  H   UNL     1     -19.061   1.255  -6.275  1.00  0.00     0.210 HD
ENDBRANCH   1  10
TORSDOF 4
ENDMDL
MODEL 5
REMARK VINA RESULT:    -3.238     12.867     13.337
REMARK INTER + INTRA:          -4.011
REMARK INTER:                  -3.677
REMARK INTRA:                  -0.334
REMARK UNBOUND:                -0.205
REMARK SMILES [NH3+][C@@H](CO)C(=O)[O-]
REMARK SMILES IDX 3 1 2 2 1 3 5 7 6 8 7 9 4 10
REMARK H PARENT 1 4 1 5 1 6 4 11
REMARK Flexibility Score: inf
ROOT
ATOM      1  C   UNL     1     -15.981  -0.049  -8.982  1.00  0.00     0.227 C 
ENDROOT
BRANCH   1   2
ATOM      2  C   UNL     1     -17.491  -0.217  -8.730  1.00  0.00     0.253 C 
BRANCH   2   3
ATOM      3  N   UNL     1     -18.249   0.910  -9.287  1.00  0.00    -0.348 N 
ATOM      4  H   UNL     1     -17.681   1.425  -9.999  1.00  0.00     0.345 HD
ATOM      5  H   UNL     1     -18.517   1.570  -8.520  1.00  0.00     0.345 HD
ATOM      6  H   UNL     1     -19.127   0.562  -9.736  1.00  0.00     0.345 HD
ENDBRANCH   2   3
BRANCH   2   7
ATOM      7  C   UNL     1     -17.756  -0.351  -7.254  1.00  0.00     0.102 C 
ATOM      8  O   UNL     1     -17.479  -1.421  -6.649  1.00  0.00    -0.544 OA
ATOM      9  O   UNL     1     -18.326   0.704  -6.553  1.00  0.00    -0.544 OA
ENDBRANCH   2   7
ENDBRANCH   1   2
BRANCH   1  10
ATOM     10  O   UNL     1     -15.303   0.211  -7.782  1.00  0.00    -0.390 OA
ATOM     11  H   UNL     1     -14.972   1.145  -7.838  1.00  0.00     0.210 HD
ENDBRANCH   1  10
TORSDOF 4
ENDMDL
MODEL 6
REMARK VINA RESULT:    -3.224     12.843     13.268
REMARK INTER + INTRA:          -3.995
REMARK INTER:                  -3.633
REMARK INTRA:                  -0.362
REMARK UNBOUND:                -0.205
REMARK SMILES [NH3+][C@@H](CO)C(=O)[O-]
REMARK SMILES IDX 3 1 2 2 1 3 5 7 6 8 7 9 4 10
REMARK H PARENT 1 4 1 5 1 6 4 11
REMARK Flexibility Score: inf
ROOT
ATOM      1  C   UNL     1     -13.835  12.941  -3.546  1.00  0.00     0.227 C 
ENDROOT
BRANCH   1   2
ATOM      2  C   UNL     1     -14.783  11.820  -4.011  1.00  0.00     0.253 C 
BRANCH   2   3
ATOM      3  N   UNL     1     -14.261  10.499  -3.642  1.00  0.00    -0.348 N 
ATOM      4  H   UNL     1     -15.027   9.787  -3.626  1.00  0.00     0.345 HD
ATOM      5  H   UNL     1     -13.817  10.546  -2.695  1.00  0.00     0.345 HD
ATOM      6  H   UNL     1     -13.530  10.200  -4.328  1.00  0.00     0.345 HD
ENDBRANCH   2   3
BRANCH   2   7
ATOM      7  C   UNL     1     -14.992  11.905  -5.500  1.00  0.00     0.102 C 
ATOM      8  O   UNL     1     -14.091  11.525  -6.295  1.00  0.00    -0.544 OA
ATOM      9  O   UNL     1     -16.178  12.422  -6.006  1.00  0.00    -0.544 OA
ENDBRANCH   2   7
ENDBRANCH   1   2
BRANCH   1  10
ATOM     10  O   UNL     1     -13.691  13.916  -4.544  1.00  0.00    -0.390 OA
ATOM     11  H   UNL     1     -13.628  14.791  -4.081  1.00  0.00     0.210 HD
ENDBRANCH   1  10
TORSDOF 4
ENDMDL
MODEL 7
REMARK VINA RESULT:    -3.175      1.994      2.151
REMARK INTER + INTRA:          -3.938
REMARK INTER:                  -3.560
REMARK INTRA:                  -0.377
REMARK UNBOUND:                -0.205
REMARK SMILES [NH3+][C@@H](CO)C(=O)[O-]
REMARK SMILES IDX 3 1 2 2 1 3 5 7 6 8 7 9 4 10
REMARK H PARENT 1 4 1 5 1 6 4 11
REMARK Flexibility Score: inf
ROOT
ATOM      1  C   UNL     1     -12.566   2.993   3.203  1.00  0.00     0.227 C 
ENDROOT
BRANCH   1   2
ATOM      2  C   UNL     1     -13.879   2.987   4.008  1.00  0.00     0.253 C 
BRANCH   2   3
ATOM      3  N   UNL     1     -14.467   4.331   4.070  1.00  0.00    -0.348 N 
ATOM      4  H   UNL     1     -15.338   4.383   3.492  1.00  0.00     0.345 HD
ATOM      5  H   UNL     1     -13.778   5.035   3.716  1.00  0.00     0.345 HD
ATOM      6  H   UNL     1     -14.698   4.573   5.061  1.00  0.00     0.345 HD
ENDBRANCH   2   3
BRANCH   2   7
ATOM      7  C   UNL     1     -13.632   2.456   5.394  1.00  0.00     0.102 C 
ATOM      8  O   UNL     1     -14.021   1.302   5.716  1.00  0.00    -0.544 OA
ATOM      9  O   UNL     1     -12.986   3.248   6.336  1.00  0.00    -0.544 OA
ENDBRANCH   2   7
ENDBRANCH   1   2
BRANCH   1  10
ATOM     10  O   UNL     1     -11.583   2.230   3.850  1.00  0.00    -0.390 OA
ATOM     11  H   UNL     1     -12.042   1.727   4.572  1.00  0.00     0.210 HD
ENDBRANCH   1  10
TORSDOF 4
ENDMDL
MODEL 8
REMARK VINA RESULT:    -3.160     11.937     12.939
REMARK INTER + INTRA:          -3.919
REMARK INTER:                  -3.521
REMARK INTRA:                  -0.398
REMARK UNBOUND:                -0.205
REMARK SMILES [NH3+][C@@H](CO)C(=O)[O-]
REMARK SMILES IDX 3 1 2 2 1 3 5 7 6 8 7 9 4 10
REMARK H PARENT 1 4 1 5 1 6 4 11
REMARK Flexibility Score: inf
ROOT
ATOM      1  C   UNL     1     -17.537  -0.150  -8.840  1.00  0.00     0.227 C 
ENDROOT
BRANCH   1   2
ATOM      2  C   UNL     1     -17.418  -0.836  -7.467  1.00  0.00     0.253 C 
BRANCH   2   3
ATOM      3  N   UNL     1     -18.236  -0.149  -6.459  1.00  0.00    -0.348 N 
ATOM      4  H   UNL     1     -19.037  -0.750  -6.158  1.00  0.00     0.345 HD
ATOM      5  H   UNL     1     -18.608   0.745  -6.856  1.00  0.00     0.345 HD
ATOM      6  H   UNL     1     -17.650   0.086  -5.625  1.00  0.00     0.345 HD
ENDBRANCH   2   3
BRANCH   2   7
ATOM      7  C   UNL     1     -15.977  -0.878  -7.034  1.00  0.00     0.102 C 
ATOM      8  O   UNL     1     -15.520  -0.008  -6.246  1.00  0.00    -0.544 OA
ATOM      9  O   UNL     1     -15.136  -1.873  -7.517  1.00  0.00    -0.544 OA
ENDBRANCH   2   7
ENDBRANCH   1   2
BRANCH   1  10
ATOM     10  O   UNL     1     -16.274   0.236  -9.313  1.00  0.00    -0.390 OA
ATOM     11  H   UNL     1     -16.223  -0.057 -10.260  1.00  0.00     0.210 HD
ENDBRANCH   1  10
TORSDOF 4
ENDMDL
MODEL 9
REMARK VINA RESULT:    -3.149      4.074      4.589
REMARK INTER + INTRA:          -3.907
REMARK INTER:                  -3.693
REMARK INTRA:                  -0.214
REMARK UNBOUND:                -0.205
REMARK SMILES [NH3+][C@@H](CO)C(=O)[O-]
REMARK SMILES IDX 3 1 2 2 1 3 5 7 6 8 7 9 4 10
REMARK H PARENT 1 4 1 5 1 6 4 11
REMARK Flexibility Score: inf
ROOT
ATOM      1  C   UNL     1     -14.876   2.061   1.346  1.00  0.00     0.227 C 
ENDROOT
BRANCH   1   2
ATOM      2  C   UNL     1     -14.296   3.480   1.495  1.00  0.00     0.253 C 
BRANCH   2   3
ATOM      3  N   UNL     1     -14.626   4.052   2.806  1.00  0.00    -0.348 N 
ATOM      4  H   UNL     1     -15.571   3.734   3.124  1.00  0.00     0.345 HD
ATOM      5  H   UNL     1     -14.618   5.097   2.749  1.00  0.00     0.345 HD
ATOM      6  H   UNL     1     -13.911   3.761   3.512  1.00  0.00     0.345 HD
ENDBRANCH   2   3
BRANCH   2   7
ATOM      7  C   UNL     1     -14.810   4.366   0.391  1.00  0.00     0.102 C 
ATOM      8  O   UNL     1     -15.652   5.270   0.636  1.00  0.00    -0.544 OA
ATOM      9  O   UNL     1     -14.367   4.177  -0.913  1.00  0.00    -0.544 OA
ENDBRANCH   2   7
ENDBRANCH   1   2
BRANCH   1  10
ATOM     10  O   UNL     1     -14.826   1.642   0.009  1.00  0.00    -0.390 OA
ATOM     11  H   UNL     1     -14.307   0.796  -0.005  1.00  0.00     0.210 HD
ENDBRANCH   1  10
TORSDOF 4
ENDMDL
