MODEL 1
REMARK VINA RESULT:    -3.465      0.000      0.000
REMARK INTER + INTRA:          -3.512
REMARK INTER:                  -4.275
REMARK INTRA:                   0.764
REMARK UNBOUND:                 0.764
REMARK SMILES CC1=CC=CC(C)(C)CC1=O
REMARK SMILES IDX 1 1 2 2 3 3 10 4 11 5 9 6 4 8 5 9 6 10 7 11 8 12
REMARK H PARENT
REMARK Flexibility Score: 80.00
ROOT
ATOM      1  C   UNL     1      46.479  58.319  27.872  1.00  0.00     0.048 C 
ATOM      2  C   UNL     1      45.144  57.670  27.594  1.00  0.00    -0.008 C 
ATOM      3  C   UNL     1      44.443  57.204  28.650  1.00  0.00     0.007 C 
ENDROOT
BRANCH   2   4
ATOM      4  C   UNL     1      44.746  57.528  26.171  1.00  0.00     0.159 C 
ATOM      5  O   UNL     1      45.596  57.776  25.273  1.00  0.00    -0.295 OA
BRANCH   4   6
ATOM      6  C   UNL     1      43.373  57.115  25.735  1.00  0.00     0.091 CG0
ATOM      7  G   UNL     1      42.946  55.738  26.290  1.00  0.00     0.000 G0
ENDBRANCH   4   6
ENDBRANCH   2   4
BRANCH   3   8
ATOM      8  C   UNL     1      43.135  56.508  28.691  1.00  0.00    -0.003 C 
ATOM      9  C   UNL     1      42.488  55.869  27.708  1.00  0.00    -0.020 C 
BRANCH   9  10
ATOM     10  C   UNL     1      42.944  55.731  26.275  1.00  0.00    -0.010 CG0
ATOM     11  C   UNL     1      41.748  55.232  25.432  1.00  0.00     0.016 C 
ATOM     12  C   UNL     1      44.069  54.675  26.178  1.00  0.00     0.016 C 
ATOM     13  G   UNL     1      43.373  57.112  25.730  1.00  0.00     0.000 G0
ENDBRANCH   9  10
ENDBRANCH   3   8
TORSDOF 0
ENDMDL
MODEL 2
REMARK VINA RESULT:    -3.431      1.684      3.490
REMARK INTER + INTRA:          -3.470
REMARK INTER:                  -4.224
REMARK INTRA:                   0.754
REMARK UNBOUND:                 0.764
REMARK SMILES CC1=CC=CC(C)(C)CC1=O
REMARK SMILES IDX 1 1 2 2 3 3 10 4 11 5 9 6 4 8 5 9 6 10 7 11 8 12
REMARK H PARENT
REMARK Flexibility Score: 80.00
ROOT
ATOM      1  C   UNL     1      41.656  54.756  27.377  1.00  0.00     0.048 C 
ATOM      2  C   UNL     1      42.956  55.508  27.541  1.00  0.00    -0.008 C 
ATOM      3  C   UNL     1      43.070  56.336  28.601  1.00  0.00     0.007 C 
ENDROOT
BRANCH   2   4
ATOM      4  C   UNL     1      43.976  55.332  26.477  1.00  0.00     0.159 C 
ATOM      5  O   UNL     1      43.650  54.734  25.414  1.00  0.00    -0.295 OA
BRANCH   4   6
ATOM      6  C   UNL     1      45.389  55.817  26.599  1.00  0.00     0.091 CG0
ATOM      7  G   UNL     1      45.492  57.342  26.821  1.00  0.00     0.000 G0
ENDBRANCH   4   6
ENDBRANCH   2   4
BRANCH   3   8
ATOM      8  C   UNL     1      44.195  57.213  29.006  1.00  0.00    -0.003 C 
ATOM      9  C   UNL     1      45.223  57.659  28.274  1.00  0.00    -0.020 C 
BRANCH   9  10
ATOM     10  C   UNL     1      45.499  57.338  26.824  1.00  0.00    -0.010 CG0
ATOM     11  C   UNL     1      46.951  57.758  26.503  1.00  0.00     0.016 C 
ATOM     12  C   UNL     1      44.553  58.155  25.913  1.00  0.00     0.016 C 
ATOM     13  G   UNL     1      45.378  55.815  26.596  1.00  0.00     0.000 G0
ENDBRANCH   9  10
ENDBRANCH   3   8
TORSDOF 0
ENDMDL
MODEL 3
REMARK VINA RESULT:    -3.358      2.163      3.963
REMARK INTER + INTRA:          -3.379
REMARK INTER:                  -4.136
REMARK INTRA:                   0.756
REMARK UNBOUND:                 0.764
REMARK SMILES CC1=CC=CC(C)(C)CC1=O
REMARK SMILES IDX 1 1 2 2 3 3 10 4 11 5 9 6 4 8 5 9 6 10 7 11 8 12
REMARK H PARENT
REMARK Flexibility Score: 80.00
ROOT
ATOM      1  C   UNL     1      44.197  57.338  28.971  1.00  0.00     0.048 C 
ATOM      2  C   UNL     1      45.184  57.604  27.859  1.00  0.00    -0.008 C 
ATOM      3  C   UNL     1      46.344  58.214  28.186  1.00  0.00     0.007 C 
ENDROOT
BRANCH   2   4
ATOM      4  C   UNL     1      44.764  57.243  26.482  1.00  0.00     0.159 C 
ATOM      5  O   UNL     1      43.560  56.929  26.276  1.00  0.00    -0.295 OA
BRANCH   4   6
ATOM      6  C   UNL     1      45.702  57.215  25.313  1.00  0.00     0.091 CG0
ATOM      7  G   UNL     1      46.370  58.581  25.037  1.00  0.00     0.000 G0
ENDBRANCH   4   6
ENDBRANCH   2   4
BRANCH   3   8
ATOM      8  C   UNL     1      47.478  58.624  27.324  1.00  0.00    -0.003 C 
ATOM      9  C   UNL     1      47.511  58.797  25.997  1.00  0.00    -0.020 C 
BRANCH   9  10
ATOM     10  C   UNL     1      46.366  58.579  25.035  1.00  0.00    -0.010 CG0
ATOM     11  C   UNL     1      46.941  58.537  23.601  1.00  0.00     0.016 C 
ATOM     12  C   UNL     1      45.374  59.761  25.118  1.00  0.00     0.016 C 
ATOM     13  G   UNL     1      45.697  57.216  25.324  1.00  0.00     0.000 G0
ENDBRANCH   9  10
ENDBRANCH   3   8
TORSDOF 0
ENDMDL
MODEL 4
REMARK VINA RESULT:    -3.257      0.933      1.409
REMARK INTER + INTRA:          -3.255
REMARK INTER:                  -4.293
REMARK INTRA:                   1.037
REMARK UNBOUND:                 0.764
REMARK SMILES CC1=CC=CC(C)(C)CC1=O
REMARK SMILES IDX 1 1 2 2 3 3 10 4 11 5 9 6 4 8 5 9 6 10 7 11 8 12
REMARK H PARENT
REMARK Flexibility Score: 80.00
ROOT
ATOM      1  C   UNL     1      46.750  58.270  27.865  1.00  0.00     0.048 C 
ATOM      2  C   UNL     1      45.548  57.366  27.724  1.00  0.00    -0.008 C 
ATOM      3  C   UNL     1      44.551  57.506  28.624  1.00  0.00     0.007 C 
ENDROOT
BRANCH   2   4
ATOM      4  C   UNL     1      45.595  56.342  26.650  1.00  0.00     0.159 C 
ATOM      5  O   UNL     1      46.458  56.457  25.737  1.00  0.00    -0.295 OA
BRANCH   4   6
ATOM      6  C   UNL     1      44.659  55.174  26.581  1.00  0.00     0.091 CG0
ATOM      7  G   UNL     1      43.173  55.589  26.496  1.00  0.00     0.000 G0
ENDBRANCH   4   6
ENDBRANCH   2   4
BRANCH   3   8
ATOM      8  C   UNL     1      43.279  56.758  28.757  1.00  0.00    -0.003 C 
ATOM      9  C   UNL     1      42.688  55.934  27.883  1.00  0.00    -0.020 C 
BRANCH   9  10
ATOM     10  C   UNL     1      43.186  55.586  26.500  1.00  0.00    -0.010 CG0
ATOM     11  C   UNL     1      43.066  56.845  25.612  1.00  0.00     0.016 C 
ATOM     12  C   UNL     1      42.300  54.480  25.882  1.00  0.00     0.016 C 
ATOM     13  G   UNL     1      44.677  55.187  26.570  1.00  0.00     0.000 G0
ENDBRANCH   9  10
ENDBRANCH   3   8
TORSDOF 0
ENDMDL
MODEL 5
REMARK VINA RESULT:    -3.216      2.024      3.631
REMARK INTER + INTRA:          -3.205
REMARK INTER:                  -3.963
REMARK INTRA:                   0.759
REMARK UNBOUND:                 0.764
REMARK SMILES CC1=CC=CC(C)(C)CC1=O
REMARK SMILES IDX 1 1 2 2 3 3 10 4 11 5 9 6 4 8 5 9 6 10 7 11 8 12
REMARK H PARENT
REMARK Flexibility Score: 80.00
ROOT
ATOM      1  C   UNL     1      42.636  55.733  28.251  1.00  0.00     0.048 C 
ATOM      2  C   UNL     1      43.951  56.342  27.825  1.00  0.00    -0.008 C 
ATOM      3  C   UNL     1      44.343  57.476  28.445  1.00  0.00     0.007 C 
ENDROOT
BRANCH   2   4
ATOM      4  C   UNL     1      44.668  55.685  26.705  1.00  0.00     0.159 C 
ATOM      5  O   UNL     1      44.076  54.788  26.045  1.00  0.00    -0.295 OA
BRANCH   4   6
ATOM      6  C   UNL     1      46.076  56.020  26.316  1.00  0.00     0.091 CG0
ATOM      7  G   UNL     1      46.261  57.501  25.915  1.00  0.00     0.000 G0
ENDBRANCH   4   6
ENDBRANCH   2   4
BRANCH   3   8
ATOM      8  C   UNL     1      45.552  58.308  28.229  1.00  0.00    -0.003 C 
ATOM      9  C   UNL     1      46.374  58.345  27.173  1.00  0.00    -0.020 C 
BRANCH   9  10
ATOM     10  C   UNL     1      46.271  57.499  25.926  1.00  0.00    -0.010 CG0
ATOM     11  C   UNL     1      47.604  57.615  25.152  1.00  0.00     0.016 C 
ATOM     12  C   UNL     1      45.143  58.035  25.015  1.00  0.00     0.016 C 
ATOM     13  G   UNL     1      46.070  56.018  26.317  1.00  0.00     0.000 G0
ENDBRANCH   9  10
ENDBRANCH   3   8
TORSDOF 0
ENDMDL
MODEL 6
REMARK VINA RESULT:    -3.215      3.108      4.695
REMARK INTER + INTRA:          -3.203
REMARK INTER:                  -3.947
REMARK INTRA:                   0.744
REMARK UNBOUND:                 0.764
REMARK SMILES CC1=CC=CC(C)(C)CC1=O
REMARK SMILES IDX 1 1 2 2 3 3 10 4 11 5 9 6 4 8 5 9 6 10 7 11 8 12
REMARK H PARENT
REMARK Flexibility Score: 80.00
ROOT
ATOM      1  C   UNL     1      44.759  57.317  28.329  1.00  0.00     0.048 C 
ATOM      2  C   UNL     1      45.463  58.131  27.269  1.00  0.00    -0.008 C 
ATOM      3  C   UNL     1      44.717  58.988  26.540  1.00  0.00     0.007 C 
ENDROOT
BRANCH   2   4
ATOM      4  C   UNL     1      46.909  57.865  27.064  1.00  0.00     0.159 C 
ATOM      5  O   UNL     1      47.428  56.857  27.618  1.00  0.00    -0.295 OA
BRANCH   4   6
ATOM      6  C   UNL     1      47.801  58.742  26.239  1.00  0.00     0.091 CG0
ATOM      7  G   UNL     1      47.344  58.865  24.768  1.00  0.00     0.000 G0
ENDBRANCH   4   6
ENDBRANCH   2   4
BRANCH   3   8
ATOM      8  C   UNL     1      45.114  59.888  25.430  1.00  0.00    -0.003 C 
ATOM      9  C   UNL     1      46.211  59.850  24.664  1.00  0.00    -0.020 C 
BRANCH   9  10
ATOM     10  C   UNL     1      47.350  58.864  24.775  1.00  0.00    -0.010 CG0
ATOM     11  C   UNL     1      48.546  59.411  23.963  1.00  0.00     0.016 C 
ATOM     12  C   UNL     1      46.936  57.507  24.160  1.00  0.00     0.016 C 
ATOM     13  G   UNL     1      47.788  58.740  26.252  1.00  0.00     0.000 G0
ENDBRANCH   9  10
ENDBRANCH   3   8
TORSDOF 0
ENDMDL
MODEL 7
REMARK VINA RESULT:    -3.068      1.859      3.128
REMARK INTER + INTRA:          -3.022
REMARK INTER:                  -3.786
REMARK INTRA:                   0.764
REMARK UNBOUND:                 0.764
REMARK SMILES CC1=CC=CC(C)(C)CC1=O
REMARK SMILES IDX 1 1 2 2 3 3 10 4 11 5 9 6 4 8 5 9 6 10 7 11 8 12
REMARK H PARENT
REMARK Flexibility Score: 80.00
ROOT
ATOM      1  C   UNL     1      43.865  57.182  29.275  1.00  0.00     0.048 C 
ATOM      2  C   UNL     1      44.080  57.320  27.787  1.00  0.00    -0.008 C 
ATOM      3  C   UNL     1      43.286  56.595  26.970  1.00  0.00     0.007 C 
ENDROOT
BRANCH   2   4
ATOM      4  C   UNL     1      45.201  58.186  27.344  1.00  0.00     0.159 C 
ATOM      5  O   UNL     1      46.036  58.588  28.201  1.00  0.00    -0.295 OA
BRANCH   4   6
ATOM      6  C   UNL     1      45.394  58.627  25.925  1.00  0.00     0.091 CG0
ATOM      7  G   UNL     1      45.593  57.450  24.943  1.00  0.00     0.000 G0
ENDBRANCH   4   6
ENDBRANCH   2   4
BRANCH   3   8
ATOM      8  C   UNL     1      43.276  56.501  25.491  1.00  0.00    -0.003 C 
ATOM      9  C   UNL     1      44.233  56.838  24.617  1.00  0.00    -0.020 C 
BRANCH   9  10
ATOM     10  C   UNL     1      45.579  57.438  24.947  1.00  0.00    -0.010 CG0
ATOM     11  C   UNL     1      46.199  57.985  23.641  1.00  0.00     0.016 C 
ATOM     12  C   UNL     1      46.522  56.347  25.503  1.00  0.00     0.016 C 
ATOM     13  G   UNL     1      45.395  58.622  25.923  1.00  0.00     0.000 G0
ENDBRANCH   9  10
ENDBRANCH   3   8
TORSDOF 0
ENDMDL
MODEL 8
REMARK VINA RESULT:    -2.641      2.311      3.726
REMARK INTER + INTRA:          -2.495
REMARK INTER:                  -3.528
REMARK INTRA:                   1.033
REMARK UNBOUND:                 0.764
REMARK SMILES CC1=CC=CC(C)(C)CC1=O
REMARK SMILES IDX 1 1 2 2 3 3 10 4 11 5 9 6 4 8 5 9 6 10 7 11 8 12
REMARK H PARENT
REMARK Flexibility Score: 80.00
ROOT
ATOM      1  C   UNL     1      43.500  56.912  28.659  1.00  0.00     0.048 C 
ATOM      2  C   UNL     1      44.528  56.706  27.572  1.00  0.00    -0.008 C 
ATOM      3  C   UNL     1      44.349  55.665  26.731  1.00  0.00     0.007 C 
ENDROOT
BRANCH   2   4
ATOM      4  C   UNL     1      45.695  57.624  27.563  1.00  0.00     0.159 C 
ATOM      5  O   UNL     1      45.643  58.682  28.249  1.00  0.00    -0.295 OA
BRANCH   4   6
ATOM      6  C   UNL     1      46.939  57.370  26.768  1.00  0.00     0.091 CG0
ATOM      7  G   UNL     1      46.674  57.229  25.252  1.00  0.00     0.000 G0
ENDBRANCH   4   6
ENDBRANCH   2   4
BRANCH   3   8
ATOM      8  C   UNL     1      45.188  55.200  25.601  1.00  0.00    -0.003 C 
ATOM      9  C   UNL     1      46.186  55.835  24.973  1.00  0.00    -0.020 C 
BRANCH   9  10
ATOM     10  C   UNL     1      46.685  57.231  25.263  1.00  0.00    -0.010 CG0
ATOM     11  C   UNL     1      45.585  58.234  24.848  1.00  0.00     0.016 C 
ATOM     12  C   UNL     1      47.945  57.528  24.419  1.00  0.00     0.016 C 
ATOM     13  G   UNL     1      46.931  57.389  26.781  1.00  0.00     0.000 G0
ENDBRANCH   9  10
ENDBRANCH   3   8
TORSDOF 0
ENDMDL
MODEL 9
REMARK VINA RESULT:    -2.334      6.733      7.684
REMARK INTER + INTRA:          -2.116
REMARK INTER:                  -2.885
REMARK INTRA:                   0.769
REMARK UNBOUND:                 0.764
REMARK SMILES CC1=CC=CC(C)(C)CC1=O
REMARK SMILES IDX 1 1 2 2 3 3 10 4 11 5 9 6 4 8 5 9 6 10 7 11 8 12
REMARK H PARENT
REMARK Flexibility Score: 80.00
ROOT
ATOM      1  C   UNL     1      39.521  52.258  28.182  1.00  0.00     0.048 C 
ATOM      2  C   UNL     1      38.645  52.536  26.984  1.00  0.00    -0.008 C 
ATOM      3  C   UNL     1      39.015  51.999  25.801  1.00  0.00     0.007 C 
ENDROOT
BRANCH   2   4
ATOM      4  C   UNL     1      37.488  53.441  27.189  1.00  0.00     0.159 C 
ATOM      5  O   UNL     1      37.404  54.087  28.270  1.00  0.00    -0.295 OA
BRANCH   4   6
ATOM      6  C   UNL     1      36.394  53.625  26.182  1.00  0.00     0.091 CG0
ATOM      7  G   UNL     1      36.904  54.135  24.815  1.00  0.00     0.000 G0
ENDBRANCH   4   6
ENDBRANCH   2   4
BRANCH   3   8
ATOM      8  C   UNL     1      38.383  52.115  24.465  1.00  0.00    -0.003 C 
ATOM      9  C   UNL     1      37.503  53.022  24.023  1.00  0.00    -0.020 C 
BRANCH   9  10
ATOM     10  C   UNL     1      36.910  54.159  24.820  1.00  0.00    -0.010 CG0
ATOM     11  C   UNL     1      35.704  54.723  24.035  1.00  0.00     0.016 C 
ATOM     12  C   UNL     1      37.949  55.293  24.978  1.00  0.00     0.016 C 
ATOM     13  G   UNL     1      36.393  53.630  26.177  1.00  0.00     0.000 G0
ENDBRANCH   9  10
ENDBRANCH   3   8
TORSDOF 0
ENDMDL
