MODEL 1
REMARK VINA RESULT:    -5.800      0.000      0.000
REMARK INTER + INTRA:          -6.401
REMARK INTER:                  -6.139
REMARK INTRA:                  -0.261
REMARK UNBOUND:                -0.261
REMARK SMILES C=C1CC[C@@H](C(C)C)[C@H]2C=C(C)CC[C@H]12
REMARK SMILES IDX 12 1 11 2 10 3 9 4 15 5 14 6 13 7 2 8 1 9 3 10 4 11 5 12
REMARK SMILES IDX 6 13 7 14 8 15
REMARK H PARENT
REMARK Flexibility Score: inf
ROOT
ATOM      1  C   UNL     1      32.668  10.377  33.267  1.00  0.00     0.039 C 
ATOM      2  C   UNL     1      32.376  10.710  31.829  1.00  0.00    -0.077 C 
ATOM      3  C   UNL     1      31.602   9.870  31.105  1.00  0.00    -0.024 C 
ATOM      4  C   UNL     1      31.189  10.198  29.677  1.00  0.00     0.022 C 
ATOM      5  C   UNL     1      32.402  10.889  29.000  1.00  0.00     0.022 C 
ATOM      6  C   UNL     1      32.693  12.205  29.746  1.00  0.00     0.013 C 
ATOM      7  C   UNL     1      33.059  11.925  31.217  1.00  0.00     0.031 C 
ATOM      8  C   UNL     1      32.186  11.021  27.509  1.00  0.00    -0.074 C 
ATOM      9  C   UNL     1      32.341  12.190  26.867  1.00  0.00     0.008 C 
ATOM     10  C   UNL     1      31.847   9.765  26.739  1.00  0.00     0.031 C 
ATOM     11  C   UNL     1      31.533   8.588  27.682  1.00  0.00     0.009 C 
ATOM     12  C   UNL     1      30.555   9.034  28.803  1.00  0.00    -0.001 C 
ENDROOT
BRANCH  12  13
ATOM     13  C   UNL     1      29.923   7.843  29.604  1.00  0.00    -0.014 C 
ATOM     14  C   UNL     1      30.835   6.602  29.668  1.00  0.00     0.007 C 
ATOM     15  C   UNL     1      28.581   7.411  28.974  1.00  0.00     0.007 C 
ENDBRANCH  12  13
TORSDOF 1
ENDMDL
MODEL 2
REMARK VINA RESULT:    -5.631      1.411      4.545
REMARK INTER + INTRA:          -6.222
REMARK INTER:                  -5.942
REMARK INTRA:                  -0.279
REMARK UNBOUND:                -0.261
REMARK SMILES C=C1CC[C@@H](C(C)C)[C@H]2C=C(C)CC[C@H]12
REMARK SMILES IDX 12 1 11 2 10 3 9 4 15 5 14 6 13 7 2 8 1 9 3 10 4 11 5 12
REMARK SMILES IDX 6 13 7 14 8 15
REMARK H PARENT
REMARK Flexibility Score: inf
ROOT
ATOM      1  C   UNL     1      30.368   6.362  29.747  1.00  0.00     0.039 C 
ATOM      2  C   UNL     1      30.743   7.577  30.549  1.00  0.00    -0.077 C 
ATOM      3  C   UNL     1      30.727   8.790  29.950  1.00  0.00    -0.024 C 
ATOM      4  C   UNL     1      31.000  10.068  30.731  1.00  0.00     0.022 C 
ATOM      5  C   UNL     1      32.114   9.742  31.761  1.00  0.00     0.022 C 
ATOM      6  C   UNL     1      31.582   8.673  32.733  1.00  0.00     0.013 C 
ATOM      7  C   UNL     1      31.234   7.376  31.976  1.00  0.00     0.031 C 
ATOM      8  C   UNL     1      32.638  11.006  32.408  1.00  0.00    -0.074 C 
ATOM      9  C   UNL     1      32.728  11.140  33.740  1.00  0.00     0.008 C 
ATOM     10  C   UNL     1      33.125  12.107  31.493  1.00  0.00     0.031 C 
ATOM     11  C   UNL     1      32.759  11.829  30.023  1.00  0.00     0.009 C 
ATOM     12  C   UNL     1      31.272  11.397  29.905  1.00  0.00    -0.001 C 
ENDROOT
BRANCH  12  13
ATOM     13  C   UNL     1      30.721  11.415  28.436  1.00  0.00    -0.014 C 
ATOM     14  C   UNL     1      31.834  11.468  27.371  1.00  0.00     0.007 C 
ATOM     15  C   UNL     1      29.796  12.630  28.213  1.00  0.00     0.007 C 
ENDBRANCH  12  13
TORSDOF 1
ENDMDL
MODEL 3
REMARK VINA RESULT:    -5.549      1.343      4.024
REMARK INTER + INTRA:          -6.134
REMARK INTER:                  -5.863
REMARK INTRA:                  -0.272
REMARK UNBOUND:                -0.261
REMARK SMILES C=C1CC[C@@H](C(C)C)[C@H]2C=C(C)CC[C@H]12
REMARK SMILES IDX 12 1 11 2 10 3 9 4 15 5 14 6 13 7 2 8 1 9 3 10 4 11 5 12
REMARK SMILES IDX 6 13 7 14 8 15
REMARK H PARENT
REMARK Flexibility Score: inf
ROOT
ATOM      1  C   UNL     1      33.116  11.114  33.433  1.00  0.00     0.039 C 
ATOM      2  C   UNL     1      32.453  10.130  32.509  1.00  0.00    -0.077 C 
ATOM      3  C   UNL     1      32.166  10.509  31.243  1.00  0.00    -0.024 C 
ATOM      4  C   UNL     1      31.586   9.530  30.231  1.00  0.00     0.022 C 
ATOM      5  C   UNL     1      30.591   8.619  30.997  1.00  0.00     0.022 C 
ATOM      6  C   UNL     1      31.375   7.826  32.059  1.00  0.00     0.013 C 
ATOM      7  C   UNL     1      32.031   8.780  33.075  1.00  0.00     0.031 C 
ATOM      8  C   UNL     1      29.772   7.785  30.036  1.00  0.00    -0.074 C 
ATOM      9  C   UNL     1      29.655   6.455  30.168  1.00  0.00     0.008 C 
ATOM     10  C   UNL     1      29.024   8.515  28.943  1.00  0.00     0.031 C 
ATOM     11  C   UNL     1      29.444   9.995  28.856  1.00  0.00     0.009 C 
ATOM     12  C   UNL     1      30.991  10.124  28.883  1.00  0.00    -0.001 C 
ENDROOT
BRANCH  12  13
ATOM     13  C   UNL     1      31.516  11.543  28.470  1.00  0.00    -0.014 C 
ATOM     14  C   UNL     1      30.384  12.543  28.160  1.00  0.00     0.007 C 
ATOM     15  C   UNL     1      32.419  11.451  27.221  1.00  0.00     0.007 C 
ENDBRANCH  12  13
TORSDOF 1
ENDMDL
MODEL 4
REMARK VINA RESULT:    -5.492      1.460      1.813
REMARK INTER + INTRA:          -6.074
REMARK INTER:                  -5.813
REMARK INTRA:                  -0.261
REMARK UNBOUND:                -0.261
REMARK SMILES C=C1CC[C@@H](C(C)C)[C@H]2C=C(C)CC[C@H]12
REMARK SMILES IDX 12 1 11 2 10 3 9 4 15 5 14 6 13 7 2 8 1 9 3 10 4 11 5 12
REMARK SMILES IDX 6 13 7 14 8 15
REMARK H PARENT
REMARK Flexibility Score: inf
ROOT
ATOM      1  C   UNL     1      31.865   7.405  33.388  1.00  0.00     0.039 C 
ATOM      2  C   UNL     1      31.702   8.408  32.279  1.00  0.00    -0.077 C 
ATOM      3  C   UNL     1      31.141   8.013  31.114  1.00  0.00    -0.024 C 
ATOM      4  C   UNL     1      30.858   9.001  29.991  1.00  0.00     0.022 C 
ATOM      5  C   UNL     1      32.037  10.010  29.964  1.00  0.00     0.022 C 
ATOM      6  C   UNL     1      32.056  10.773  31.302  1.00  0.00     0.013 C 
ATOM      7  C   UNL     1      32.281   9.803  32.478  1.00  0.00     0.031 C 
ATOM      8  C   UNL     1      31.982  10.873  28.723  1.00  0.00    -0.074 C 
ATOM      9  C   UNL     1      32.050  12.212  28.783  1.00  0.00     0.008 C 
ATOM     10  C   UNL     1      31.911  10.170  27.387  1.00  0.00     0.031 C 
ATOM     11  C   UNL     1      31.652   8.660  27.551  1.00  0.00     0.009 C 
ATOM     12  C   UNL     1      30.497   8.413  28.560  1.00  0.00    -0.001 C 
ENDROOT
BRANCH  12  13
ATOM     13  C   UNL     1      29.943   6.945  28.543  1.00  0.00    -0.014 C 
ATOM     14  C   UNL     1      30.201   6.215  27.211  1.00  0.00     0.007 C 
ATOM     15  C   UNL     1      28.422   6.932  28.803  1.00  0.00     0.007 C 
ENDBRANCH  12  13
TORSDOF 1
ENDMDL
MODEL 5
REMARK VINA RESULT:    -5.435      1.359      5.046
REMARK INTER + INTRA:          -6.014
REMARK INTER:                  -5.950
REMARK INTRA:                  -0.064
REMARK UNBOUND:                -0.261
REMARK SMILES C=C1CC[C@@H](C(C)C)[C@H]2C=C(C)CC[C@H]12
REMARK SMILES IDX 12 1 11 2 10 3 9 4 15 5 14 6 13 7 2 8 1 9 3 10 4 11 5 12
REMARK SMILES IDX 6 13 7 14 8 15
REMARK H PARENT
REMARK Flexibility Score: inf
ROOT
ATOM      1  C   UNL     1      32.522  11.331  27.128  1.00  0.00     0.039 C 
ATOM      2  C   UNL     1      31.809  10.449  28.115  1.00  0.00    -0.077 C 
ATOM      3  C   UNL     1      31.984  10.670  29.439  1.00  0.00    -0.024 C 
ATOM      4  C   UNL     1      31.216   9.876  30.487  1.00  0.00     0.022 C 
ATOM      5  C   UNL     1      31.107   8.419  29.966  1.00  0.00     0.022 C 
ATOM      6  C   UNL     1      30.294   8.427  28.658  1.00  0.00     0.013 C 
ATOM      7  C   UNL     1      31.006   9.270  27.582  1.00  0.00     0.031 C 
ATOM      8  C   UNL     1      30.590   7.495  31.047  1.00  0.00    -0.074 C 
ATOM      9  C   UNL     1      29.556   6.665  30.840  1.00  0.00     0.008 C 
ATOM     10  C   UNL     1      31.324   7.489  32.368  1.00  0.00     0.031 C 
ATOM     11  C   UNL     1      32.346   8.638  32.457  1.00  0.00     0.009 C 
ATOM     12  C   UNL     1      31.703   9.974  31.995  1.00  0.00    -0.001 C 
ENDROOT
BRANCH  12  13
ATOM     13  C   UNL     1      32.549  11.244  32.359  1.00  0.00    -0.014 C 
ATOM     14  C   UNL     1      33.089  11.221  33.803  1.00  0.00     0.007 C 
ATOM     15  C   UNL     1      31.709  12.528  32.191  1.00  0.00     0.007 C 
ENDBRANCH  12  13
TORSDOF 1
ENDMDL
MODEL 6
REMARK VINA RESULT:    -5.429      2.537      5.400
REMARK INTER + INTRA:          -6.007
REMARK INTER:                  -5.826
REMARK INTRA:                  -0.182
REMARK UNBOUND:                -0.261
REMARK SMILES C=C1CC[C@@H](C(C)C)[C@H]2C=C(C)CC[C@H]12
REMARK SMILES IDX 12 1 11 2 10 3 9 4 15 5 14 6 13 7 2 8 1 9 3 10 4 11 5 12
REMARK SMILES IDX 6 13 7 14 8 15
REMARK H PARENT
REMARK Flexibility Score: inf
ROOT
ATOM      1  C   UNL     1      29.084   6.553  30.068  1.00  0.00     0.039 C 
ATOM      2  C   UNL     1      30.086   7.501  30.669  1.00  0.00    -0.077 C 
ATOM      3  C   UNL     1      30.388   7.391  31.982  1.00  0.00    -0.024 C 
ATOM      4  C   UNL     1      31.464   8.254  32.627  1.00  0.00     0.022 C 
ATOM      5  C   UNL     1      31.363   9.663  31.985  1.00  0.00     0.022 C 
ATOM      6  C   UNL     1      31.666   9.536  30.481  1.00  0.00     0.013 C 
ATOM      7  C   UNL     1      30.634   8.621  29.794  1.00  0.00     0.031 C 
ATOM      8  C   UNL     1      32.213  10.662  32.738  1.00  0.00    -0.074 C 
ATOM      9  C   UNL     1      33.098  11.457  32.116  1.00  0.00     0.008 C 
ATOM     10  C   UNL     1      31.988  10.786  34.228  1.00  0.00     0.031 C 
ATOM     11  C   UNL     1      31.078   9.664  34.762  1.00  0.00     0.009 C 
ATOM     12  C   UNL     1      31.537   8.285  34.213  1.00  0.00    -0.001 C 
ENDROOT
BRANCH  12  13
ATOM     13  C   UNL     1      30.890   7.062  34.953  1.00  0.00    -0.014 C 
ATOM     14  C   UNL     1      29.404   7.279  35.300  1.00  0.00     0.007 C 
ATOM     15  C   UNL     1      31.641   6.756  36.266  1.00  0.00     0.007 C 
ENDBRANCH  12  13
TORSDOF 1
ENDMDL
MODEL 7
REMARK VINA RESULT:    -5.289      4.010      7.644
REMARK INTER + INTRA:          -5.860
REMARK INTER:                  -5.591
REMARK INTRA:                  -0.269
REMARK UNBOUND:                -0.261
REMARK SMILES C=C1CC[C@@H](C(C)C)[C@H]2C=C(C)CC[C@H]12
REMARK SMILES IDX 12 1 11 2 10 3 9 4 15 5 14 6 13 7 2 8 1 9 3 10 4 11 5 12
REMARK SMILES IDX 6 13 7 14 8 15
REMARK H PARENT
REMARK Flexibility Score: inf
ROOT
ATOM      1  C   UNL     1      33.124  10.987  32.505  1.00  0.00     0.039 C 
ATOM      2  C   UNL     1      32.244   9.996  33.215  1.00  0.00    -0.077 C 
ATOM      3  C   UNL     1      31.658  10.356  34.380  1.00  0.00    -0.024 C 
ATOM      4  C   UNL     1      30.680   9.435  35.097  1.00  0.00     0.022 C 
ATOM      5  C   UNL     1      31.209   7.986  34.925  1.00  0.00     0.022 C 
ATOM      6  C   UNL     1      31.205   7.640  33.425  1.00  0.00     0.013 C 
ATOM      7  C   UNL     1      32.140   8.587  32.647  1.00  0.00     0.031 C 
ATOM      8  C   UNL     1      30.452   7.026  35.816  1.00  0.00    -0.074 C 
ATOM      9  C   UNL     1      29.905   5.896  35.343  1.00  0.00     0.008 C 
ATOM     10  C   UNL     1      30.383   7.350  37.291  1.00  0.00     0.031 C 
ATOM     11  C   UNL     1      30.903   8.770  37.587  1.00  0.00     0.009 C 
ATOM     12  C   UNL     1      30.287   9.792  36.593  1.00  0.00    -0.001 C 
ENDROOT
BRANCH  12  13
ATOM     13  C   UNL     1      30.492  11.289  37.016  1.00  0.00    -0.014 C 
ATOM     14  C   UNL     1      30.837  11.457  38.509  1.00  0.00     0.007 C 
ATOM     15  C   UNL     1      29.221  12.117  36.730  1.00  0.00     0.007 C 
ENDBRANCH  12  13
TORSDOF 1
ENDMDL
MODEL 8
REMARK VINA RESULT:    -5.200      1.405      4.306
REMARK INTER + INTRA:          -5.765
REMARK INTER:                  -5.505
REMARK INTRA:                  -0.260
REMARK UNBOUND:                -0.261
REMARK SMILES C=C1CC[C@@H](C(C)C)[C@H]2C=C(C)CC[C@H]12
REMARK SMILES IDX 12 1 11 2 10 3 9 4 15 5 14 6 13 7 2 8 1 9 3 10 4 11 5 12
REMARK SMILES IDX 6 13 7 14 8 15
REMARK H PARENT
REMARK Flexibility Score: inf
ROOT
ATOM      1  C   UNL     1      28.079   6.230  29.254  1.00  0.00     0.039 C 
ATOM      2  C   UNL     1      29.199   7.220  29.095  1.00  0.00    -0.077 C 
ATOM      3  C   UNL     1      29.887   7.616  30.191  1.00  0.00    -0.024 C 
ATOM      4  C   UNL     1      31.092   8.539  30.084  1.00  0.00     0.022 C 
ATOM      5  C   UNL     1      30.779   9.571  28.968  1.00  0.00     0.022 C 
ATOM      6  C   UNL     1      30.615   8.815  27.637  1.00  0.00     0.013 C 
ATOM      7  C   UNL     1      29.439   7.823  27.717  1.00  0.00     0.031 C 
ATOM      8  C   UNL     1      31.801  10.687  28.962  1.00  0.00    -0.074 C 
ATOM      9  C   UNL     1      32.442  11.058  27.843  1.00  0.00     0.008 C 
ATOM     10  C   UNL     1      32.034  11.426  30.260  1.00  0.00     0.031 C 
ATOM     11  C   UNL     1      31.347  10.724  31.446  1.00  0.00     0.009 C 
ATOM     12  C   UNL     1      31.641   9.199  31.420  1.00  0.00    -0.001 C 
ENDROOT
BRANCH  12  13
ATOM     13  C   UNL     1      31.268   8.459  32.753  1.00  0.00    -0.014 C 
ATOM     14  C   UNL     1      31.250   9.390  33.980  1.00  0.00     0.007 C 
ATOM     15  C   UNL     1      32.265   7.316  33.041  1.00  0.00     0.007 C 
ENDBRANCH  12  13
TORSDOF 1
ENDMDL
MODEL 9
REMARK VINA RESULT:    -5.146      1.309      3.678
REMARK INTER + INTRA:          -5.708
REMARK INTER:                  -5.428
REMARK INTRA:                  -0.280
REMARK UNBOUND:                -0.261
REMARK SMILES C=C1CC[C@@H](C(C)C)[C@H]2C=C(C)CC[C@H]12
REMARK SMILES IDX 12 1 11 2 10 3 9 4 15 5 14 6 13 7 2 8 1 9 3 10 4 11 5 12
REMARK SMILES IDX 6 13 7 14 8 15
REMARK H PARENT
REMARK Flexibility Score: inf
ROOT
ATOM      1  C   UNL     1      31.700  13.005  27.735  1.00  0.00     0.039 C 
ATOM      2  C   UNL     1      31.886  11.918  28.758  1.00  0.00    -0.077 C 
ATOM      3  C   UNL     1      31.384  10.688  28.507  1.00  0.00    -0.024 C 
ATOM      4  C   UNL     1      31.623   9.521  29.457  1.00  0.00     0.022 C 
ATOM      5  C   UNL     1      31.563  10.089  30.900  1.00  0.00     0.022 C 
ATOM      6  C   UNL     1      32.704  11.108  31.071  1.00  0.00     0.013 C 
ATOM      7  C   UNL     1      32.536  12.282  30.086  1.00  0.00     0.031 C 
ATOM      8  C   UNL     1      31.530   8.971  31.919  1.00  0.00    -0.074 C 
ATOM      9  C   UNL     1      32.376   8.932  32.960  1.00  0.00     0.008 C 
ATOM     10  C   UNL     1      30.458   7.917  31.763  1.00  0.00     0.031 C 
ATOM     11  C   UNL     1      29.727   8.043  30.413  1.00  0.00     0.009 C 
ATOM     12  C   UNL     1      30.748   8.211  29.255  1.00  0.00    -0.001 C 
ENDROOT
BRANCH  12  13
ATOM     13  C   UNL     1      30.126   8.016  27.828  1.00  0.00    -0.014 C 
ATOM     14  C   UNL     1      28.589   8.128  27.815  1.00  0.00     0.007 C 
ATOM     15  C   UNL     1      30.504   6.634  27.252  1.00  0.00     0.007 C 
ENDBRANCH  12  13
TORSDOF 1
ENDMDL
