MODEL 1
REMARK VINA RESULT:    -6.188      0.000      0.000
REMARK INTER + INTRA:         -10.033
REMARK INTER:                  -8.540
REMARK INTRA:                  -1.493
REMARK UNBOUND:                -1.493
REMARK SMILES O=C([O-])[C@@H]1O[C@H](Oc2cc3oc(-c4ccccc4)cc(=O)c3c(O)c2O)[C@@H](O)[C@@H](O)[C@H]1O
REMARK SMILES IDX 7 1 6 2 4 3 31 4 5 5 29 6 27 7 2 8 1 9 3 10 32 11 30 13
REMARK SMILES IDX 28 15 8 17 25 18 9 19 23 20 10 21 22 22 11 23 20 24 12 25
REMARK SMILES IDX 19 26 21 27 26 28 24 30 13 32 14 33 18 34 15 35 17 36 16 37
REMARK H PARENT 32 12 30 14 28 16 26 29 24 31
REMARK Flexibility Score: inf
ROOT
ATOM      1  O   UNL     1     -24.278 -66.425  56.176  1.00  0.00    -0.458 OA
ENDROOT
BRANCH   1   2
ATOM      2  C   UNL     1     -23.498 -65.681  57.115  1.00  0.00     0.339 C 
ATOM      3  C   UNL     1     -21.892 -67.216  58.047  1.00  0.00     0.199 C 
ATOM      4  C   UNL     1     -21.487 -67.465  56.568  1.00  0.00     0.180 C 
ATOM      5  O   UNL     1     -23.120 -66.510  58.210  1.00  0.00    -0.328 OA
ATOM      6  C   UNL     1     -21.385 -66.134  55.781  1.00  0.00     0.181 C 
ATOM      7  C   UNL     1     -22.295 -65.040  56.394  1.00  0.00     0.214 C 
BRANCH   3   8
ATOM      8  C   UNL     1     -22.009 -68.524  58.769  1.00  0.00     0.073 C 
ATOM      9  O   UNL     1     -20.976 -69.123  59.170  1.00  0.00    -0.547 OA
ATOM     10  O   UNL     1     -23.258 -69.099  58.970  1.00  0.00    -0.547 OA
ENDBRANCH   3   8
BRANCH   4  11
ATOM     11  O   UNL     1     -20.296 -68.210  56.468  1.00  0.00    -0.387 OA
ATOM     12  H   UNL     1     -19.577 -67.699  56.924  1.00  0.00     0.211 HD
ENDBRANCH   4  11
BRANCH   6  13
ATOM     13  O   UNL     1     -20.053 -65.686  55.725  1.00  0.00    -0.387 OA
ATOM     14  H   UNL     1     -19.522 -66.293  56.304  1.00  0.00     0.211 HD
ENDBRANCH   6  13
BRANCH   7  15
ATOM     15  O   UNL     1     -21.565 -64.254  57.303  1.00  0.00    -0.384 OA
ATOM     16  H   UNL     1     -21.087 -64.882  57.907  1.00  0.00     0.211 HD
ENDBRANCH   7  15
ENDBRANCH   1   2
BRANCH   1  17
ATOM     17  C   UNL     1     -25.671 -66.617  56.207  1.00  0.00     0.172 A 
ATOM     18  C   UNL     1     -26.337 -67.419  57.164  1.00  0.00     0.201 A 
ATOM     19  C   UNL     1     -26.413 -65.954  55.229  1.00  0.00     0.098 A 
ATOM     20  C   UNL     1     -27.741 -67.605  57.072  1.00  0.00     0.176 A 
ATOM     21  C   UNL     1     -27.795 -66.097  55.152  1.00  0.00     0.146 A 
ATOM     22  C   UNL     1     -28.476 -66.929  56.067  1.00  0.00     0.111 A 
ATOM     23  O   UNL     1     -28.458 -65.444  54.203  1.00  0.00    -0.456 OA
ATOM     24  C   UNL     1     -29.875 -67.046  55.920  1.00  0.00     0.197 A 
ATOM     25  C   UNL     1     -29.777 -65.523  54.046  1.00  0.00     0.138 A 
ATOM     26  C   UNL     1     -30.525 -66.342  54.905  1.00  0.00     0.100 A 
ATOM     27  O   UNL     1     -30.560 -67.777  56.686  1.00  0.00    -0.289 OA
BRANCH  18  28
ATOM     28  O   UNL     1     -25.599 -67.983  58.207  1.00  0.00    -0.502 OA
ATOM     29  H   UNL     1     -25.239 -68.926  58.210  1.00  0.00     0.293 HD
ENDBRANCH  18  28
BRANCH  20  30
ATOM     30  O   UNL     1     -28.420 -68.457  57.952  1.00  0.00    -0.504 OA
ATOM     31  H   UNL     1     -28.516 -68.296  58.943  1.00  0.00     0.293 HD
ENDBRANCH  20  30
BRANCH  25  32
ATOM     32  C   UNL     1     -30.412 -64.749  52.949  1.00  0.00     0.017 A 
ATOM     33  C   UNL     1     -29.654 -64.179  51.906  1.00  0.00     0.012 A 
ATOM     34  C   UNL     1     -31.812 -64.601  52.927  1.00  0.00     0.012 A 
ATOM     35  C   UNL     1     -30.283 -63.461  50.884  1.00  0.00     0.001 A 
ATOM     36  C   UNL     1     -32.434 -63.881  51.903  1.00  0.00     0.001 A 
ATOM     37  C   UNL     1     -31.671 -63.309  50.883  1.00  0.00     0.000 A 
ENDBRANCH  25  32
ENDBRANCH   1  17
TORSDOF 9
ENDMDL
MODEL 2
REMARK VINA RESULT:    -6.146      5.807      9.851
REMARK INTER + INTRA:          -9.974
REMARK INTER:                  -8.585
REMARK INTRA:                  -1.390
REMARK UNBOUND:                -1.493
REMARK SMILES O=C([O-])[C@@H]1O[C@H](Oc2cc3oc(-c4ccccc4)cc(=O)c3c(O)c2O)[C@@H](O)[C@@H](O)[C@H]1O
REMARK SMILES IDX 7 1 6 2 4 3 31 4 5 5 29 6 27 7 2 8 1 9 3 10 32 11 30 13
REMARK SMILES IDX 28 15 8 17 25 18 9 19 23 20 10 21 22 22 11 23 20 24 12 25
REMARK SMILES IDX 19 26 21 27 26 28 24 30 13 32 14 33 18 34 15 35 17 36 16 37
REMARK H PARENT 32 12 30 14 28 16 26 29 24 31
REMARK Flexibility Score: inf
ROOT
ATOM      1  O   UNL     1     -21.901 -63.062  56.570  1.00  0.00    -0.458 OA
ENDROOT
BRANCH   1   2
ATOM      2  C   UNL     1     -21.975 -64.193  55.700  1.00  0.00     0.339 C 
ATOM      3  C   UNL     1     -22.243 -66.129  57.109  1.00  0.00     0.199 C 
ATOM      4  C   UNL     1     -23.476 -65.370  57.672  1.00  0.00     0.180 C 
ATOM      5  O   UNL     1     -21.371 -65.329  56.314  1.00  0.00    -0.328 OA
ATOM      6  C   UNL     1     -24.312 -64.733  56.534  1.00  0.00     0.181 C 
ATOM      7  C   UNL     1     -23.442 -64.433  55.288  1.00  0.00     0.214 C 
BRANCH   3   8
ATOM      8  C   UNL     1     -21.443 -66.708  58.237  1.00  0.00     0.073 C 
ATOM      9  O   UNL     1     -20.443 -66.090  58.689  1.00  0.00    -0.547 OA
ATOM     10  O   UNL     1     -21.782 -67.947  58.766  1.00  0.00    -0.547 OA
ENDBRANCH   3   8
BRANCH   4  11
ATOM     11  O   UNL     1     -24.272 -66.195  58.490  1.00  0.00    -0.387 OA
ATOM     12  H   UNL     1     -23.719 -66.483  59.263  1.00  0.00     0.211 HD
ENDBRANCH   4  11
BRANCH   6  13
ATOM     13  O   UNL     1     -25.395 -65.559  56.185  1.00  0.00    -0.387 OA
ATOM     14  H   UNL     1     -25.940 -65.055  55.526  1.00  0.00     0.211 HD
ENDBRANCH   6  13
BRANCH   7  15
ATOM     15  O   UNL     1     -23.506 -65.505  54.380  1.00  0.00    -0.384 OA
ATOM     16  H   UNL     1     -23.045 -66.273  54.809  1.00  0.00     0.211 HD
ENDBRANCH   7  15
ENDBRANCH   1   2
BRANCH   1  17
ATOM     17  C   UNL     1     -20.838 -62.146  56.669  1.00  0.00     0.172 A 
ATOM     18  C   UNL     1     -19.868 -62.171  57.700  1.00  0.00     0.201 A 
ATOM     19  C   UNL     1     -20.755 -61.177  55.669  1.00  0.00     0.098 A 
ATOM     20  C   UNL     1     -18.870 -61.162  57.751  1.00  0.00     0.176 A 
ATOM     21  C   UNL     1     -19.758 -60.206  55.686  1.00  0.00     0.146 A 
ATOM     22  C   UNL     1     -18.808 -60.182  56.730  1.00  0.00     0.111 A 
ATOM     23  O   UNL     1     -19.720 -59.304  54.711  1.00  0.00    -0.456 OA
ATOM     24  C   UNL     1     -17.836 -59.157  56.699  1.00  0.00     0.197 A 
ATOM     25  C   UNL     1     -18.811 -58.335  54.645  1.00  0.00     0.138 A 
ATOM     26  C   UNL     1     -17.841 -58.232  55.654  1.00  0.00     0.100 A 
ATOM     27  O   UNL     1     -16.958 -59.054  57.597  1.00  0.00    -0.289 OA
BRANCH  18  28
ATOM     28  O   UNL     1     -19.891 -63.213  58.628  1.00  0.00    -0.502 OA
ATOM     29  H   UNL     1     -20.661 -63.854  58.751  1.00  0.00     0.293 HD
ENDBRANCH  18  28
BRANCH  20  30
ATOM     30  O   UNL     1     -17.946 -61.107  58.801  1.00  0.00    -0.504 OA
ATOM     31  H   UNL     1     -17.846 -61.817  59.512  1.00  0.00     0.293 HD
ENDBRANCH  20  30
BRANCH  25  32
ATOM     32  C   UNL     1     -18.865 -57.381  53.508  1.00  0.00     0.017 A 
ATOM     33  C   UNL     1     -18.536 -57.772  52.194  1.00  0.00     0.012 A 
ATOM     34  C   UNL     1     -19.285 -56.057  53.736  1.00  0.00     0.012 A 
ATOM     35  C   UNL     1     -18.603 -56.852  51.144  1.00  0.00     0.001 A 
ATOM     36  C   UNL     1     -19.349 -55.142  52.681  1.00  0.00     0.001 A 
ATOM     37  C   UNL     1     -19.006 -55.537  51.387  1.00  0.00     0.000 A 
ENDBRANCH  25  32
ENDBRANCH   1  17
TORSDOF 9
ENDMDL
MODEL 3
REMARK VINA RESULT:    -6.085      6.237     10.333
REMARK INTER + INTRA:          -9.891
REMARK INTER:                  -8.915
REMARK INTRA:                  -0.976
REMARK UNBOUND:                -1.493
REMARK SMILES O=C([O-])[C@@H]1O[C@H](Oc2cc3oc(-c4ccccc4)cc(=O)c3c(O)c2O)[C@@H](O)[C@@H](O)[C@H]1O
REMARK SMILES IDX 7 1 6 2 4 3 31 4 5 5 29 6 27 7 2 8 1 9 3 10 32 11 30 13
REMARK SMILES IDX 28 15 8 17 25 18 9 19 23 20 10 21 22 22 11 23 20 24 12 25
REMARK SMILES IDX 19 26 21 27 26 28 24 30 13 32 14 33 18 34 15 35 17 36 16 37
REMARK H PARENT 32 12 30 14 28 16 26 29 24 31
REMARK Flexibility Score: inf
ROOT
ATOM      1  O   UNL     1     -21.908 -62.666  56.775  1.00  0.00    -0.458 OA
ENDROOT
BRANCH   1   2
ATOM      2  C   UNL     1     -23.156 -62.414  56.126  1.00  0.00     0.339 C 
ATOM      3  C   UNL     1     -24.758 -63.927  57.099  1.00  0.00     0.199 C 
ATOM      4  C   UNL     1     -24.324 -63.291  58.449  1.00  0.00     0.180 C 
ATOM      5  O   UNL     1     -23.901 -63.622  56.001  1.00  0.00    -0.328 OA
ATOM      6  C   UNL     1     -24.218 -61.750  58.335  1.00  0.00     0.181 C 
ATOM      7  C   UNL     1     -23.916 -61.305  56.882  1.00  0.00     0.214 C 
BRANCH   3   8
ATOM      8  C   UNL     1     -24.823 -65.418  57.238  1.00  0.00     0.073 C 
ATOM      9  O   UNL     1     -24.069 -66.015  58.052  1.00  0.00    -0.547 OA
ATOM     10  O   UNL     1     -25.692 -66.154  56.440  1.00  0.00    -0.547 OA
ENDBRANCH   3   8
BRANCH   4  11
ATOM     11  O   UNL     1     -25.175 -63.669  59.505  1.00  0.00    -0.387 OA
ATOM     12  H   UNL     1     -25.027 -63.037  60.256  1.00  0.00     0.211 HD
ENDBRANCH   4  11
BRANCH   6  13
ATOM     13  O   UNL     1     -25.392 -61.132  58.801  1.00  0.00    -0.387 OA
ATOM     14  H   UNL     1     -25.622 -61.566  59.664  1.00  0.00     0.211 HD
ENDBRANCH   6  13
BRANCH   7  15
ATOM     15  O   UNL     1     -25.113 -61.010  56.205  1.00  0.00    -0.384 OA
ATOM     16  H   UNL     1     -25.854 -61.366  56.764  1.00  0.00     0.211 HD
ENDBRANCH   7  15
ENDBRANCH   1   2
BRANCH   1  17
ATOM     17  C   UNL     1     -20.787 -61.817  56.800  1.00  0.00     0.172 A 
ATOM     18  C   UNL     1     -19.769 -61.881  57.782  1.00  0.00     0.201 A 
ATOM     19  C   UNL     1     -20.695 -60.877  55.774  1.00  0.00     0.098 A 
ATOM     20  C   UNL     1     -18.710 -60.936  57.760  1.00  0.00     0.176 A 
ATOM     21  C   UNL     1     -19.640 -59.970  55.719  1.00  0.00     0.146 A 
ATOM     22  C   UNL     1     -18.639 -59.984  56.713  1.00  0.00     0.111 A 
ATOM     23  O   UNL     1     -19.596 -59.093  54.721  1.00  0.00    -0.456 OA
ATOM     24  C   UNL     1     -17.609 -59.023  56.609  1.00  0.00     0.197 A 
ATOM     25  C   UNL     1     -18.634 -58.185  54.587  1.00  0.00     0.138 A 
ATOM     26  C   UNL     1     -17.609 -58.121  55.544  1.00  0.00     0.100 A 
ATOM     27  O   UNL     1     -16.682 -58.956  57.461  1.00  0.00    -0.289 OA
BRANCH  18  28
ATOM     28  O   UNL     1     -19.809 -62.900  58.735  1.00  0.00    -0.502 OA
ATOM     29  H   UNL     1     -20.092 -63.851  58.546  1.00  0.00     0.293 HD
ENDBRANCH  18  28
BRANCH  20  30
ATOM     30  O   UNL     1     -17.733 -60.917  58.762  1.00  0.00    -0.504 OA
ATOM     31  H   UNL     1     -17.168 -60.114  58.995  1.00  0.00     0.293 HD
ENDBRANCH  20  30
BRANCH  25  32
ATOM     32  C   UNL     1     -18.687 -57.254  53.431  1.00  0.00     0.017 A 
ATOM     33  C   UNL     1     -18.286 -57.650  52.139  1.00  0.00     0.012 A 
ATOM     34  C   UNL     1     -19.177 -55.948  53.617  1.00  0.00     0.012 A 
ATOM     35  C   UNL     1     -18.354 -56.752  51.069  1.00  0.00     0.001 A 
ATOM     36  C   UNL     1     -19.242 -55.054  52.544  1.00  0.00     0.001 A 
ATOM     37  C   UNL     1     -18.828 -55.454  51.272  1.00  0.00     0.000 A 
ENDBRANCH  25  32
ENDBRANCH   1  17
TORSDOF 9
ENDMDL
MODEL 4
REMARK VINA RESULT:    -6.029     10.392     12.638
REMARK INTER + INTRA:          -9.813
REMARK INTER:                  -8.787
REMARK INTRA:                  -1.026
REMARK UNBOUND:                -1.493
REMARK SMILES O=C([O-])[C@@H]1O[C@H](Oc2cc3oc(-c4ccccc4)cc(=O)c3c(O)c2O)[C@@H](O)[C@@H](O)[C@H]1O
REMARK SMILES IDX 7 1 6 2 4 3 31 4 5 5 29 6 27 7 2 8 1 9 3 10 32 11 30 13
REMARK SMILES IDX 28 15 8 17 25 18 9 19 23 20 10 21 22 22 11 23 20 24 12 25
REMARK SMILES IDX 19 26 21 27 26 28 24 30 13 32 14 33 18 34 15 35 17 36 16 37
REMARK H PARENT 32 12 30 14 28 16 26 29 24 31
REMARK Flexibility Score: inf
ROOT
ATOM      1  O   UNL     1     -29.018 -55.067  55.429  1.00  0.00    -0.458 OA
ENDROOT
BRANCH   1   2
ATOM      2  C   UNL     1     -27.803 -55.525  54.832  1.00  0.00     0.339 C 
ATOM      3  C   UNL     1     -26.630 -53.566  54.064  1.00  0.00     0.199 C 
ATOM      4  C   UNL     1     -26.762 -53.086  55.535  1.00  0.00     0.180 C 
ATOM      5  O   UNL     1     -27.445 -54.689  53.735  1.00  0.00    -0.328 OA
ATOM      6  C   UNL     1     -26.432 -54.227  56.530  1.00  0.00     0.181 C 
ATOM      7  C   UNL     1     -26.703 -55.620  55.909  1.00  0.00     0.214 C 
BRANCH   3   8
ATOM      8  C   UNL     1     -26.983 -52.448  53.130  1.00  0.00     0.073 C 
ATOM      9  O   UNL     1     -26.265 -51.415  53.074  1.00  0.00    -0.547 OA
ATOM     10  O   UNL     1     -28.128 -52.531  52.346  1.00  0.00    -0.547 OA
ENDBRANCH   3   8
BRANCH   4  11
ATOM     11  O   UNL     1     -25.976 -51.945  55.787  1.00  0.00    -0.387 OA
ATOM     12  H   UNL     1     -26.150 -51.655  56.720  1.00  0.00     0.211 HD
ENDBRANCH   4  11
BRANCH   6  13
ATOM     13  O   UNL     1     -25.099 -54.139  56.969  1.00  0.00    -0.387 OA
ATOM     14  H   UNL     1     -24.745 -55.066  56.998  1.00  0.00     0.211 HD
ENDBRANCH   6  13
BRANCH   7  15
ATOM     15  O   UNL     1     -25.527 -56.135  55.336  1.00  0.00    -0.384 OA
ATOM     16  H   UNL     1     -25.574 -57.123  55.421  1.00  0.00     0.211 HD
ENDBRANCH   7  15
ENDBRANCH   1   2
BRANCH   1  17
ATOM     17  C   UNL     1     -30.053 -55.866  55.948  1.00  0.00     0.172 A 
ATOM     18  C   UNL     1     -31.281 -56.099  55.283  1.00  0.00     0.201 A 
ATOM     19  C   UNL     1     -29.818 -56.459  57.188  1.00  0.00     0.098 A 
ATOM     20  C   UNL     1     -32.291 -56.867  55.919  1.00  0.00     0.176 A 
ATOM     21  C   UNL     1     -30.786 -57.247  57.805  1.00  0.00     0.146 A 
ATOM     22  C   UNL     1     -32.036 -57.455  57.183  1.00  0.00     0.111 A 
ATOM     23  O   UNL     1     -30.516 -57.793  58.986  1.00  0.00    -0.456 OA
ATOM     24  C   UNL     1     -32.980 -58.247  57.872  1.00  0.00     0.197 A 
ATOM     25  C   UNL     1     -31.377 -58.554  59.656  1.00  0.00     0.138 A 
ATOM     26  C   UNL     1     -32.649 -58.795  59.112  1.00  0.00     0.100 A 
ATOM     27  O   UNL     1     -34.125 -58.474  57.395  1.00  0.00    -0.289 OA
BRANCH  18  28
ATOM     28  O   UNL     1     -31.459 -55.596  53.992  1.00  0.00    -0.502 OA
ATOM     29  H   UNL     1     -32.036 -56.027  53.285  1.00  0.00     0.293 HD
ENDBRANCH  18  28
BRANCH  20  30
ATOM     30  O   UNL     1     -33.547 -57.048  55.327  1.00  0.00    -0.504 OA
ATOM     31  H   UNL     1     -34.040 -57.928  55.292  1.00  0.00     0.293 HD
ENDBRANCH  20  30
BRANCH  25  32
ATOM     32  C   UNL     1     -30.967 -59.110  60.970  1.00  0.00     0.017 A 
ATOM     33  C   UNL     1     -31.880 -59.778  61.812  1.00  0.00     0.012 A 
ATOM     34  C   UNL     1     -29.625 -58.999  61.380  1.00  0.00     0.012 A 
ATOM     35  C   UNL     1     -31.461 -60.297  63.041  1.00  0.00     0.001 A 
ATOM     36  C   UNL     1     -29.213 -59.520  62.610  1.00  0.00     0.001 A 
ATOM     37  C   UNL     1     -30.130 -60.165  63.441  1.00  0.00     0.000 A 
ENDBRANCH  25  32
ENDBRANCH   1  17
TORSDOF 9
ENDMDL
MODEL 5
REMARK VINA RESULT:    -6.007      7.823      9.045
REMARK INTER + INTRA:          -9.783
REMARK INTER:                  -8.284
REMARK INTRA:                  -1.499
REMARK UNBOUND:                -1.493
REMARK SMILES O=C([O-])[C@@H]1O[C@H](Oc2cc3oc(-c4ccccc4)cc(=O)c3c(O)c2O)[C@@H](O)[C@@H](O)[C@H]1O
REMARK SMILES IDX 7 1 6 2 4 3 31 4 5 5 29 6 27 7 2 8 1 9 3 10 32 11 30 13
REMARK SMILES IDX 28 15 8 17 25 18 9 19 23 20 10 21 22 22 11 23 20 24 12 25
REMARK SMILES IDX 19 26 21 27 26 28 24 30 13 32 14 33 18 34 15 35 17 36 16 37
REMARK H PARENT 32 12 30 14 28 16 26 29 24 31
REMARK Flexibility Score: inf
ROOT
ATOM      1  O   UNL     1     -25.791 -60.749  55.169  1.00  0.00    -0.458 OA
ENDROOT
BRANCH   1   2
ATOM      2  C   UNL     1     -24.608 -60.942  55.947  1.00  0.00     0.339 C 
ATOM      3  C   UNL     1     -25.228 -62.335  57.811  1.00  0.00     0.199 C 
ATOM      4  C   UNL     1     -25.734 -63.320  56.722  1.00  0.00     0.180 C 
ATOM      5  O   UNL     1     -24.935 -61.025  57.331  1.00  0.00    -0.328 OA
ATOM      6  C   UNL     1     -24.714 -63.449  55.564  1.00  0.00     0.181 C 
ATOM      7  C   UNL     1     -23.843 -62.176  55.427  1.00  0.00     0.214 C 
BRANCH   3   8
ATOM      8  C   UNL     1     -26.251 -62.213  58.901  1.00  0.00     0.073 C 
ATOM      9  O   UNL     1     -27.457 -61.988  58.618  1.00  0.00    -0.547 OA
ATOM     10  O   UNL     1     -25.865 -62.312  60.232  1.00  0.00    -0.547 OA
ENDBRANCH   3   8
BRANCH   4  11
ATOM     11  O   UNL     1     -26.057 -64.580  57.262  1.00  0.00    -0.387 OA
ATOM     12  H   UNL     1     -25.928 -65.259  56.550  1.00  0.00     0.211 HD
ENDBRANCH   4  11
BRANCH   6  13
ATOM     13  O   UNL     1     -23.898 -64.582  55.739  1.00  0.00    -0.387 OA
ATOM     14  H   UNL     1     -23.235 -64.576  54.999  1.00  0.00     0.211 HD
ENDBRANCH   6  13
BRANCH   7  15
ATOM     15  O   UNL     1     -22.645 -62.325  56.150  1.00  0.00    -0.384 OA
ATOM     16  H   UNL     1     -22.099 -62.999  55.665  1.00  0.00     0.211 HD
ENDBRANCH   7  15
ENDBRANCH   1   2
BRANCH   1  17
ATOM     17  C   UNL     1     -26.771 -59.759  55.360  1.00  0.00     0.172 A 
ATOM     18  C   UNL     1     -28.127 -60.037  55.657  1.00  0.00     0.201 A 
ATOM     19  C   UNL     1     -26.347 -58.434  55.257  1.00  0.00     0.098 A 
ATOM     20  C   UNL     1     -29.057 -58.970  55.768  1.00  0.00     0.176 A 
ATOM     21  C   UNL     1     -27.241 -57.378  55.402  1.00  0.00     0.146 A 
ATOM     22  C   UNL     1     -28.607 -57.631  55.652  1.00  0.00     0.111 A 
ATOM     23  O   UNL     1     -26.789 -56.132  55.297  1.00  0.00    -0.456 OA
ATOM     24  C   UNL     1     -29.463 -56.514  55.767  1.00  0.00     0.197 A 
ATOM     25  C   UNL     1     -27.566 -55.059  55.413  1.00  0.00     0.138 A 
ATOM     26  C   UNL     1     -28.940 -55.226  55.645  1.00  0.00     0.100 A 
ATOM     27  O   UNL     1     -30.699 -56.650  55.978  1.00  0.00    -0.289 OA
BRANCH  18  28
ATOM     28  O   UNL     1     -28.516 -61.360  55.874  1.00  0.00    -0.502 OA
ATOM     29  H   UNL     1     -28.938 -61.955  55.175  1.00  0.00     0.293 HD
ENDBRANCH  18  28
BRANCH  20  30
ATOM     30  O   UNL     1     -30.419 -59.212  55.978  1.00  0.00    -0.504 OA
ATOM     31  H   UNL     1     -31.164 -58.625  55.633  1.00  0.00     0.293 HD
ENDBRANCH  20  30
BRANCH  25  32
ATOM     32  C   UNL     1     -26.951 -53.714  55.275  1.00  0.00     0.017 A 
ATOM     33  C   UNL     1     -26.438 -53.014  56.386  1.00  0.00     0.012 A 
ATOM     34  C   UNL     1     -26.848 -53.128  54.000  1.00  0.00     0.012 A 
ATOM     35  C   UNL     1     -25.859 -51.752  56.223  1.00  0.00     0.001 A 
ATOM     36  C   UNL     1     -26.269 -51.865  53.843  1.00  0.00     0.001 A 
ATOM     37  C   UNL     1     -25.777 -51.176  54.954  1.00  0.00     0.000 A 
ENDBRANCH  25  32
ENDBRANCH   1  17
TORSDOF 9
ENDMDL
MODEL 6
REMARK VINA RESULT:    -5.942      8.489     10.419
REMARK INTER + INTRA:          -9.694
REMARK INTER:                  -8.259
REMARK INTRA:                  -1.434
REMARK UNBOUND:                -1.493
REMARK SMILES O=C([O-])[C@@H]1O[C@H](Oc2cc3oc(-c4ccccc4)cc(=O)c3c(O)c2O)[C@@H](O)[C@@H](O)[C@H]1O
REMARK SMILES IDX 7 1 6 2 4 3 31 4 5 5 29 6 27 7 2 8 1 9 3 10 32 11 30 13
REMARK SMILES IDX 28 15 8 17 25 18 9 19 23 20 10 21 22 22 11 23 20 24 12 25
REMARK SMILES IDX 19 26 21 27 26 28 24 30 13 32 14 33 18 34 15 35 17 36 16 37
REMARK H PARENT 32 12 30 14 28 16 26 29 24 31
REMARK Flexibility Score: inf
ROOT
ATOM      1  O   UNL     1     -32.647 -60.096  61.178  1.00  0.00    -0.458 OA
ENDROOT
BRANCH   1   2
ATOM      2  C   UNL     1     -32.291 -61.212  61.997  1.00  0.00     0.339 C 
ATOM      3  C   UNL     1     -29.888 -61.376  61.932  1.00  0.00     0.199 C 
ATOM      4  C   UNL     1     -29.917 -59.901  62.419  1.00  0.00     0.180 C 
ATOM      5  O   UNL     1     -31.143 -61.868  61.466  1.00  0.00    -0.328 OA
ATOM      6  C   UNL     1     -30.961 -59.703  63.547  1.00  0.00     0.181 C 
ATOM      7  C   UNL     1     -32.104 -60.744  63.455  1.00  0.00     0.214 C 
BRANCH   3   8
ATOM      8  C   UNL     1     -28.890 -61.525  60.823  1.00  0.00     0.073 C 
ATOM      9  O   UNL     1     -27.659 -61.579  61.080  1.00  0.00    -0.547 OA
ATOM     10  O   UNL     1     -29.319 -61.570  59.502  1.00  0.00    -0.547 OA
ENDBRANCH   3   8
BRANCH   4  11
ATOM     11  O   UNL     1     -28.643 -59.454  62.817  1.00  0.00    -0.387 OA
ATOM     12  H   UNL     1     -28.422 -58.647  62.284  1.00  0.00     0.211 HD
ENDBRANCH   4  11
BRANCH   6  13
ATOM     13  O   UNL     1     -30.348 -59.761  64.812  1.00  0.00    -0.387 OA
ATOM     14  H   UNL     1     -29.518 -59.220  64.754  1.00  0.00     0.211 HD
ENDBRANCH   6  13
BRANCH   7  15
ATOM     15  O   UNL     1     -31.820 -61.853  64.272  1.00  0.00    -0.384 OA
ATOM     16  H   UNL     1     -31.567 -62.599  63.666  1.00  0.00     0.211 HD
ENDBRANCH   7  15
ENDBRANCH   1   2
BRANCH   1  17
ATOM     17  C   UNL     1     -32.474 -59.985  59.787  1.00  0.00     0.172 A 
ATOM     18  C   UNL     1     -33.151 -60.792  58.841  1.00  0.00     0.201 A 
ATOM     19  C   UNL     1     -31.587 -59.004  59.345  1.00  0.00     0.098 A 
ATOM     20  C   UNL     1     -32.860 -60.650  57.458  1.00  0.00     0.176 A 
ATOM     21  C   UNL     1     -31.322 -58.828  57.990  1.00  0.00     0.146 A 
ATOM     22  C   UNL     1     -31.950 -59.652  57.031  1.00  0.00     0.111 A 
ATOM     23  O   UNL     1     -30.469 -57.879  57.618  1.00  0.00    -0.456 OA
ATOM     24  C   UNL     1     -31.620 -59.434  55.674  1.00  0.00     0.197 A 
ATOM     25  C   UNL     1     -30.148 -57.640  56.349  1.00  0.00     0.138 A 
ATOM     26  C   UNL     1     -30.716 -58.427  55.336  1.00  0.00     0.100 A 
ATOM     27  O   UNL     1     -32.125 -60.133  54.753  1.00  0.00    -0.289 OA
BRANCH  18  28
ATOM     28  O   UNL     1     -34.124 -61.689  59.286  1.00  0.00    -0.502 OA
ATOM     29  H   UNL     1     -34.213 -62.011  60.239  1.00  0.00     0.293 HD
ENDBRANCH  18  28
BRANCH  20  30
ATOM     30  O   UNL     1     -33.449 -61.486  56.502  1.00  0.00    -0.504 OA
ATOM     31  H   UNL     1     -34.231 -61.226  55.919  1.00  0.00     0.293 HD
ENDBRANCH  20  30
BRANCH  25  32
ATOM     32  C   UNL     1     -29.181 -56.553  56.050  1.00  0.00     0.017 A 
ATOM     33  C   UNL     1     -29.542 -55.193  56.138  1.00  0.00     0.012 A 
ATOM     34  C   UNL     1     -27.859 -56.882  55.698  1.00  0.00     0.012 A 
ATOM     35  C   UNL     1     -28.606 -54.193  55.856  1.00  0.00     0.001 A 
ATOM     36  C   UNL     1     -26.928 -55.877  55.417  1.00  0.00     0.001 A 
ATOM     37  C   UNL     1     -27.302 -54.533  55.493  1.00  0.00     0.000 A 
ENDBRANCH  25  32
ENDBRANCH   1  17
TORSDOF 9
ENDMDL
MODEL 7
REMARK VINA RESULT:    -5.876     10.326     12.310
REMARK INTER + INTRA:          -9.602
REMARK INTER:                  -8.474
REMARK INTRA:                  -1.128
REMARK UNBOUND:                -1.493
REMARK SMILES O=C([O-])[C@@H]1O[C@H](Oc2cc3oc(-c4ccccc4)cc(=O)c3c(O)c2O)[C@@H](O)[C@@H](O)[C@H]1O
REMARK SMILES IDX 7 1 6 2 4 3 31 4 5 5 29 6 27 7 2 8 1 9 3 10 32 11 30 13
REMARK SMILES IDX 28 15 8 17 25 18 9 19 23 20 10 21 22 22 11 23 20 24 12 25
REMARK SMILES IDX 19 26 21 27 26 28 24 30 13 32 14 33 18 34 15 35 17 36 16 37
REMARK H PARENT 32 12 30 14 28 16 26 29 24 31
REMARK Flexibility Score: inf
ROOT
ATOM      1  O   UNL     1     -28.979 -56.738  54.324  1.00  0.00    -0.458 OA
ENDROOT
BRANCH   1   2
ATOM      2  C   UNL     1     -28.486 -55.685  53.494  1.00  0.00     0.339 C 
ATOM      3  C   UNL     1     -27.069 -54.319  54.883  1.00  0.00     0.199 C 
ATOM      4  C   UNL     1     -26.310 -55.644  55.165  1.00  0.00     0.180 C 
ATOM      5  O   UNL     1     -28.336 -54.487  54.252  1.00  0.00    -0.328 OA
ATOM      6  C   UNL     1     -26.095 -56.457  53.863  1.00  0.00     0.181 C 
ATOM      7  C   UNL     1     -27.182 -56.137  52.806  1.00  0.00     0.214 C 
BRANCH   3   8
ATOM      8  C   UNL     1     -27.284 -53.573  56.165  1.00  0.00     0.073 C 
ATOM      9  O   UNL     1     -28.320 -53.775  56.852  1.00  0.00    -0.547 OA
ATOM     10  O   UNL     1     -26.355 -52.628  56.585  1.00  0.00    -0.547 OA
ENDBRANCH   3   8
BRANCH   4  11
ATOM     11  O   UNL     1     -25.092 -55.420  55.835  1.00  0.00    -0.387 OA
ATOM     12  H   UNL     1     -24.987 -54.441  55.958  1.00  0.00     0.211 HD
ENDBRANCH   4  11
BRANCH   6  13
ATOM     13  O   UNL     1     -24.814 -56.223  53.333  1.00  0.00    -0.387 OA
ATOM     14  H   UNL     1     -24.940 -55.971  52.380  1.00  0.00     0.211 HD
ENDBRANCH   6  13
BRANCH   7  15
ATOM     15  O   UNL     1     -26.732 -55.125  51.938  1.00  0.00    -0.384 OA
ATOM     16  H   UNL     1     -27.054 -54.263  52.312  1.00  0.00     0.211 HD
ENDBRANCH   7  15
ENDBRANCH   1   2
BRANCH   1  17
ATOM     17  C   UNL     1     -30.009 -56.645  55.278  1.00  0.00     0.172 A 
ATOM     18  C   UNL     1     -31.219 -55.941  55.068  1.00  0.00     0.201 A 
ATOM     19  C   UNL     1     -29.799 -57.307  56.488  1.00  0.00     0.098 A 
ATOM     20  C   UNL     1     -32.171 -55.849  56.117  1.00  0.00     0.176 A 
ATOM     21  C   UNL     1     -30.742 -57.257  57.510  1.00  0.00     0.146 A 
ATOM     22  C   UNL     1     -31.935 -56.522  57.341  1.00  0.00     0.111 A 
ATOM     23  O   UNL     1     -30.497 -57.905  58.644  1.00  0.00    -0.456 OA
ATOM     24  C   UNL     1     -32.839 -56.495  58.426  1.00  0.00     0.197 A 
ATOM     25  C   UNL     1     -31.333 -57.910  59.680  1.00  0.00     0.138 A 
ATOM     26  C   UNL     1     -32.534 -57.190  59.597  1.00  0.00     0.100 A 
ATOM     27  O   UNL     1     -33.923 -55.853  58.365  1.00  0.00    -0.289 OA
BRANCH  18  28
ATOM     28  O   UNL     1     -31.469 -55.382  53.813  1.00  0.00    -0.502 OA
ATOM     29  H   UNL     1     -31.044 -55.693  52.952  1.00  0.00     0.293 HD
ENDBRANCH  18  28
BRANCH  20  30
ATOM     30  O   UNL     1     -33.340 -55.092  55.973  1.00  0.00    -0.504 OA
ATOM     31  H   UNL     1     -34.024 -55.231  55.244  1.00  0.00     0.293 HD
ENDBRANCH  20  30
BRANCH  25  32
ATOM     32  C   UNL     1     -30.955 -58.670  60.899  1.00  0.00     0.017 A 
ATOM     33  C   UNL     1     -31.906 -59.390  61.650  1.00  0.00     0.012 A 
ATOM     34  C   UNL     1     -29.608 -58.700  61.305  1.00  0.00     0.012 A 
ATOM     35  C   UNL     1     -31.517 -60.101  62.790  1.00  0.00     0.001 A 
ATOM     36  C   UNL     1     -29.226 -59.411  62.446  1.00  0.00     0.001 A 
ATOM     37  C   UNL     1     -30.180 -60.109  63.190  1.00  0.00     0.000 A 
ENDBRANCH  25  32
ENDBRANCH   1  17
TORSDOF 9
ENDMDL
MODEL 8
REMARK VINA RESULT:    -5.863      2.498      8.677
REMARK INTER + INTRA:          -9.584
REMARK INTER:                  -8.079
REMARK INTRA:                  -1.505
REMARK UNBOUND:                -1.493
REMARK SMILES O=C([O-])[C@@H]1O[C@H](Oc2cc3oc(-c4ccccc4)cc(=O)c3c(O)c2O)[C@@H](O)[C@@H](O)[C@H]1O
REMARK SMILES IDX 7 1 6 2 4 3 31 4 5 5 29 6 27 7 2 8 1 9 3 10 32 11 30 13
REMARK SMILES IDX 28 15 8 17 25 18 9 19 23 20 10 21 22 22 11 23 20 24 12 25
REMARK SMILES IDX 19 26 21 27 26 28 24 30 13 32 14 33 18 34 15 35 17 36 16 37
REMARK H PARENT 32 12 30 14 28 16 26 29 24 31
REMARK Flexibility Score: inf
ROOT
ATOM      1  O   UNL     1     -27.002 -65.062  56.543  1.00  0.00    -0.458 OA
ENDROOT
BRANCH   1   2
ATOM      2  C   UNL     1     -27.503 -64.903  55.214  1.00  0.00     0.339 C 
ATOM      3  C   UNL     1     -29.290 -66.498  54.955  1.00  0.00     0.199 C 
ATOM      4  C   UNL     1     -29.893 -65.810  56.211  1.00  0.00     0.180 C 
ATOM      5  O   UNL     1     -27.930 -66.159  54.694  1.00  0.00    -0.328 OA
ATOM      6  C   UNL     1     -29.792 -64.267  56.109  1.00  0.00     0.181 C 
ATOM      7  C   UNL     1     -28.612 -63.832  55.205  1.00  0.00     0.214 C 
BRANCH   3   8
ATOM      8  C   UNL     1     -29.377 -67.987  55.100  1.00  0.00     0.073 C 
ATOM      9  O   UNL     1     -29.393 -68.726  54.081  1.00  0.00    -0.547 OA
ATOM     10  O   UNL     1     -29.478 -68.559  56.364  1.00  0.00    -0.547 OA
ENDBRANCH   3   8
BRANCH   4  11
ATOM     11  O   UNL     1     -31.218 -66.221  56.449  1.00  0.00    -0.387 OA
ATOM     12  H   UNL     1     -31.530 -65.779  57.281  1.00  0.00     0.211 HD
ENDBRANCH   4  11
BRANCH   6  13
ATOM     13  O   UNL     1     -30.997 -63.717  55.636  1.00  0.00    -0.387 OA
ATOM     14  H   UNL     1     -31.714 -64.023  56.253  1.00  0.00     0.211 HD
ENDBRANCH   6  13
BRANCH   7  15
ATOM     15  O   UNL     1     -29.058 -63.628  53.887  1.00  0.00    -0.384 OA
ATOM     16  H   UNL     1     -29.917 -63.133  53.948  1.00  0.00     0.211 HD
ENDBRANCH   7  15
ENDBRANCH   1   2
BRANCH   1  17
ATOM     17  C   UNL     1     -25.752 -65.590  56.913  1.00  0.00     0.172 A 
ATOM     18  C   UNL     1     -25.533 -66.951  57.234  1.00  0.00     0.201 A 
ATOM     19  C   UNL     1     -24.682 -64.695  56.942  1.00  0.00     0.098 A 
ATOM     20  C   UNL     1     -24.247 -67.376  57.660  1.00  0.00     0.176 A 
ATOM     21  C   UNL     1     -23.408 -65.107  57.321  1.00  0.00     0.146 A 
ATOM     22  C   UNL     1     -23.175 -66.449  57.691  1.00  0.00     0.111 A 
ATOM     23  O   UNL     1     -22.420 -64.218  57.332  1.00  0.00    -0.456 OA
ATOM     24  C   UNL     1     -21.864 -66.796  58.084  1.00  0.00     0.197 A 
ATOM     25  C   UNL     1     -21.172 -64.514  57.685  1.00  0.00     0.138 A 
ATOM     26  C   UNL     1     -20.862 -65.824  58.083  1.00  0.00     0.100 A 
ATOM     27  O   UNL     1     -21.571 -67.969  58.442  1.00  0.00    -0.289 OA
BRANCH  18  28
ATOM     28  O   UNL     1     -26.583 -67.860  57.088  1.00  0.00    -0.502 OA
ATOM     29  H   UNL     1     -26.840 -68.553  57.775  1.00  0.00     0.293 HD
ENDBRANCH  18  28
BRANCH  20  30
ATOM     30  O   UNL     1     -24.015 -68.696  58.064  1.00  0.00    -0.504 OA
ATOM     31  H   UNL     1     -24.444 -69.506  57.644  1.00  0.00     0.293 HD
ENDBRANCH  20  30
BRANCH  25  32
ATOM     32  C   UNL     1     -20.149 -63.438  57.662  1.00  0.00     0.017 A 
ATOM     33  C   UNL     1     -18.983 -63.538  56.874  1.00  0.00     0.012 A 
ATOM     34  C   UNL     1     -20.355 -62.271  58.420  1.00  0.00     0.012 A 
ATOM     35  C   UNL     1     -18.041 -62.505  56.868  1.00  0.00     0.001 A 
ATOM     36  C   UNL     1     -19.409 -61.242  58.411  1.00  0.00     0.001 A 
ATOM     37  C   UNL     1     -18.252 -61.359  57.638  1.00  0.00     0.000 A 
ENDBRANCH  25  32
ENDBRANCH   1  17
TORSDOF 9
ENDMDL
MODEL 9
REMARK VINA RESULT:    -5.806      2.657      4.290
REMARK INTER + INTRA:          -9.505
REMARK INTER:                  -8.450
REMARK INTRA:                  -1.055
REMARK UNBOUND:                -1.493
REMARK SMILES O=C([O-])[C@@H]1O[C@H](Oc2cc3oc(-c4ccccc4)cc(=O)c3c(O)c2O)[C@@H](O)[C@@H](O)[C@H]1O
REMARK SMILES IDX 7 1 6 2 4 3 31 4 5 5 29 6 27 7 2 8 1 9 3 10 32 11 30 13
REMARK SMILES IDX 28 15 8 17 25 18 9 19 23 20 10 21 22 22 11 23 20 24 12 25
REMARK SMILES IDX 19 26 21 27 26 28 24 30 13 32 14 33 18 34 15 35 17 36 16 37
REMARK H PARENT 32 12 30 14 28 16 26 29 24 31
REMARK Flexibility Score: inf
ROOT
ATOM      1  O   UNL     1     -23.956 -63.917  56.643  1.00  0.00    -0.458 OA
ENDROOT
BRANCH   1   2
ATOM      2  C   UNL     1     -23.685 -63.074  57.765  1.00  0.00     0.339 C 
ATOM      3  C   UNL     1     -22.159 -61.375  56.999  1.00  0.00     0.199 C 
ATOM      4  C   UNL     1     -23.243 -61.088  55.924  1.00  0.00     0.180 C 
ATOM      5  O   UNL     1     -22.344 -62.596  57.711  1.00  0.00    -0.328 OA
ATOM      6  C   UNL     1     -24.661 -61.070  56.548  1.00  0.00     0.181 C 
ATOM      7  C   UNL     1     -24.732 -61.943  57.826  1.00  0.00     0.214 C 
BRANCH   3   8
ATOM      8  C   UNL     1     -20.804 -61.413  56.357  1.00  0.00     0.073 C 
ATOM      9  O   UNL     1     -20.659 -61.907  55.208  1.00  0.00    -0.547 OA
ATOM     10  O   UNL     1     -19.695 -60.933  57.043  1.00  0.00    -0.547 OA
ENDBRANCH   3   8
BRANCH   4  11
ATOM     11  O   UNL     1     -22.981 -59.898  55.218  1.00  0.00    -0.387 OA
ATOM     12  H   UNL     1     -23.770 -59.699  54.651  1.00  0.00     0.211 HD
ENDBRANCH   4  11
BRANCH   6  13
ATOM     13  O   UNL     1     -25.067 -59.754  56.833  1.00  0.00    -0.387 OA
ATOM     14  H   UNL     1     -25.518 -59.778  57.717  1.00  0.00     0.211 HD
ENDBRANCH   6  13
BRANCH   7  15
ATOM     15  O   UNL     1     -24.506 -61.153  58.968  1.00  0.00    -0.384 OA
ATOM     16  H   UNL     1     -23.591 -61.370  59.290  1.00  0.00     0.211 HD
ENDBRANCH   7  15
ENDBRANCH   1   2
BRANCH   1  17
ATOM     17  C   UNL     1     -25.075 -64.751  56.469  1.00  0.00     0.172 A 
ATOM     18  C   UNL     1     -25.293 -65.942  57.201  1.00  0.00     0.201 A 
ATOM     19  C   UNL     1     -26.014 -64.344  55.521  1.00  0.00     0.098 A 
ATOM     20  C   UNL     1     -26.421 -66.753  56.908  1.00  0.00     0.176 A 
ATOM     21  C   UNL     1     -27.144 -65.110  55.251  1.00  0.00     0.146 A 
ATOM     22  C   UNL     1     -27.359 -66.326  55.935  1.00  0.00     0.111 A 
ATOM     23  O   UNL     1     -28.010 -64.681  54.339  1.00  0.00    -0.456 OA
ATOM     24  C   UNL     1     -28.515 -67.064  55.598  1.00  0.00     0.197 A 
ATOM     25  C   UNL     1     -29.114 -65.345  54.008  1.00  0.00     0.138 A 
ATOM     26  C   UNL     1     -29.392 -66.572  54.631  1.00  0.00     0.100 A 
ATOM     27  O   UNL     1     -28.778 -68.166  56.151  1.00  0.00    -0.289 OA
BRANCH  18  28
ATOM     28  O   UNL     1     -24.410 -66.278  58.229  1.00  0.00    -0.502 OA
ATOM     29  H   UNL     1     -24.203 -65.689  59.022  1.00  0.00     0.293 HD
ENDBRANCH  18  28
BRANCH  20  30
ATOM     30  O   UNL     1     -26.624 -67.978  57.554  1.00  0.00    -0.504 OA
ATOM     31  H   UNL     1     -26.221 -68.854  57.257  1.00  0.00     0.293 HD
ENDBRANCH  20  30
BRANCH  25  32
ATOM     32  C   UNL     1     -30.011 -64.770  52.973  1.00  0.00     0.017 A 
ATOM     33  C   UNL     1     -31.415 -64.835  53.086  1.00  0.00     0.012 A 
ATOM     34  C   UNL     1     -29.451 -64.114  51.860  1.00  0.00     0.012 A 
ATOM     35  C   UNL     1     -32.232 -64.278  52.098  1.00  0.00     0.001 A 
ATOM     36  C   UNL     1     -30.274 -63.560  50.875  1.00  0.00     0.001 A 
ATOM     37  C   UNL     1     -31.663 -63.644  50.992  1.00  0.00     0.000 A 
ENDBRANCH  25  32
ENDBRANCH   1  17
TORSDOF 9
ENDMDL
