MODEL 1
REMARK VINA RESULT:    -4.701      0.000      0.000
REMARK INTER + INTRA:          -4.839
REMARK INTER:                  -4.839
REMARK INTRA:                   0.000
REMARK UNBOUND:                 0.000
REMARK SMILES Oc1ccc2[nH]ccc2c1
REMARK SMILES IDX 3 1 4 2 5 3 9 4 8 5 7 6 6 7 10 8 2 9 1 11
REMARK H PARENT 6 10 1 12
REMARK Flexibility Score: inf
ROOT
ATOM      1  C   UNL     1      -2.590  -4.166   2.602  1.00  0.00     0.048 A 
ATOM      2  C   UNL     1      -3.746  -3.930   1.835  1.00  0.00     0.030 A 
ATOM      3  C   UNL     1      -4.944  -4.491   2.274  1.00  0.00     0.046 A 
ATOM      4  C   UNL     1      -5.009  -5.248   3.413  1.00  0.00     0.003 A 
ATOM      5  C   UNL     1      -6.318  -5.648   3.567  1.00  0.00     0.028 A 
ATOM      6  C   UNL     1      -6.997  -5.097   2.484  1.00  0.00     0.083 A 
ATOM      7  N   UNL     1      -6.152  -4.391   1.697  1.00  0.00    -0.361 N 
ATOM      8  C   UNL     1      -3.884  -5.502   4.195  1.00  0.00     0.056 A 
ATOM      9  C   UNL     1      -2.655  -4.949   3.779  1.00  0.00     0.116 A 
ATOM     10  H   UNL     1      -6.394  -3.875   0.822  1.00  0.00     0.166 HD
ENDROOT
BRANCH   9  11
ATOM     11  O   UNL     1      -1.496  -5.167   4.520  1.00  0.00    -0.508 OA
ATOM     12  H   UNL     1      -0.836  -4.420   4.702  1.00  0.00     0.293 HD
ENDBRANCH   9  11
TORSDOF 1
ENDMDL
MODEL 2
REMARK VINA RESULT:    -4.561      2.131      3.270
REMARK INTER + INTRA:          -4.695
REMARK INTER:                  -4.695
REMARK INTRA:                   0.000
REMARK UNBOUND:                 0.000
REMARK SMILES Oc1ccc2[nH]ccc2c1
REMARK SMILES IDX 3 1 4 2 5 3 9 4 8 5 7 6 6 7 10 8 2 9 1 11
REMARK H PARENT 6 10 1 12
REMARK Flexibility Score: inf
ROOT
ATOM      1  C   UNL     1      -5.307  -4.982   5.442  1.00  0.00     0.048 A 
ATOM      2  C   UNL     1      -5.187  -5.491   4.136  1.00  0.00     0.030 A 
ATOM      3  C   UNL     1      -4.312  -4.846   3.264  1.00  0.00     0.046 A 
ATOM      4  C   UNL     1      -3.587  -3.751   3.651  1.00  0.00     0.003 A 
ATOM      5  C   UNL     1      -2.830  -3.355   2.571  1.00  0.00     0.028 A 
ATOM      6  C   UNL     1      -3.144  -4.256   1.557  1.00  0.00     0.083 A 
ATOM      7  N   UNL     1      -4.050  -5.164   1.986  1.00  0.00    -0.361 N 
ATOM      8  C   UNL     1      -3.683  -3.221   4.936  1.00  0.00     0.056 A 
ATOM      9  C   UNL     1      -4.559  -3.851   5.845  1.00  0.00     0.116 A 
ATOM     10  H   UNL     1      -4.459  -5.951   1.434  1.00  0.00     0.166 HD
ENDROOT
BRANCH   9  11
ATOM     11  O   UNL     1      -4.697  -3.367   7.143  1.00  0.00    -0.508 OA
ATOM     12  H   UNL     1      -5.598  -3.341   7.606  1.00  0.00     0.293 HD
ENDBRANCH   9  11
TORSDOF 1
ENDMDL
MODEL 3
REMARK VINA RESULT:    -4.537     10.407     11.056
REMARK INTER + INTRA:          -4.669
REMARK INTER:                  -4.669
REMARK INTRA:                   0.000
REMARK UNBOUND:                 0.000
REMARK SMILES Oc1ccc2[nH]ccc2c1
REMARK SMILES IDX 3 1 4 2 5 3 9 4 8 5 7 6 6 7 10 8 2 9 1 11
REMARK H PARENT 6 10 1 12
REMARK Flexibility Score: inf
ROOT
ATOM      1  C   UNL     1       4.880  -6.761  -3.189  1.00  0.00     0.048 A 
ATOM      2  C   UNL     1       4.567  -5.510  -2.626  1.00  0.00     0.030 A 
ATOM      3  C   UNL     1       3.703  -4.676  -3.332  1.00  0.00     0.046 A 
ATOM      4  C   UNL     1       3.167  -5.048  -4.536  1.00  0.00     0.003 A 
ATOM      5  C   UNL     1       2.365  -4.014  -4.967  1.00  0.00     0.028 A 
ATOM      6  C   UNL     1       2.459  -3.043  -3.975  1.00  0.00     0.083 A 
ATOM      7  N   UNL     1       3.278  -3.452  -2.978  1.00  0.00    -0.361 N 
ATOM      8  C   UNL     1       3.456  -6.279  -5.122  1.00  0.00     0.056 A 
ATOM      9  C   UNL     1       4.328  -7.148  -4.433  1.00  0.00     0.116 A 
ATOM     10  H   UNL     1       3.525  -2.923  -2.113  1.00  0.00     0.166 HD
ENDROOT
BRANCH   9  11
ATOM     11  O   UNL     1       4.653  -8.391  -4.969  1.00  0.00    -0.508 OA
ATOM     12  H   UNL     1       5.414  -8.947  -4.593  1.00  0.00     0.293 HD
ENDBRANCH   9  11
TORSDOF 1
ENDMDL
MODEL 4
REMARK VINA RESULT:    -4.533      2.329      3.034
REMARK INTER + INTRA:          -4.665
REMARK INTER:                  -4.665
REMARK INTRA:                   0.000
REMARK UNBOUND:                 0.000
REMARK SMILES Oc1ccc2[nH]ccc2c1
REMARK SMILES IDX 3 1 4 2 5 3 9 4 8 5 7 6 6 7 10 8 2 9 1 11
REMARK H PARENT 6 10 1 12
REMARK Flexibility Score: inf
ROOT
ATOM      1  C   UNL     1      -4.083  -5.553   2.464  1.00  0.00     0.048 A 
ATOM      2  C   UNL     1      -4.972  -5.812   3.523  1.00  0.00     0.030 A 
ATOM      3  C   UNL     1      -4.932  -4.964   4.629  1.00  0.00     0.046 A 
ATOM      4  C   UNL     1      -4.062  -3.909   4.696  1.00  0.00     0.003 A 
ATOM      5  C   UNL     1      -4.272  -3.278   5.901  1.00  0.00     0.028 A 
ATOM      6  C   UNL     1      -5.286  -4.002   6.520  1.00  0.00     0.083 A 
ATOM      7  N   UNL     1      -5.686  -5.032   5.738  1.00  0.00    -0.361 N 
ATOM      8  C   UNL     1      -3.169  -3.625   3.665  1.00  0.00     0.056 A 
ATOM      9  C   UNL     1      -3.183  -4.464   2.530  1.00  0.00     0.116 A 
ATOM     10  H   UNL     1      -6.429  -5.733   5.956  1.00  0.00     0.166 HD
ENDROOT
BRANCH   9  11
ATOM     11  O   UNL     1      -2.314  -4.228   1.468  1.00  0.00    -0.508 OA
ATOM     12  H   UNL     1      -1.310  -4.191   1.604  1.00  0.00     0.293 HD
ENDBRANCH   9  11
TORSDOF 1
ENDMDL
MODEL 5
REMARK VINA RESULT:    -4.493      2.709      3.176
REMARK INTER + INTRA:          -4.624
REMARK INTER:                  -4.624
REMARK INTRA:                   0.000
REMARK UNBOUND:                 0.000
REMARK SMILES Oc1ccc2[nH]ccc2c1
REMARK SMILES IDX 3 1 4 2 5 3 9 4 8 5 7 6 6 7 10 8 2 9 1 11
REMARK H PARENT 6 10 1 12
REMARK Flexibility Score: inf
ROOT
ATOM      1  C   UNL     1      -3.543  -5.062   2.588  1.00  0.00     0.048 A 
ATOM      2  C   UNL     1      -3.189  -4.041   3.490  1.00  0.00     0.030 A 
ATOM      3  C   UNL     1      -3.942  -3.912   4.655  1.00  0.00     0.046 A 
ATOM      4  C   UNL     1      -4.994  -4.745   4.929  1.00  0.00     0.003 A 
ATOM      5  C   UNL     1      -5.521  -4.358   6.141  1.00  0.00     0.028 A 
ATOM      6  C   UNL     1      -4.740  -3.282   6.551  1.00  0.00     0.083 A 
ATOM      7  N   UNL     1      -3.776  -3.014   5.639  1.00  0.00    -0.361 N 
ATOM      8  C   UNL     1      -5.371  -5.765   4.058  1.00  0.00     0.056 A 
ATOM      9  C   UNL     1      -4.629  -5.924   2.868  1.00  0.00     0.116 A 
ATOM     10  H   UNL     1      -3.054  -2.262   5.694  1.00  0.00     0.166 HD
ENDROOT
BRANCH   9  11
ATOM     11  O   UNL     1      -4.959  -6.927   1.960  1.00  0.00    -0.508 OA
ATOM     12  H   UNL     1      -4.684  -6.869   0.986  1.00  0.00     0.293 HD
ENDBRANCH   9  11
TORSDOF 1
ENDMDL
MODEL 6
REMARK VINA RESULT:    -4.406      2.139      2.328
REMARK INTER + INTRA:          -4.535
REMARK INTER:                  -4.535
REMARK INTRA:                   0.000
REMARK UNBOUND:                 0.000
REMARK SMILES Oc1ccc2[nH]ccc2c1
REMARK SMILES IDX 3 1 4 2 5 3 9 4 8 5 7 6 6 7 10 8 2 9 1 11
REMARK H PARENT 6 10 1 12
REMARK Flexibility Score: inf
ROOT
ATOM      1  C   UNL     1      -3.523  -3.110   4.570  1.00  0.00     0.048 A 
ATOM      2  C   UNL     1      -3.471  -3.775   3.331  1.00  0.00     0.030 A 
ATOM      3  C   UNL     1      -4.167  -4.976   3.206  1.00  0.00     0.046 A 
ATOM      4  C   UNL     1      -4.883  -5.504   4.247  1.00  0.00     0.003 A 
ATOM      5  C   UNL     1      -5.445  -6.681   3.805  1.00  0.00     0.028 A 
ATOM      6  C   UNL     1      -5.029  -6.809   2.483  1.00  0.00     0.083 A 
ATOM      7  N   UNL     1      -4.248  -5.764   2.123  1.00  0.00    -0.361 N 
ATOM      8  C   UNL     1      -4.956  -4.872   5.487  1.00  0.00     0.056 A 
ATOM      9  C   UNL     1      -4.262  -3.653   5.647  1.00  0.00     0.116 A 
ATOM     10  H   UNL     1      -3.802  -5.608   1.192  1.00  0.00     0.166 HD
ENDROOT
BRANCH   9  11
ATOM     11  O   UNL     1      -4.299  -2.975   6.862  1.00  0.00    -0.508 OA
ATOM     12  H   UNL     1      -3.635  -3.178   7.601  1.00  0.00     0.293 HD
ENDBRANCH   9  11
TORSDOF 1
ENDMDL
MODEL 7
REMARK VINA RESULT:    -4.401      1.273      2.725
REMARK INTER + INTRA:          -4.530
REMARK INTER:                  -4.530
REMARK INTRA:                   0.000
REMARK UNBOUND:                 0.000
REMARK SMILES Oc1ccc2[nH]ccc2c1
REMARK SMILES IDX 3 1 4 2 5 3 9 4 8 5 7 6 6 7 10 8 2 9 1 11
REMARK H PARENT 6 10 1 12
REMARK Flexibility Score: inf
ROOT
ATOM      1  C   UNL     1      -4.163  -5.524   3.384  1.00  0.00     0.048 A 
ATOM      2  C   UNL     1      -5.025  -4.947   2.432  1.00  0.00     0.030 A 
ATOM      3  C   UNL     1      -4.603  -3.784   1.791  1.00  0.00     0.046 A 
ATOM      4  C   UNL     1      -3.391  -3.209   2.068  1.00  0.00     0.003 A 
ATOM      5  C   UNL     1      -3.277  -2.088   1.277  1.00  0.00     0.028 A 
ATOM      6  C   UNL     1      -4.457  -2.040   0.542  1.00  0.00     0.083 A 
ATOM      7  N   UNL     1      -5.264  -3.078   0.860  1.00  0.00    -0.361 N 
ATOM      8  C   UNL     1      -2.514  -3.754   3.005  1.00  0.00     0.056 A 
ATOM      9  C   UNL     1      -2.911  -4.932   3.672  1.00  0.00     0.116 A 
ATOM     10  H   UNL     1      -6.206  -3.285   0.461  1.00  0.00     0.166 HD
ENDROOT
BRANCH   9  11
ATOM     11  O   UNL     1      -2.077  -5.522   4.617  1.00  0.00    -0.508 OA
ATOM     12  H   UNL     1      -1.764  -6.482   4.521  1.00  0.00     0.293 HD
ENDBRANCH   9  11
TORSDOF 1
ENDMDL
MODEL 8
REMARK VINA RESULT:    -4.343     10.131     10.822
REMARK INTER + INTRA:          -4.470
REMARK INTER:                  -4.470
REMARK INTRA:                   0.000
REMARK UNBOUND:                 0.000
REMARK SMILES Oc1ccc2[nH]ccc2c1
REMARK SMILES IDX 3 1 4 2 5 3 9 4 8 5 7 6 6 7 10 8 2 9 1 11
REMARK H PARENT 6 10 1 12
REMARK Flexibility Score: inf
ROOT
ATOM      1  C   UNL     1       2.961  -4.272  -4.136  1.00  0.00     0.048 A 
ATOM      2  C   UNL     1       2.105  -5.384  -4.238  1.00  0.00     0.030 A 
ATOM      3  C   UNL     1       2.645  -6.646  -4.000  1.00  0.00     0.046 A 
ATOM      4  C   UNL     1       3.965  -6.815  -3.675  1.00  0.00     0.003 A 
ATOM      5  C   UNL     1       4.178  -8.165  -3.505  1.00  0.00     0.028 A 
ATOM      6  C   UNL     1       2.943  -8.761  -3.742  1.00  0.00     0.083 A 
ATOM      7  N   UNL     1       2.010  -7.828  -4.044  1.00  0.00    -0.361 N 
ATOM      8  C   UNL     1       4.840  -5.736  -3.566  1.00  0.00     0.056 A 
ATOM      9  C   UNL     1       4.325  -4.444  -3.801  1.00  0.00     0.116 A 
ATOM     10  H   UNL     1       1.004  -7.998  -4.265  1.00  0.00     0.166 HD
ENDROOT
BRANCH   9  11
ATOM     11  O   UNL     1       5.152  -3.327  -3.706  1.00  0.00    -0.508 OA
ATOM     12  H   UNL     1       5.042  -2.649  -2.960  1.00  0.00     0.293 HD
ENDBRANCH   9  11
TORSDOF 1
ENDMDL
MODEL 9
REMARK VINA RESULT:    -4.166     10.258     10.618
REMARK INTER + INTRA:          -4.288
REMARK INTER:                  -4.288
REMARK INTRA:                   0.000
REMARK UNBOUND:                 0.000
REMARK SMILES Oc1ccc2[nH]ccc2c1
REMARK SMILES IDX 3 1 4 2 5 3 9 4 8 5 7 6 6 7 10 8 2 9 1 11
REMARK H PARENT 6 10 1 12
REMARK Flexibility Score: inf
ROOT
ATOM      1  C   UNL     1       4.327  -4.354  -3.271  1.00  0.00     0.048 A 
ATOM      2  C   UNL     1       4.594  -5.730  -3.147  1.00  0.00     0.030 A 
ATOM      3  C   UNL     1       3.640  -6.625  -3.627  1.00  0.00     0.046 A 
ATOM      4  C   UNL     1       2.474  -6.194  -4.202  1.00  0.00     0.003 A 
ATOM      5  C   UNL     1       1.756  -7.312  -4.565  1.00  0.00     0.028 A 
ATOM      6  C   UNL     1       2.545  -8.392  -4.180  1.00  0.00     0.083 A 
ATOM      7  N   UNL     1       3.695  -7.966  -3.607  1.00  0.00    -0.361 N 
ATOM      8  C   UNL     1       2.178  -4.840  -4.340  1.00  0.00     0.056 A 
ATOM      9  C   UNL     1       3.124  -3.907  -3.865  1.00  0.00     0.116 A 
ATOM     10  H   UNL     1       4.464  -8.562  -3.229  1.00  0.00     0.166 HD
ENDROOT
BRANCH   9  11
ATOM     11  O   UNL     1       2.883  -2.539  -3.977  1.00  0.00    -0.508 OA
ATOM     12  H   UNL     1       2.000  -2.133  -3.689  1.00  0.00     0.293 HD
ENDBRANCH   9  11
TORSDOF 1
ENDMDL
