MODEL 1
REMARK VINA RESULT:    -3.838      0.000      0.000
REMARK INTER + INTRA:         -10.967
REMARK INTER:                  -7.428
REMARK INTRA:                  -3.539
REMARK UNBOUND:                -3.539
REMARK SMILES CCCCCC=CCC=CCCCCCCCCOC(C)=O
REMARK SMILES IDX 12 1 11 2 10 3 9 4 8 5 7 6 6 7 5 8 4 9 3 10 2 11 1 12 13 13
REMARK SMILES IDX 14 14 15 15 16 16 17 17 18 18 19 19 20 20 22 21 21 22
REMARK H PARENT
REMARK Flexibility Score: inf
ROOT
ATOM      1  C   UNL     1     -22.221  33.208  -1.811  1.00  0.00     0.004 C 
ENDROOT
BRANCH   1   2
ATOM      2  C   UNL     1     -22.819  31.906  -2.363  1.00  0.00     0.027 C 
BRANCH   2   3
ATOM      3  C   UNL     1     -22.600  30.776  -1.390  1.00  0.00    -0.031 C 
ATOM      4  C   UNL     1     -21.973  29.621  -1.679  1.00  0.00    -0.027 C 
BRANCH   4   5
ATOM      5  C   UNL     1     -21.447  29.240  -3.041  1.00  0.00     0.054 C 
BRANCH   5   6
ATOM      6  C   UNL     1     -22.474  28.492  -3.855  1.00  0.00    -0.027 C 
ATOM      7  C   UNL     1     -23.129  28.998  -4.917  1.00  0.00    -0.031 C 
BRANCH   7   8
ATOM      8  C   UNL     1     -22.883  30.365  -5.508  1.00  0.00     0.027 C 
BRANCH   8   9
ATOM      9  C   UNL     1     -22.283  30.282  -6.919  1.00  0.00     0.004 C 
BRANCH   9  10
ATOM     10  C   UNL     1     -20.769  30.536  -6.923  1.00  0.00     0.000 C 
BRANCH  10  11
ATOM     11  C   UNL     1     -19.992  29.221  -7.047  1.00  0.00    -0.003 C 
ATOM     12  C   UNL     1     -19.019  29.042  -5.884  1.00  0.00     0.004 C 
ENDBRANCH  10  11
ENDBRANCH   9  10
ENDBRANCH   8   9
ENDBRANCH   7   8
ENDBRANCH   5   6
ENDBRANCH   4   5
ENDBRANCH   2   3
ENDBRANCH   1   2
BRANCH   1  13
ATOM     13  C   UNL     1     -20.948  33.640  -2.555  1.00  0.00     0.000 C 
BRANCH  13  14
ATOM     14  C   UNL     1     -20.656  32.766  -3.786  1.00  0.00     0.000 C 
BRANCH  14  15
ATOM     15  C   UNL     1     -19.327  32.002  -3.663  1.00  0.00     0.000 C 
BRANCH  15  16
ATOM     16  C   UNL     1     -18.667  32.186  -2.285  1.00  0.00     0.003 C 
BRANCH  16  17
ATOM     17  C   UNL     1     -18.270  30.848  -1.636  1.00  0.00     0.042 C 
BRANCH  17  18
ATOM     18  C   UNL     1     -16.836  30.408  -1.966  1.00  0.00     0.233 C 
BRANCH  18  19
ATOM     19  O   UNL     1     -16.790  29.634  -3.165  1.00  0.00    -0.466 OA
BRANCH  19  20
ATOM     20  C   UNL     1     -15.882  29.873  -4.203  1.00  0.00     0.302 C 
ATOM     21  O   UNL     1     -15.054  28.989  -4.554  1.00  0.00    -0.253 OA
ATOM     22  C   UNL     1     -15.862  31.207  -4.867  1.00  0.00     0.139 C 
ENDBRANCH  19  20
ENDBRANCH  18  19
ENDBRANCH  17  18
ENDBRANCH  16  17
ENDBRANCH  15  16
ENDBRANCH  14  15
ENDBRANCH  13  14
ENDBRANCH   1  13
TORSDOF 16
ENDMDL
MODEL 2
REMARK VINA RESULT:    -3.766      1.679      3.174
REMARK INTER + INTRA:         -10.827
REMARK INTER:                  -7.823
REMARK INTRA:                  -3.005
REMARK UNBOUND:                -3.539
REMARK SMILES CCCCCC=CCC=CCCCCCCCCOC(C)=O
REMARK SMILES IDX 12 1 11 2 10 3 9 4 8 5 7 6 6 7 5 8 4 9 3 10 2 11 1 12 13 13
REMARK SMILES IDX 14 14 15 15 16 16 17 17 18 18 19 19 20 20 22 21 21 22
REMARK H PARENT
REMARK Flexibility Score: inf
ROOT
ATOM      1  C   UNL     1     -19.873  32.784  -2.783  1.00  0.00     0.004 C 
ENDROOT
BRANCH   1   2
ATOM      2  C   UNL     1     -21.315  33.018  -3.251  1.00  0.00     0.027 C 
BRANCH   2   3
ATOM      3  C   UNL     1     -22.190  33.394  -2.082  1.00  0.00    -0.031 C 
ATOM      4  C   UNL     1     -23.139  32.605  -1.545  1.00  0.00    -0.027 C 
BRANCH   4   5
ATOM      5  C   UNL     1     -23.529  31.244  -2.067  1.00  0.00     0.054 C 
BRANCH   5   6
ATOM      6  C   UNL     1     -22.739  30.138  -1.412  1.00  0.00    -0.027 C 
ATOM      7  C   UNL     1     -22.335  29.013  -2.031  1.00  0.00    -0.031 C 
BRANCH   7   8
ATOM      8  C   UNL     1     -22.540  28.716  -3.496  1.00  0.00     0.027 C 
BRANCH   8   9
ATOM      9  C   UNL     1     -21.234  28.299  -4.188  1.00  0.00     0.004 C 
BRANCH   9  10
ATOM     10  C   UNL     1     -20.806  29.298  -5.272  1.00  0.00     0.000 C 
BRANCH  10  11
ATOM     11  C   UNL     1     -21.941  30.275  -5.597  1.00  0.00    -0.003 C 
ATOM     12  C   UNL     1     -22.298  30.234  -7.081  1.00  0.00     0.004 C 
ENDBRANCH  10  11
ENDBRANCH   9  10
ENDBRANCH   8   9
ENDBRANCH   7   8
ENDBRANCH   5   6
ENDBRANCH   4   5
ENDBRANCH   2   3
ENDBRANCH   1   2
BRANCH   1  13
ATOM     13  C   UNL     1     -19.528  31.293  -2.637  1.00  0.00     0.000 C 
BRANCH  13  14
ATOM     14  C   UNL     1     -18.413  31.042  -1.609  1.00  0.00     0.000 C 
BRANCH  14  15
ATOM     15  C   UNL     1     -17.011  31.084  -2.240  1.00  0.00     0.000 C 
BRANCH  15  16
ATOM     16  C   UNL     1     -16.809  29.988  -3.301  1.00  0.00     0.003 C 
BRANCH  16  17
ATOM     17  C   UNL     1     -15.716  30.347  -4.323  1.00  0.00     0.042 C 
BRANCH  17  18
ATOM     18  C   UNL     1     -16.027  29.868  -5.748  1.00  0.00     0.233 C 
BRANCH  18  19
ATOM     19  O   UNL     1     -17.305  30.327  -6.188  1.00  0.00    -0.466 OA
BRANCH  19  20
ATOM     20  C   UNL     1     -17.543  31.630  -6.639  1.00  0.00     0.302 C 
ATOM     21  O   UNL     1     -16.641  32.286  -7.228  1.00  0.00    -0.253 OA
ATOM     22  C   UNL     1     -18.864  32.267  -6.376  1.00  0.00     0.139 C 
ENDBRANCH  19  20
ENDBRANCH  18  19
ENDBRANCH  17  18
ENDBRANCH  16  17
ENDBRANCH  15  16
ENDBRANCH  14  15
ENDBRANCH  13  14
ENDBRANCH   1  13
TORSDOF 16
ENDMDL
MODEL 3
REMARK VINA RESULT:    -3.759      1.636      4.436
REMARK INTER + INTRA:         -10.815
REMARK INTER:                  -7.624
REMARK INTRA:                  -3.190
REMARK UNBOUND:                -3.539
REMARK SMILES CCCCCC=CCC=CCCCCCCCCOC(C)=O
REMARK SMILES IDX 12 1 11 2 10 3 9 4 8 5 7 6 6 7 5 8 4 9 3 10 2 11 1 12 13 13
REMARK SMILES IDX 14 14 15 15 16 16 17 17 18 18 19 19 20 20 22 21 21 22
REMARK H PARENT
REMARK Flexibility Score: inf
ROOT
ATOM      1  C   UNL     1     -22.136  29.462  -2.228  1.00  0.00     0.004 C 
ENDROOT
BRANCH   1   2
ATOM      2  C   UNL     1     -22.256  30.600  -1.204  1.00  0.00     0.027 C 
BRANCH   2   3
ATOM      3  C   UNL     1     -23.172  31.678  -1.726  1.00  0.00    -0.031 C 
ATOM      4  C   UNL     1     -22.781  32.915  -2.084  1.00  0.00    -0.027 C 
BRANCH   4   5
ATOM      5  C   UNL     1     -21.374  33.447  -1.958  1.00  0.00     0.054 C 
BRANCH   5   6
ATOM      6  C   UNL     1     -20.567  33.216  -3.211  1.00  0.00    -0.027 C 
ATOM      7  C   UNL     1     -19.489  32.414  -3.292  1.00  0.00    -0.031 C 
BRANCH   7   8
ATOM      8  C   UNL     1     -18.965  31.559  -2.164  1.00  0.00     0.027 C 
BRANCH   8   9
ATOM      9  C   UNL     1     -17.454  31.737  -1.960  1.00  0.00     0.004 C 
BRANCH   9  10
ATOM     10  C   UNL     1     -16.670  30.455  -2.277  1.00  0.00     0.000 C 
BRANCH  10  11
ATOM     11  C   UNL     1     -16.158  30.467  -3.721  1.00  0.00    -0.003 C 
ATOM     12  C   UNL     1     -15.943  29.049  -4.243  1.00  0.00     0.004 C 
ENDBRANCH  10  11
ENDBRANCH   9  10
ENDBRANCH   8   9
ENDBRANCH   7   8
ENDBRANCH   5   6
ENDBRANCH   4   5
ENDBRANCH   2   3
ENDBRANCH   1   2
BRANCH   1  13
ATOM     13  C   UNL     1     -23.314  29.421  -3.213  1.00  0.00     0.000 C 
BRANCH  13  14
ATOM     14  C   UNL     1     -22.856  29.325  -4.678  1.00  0.00     0.000 C 
BRANCH  14  15
ATOM     15  C   UNL     1     -22.343  30.669  -5.223  1.00  0.00     0.000 C 
BRANCH  15  16
ATOM     16  C   UNL     1     -21.014  30.527  -5.986  1.00  0.00     0.003 C 
BRANCH  16  17
ATOM     17  C   UNL     1     -20.085  29.469  -5.366  1.00  0.00     0.042 C 
BRANCH  17  18
ATOM     18  C   UNL     1     -18.998  28.967  -6.328  1.00  0.00     0.233 C 
BRANCH  18  19
ATOM     19  O   UNL     1     -18.647  29.964  -7.287  1.00  0.00    -0.466 OA
BRANCH  19  20
ATOM     20  C   UNL     1     -17.393  30.581  -7.335  1.00  0.00     0.302 C 
ATOM     21  O   UNL     1     -16.365  29.933  -7.672  1.00  0.00    -0.253 OA
ATOM     22  C   UNL     1     -17.263  32.011  -6.937  1.00  0.00     0.139 C 
ENDBRANCH  19  20
ENDBRANCH  18  19
ENDBRANCH  17  18
ENDBRANCH  16  17
ENDBRANCH  15  16
ENDBRANCH  14  15
ENDBRANCH  13  14
ENDBRANCH   1  13
TORSDOF 16
ENDMDL
MODEL 4
REMARK VINA RESULT:    -3.749      2.521      4.916
REMARK INTER + INTRA:         -10.795
REMARK INTER:                  -7.589
REMARK INTRA:                  -3.206
REMARK UNBOUND:                -3.539
REMARK SMILES CCCCCC=CCC=CCCCCCCCCOC(C)=O
REMARK SMILES IDX 12 1 11 2 10 3 9 4 8 5 7 6 6 7 5 8 4 9 3 10 2 11 1 12 13 13
REMARK SMILES IDX 14 14 15 15 16 16 17 17 18 18 19 19 20 20 22 21 21 22
REMARK H PARENT
REMARK Flexibility Score: inf
ROOT
ATOM      1  C   UNL     1     -21.433  33.156  -3.540  1.00  0.00     0.004 C 
ENDROOT
BRANCH   1   2
ATOM      2  C   UNL     1     -20.028  32.590  -3.784  1.00  0.00     0.027 C 
BRANCH   2   3
ATOM      3  C   UNL     1     -19.382  32.212  -2.475  1.00  0.00    -0.031 C 
ATOM      4  C   UNL     1     -18.555  31.165  -2.298  1.00  0.00    -0.027 C 
BRANCH   4   5
ATOM      5  C   UNL     1     -18.193  30.159  -3.363  1.00  0.00     0.054 C 
BRANCH   5   6
ATOM      6  C   UNL     1     -16.701  30.062  -3.566  1.00  0.00    -0.027 C 
ATOM      7  C   UNL     1     -15.972  30.912  -4.313  1.00  0.00    -0.031 C 
BRANCH   7   8
ATOM      8  C   UNL     1     -16.517  32.140  -4.999  1.00  0.00     0.027 C 
BRANCH   8   9
ATOM      9  C   UNL     1     -16.744  31.908  -6.500  1.00  0.00     0.004 C 
BRANCH   9  10
ATOM     10  C   UNL     1     -18.185  32.222  -6.926  1.00  0.00     0.000 C 
BRANCH  10  11
ATOM     11  C   UNL     1     -19.041  30.951  -6.946  1.00  0.00    -0.003 C 
ATOM     12  C   UNL     1     -18.189  29.717  -7.232  1.00  0.00     0.004 C 
ENDBRANCH  10  11
ENDBRANCH   9  10
ENDBRANCH   8   9
ENDBRANCH   7   8
ENDBRANCH   5   6
ENDBRANCH   4   5
ENDBRANCH   2   3
ENDBRANCH   1   2
BRANCH   1  13
ATOM     13  C   UNL     1     -21.609  33.724  -2.123  1.00  0.00     0.000 C 
BRANCH  13  14
ATOM     14  C   UNL     1     -22.910  33.249  -1.453  1.00  0.00     0.000 C 
BRANCH  14  15
ATOM     15  C   UNL     1     -23.212  31.769  -1.740  1.00  0.00     0.000 C 
BRANCH  15  16
ATOM     16  C   UNL     1     -22.271  30.817  -0.979  1.00  0.00     0.003 C 
BRANCH  16  17
ATOM     17  C   UNL     1     -21.942  29.545  -1.779  1.00  0.00     0.042 C 
BRANCH  17  18
ATOM     18  C   UNL     1     -23.182  28.729  -2.173  1.00  0.00     0.233 C 
BRANCH  18  19
ATOM     19  O   UNL     1     -23.231  28.497  -3.580  1.00  0.00    -0.466 OA
BRANCH  19  20
ATOM     20  C   UNL     1     -22.544  29.279  -4.515  1.00  0.00     0.302 C 
ATOM     21  O   UNL     1     -23.045  30.348  -4.958  1.00  0.00    -0.253 OA
ATOM     22  C   UNL     1     -21.224  28.816  -5.029  1.00  0.00     0.139 C 
ENDBRANCH  19  20
ENDBRANCH  18  19
ENDBRANCH  17  18
ENDBRANCH  16  17
ENDBRANCH  15  16
ENDBRANCH  14  15
ENDBRANCH  13  14
ENDBRANCH   1  13
TORSDOF 16
ENDMDL
MODEL 5
REMARK VINA RESULT:    -3.743      2.314      5.185
REMARK INTER + INTRA:         -10.784
REMARK INTER:                  -7.575
REMARK INTRA:                  -3.209
REMARK UNBOUND:                -3.539
REMARK SMILES CCCCCC=CCC=CCCCCCCCCOC(C)=O
REMARK SMILES IDX 12 1 11 2 10 3 9 4 8 5 7 6 6 7 5 8 4 9 3 10 2 11 1 12 13 13
REMARK SMILES IDX 14 14 15 15 16 16 17 17 18 18 19 19 20 20 22 21 21 22
REMARK H PARENT
REMARK Flexibility Score: inf
ROOT
ATOM      1  C   UNL     1     -18.871  31.274  -2.002  1.00  0.00     0.004 C 
ENDROOT
BRANCH   1   2
ATOM      2  C   UNL     1     -17.353  31.322  -1.785  1.00  0.00     0.027 C 
BRANCH   2   3
ATOM      3  C   UNL     1     -16.657  30.396  -2.750  1.00  0.00    -0.031 C 
ATOM      4  C   UNL     1     -16.232  30.741  -3.980  1.00  0.00    -0.027 C 
BRANCH   4   5
ATOM      5  C   UNL     1     -16.441  32.092  -4.619  1.00  0.00     0.054 C 
BRANCH   5   6
ATOM      6  C   UNL     1     -16.500  32.003  -6.124  1.00  0.00    -0.027 C 
ATOM      7  C   UNL     1     -17.635  31.921  -6.844  1.00  0.00    -0.031 C 
BRANCH   7   8
ATOM      8  C   UNL     1     -19.027  31.986  -6.265  1.00  0.00     0.027 C 
BRANCH   8   9
ATOM      9  C   UNL     1     -19.766  30.645  -6.392  1.00  0.00     0.004 C 
BRANCH   9  10
ATOM     10  C   UNL     1     -19.539  29.740  -5.172  1.00  0.00     0.000 C 
BRANCH  10  11
ATOM     11  C   UNL     1     -18.777  28.470  -5.566  1.00  0.00    -0.003 C 
ATOM     12  C   UNL     1     -19.596  27.218  -5.265  1.00  0.00     0.004 C 
ENDBRANCH  10  11
ENDBRANCH   9  10
ENDBRANCH   8   9
ENDBRANCH   7   8
ENDBRANCH   5   6
ENDBRANCH   4   5
ENDBRANCH   2   3
ENDBRANCH   1   2
BRANCH   1  13
ATOM     13  C   UNL     1     -19.446  32.612  -2.492  1.00  0.00     0.000 C 
BRANCH  13  14
ATOM     14  C   UNL     1     -20.872  32.473  -3.053  1.00  0.00     0.000 C 
BRANCH  14  15
ATOM     15  C   UNL     1     -21.891  33.330  -2.285  1.00  0.00     0.000 C 
BRANCH  15  16
ATOM     16  C   UNL     1     -22.988  32.483  -1.615  1.00  0.00     0.003 C 
BRANCH  16  17
ATOM     17  C   UNL     1     -22.480  31.100  -1.171  1.00  0.00     0.042 C 
BRANCH  17  18
ATOM     18  C   UNL     1     -23.268  29.932  -1.781  1.00  0.00     0.233 C 
BRANCH  18  19
ATOM     19  O   UNL     1     -22.529  29.288  -2.819  1.00  0.00    -0.466 OA
BRANCH  19  20
ATOM     20  C   UNL     1     -22.996  29.156  -4.131  1.00  0.00     0.302 C 
ATOM     21  O   UNL     1     -23.150  28.018  -4.652  1.00  0.00    -0.253 OA
ATOM     22  C   UNL     1     -23.270  30.379  -4.937  1.00  0.00     0.139 C 
ENDBRANCH  19  20
ENDBRANCH  18  19
ENDBRANCH  17  18
ENDBRANCH  16  17
ENDBRANCH  15  16
ENDBRANCH  14  15
ENDBRANCH  13  14
ENDBRANCH   1  13
TORSDOF 16
ENDMDL
MODEL 6
REMARK VINA RESULT:    -3.734      1.346      4.229
REMARK INTER + INTRA:         -10.766
REMARK INTER:                  -7.554
REMARK INTRA:                  -3.212
REMARK UNBOUND:                -3.539
REMARK SMILES CCCCCC=CCC=CCCCCCCCCOC(C)=O
REMARK SMILES IDX 12 1 11 2 10 3 9 4 8 5 7 6 6 7 5 8 4 9 3 10 2 11 1 12 13 13
REMARK SMILES IDX 14 14 15 15 16 16 17 17 18 18 19 19 20 20 22 21 21 22
REMARK H PARENT
REMARK Flexibility Score: inf
ROOT
ATOM      1  C   UNL     1     -21.787  29.220  -4.226  1.00  0.00     0.004 C 
ENDROOT
BRANCH   1   2
ATOM      2  C   UNL     1     -22.392  28.782  -2.884  1.00  0.00     0.027 C 
BRANCH   2   3
ATOM      3  C   UNL     1     -21.620  29.389  -1.740  1.00  0.00    -0.031 C 
ATOM      4  C   UNL     1     -21.913  30.563  -1.150  1.00  0.00    -0.027 C 
BRANCH   4   5
ATOM      5  C   UNL     1     -23.019  31.494  -1.580  1.00  0.00     0.054 C 
BRANCH   5   6
ATOM      6  C   UNL     1     -22.599  32.942  -1.512  1.00  0.00    -0.027 C 
ATOM      7  C   UNL     1     -21.858  33.570  -2.445  1.00  0.00    -0.031 C 
BRANCH   7   8
ATOM      8  C   UNL     1     -21.399  32.949  -3.741  1.00  0.00     0.027 C 
BRANCH   8   9
ATOM      9  C   UNL     1     -19.874  33.018  -3.904  1.00  0.00     0.004 C 
BRANCH   9  10
ATOM     10  C   UNL     1     -19.177  31.747  -3.397  1.00  0.00     0.000 C 
BRANCH  10  11
ATOM     11  C   UNL     1     -18.494  31.997  -2.048  1.00  0.00    -0.003 C 
ATOM     12  C   UNL     1     -18.129  30.683  -1.362  1.00  0.00     0.004 C 
ENDBRANCH  10  11
ENDBRANCH   9  10
ENDBRANCH   8   9
ENDBRANCH   7   8
ENDBRANCH   5   6
ENDBRANCH   4   5
ENDBRANCH   2   3
ENDBRANCH   1   2
BRANCH   1  13
ATOM     13  C   UNL     1     -22.850  29.457  -5.309  1.00  0.00     0.000 C 
BRANCH  13  14
ATOM     14  C   UNL     1     -22.323  30.305  -6.479  1.00  0.00     0.000 C 
BRANCH  14  15
ATOM     15  C   UNL     1     -20.800  30.512  -6.416  1.00  0.00     0.000 C 
BRANCH  15  16
ATOM     16  C   UNL     1     -20.036  29.558  -7.350  1.00  0.00     0.003 C 
BRANCH  16  17
ATOM     17  C   UNL     1     -18.533  29.488  -7.025  1.00  0.00     0.042 C 
BRANCH  17  18
ATOM     18  C   UNL     1     -17.798  30.820  -7.234  1.00  0.00     0.233 C 
BRANCH  18  19
ATOM     19  O   UNL     1     -16.473  30.775  -6.706  1.00  0.00    -0.466 OA
BRANCH  19  20
ATOM     20  C   UNL     1     -16.118  31.311  -5.464  1.00  0.00     0.302 C 
ATOM     21  O   UNL     1     -16.040  32.558  -5.296  1.00  0.00    -0.253 OA
ATOM     22  C   UNL     1     -15.783  30.394  -4.338  1.00  0.00     0.139 C 
ENDBRANCH  19  20
ENDBRANCH  18  19
ENDBRANCH  17  18
ENDBRANCH  16  17
ENDBRANCH  15  16
ENDBRANCH  14  15
ENDBRANCH  13  14
ENDBRANCH   1  13
TORSDOF 16
ENDMDL
MODEL 7
REMARK VINA RESULT:    -3.701      1.944      4.459
REMARK INTER + INTRA:         -10.702
REMARK INTER:                  -7.638
REMARK INTRA:                  -3.064
REMARK UNBOUND:                -3.539
REMARK SMILES CCCCCC=CCC=CCCCCCCCCOC(C)=O
REMARK SMILES IDX 12 1 11 2 10 3 9 4 8 5 7 6 6 7 5 8 4 9 3 10 2 11 1 12 13 13
REMARK SMILES IDX 14 14 15 15 16 16 17 17 18 18 19 19 20 20 22 21 21 22
REMARK H PARENT
REMARK Flexibility Score: inf
ROOT
ATOM      1  C   UNL     1     -18.269  30.662  -2.387  1.00  0.00     0.004 C 
ENDROOT
BRANCH   1   2
ATOM      2  C   UNL     1     -18.735  32.112  -2.196  1.00  0.00     0.027 C 
BRANCH   2   3
ATOM      3  C   UNL     1     -19.574  32.550  -3.370  1.00  0.00    -0.031 C 
ATOM      4  C   UNL     1     -20.741  33.215  -3.278  1.00  0.00    -0.027 C 
BRANCH   4   5
ATOM      5  C   UNL     1     -21.434  33.570  -1.986  1.00  0.00     0.054 C 
BRANCH   5   6
ATOM      6  C   UNL     1     -22.835  33.015  -1.923  1.00  0.00    -0.027 C 
ATOM      7  C   UNL     1     -23.145  31.752  -1.574  1.00  0.00    -0.031 C 
BRANCH   7   8
ATOM      8  C   UNL     1     -22.147  30.717  -1.115  1.00  0.00     0.027 C 
BRANCH   8   9
ATOM      9  C   UNL     1     -21.814  29.707  -2.223  1.00  0.00     0.004 C 
BRANCH   9  10
ATOM     10  C   UNL     1     -22.804  29.782  -3.394  1.00  0.00     0.000 C 
BRANCH  10  11
ATOM     11  C   UNL     1     -22.075  30.063  -4.712  1.00  0.00    -0.003 C 
ATOM     12  C   UNL     1     -23.025  29.955  -5.902  1.00  0.00     0.004 C 
ENDBRANCH  10  11
ENDBRANCH   9  10
ENDBRANCH   8   9
ENDBRANCH   7   8
ENDBRANCH   5   6
ENDBRANCH   4   5
ENDBRANCH   2   3
ENDBRANCH   1   2
BRANCH   1  13
ATOM     13  C   UNL     1     -18.495  30.147  -3.816  1.00  0.00     0.000 C 
BRANCH  13  14
ATOM     14  C   UNL     1     -17.198  29.650  -4.478  1.00  0.00     0.000 C 
BRANCH  14  15
ATOM     15  C   UNL     1     -16.002  30.574  -4.195  1.00  0.00     0.000 C 
BRANCH  15  16
ATOM     16  C   UNL     1     -14.787  30.255  -5.083  1.00  0.00     0.003 C 
BRANCH  16  17
ATOM     17  C   UNL     1     -14.353  31.452  -5.946  1.00  0.00     0.042 C 
BRANCH  17  18
ATOM     18  C   UNL     1     -15.436  32.531  -6.087  1.00  0.00     0.233 C 
BRANCH  18  19
ATOM     19  O   UNL     1     -16.118  32.428  -7.336  1.00  0.00    -0.466 OA
BRANCH  19  20
ATOM     20  C   UNL     1     -17.287  31.681  -7.518  1.00  0.00     0.302 C 
ATOM     21  O   UNL     1     -17.264  30.587  -8.145  1.00  0.00    -0.253 OA
ATOM     22  C   UNL     1     -18.582  32.209  -7.005  1.00  0.00     0.139 C 
ENDBRANCH  19  20
ENDBRANCH  18  19
ENDBRANCH  17  18
ENDBRANCH  16  17
ENDBRANCH  15  16
ENDBRANCH  14  15
ENDBRANCH  13  14
ENDBRANCH   1  13
TORSDOF 16
ENDMDL
MODEL 8
REMARK VINA RESULT:    -3.693      3.015      6.160
REMARK INTER + INTRA:         -10.686
REMARK INTER:                  -7.500
REMARK INTRA:                  -3.187
REMARK UNBOUND:                -3.539
REMARK SMILES CCCCCC=CCC=CCCCCCCCCOC(C)=O
REMARK SMILES IDX 12 1 11 2 10 3 9 4 8 5 7 6 6 7 5 8 4 9 3 10 2 11 1 12 13 13
REMARK SMILES IDX 14 14 15 15 16 16 17 17 18 18 19 19 20 20 22 21 21 22
REMARK H PARENT
REMARK Flexibility Score: inf
ROOT
ATOM      1  C   UNL     1     -16.738  29.761  -3.234  1.00  0.00     0.004 C 
ENDROOT
BRANCH   1   2
ATOM      2  C   UNL     1     -15.894  30.290  -4.402  1.00  0.00     0.027 C 
BRANCH   2   3
ATOM      3  C   UNL     1     -16.403  31.638  -4.847  1.00  0.00    -0.031 C 
ATOM      4  C   UNL     1     -17.196  31.848  -5.914  1.00  0.00    -0.027 C 
BRANCH   4   5
ATOM      5  C   UNL     1     -17.650  30.779  -6.878  1.00  0.00     0.054 C 
BRANCH   5   6
ATOM      6  C   UNL     1     -16.553  30.374  -7.832  1.00  0.00    -0.027 C 
ATOM      7  C   UNL     1     -16.257  29.104  -8.165  1.00  0.00    -0.031 C 
BRANCH   7   8
ATOM      8  C   UNL     1     -17.024  27.891  -7.700  1.00  0.00     0.027 C 
BRANCH   8   9
ATOM      9  C   UNL     1     -16.414  27.276  -6.431  1.00  0.00     0.004 C 
BRANCH   9  10
ATOM     10  C   UNL     1     -17.473  26.992  -5.356  1.00  0.00     0.000 C 
BRANCH  10  11
ATOM     11  C   UNL     1     -18.881  27.304  -5.876  1.00  0.00    -0.003 C 
ATOM     12  C   UNL     1     -19.604  28.287  -4.958  1.00  0.00     0.004 C 
ENDBRANCH  10  11
ENDBRANCH   9  10
ENDBRANCH   8   9
ENDBRANCH   7   8
ENDBRANCH   5   6
ENDBRANCH   4   5
ENDBRANCH   2   3
ENDBRANCH   1   2
BRANCH   1  13
ATOM     13  C   UNL     1     -16.695  30.681  -2.004  1.00  0.00     0.000 C 
BRANCH  13  14
ATOM     14  C   UNL     1     -18.046  30.750  -1.270  1.00  0.00     0.000 C 
BRANCH  14  15
ATOM     15  C   UNL     1     -19.231  30.912  -2.236  1.00  0.00     0.000 C 
BRANCH  15  16
ATOM     16  C   UNL     1     -19.408  32.364  -2.715  1.00  0.00     0.003 C 
BRANCH  16  17
ATOM     17  C   UNL     1     -20.352  32.478  -3.925  1.00  0.00     0.042 C 
BRANCH  17  18
ATOM     18  C   UNL     1     -21.619  33.296  -3.639  1.00  0.00     0.233 C 
BRANCH  18  19
ATOM     19  O   UNL     1     -21.791  33.525  -2.241  1.00  0.00    -0.466 OA
BRANCH  19  20
ATOM     20  C   UNL     1     -22.825  32.959  -1.488  1.00  0.00     0.302 C 
ATOM     21  O   UNL     1     -23.759  33.674  -1.032  1.00  0.00    -0.253 OA
ATOM     22  C   UNL     1     -22.795  31.502  -1.180  1.00  0.00     0.139 C 
ENDBRANCH  19  20
ENDBRANCH  18  19
ENDBRANCH  17  18
ENDBRANCH  16  17
ENDBRANCH  15  16
ENDBRANCH  14  15
ENDBRANCH  13  14
ENDBRANCH   1  13
TORSDOF 16
ENDMDL
MODEL 9
REMARK VINA RESULT:    -3.682      1.994      3.416
REMARK INTER + INTRA:         -10.665
REMARK INTER:                  -7.855
REMARK INTRA:                  -2.810
REMARK UNBOUND:                -3.539
REMARK SMILES CCCCCC=CCC=CCCCCCCCCOC(C)=O
REMARK SMILES IDX 12 1 11 2 10 3 9 4 8 5 7 6 6 7 5 8 4 9 3 10 2 11 1 12 13 13
REMARK SMILES IDX 14 14 15 15 16 16 17 17 18 18 19 19 20 20 22 21 21 22
REMARK H PARENT
REMARK Flexibility Score: inf
ROOT
ATOM      1  C   UNL     1     -21.107  33.087  -3.683  1.00  0.00     0.004 C 
ENDROOT
BRANCH   1   2
ATOM      2  C   UNL     1     -21.368  33.316  -2.188  1.00  0.00     0.027 C 
BRANCH   2   3
ATOM      3  C   UNL     1     -22.700  32.729  -1.795  1.00  0.00    -0.031 C 
ATOM      4  C   UNL     1     -22.890  31.465  -1.370  1.00  0.00    -0.027 C 
BRANCH   4   5
ATOM      5  C   UNL     1     -21.813  30.411  -1.284  1.00  0.00     0.054 C 
BRANCH   5   6
ATOM      6  C   UNL     1     -22.276  29.083  -1.829  1.00  0.00    -0.027 C 
ATOM      7  C   UNL     1     -22.389  28.789  -3.139  1.00  0.00    -0.031 C 
BRANCH   7   8
ATOM      8  C   UNL     1     -21.997  29.714  -4.265  1.00  0.00     0.027 C 
BRANCH   8   9
ATOM      9  C   UNL     1     -23.073  29.776  -5.359  1.00  0.00     0.004 C 
BRANCH   9  10
ATOM     10  C   UNL     1     -24.370  29.068  -4.940  1.00  0.00     0.000 C 
BRANCH  10  11
ATOM     11  C   UNL     1     -25.547  30.049  -4.914  1.00  0.00    -0.003 C 
ATOM     12  C   UNL     1     -25.670  30.729  -3.553  1.00  0.00     0.004 C 
ENDBRANCH  10  11
ENDBRANCH   9  10
ENDBRANCH   8   9
ENDBRANCH   7   8
ENDBRANCH   5   6
ENDBRANCH   4   5
ENDBRANCH   2   3
ENDBRANCH   1   2
BRANCH   1  13
ATOM     13  C   UNL     1     -19.655  32.681  -3.979  1.00  0.00     0.000 C 
BRANCH  13  14
ATOM     14  C   UNL     1     -18.971  32.012  -2.774  1.00  0.00     0.000 C 
BRANCH  14  15
ATOM     15  C   UNL     1     -18.615  30.540  -3.044  1.00  0.00     0.000 C 
BRANCH  15  16
ATOM     16  C   UNL     1     -17.109  30.261  -2.889  1.00  0.00     0.003 C 
BRANCH  16  17
ATOM     17  C   UNL     1     -16.253  31.053  -3.893  1.00  0.00     0.042 C 
BRANCH  17  18
ATOM     18  C   UNL     1     -16.623  30.786  -5.359  1.00  0.00     0.233 C 
BRANCH  18  19
ATOM     19  O   UNL     1     -16.898  32.000  -6.058  1.00  0.00    -0.466 OA
BRANCH  19  20
ATOM     20  C   UNL     1     -17.389  32.041  -7.368  1.00  0.00     0.302 C 
ATOM     21  O   UNL     1     -16.631  31.816  -8.350  1.00  0.00    -0.253 OA
ATOM     22  C   UNL     1     -18.815  32.403  -7.605  1.00  0.00     0.139 C 
ENDBRANCH  19  20
ENDBRANCH  18  19
ENDBRANCH  17  18
ENDBRANCH  16  17
ENDBRANCH  15  16
ENDBRANCH  14  15
ENDBRANCH  13  14
ENDBRANCH   1  13
TORSDOF 16
ENDMDL
