MODEL 1
REMARK VINA RESULT:    -4.958      0.000      0.000
REMARK INTER + INTRA:          -9.924
REMARK INTER:                  -7.712
REMARK INTRA:                  -2.211
REMARK UNBOUND:                -2.211
REMARK SMILES C[C@]12C[C@]3(O)O[C@H](O1)[C@@]1(COC(=O)c4ccccc4)[C@@H]3C[C@]12O[C@@H]1O[C@@H](CO)[C@@H](O)[C@@H](O)[C@@H]1O
REMARK SMILES IDX 1 1 2 2 3 3 4 4 20 5 21 6 22 7 9 8 7 9 8 10 6 11 23 12 24 13
REMARK SMILES IDX 33 14 25 15 31 16 26 17 29 18 34 19 32 21 27 23 28 24 30 26
REMARK SMILES IDX 5 28 10 30 11 31 12 32 13 33 14 34 15 35 19 36 16 37 18 38
REMARK SMILES IDX 17 39
REMARK H PARENT 34 20 32 22 28 25 30 27 5 29
REMARK Flexibility Score: inf
ROOT
ATOM      1  C   UNL     1      96.686  97.736 100.475  1.00  0.00     0.046 C 
ATOM      2  C   UNL     1      96.933  98.997 101.312  1.00  0.00     0.104 C 
ATOM      3  C   UNL     1      95.634  99.877 101.394  1.00  0.00     0.104 C 
ATOM      4  C   UNL     1      96.054 101.048 102.339  1.00  0.00     0.175 C 
ATOM      5  C   UNL     1      96.735 100.475 103.622  1.00  0.00     0.070 C 
ATOM      6  C   UNL     1      96.468  98.970 103.844  1.00  0.00     0.050 C 
ATOM      7  C   UNL     1      97.519  98.718 102.758  1.00  0.00     0.115 C 
ATOM      8  C   UNL     1      98.109 100.130 103.024  1.00  0.00     0.096 C 
ATOM      9  C   UNL     1      98.158 100.822 101.666  1.00  0.00     0.267 C 
ATOM     10  O   UNL     1      97.906  99.816 100.696  1.00  0.00    -0.342 OA
ATOM     11  O   UNL     1      97.083 101.748 101.667  1.00  0.00    -0.320 OA
ENDROOT
BRANCH   7  12
ATOM     12  O   UNL     1      98.173  97.442 102.785  1.00  0.00    -0.339 OA
BRANCH  12  13
ATOM     13  C   UNL     1      99.571  97.318 102.607  1.00  0.00     0.282 C 
ATOM     14  C   UNL     1     100.213  96.511 103.766  1.00  0.00     0.202 C 
ATOM     15  O   UNL     1      99.937  96.865 101.321  1.00  0.00    -0.341 OA
ATOM     16  C   UNL     1     101.600  95.951 103.358  1.00  0.00     0.179 C 
ATOM     17  C   UNL     1     101.339  96.979 101.066  1.00  0.00     0.178 C 
ATOM     18  C   UNL     1     102.259  96.873 102.323  1.00  0.00     0.177 C 
BRANCH  14  19
ATOM     19  O   UNL     1      99.359  95.474 104.187  1.00  0.00    -0.385 OA
ATOM     20  H   UNL     1      99.415  95.439 105.173  1.00  0.00     0.211 HD
ENDBRANCH  14  19
BRANCH  16  21
ATOM     21  O   UNL     1     102.433  95.833 104.482  1.00  0.00    -0.387 OA
ATOM     22  H   UNL     1     103.156  96.504 104.372  1.00  0.00     0.211 HD
ENDBRANCH  16  21
BRANCH  17  23
ATOM     23  C   UNL     1     101.617  98.229 100.211  1.00  0.00     0.191 C 
BRANCH  23  24
ATOM     24  O   UNL     1     100.953  99.351 100.732  1.00  0.00    -0.394 OA
ATOM     25  H   UNL     1     101.334  99.512 101.633  1.00  0.00     0.210 HD
ENDBRANCH  23  24
ENDBRANCH  17  23
BRANCH  18  26
ATOM     26  O   UNL     1     102.485  98.145 102.883  1.00  0.00    -0.387 OA
ATOM     27  H   UNL     1     101.594  98.518 103.128  1.00  0.00     0.211 HD
ENDBRANCH  18  26
ENDBRANCH  12  13
ENDBRANCH   7  12
BRANCH   4  28
ATOM     28  O   UNL     1      94.983 101.895 102.660  1.00  0.00    -0.365 OA
ATOM     29  H   UNL     1      94.320 101.345 103.153  1.00  0.00     0.214 HD
ENDBRANCH   4  28
BRANCH   8  30
ATOM     30  C   UNL     1      99.252 100.510 104.001  1.00  0.00     0.249 C 
BRANCH  30  31
ATOM     31  O   UNL     1     100.474 100.702 103.286  1.00  0.00    -0.461 OA
BRANCH  31  32
ATOM     32  C   UNL     1     101.320 101.805 103.444  1.00  0.00     0.338 C 
ATOM     33  O   UNL     1     100.896 102.857 103.998  1.00  0.00    -0.246 OA
BRANCH  32  34
ATOM     34  C   UNL     1     102.719 101.725 102.969  1.00  0.00     0.060 A 
ATOM     35  C   UNL     1     103.050 102.051 101.639  1.00  0.00     0.015 A 
ATOM     36  C   UNL     1     103.741 101.309 103.843  1.00  0.00     0.015 A 
ATOM     37  C   UNL     1     104.377 101.970 101.198  1.00  0.00     0.001 A 
ATOM     38  C   UNL     1     105.063 101.220 103.393  1.00  0.00     0.001 A 
ATOM     39  C   UNL     1     105.383 101.553 102.072  1.00  0.00     0.000 A 
ENDBRANCH  32  34
ENDBRANCH  31  32
ENDBRANCH  30  31
ENDBRANCH   8  30
TORSDOF 12
ENDMDL
MODEL 2
REMARK VINA RESULT:    -4.585      4.500      8.657
REMARK INTER + INTRA:          -9.342
REMARK INTER:                  -7.574
REMARK INTRA:                  -1.769
REMARK UNBOUND:                -2.211
REMARK SMILES C[C@]12C[C@]3(O)O[C@H](O1)[C@@]1(COC(=O)c4ccccc4)[C@@H]3C[C@]12O[C@@H]1O[C@@H](CO)[C@@H](O)[C@@H](O)[C@@H]1O
REMARK SMILES IDX 1 1 2 2 3 3 4 4 20 5 21 6 22 7 9 8 7 9 8 10 6 11 23 12 24 13
REMARK SMILES IDX 33 14 25 15 31 16 26 17 29 18 34 19 32 21 27 23 28 24 30 26
REMARK SMILES IDX 5 28 10 30 11 31 12 32 13 33 14 34 15 35 19 36 16 37 18 38
REMARK SMILES IDX 17 39
REMARK H PARENT 34 20 32 22 28 25 30 27 5 29
REMARK Flexibility Score: inf
ROOT
ATOM      1  C   UNL     1     107.420  99.120 100.753  1.00  0.00     0.046 C 
ATOM      2  C   UNL     1     106.187  99.884 101.250  1.00  0.00     0.104 C 
ATOM      3  C   UNL     1     105.262  98.952 102.113  1.00  0.00     0.104 C 
ATOM      4  C   UNL     1     104.128  99.916 102.589  1.00  0.00     0.175 C 
ATOM      5  C   UNL     1     104.753 101.220 103.178  1.00  0.00     0.070 C 
ATOM      6  C   UNL     1     106.252 101.084 103.527  1.00  0.00     0.050 C 
ATOM      7  C   UNL     1     106.519 101.227 102.024  1.00  0.00     0.115 C 
ATOM      8  C   UNL     1     105.135 101.914 101.861  1.00  0.00     0.096 C 
ATOM      9  C   UNL     1     104.417 101.141 100.760  1.00  0.00     0.267 C 
ATOM     10  O   UNL     1     105.391 100.302 100.159  1.00  0.00    -0.342 OA
ATOM     11  O   UNL     1     103.452 100.337 101.420  1.00  0.00    -0.320 OA
ENDROOT
BRANCH   7  12
ATOM     12  O   UNL     1     107.818 101.703 101.649  1.00  0.00    -0.339 OA
BRANCH  12  13
ATOM     13  C   UNL     1     108.363 102.887 102.198  1.00  0.00     0.282 C 
ATOM     14  C   UNL     1     109.787 102.638 102.763  1.00  0.00     0.202 C 
ATOM     15  O   UNL     1     108.276 104.001 101.334  1.00  0.00    -0.341 OA
ATOM     16  C   UNL     1     110.573 103.966 102.906  1.00  0.00     0.179 C 
ATOM     17  C   UNL     1     108.597 105.235 101.979  1.00  0.00     0.178 C 
ATOM     18  C   UNL     1     109.606 105.129 103.166  1.00  0.00     0.177 C 
BRANCH  14  19
ATOM     19  O   UNL     1     110.491 101.723 101.957  1.00  0.00    -0.385 OA
ATOM     20  H   UNL     1     111.372 102.130 101.765  1.00  0.00     0.211 HD
ENDBRANCH  14  19
BRANCH  16  21
ATOM     21  O   UNL     1     111.498 103.879 103.958  1.00  0.00    -0.387 OA
ATOM     22  H   UNL     1     111.145 104.442 104.696  1.00  0.00     0.211 HD
ENDBRANCH  16  21
BRANCH  17  23
ATOM     23  C   UNL     1     107.303 105.988 102.345  1.00  0.00     0.191 C 
BRANCH  23  24
ATOM     24  O   UNL     1     107.593 107.173 103.038  1.00  0.00    -0.394 OA
ATOM     25  H   UNL     1     106.830 107.337 103.650  1.00  0.00     0.210 HD
ENDBRANCH  23  24
ENDBRANCH  17  23
BRANCH  18  26
ATOM     26  O   UNL     1     108.925 104.929 104.381  1.00  0.00    -0.387 OA
ATOM     27  H   UNL     1     108.750 103.950 104.460  1.00  0.00     0.211 HD
ENDBRANCH  18  26
ENDBRANCH  12  13
ENDBRANCH   7  12
BRANCH   4  28
ATOM     28  O   UNL     1     103.249  99.310 103.499  1.00  0.00    -0.365 OA
ATOM     29  H   UNL     1     103.233  98.342 103.281  1.00  0.00     0.214 HD
ENDBRANCH   4  28
BRANCH   8  30
ATOM     30  C   UNL     1     104.818 103.430 101.919  1.00  0.00     0.249 C 
BRANCH  30  31
ATOM     31  O   UNL     1     103.676 103.731 101.114  1.00  0.00    -0.461 OA
BRANCH  31  32
ATOM     32  C   UNL     1     102.440 104.150 101.616  1.00  0.00     0.338 C 
ATOM     33  O   UNL     1     102.143 105.377 101.632  1.00  0.00    -0.246 OA
BRANCH  32  34
ATOM     34  C   UNL     1     101.476 103.144 102.117  1.00  0.00     0.060 A 
ATOM     35  C   UNL     1     100.569 102.515 101.241  1.00  0.00     0.015 A 
ATOM     36  C   UNL     1     101.446 102.811 103.484  1.00  0.00     0.015 A 
ATOM     37  C   UNL     1      99.659 101.566 101.724  1.00  0.00     0.001 A 
ATOM     38  C   UNL     1     100.528 101.870 103.961  1.00  0.00     0.001 A 
ATOM     39  C   UNL     1      99.635 101.245 103.083  1.00  0.00     0.000 A 
ENDBRANCH  32  34
ENDBRANCH  31  32
ENDBRANCH  30  31
ENDBRANCH   8  30
TORSDOF 12
ENDMDL
MODEL 3
REMARK VINA RESULT:    -4.555      8.501     12.341
REMARK INTER + INTRA:          -9.295
REMARK INTER:                  -7.042
REMARK INTRA:                  -2.254
REMARK UNBOUND:                -2.211
REMARK SMILES C[C@]12C[C@]3(O)O[C@H](O1)[C@@]1(COC(=O)c4ccccc4)[C@@H]3C[C@]12O[C@@H]1O[C@@H](CO)[C@@H](O)[C@@H](O)[C@@H]1O
REMARK SMILES IDX 1 1 2 2 3 3 4 4 20 5 21 6 22 7 9 8 7 9 8 10 6 11 23 12 24 13
REMARK SMILES IDX 33 14 25 15 31 16 26 17 29 18 34 19 32 21 27 23 28 24 30 26
REMARK SMILES IDX 5 28 10 30 11 31 12 32 13 33 14 34 15 35 19 36 16 37 18 38
REMARK SMILES IDX 17 39
REMARK H PARENT 34 20 32 22 28 25 30 27 5 29
REMARK Flexibility Score: inf
ROOT
ATOM      1  C   UNL     1     111.891 106.708 100.698  1.00  0.00     0.046 C 
ATOM      2  C   UNL     1     111.410 105.427 101.391  1.00  0.00     0.104 C 
ATOM      3  C   UNL     1     112.614 104.661 102.048  1.00  0.00     0.104 C 
ATOM      4  C   UNL     1     111.923 103.455 102.762  1.00  0.00     0.175 C 
ATOM      5  C   UNL     1     110.715 103.963 103.612  1.00  0.00     0.070 C 
ATOM      6  C   UNL     1     110.743 105.485 103.877  1.00  0.00     0.050 C 
ATOM      7  C   UNL     1     110.241 105.650 102.438  1.00  0.00     0.115 C 
ATOM      8  C   UNL     1     109.707 104.192 102.474  1.00  0.00     0.096 C 
ATOM      9  C   UNL     1     110.299 103.503 101.248  1.00  0.00     0.267 C 
ATOM     10  O   UNL     1     110.861 104.530 100.446  1.00  0.00    -0.342 OA
ATOM     11  O   UNL     1     111.340 102.672 101.739  1.00  0.00    -0.320 OA
ENDROOT
BRANCH   7  12
ATOM     12  O   UNL     1     109.541 106.866 102.141  1.00  0.00    -0.339 OA
BRANCH  12  13
ATOM     13  C   UNL     1     108.237 106.857 101.592  1.00  0.00     0.282 C 
ATOM     14  C   UNL     1     107.486 108.177 101.914  1.00  0.00     0.202 C 
ATOM     15  O   UNL     1     108.203 106.497 100.227  1.00  0.00    -0.341 OA
ATOM     16  C   UNL     1     106.298 108.397 100.943  1.00  0.00     0.179 C 
ATOM     17  C   UNL     1     106.880 106.250  99.746  1.00  0.00     0.178 C 
ATOM     18  C   UNL     1     105.746 107.046 100.467  1.00  0.00     0.177 C 
BRANCH  14  19
ATOM     19  O   UNL     1     108.368 109.274 101.884  1.00  0.00    -0.385 OA
ATOM     20  H   UNL     1     108.760 109.301 100.977  1.00  0.00     0.211 HD
ENDBRANCH  14  19
BRANCH  16  21
ATOM     21  O   UNL     1     105.278 109.127 101.571  1.00  0.00    -0.387 OA
ATOM     22  H   UNL     1     105.576 110.074 101.593  1.00  0.00     0.211 HD
ENDBRANCH  16  21
BRANCH  17  23
ATOM     23  C   UNL     1     106.617 104.734  99.688  1.00  0.00     0.191 C 
BRANCH  23  24
ATOM     24  O   UNL     1     107.802 104.029  99.426  1.00  0.00    -0.394 OA
ATOM     25  H   UNL     1     107.851 103.298 100.094  1.00  0.00     0.210 HD
ENDBRANCH  23  24
ENDBRANCH  17  23
BRANCH  18  26
ATOM     26  O   UNL     1     105.244 106.317 101.561  1.00  0.00    -0.387 OA
ATOM     27  H   UNL     1     105.008 105.409 101.223  1.00  0.00     0.211 HD
ENDBRANCH  18  26
ENDBRANCH  12  13
ENDBRANCH   7  12
BRANCH   4  28
ATOM     28  O   UNL     1     112.816 102.701 103.537  1.00  0.00    -0.365 OA
ATOM     29  H   UNL     1     113.424 102.236 102.905  1.00  0.00     0.214 HD
ENDBRANCH   4  28
BRANCH   8  30
ATOM     30  C   UNL     1     108.290 103.712 102.882  1.00  0.00     0.249 C 
BRANCH  30  31
ATOM     31  O   UNL     1     107.958 102.504 102.195  1.00  0.00    -0.461 OA
BRANCH  31  32
ATOM     32  C   UNL     1     107.875 101.245 102.798  1.00  0.00     0.338 C 
ATOM     33  O   UNL     1     106.759 100.796 103.182  1.00  0.00    -0.246 OA
BRANCH  32  34
ATOM     34  C   UNL     1     109.103 100.437 102.971  1.00  0.00     0.060 A 
ATOM     35  C   UNL     1     109.859 100.516 104.158  1.00  0.00     0.015 A 
ATOM     36  C   UNL     1     109.540  99.583 101.940  1.00  0.00     0.015 A 
ATOM     37  C   UNL     1     111.020  99.748 104.311  1.00  0.00     0.001 A 
ATOM     38  C   UNL     1     110.707  98.827 102.097  1.00  0.00     0.001 A 
ATOM     39  C   UNL     1     111.447  98.907 103.282  1.00  0.00     0.000 A 
ENDBRANCH  32  34
ENDBRANCH  31  32
ENDBRANCH  30  31
ENDBRANCH   8  30
TORSDOF 12
ENDMDL
MODEL 4
REMARK VINA RESULT:    -4.547      5.987     11.112
REMARK INTER + INTRA:          -9.284
REMARK INTER:                  -6.949
REMARK INTRA:                  -2.335
REMARK UNBOUND:                -2.211
REMARK SMILES C[C@]12C[C@]3(O)O[C@H](O1)[C@@]1(COC(=O)c4ccccc4)[C@@H]3C[C@]12O[C@@H]1O[C@@H](CO)[C@@H](O)[C@@H](O)[C@@H]1O
REMARK SMILES IDX 1 1 2 2 3 3 4 4 20 5 21 6 22 7 9 8 7 9 8 10 6 11 23 12 24 13
REMARK SMILES IDX 33 14 25 15 31 16 26 17 29 18 34 19 32 21 27 23 28 24 30 26
REMARK SMILES IDX 5 28 10 30 11 31 12 32 13 33 14 34 15 35 19 36 16 37 18 38
REMARK SMILES IDX 17 39
REMARK H PARENT 34 20 32 22 28 25 30 27 5 29
REMARK Flexibility Score: inf
ROOT
ATOM      1  C   UNL     1     112.067 101.966 100.417  1.00  0.00     0.046 C 
ATOM      2  C   UNL     1     111.267 100.957 101.251  1.00  0.00     0.104 C 
ATOM      3  C   UNL     1     112.071  99.619 101.432  1.00  0.00     0.104 C 
ATOM      4  C   UNL     1     111.146  98.770 102.361  1.00  0.00     0.175 C 
ATOM      5  C   UNL     1     110.696  99.625 103.588  1.00  0.00     0.070 C 
ATOM      6  C   UNL     1     111.557 100.889 103.808  1.00  0.00     0.050 C 
ATOM      7  C   UNL     1     110.771 101.513 102.650  1.00  0.00     0.115 C 
ATOM      8  C   UNL     1     109.630 100.488 102.893  1.00  0.00     0.096 C 
ATOM      9  C   UNL     1     109.373  99.826 101.543  1.00  0.00     0.267 C 
ATOM     10  O   UNL     1     110.077 100.595 100.581  1.00  0.00    -0.342 OA
ATOM     11  O   UNL     1     109.959  98.536 101.629  1.00  0.00    -0.320 OA
ENDROOT
BRANCH   7  12
ATOM     12  O   UNL     1     110.712 102.946 102.616  1.00  0.00    -0.339 OA
BRANCH  12  13
ATOM     13  C   UNL     1     109.499 103.634 102.378  1.00  0.00     0.282 C 
ATOM     14  C   UNL     1     109.107 104.513 103.595  1.00  0.00     0.202 C 
ATOM     15  O   UNL     1     109.474 104.320 101.144  1.00  0.00    -0.341 OA
ATOM     16  C   UNL     1     108.099 105.617 103.187  1.00  0.00     0.179 C 
ATOM     17  C   UNL     1     108.174 104.802 100.798  1.00  0.00     0.178 C 
ATOM     18  C   UNL     1     107.243 105.142 102.004  1.00  0.00     0.177 C 
BRANCH  14  19
ATOM     19  O   UNL     1     110.250 105.075 104.195  1.00  0.00    -0.385 OA
ATOM     20  H   UNL     1     110.268 106.029 103.939  1.00  0.00     0.211 HD
ENDBRANCH  14  19
BRANCH  16  21
ATOM     21  O   UNL     1     107.267 105.948 104.268  1.00  0.00    -0.387 OA
ATOM     22  H   UNL     1     107.513 106.868 104.546  1.00  0.00     0.211 HD
ENDBRANCH  16  21
BRANCH  17  23
ATOM     23  C   UNL     1     107.520 103.857  99.772  1.00  0.00     0.191 C 
BRANCH  23  24
ATOM     24  O   UNL     1     107.563 102.527 100.217  1.00  0.00    -0.394 OA
ATOM     25  H   UNL     1     108.495 102.355 100.507  1.00  0.00     0.210 HD
ENDBRANCH  23  24
ENDBRANCH  17  23
BRANCH  18  26
ATOM     26  O   UNL     1     106.483 104.019 102.379  1.00  0.00    -0.387 OA
ATOM     27  H   UNL     1     107.096 103.233 102.363  1.00  0.00     0.211 HD
ENDBRANCH  18  26
ENDBRANCH  12  13
ENDBRANCH   7  12
BRANCH   4  28
ATOM     28  O   UNL     1     111.744  97.566 102.765  1.00  0.00    -0.365 OA
ATOM     29  H   UNL     1     112.625  97.801 103.157  1.00  0.00     0.214 HD
ENDBRANCH   4  28
BRANCH   8  30
ATOM     30  C   UNL     1     108.380 100.658 103.795  1.00  0.00     0.249 C 
BRANCH  30  31
ATOM     31  O   UNL     1     107.270 101.122 103.023  1.00  0.00    -0.461 OA
BRANCH  31  32
ATOM     32  C   UNL     1     105.933 100.812 103.292  1.00  0.00     0.338 C 
ATOM     33  O   UNL     1     105.191 101.651 103.875  1.00  0.00    -0.246 OA
BRANCH  32  34
ATOM     34  C   UNL     1     105.390  99.499 102.877  1.00  0.00     0.060 A 
ATOM     35  C   UNL     1     104.270  98.943 103.526  1.00  0.00     0.015 A 
ATOM     36  C   UNL     1     105.996  98.781 101.830  1.00  0.00     0.015 A 
ATOM     37  C   UNL     1     103.764  97.700 103.128  1.00  0.00     0.001 A 
ATOM     38  C   UNL     1     105.492  97.534 101.444  1.00  0.00     0.001 A 
ATOM     39  C   UNL     1     104.375  96.993 102.090  1.00  0.00     0.000 A 
ENDBRANCH  32  34
ENDBRANCH  31  32
ENDBRANCH  30  31
ENDBRANCH   8  30
TORSDOF 12
ENDMDL
MODEL 5
REMARK VINA RESULT:    -4.500     12.352     16.489
REMARK INTER + INTRA:          -9.211
REMARK INTER:                  -6.875
REMARK INTRA:                  -2.335
REMARK UNBOUND:                -2.211
REMARK SMILES C[C@]12C[C@]3(O)O[C@H](O1)[C@@]1(COC(=O)c4ccccc4)[C@@H]3C[C@]12O[C@@H]1O[C@@H](CO)[C@@H](O)[C@@H](O)[C@@H]1O
REMARK SMILES IDX 1 1 2 2 3 3 4 4 20 5 21 6 22 7 9 8 7 9 8 10 6 11 23 12 24 13
REMARK SMILES IDX 33 14 25 15 31 16 26 17 29 18 34 19 32 21 27 23 28 24 30 26
REMARK SMILES IDX 5 28 10 30 11 31 12 32 13 33 14 34 15 35 19 36 16 37 18 38
REMARK SMILES IDX 17 39
REMARK H PARENT 34 20 32 22 28 25 30 27 5 29
REMARK Flexibility Score: inf
ROOT
ATOM      1  C   UNL     1     111.758 111.428 112.429  1.00  0.00     0.046 C 
ATOM      2  C   UNL     1     110.658 111.218 111.382  1.00  0.00     0.104 C 
ATOM      3  C   UNL     1     110.547 112.463 110.430  1.00  0.00     0.104 C 
ATOM      4  C   UNL     1     109.452 112.030 109.402  1.00  0.00     0.175 C 
ATOM      5  C   UNL     1     109.777 110.606 108.850  1.00  0.00     0.070 C 
ATOM      6  C   UNL     1     111.234 110.161 109.106  1.00  0.00     0.050 C 
ATOM      7  C   UNL     1     110.796 109.878 110.548  1.00  0.00     0.115 C 
ATOM      8  C   UNL     1     109.324 109.776 110.063  1.00  0.00     0.096 C 
ATOM      9  C   UNL     1     108.529 110.731 110.948  1.00  0.00     0.267 C 
ATOM     10  O   UNL     1     109.395 111.107 112.008  1.00  0.00    -0.342 OA
ATOM     11  O   UNL     1     108.258 111.867 110.142  1.00  0.00    -0.320 OA
ENDROOT
BRANCH   7  12
ATOM     12  O   UNL     1     111.579 108.923 111.277  1.00  0.00    -0.339 OA
BRANCH  12  13
ATOM     13  C   UNL     1     111.001 107.759 111.836  1.00  0.00     0.282 C 
ATOM     14  C   UNL     1     111.791 106.489 111.424  1.00  0.00     0.202 C 
ATOM     15  O   UNL     1     110.761 107.860 113.224  1.00  0.00    -0.341 OA
ATOM     16  C   UNL     1     111.497 105.310 112.385  1.00  0.00     0.179 C 
ATOM     17  C   UNL     1     109.959 106.792 113.732  1.00  0.00     0.178 C 
ATOM     18  C   UNL     1     110.081 105.438 112.964  1.00  0.00     0.177 C 
BRANCH  14  19
ATOM     19  O   UNL     1     113.172 106.756 111.366  1.00  0.00    -0.385 OA
ATOM     20  H   UNL     1     113.619 105.906 111.132  1.00  0.00     0.211 HD
ENDBRANCH  14  19
BRANCH  16  21
ATOM     21  O   UNL     1     111.622 104.084 111.713  1.00  0.00    -0.387 OA
ATOM     22  H   UNL     1     111.465 103.371 112.387  1.00  0.00     0.211 HD
ENDBRANCH  16  21
BRANCH  17  23
ATOM     23  C   UNL     1     108.503 107.265 113.904  1.00  0.00     0.191 C 
BRANCH  23  24
ATOM     24  O   UNL     1     108.369 108.616 113.546  1.00  0.00    -0.394 OA
ATOM     25  H   UNL     1     108.106 108.631 112.591  1.00  0.00     0.210 HD
ENDBRANCH  23  24
ENDBRANCH  17  23
BRANCH  18  26
ATOM     26  O   UNL     1     109.129 105.364 111.930  1.00  0.00    -0.387 OA
ATOM     27  H   UNL     1     109.548 104.855 111.183  1.00  0.00     0.211 HD
ENDBRANCH  18  26
ENDBRANCH  12  13
ENDBRANCH   7  12
BRANCH   4  28
ATOM     28  O   UNL     1     109.289 112.959 108.363  1.00  0.00    -0.365 OA
ATOM     29  H   UNL     1     110.195 113.162 108.014  1.00  0.00     0.214 HD
ENDBRANCH   4  28
BRANCH   8  30
ATOM     30  C   UNL     1     108.561 108.504 109.611  1.00  0.00     0.249 C 
BRANCH  30  31
ATOM     31  O   UNL     1     107.812 107.961 110.700  1.00  0.00    -0.461 OA
BRANCH  31  32
ATOM     32  C   UNL     1     106.536 107.401 110.583  1.00  0.00     0.338 C 
ATOM     33  O   UNL     1     106.335 106.201 110.921  1.00  0.00    -0.246 OA
BRANCH  32  34
ATOM     34  C   UNL     1     105.419 108.228 110.074  1.00  0.00     0.060 A 
ATOM     35  C   UNL     1     104.544 107.731 109.087  1.00  0.00     0.015 A 
ATOM     36  C   UNL     1     105.223 109.533 110.564  1.00  0.00     0.015 A 
ATOM     37  C   UNL     1     103.492 108.522 108.609  1.00  0.00     0.001 A 
ATOM     38  C   UNL     1     104.176 110.321 110.074  1.00  0.00     0.001 A 
ATOM     39  C   UNL     1     103.308 109.816 109.099  1.00  0.00     0.000 A 
ENDBRANCH  32  34
ENDBRANCH  31  32
ENDBRANCH  30  31
ENDBRANCH   8  30
TORSDOF 12
ENDMDL
MODEL 6
REMARK VINA RESULT:    -4.497      6.558     10.546
REMARK INTER + INTRA:          -9.206
REMARK INTER:                  -7.400
REMARK INTRA:                  -1.806
REMARK UNBOUND:                -2.211
REMARK SMILES C[C@]12C[C@]3(O)O[C@H](O1)[C@@]1(COC(=O)c4ccccc4)[C@@H]3C[C@]12O[C@@H]1O[C@@H](CO)[C@@H](O)[C@@H](O)[C@@H]1O
REMARK SMILES IDX 1 1 2 2 3 3 4 4 20 5 21 6 22 7 9 8 7 9 8 10 6 11 23 12 24 13
REMARK SMILES IDX 33 14 25 15 31 16 26 17 29 18 34 19 32 21 27 23 28 24 30 26
REMARK SMILES IDX 5 28 10 30 11 31 12 32 13 33 14 34 15 35 19 36 16 37 18 38
REMARK SMILES IDX 17 39
REMARK H PARENT 34 20 32 22 28 25 30 27 5 29
REMARK Flexibility Score: inf
ROOT
ATOM      1  C   UNL     1     107.188 105.698  98.644  1.00  0.00     0.046 C 
ATOM      2  C   UNL     1     107.766 106.126  99.997  1.00  0.00     0.104 C 
ATOM      3  C   UNL     1     107.777 107.692 100.132  1.00  0.00     0.104 C 
ATOM      4  C   UNL     1     108.311 107.922 101.582  1.00  0.00     0.175 C 
ATOM      5  C   UNL     1     107.525 107.021 102.586  1.00  0.00     0.070 C 
ATOM      6  C   UNL     1     106.201 106.466 102.013  1.00  0.00     0.050 C 
ATOM      7  C   UNL     1     107.064 105.455 101.250  1.00  0.00     0.115 C 
ATOM      8  C   UNL     1     108.206 105.677 102.279  1.00  0.00     0.096 C 
ATOM      9  C   UNL     1     109.445 106.018 101.456  1.00  0.00     0.267 C 
ATOM     10  O   UNL     1     109.118 105.728 100.105  1.00  0.00    -0.342 OA
ATOM     11  O   UNL     1     109.631 107.417 101.601  1.00  0.00    -0.320 OA
ENDROOT
BRANCH   7  12
ATOM     12  O   UNL     1     106.422 104.234 100.857  1.00  0.00    -0.339 OA
BRANCH  12  13
ATOM     13  C   UNL     1     106.595 103.035 101.587  1.00  0.00     0.282 C 
ATOM     14  C   UNL     1     105.364 102.744 102.485  1.00  0.00     0.202 C 
ATOM     15  O   UNL     1     106.992 101.941 100.787  1.00  0.00    -0.341 OA
ATOM     16  C   UNL     1     105.308 101.250 102.893  1.00  0.00     0.179 C 
ATOM     17  C   UNL     1     107.403 100.807 101.554  1.00  0.00     0.178 C 
ATOM     18  C   UNL     1     106.725 100.664 102.954  1.00  0.00     0.177 C 
BRANCH  14  19
ATOM     19  O   UNL     1     104.173 103.133 101.843  1.00  0.00    -0.385 OA
ATOM     20  H   UNL     1     104.275 102.903 100.887  1.00  0.00     0.211 HD
ENDBRANCH  14  19
BRANCH  16  21
ATOM     21  O   UNL     1     104.684 101.103 104.141  1.00  0.00    -0.387 OA
ATOM     22  H   UNL     1     105.232 100.458 104.660  1.00  0.00     0.211 HD
ENDBRANCH  16  21
BRANCH  17  23
ATOM     23  C   UNL     1     108.941 100.743 101.613  1.00  0.00     0.191 C 
BRANCH  23  24
ATOM     24  O   UNL     1     109.367  99.892 102.645  1.00  0.00    -0.394 OA
ATOM     25  H   UNL     1     108.667  99.198 102.748  1.00  0.00     0.210 HD
ENDBRANCH  23  24
ENDBRANCH  17  23
BRANCH  18  26
ATOM     26  O   UNL     1     107.479 101.325 103.942  1.00  0.00    -0.387 OA
ATOM     27  H   UNL     1     107.988 100.625 104.436  1.00  0.00     0.211 HD
ENDBRANCH  18  26
ENDBRANCH  12  13
ENDBRANCH   7  12
BRANCH   4  28
ATOM     28  O   UNL     1     108.273 109.271 101.965  1.00  0.00    -0.365 OA
ATOM     29  H   UNL     1     108.743 109.784 101.257  1.00  0.00     0.214 HD
ENDBRANCH   4  28
BRANCH   8  30
ATOM     30  C   UNL     1     108.477 104.880 103.581  1.00  0.00     0.249 C 
BRANCH  30  31
ATOM     31  O   UNL     1     109.882 104.739 103.795  1.00  0.00    -0.461 OA
BRANCH  31  32
ATOM     32  C   UNL     1     110.549 103.514 103.902  1.00  0.00     0.338 C 
ATOM     33  O   UNL     1     109.921 102.478 104.261  1.00  0.00    -0.246 OA
BRANCH  32  34
ATOM     34  C   UNL     1     111.991 103.437 103.579  1.00  0.00     0.060 A 
ATOM     35  C   UNL     1     112.661 102.197 103.557  1.00  0.00     0.015 A 
ATOM     36  C   UNL     1     112.719 104.609 103.301  1.00  0.00     0.015 A 
ATOM     37  C   UNL     1     114.026 102.134 103.252  1.00  0.00     0.001 A 
ATOM     38  C   UNL     1     114.085 104.539 103.008  1.00  0.00     0.001 A 
ATOM     39  C   UNL     1     114.740 103.303 102.981  1.00  0.00     0.000 A 
ENDBRANCH  32  34
ENDBRANCH  31  32
ENDBRANCH  30  31
ENDBRANCH   8  30
TORSDOF 12
ENDMDL
MODEL 7
REMARK VINA RESULT:    -4.460      1.928      4.769
REMARK INTER + INTRA:          -9.148
REMARK INTER:                  -6.950
REMARK INTRA:                  -2.197
REMARK UNBOUND:                -2.211
REMARK SMILES C[C@]12C[C@]3(O)O[C@H](O1)[C@@]1(COC(=O)c4ccccc4)[C@@H]3C[C@]12O[C@@H]1O[C@@H](CO)[C@@H](O)[C@@H](O)[C@@H]1O
REMARK SMILES IDX 1 1 2 2 3 3 4 4 20 5 21 6 22 7 9 8 7 9 8 10 6 11 23 12 24 13
REMARK SMILES IDX 33 14 25 15 31 16 26 17 29 18 34 19 32 21 27 23 28 24 30 26
REMARK SMILES IDX 5 28 10 30 11 31 12 32 13 33 14 34 15 35 19 36 16 37 18 38
REMARK SMILES IDX 17 39
REMARK H PARENT 34 20 32 22 28 25 30 27 5 29
REMARK Flexibility Score: inf
ROOT
ATOM      1  C   UNL     1      96.578 100.390 103.345  1.00  0.00     0.046 C 
ATOM      2  C   UNL     1      97.498  99.185 103.119  1.00  0.00     0.104 C 
ATOM      3  C   UNL     1      96.714  97.838 103.316  1.00  0.00     0.104 C 
ATOM      4  C   UNL     1      97.779  96.749 102.966  1.00  0.00     0.175 C 
ATOM      5  C   UNL     1      98.471  97.101 101.612  1.00  0.00     0.070 C 
ATOM      6  C   UNL     1      97.695  98.142 100.773  1.00  0.00     0.050 C 
ATOM      7  C   UNL     1      98.262  99.197 101.730  1.00  0.00     0.115 C 
ATOM      8  C   UNL     1      99.406  98.216 102.108  1.00  0.00     0.096 C 
ATOM      9  C   UNL     1      99.389  98.127 103.631  1.00  0.00     0.267 C 
ATOM     10  O   UNL     1      98.532  99.165 104.082  1.00  0.00    -0.342 OA
ATOM     11  O   UNL     1      98.801  96.871 103.936  1.00  0.00    -0.320 OA
ENDROOT
BRANCH   7  12
ATOM     12  O   UNL     1      98.345 100.537 101.227  1.00  0.00    -0.339 OA
BRANCH  12  13
ATOM     13  C   UNL     1      99.548 101.280 101.286  1.00  0.00     0.282 C 
ATOM     14  C   UNL     1     100.035 101.669  99.865  1.00  0.00     0.202 C 
ATOM     15  O   UNL     1      99.498 102.362 102.191  1.00  0.00    -0.341 OA
ATOM     16  C   UNL     1     101.027 102.858  99.919  1.00  0.00     0.179 C 
ATOM     17  C   UNL     1     100.777 102.951 102.430  1.00  0.00     0.178 C 
ATOM     18  C   UNL     1     101.793 102.849 101.249  1.00  0.00     0.177 C 
BRANCH  14  19
ATOM     19  O   UNL     1      98.943 101.965  99.026  1.00  0.00    -0.385 OA
ATOM     20  H   UNL     1      98.640 101.108  98.638  1.00  0.00     0.211 HD
ENDBRANCH  14  19
BRANCH  16  21
ATOM     21  O   UNL     1     101.936 102.790  98.851  1.00  0.00    -0.387 OA
ATOM     22  H   UNL     1     102.809 102.518  99.237  1.00  0.00     0.211 HD
ENDBRANCH  16  21
BRANCH  17  23
ATOM     23  C   UNL     1     101.347 102.445 103.769  1.00  0.00     0.191 C 
BRANCH  23  24
ATOM     24  O   UNL     1     101.083 101.077 103.940  1.00  0.00    -0.394 OA
ATOM     25  H   UNL     1     101.206 100.883 104.904  1.00  0.00     0.210 HD
ENDBRANCH  23  24
ENDBRANCH  17  23
BRANCH  18  26
ATOM     26  O   UNL     1     102.563 101.675 101.354  1.00  0.00    -0.387 OA
ATOM     27  H   UNL     1     103.496 101.956 101.561  1.00  0.00     0.211 HD
ENDBRANCH  18  26
ENDBRANCH  12  13
ENDBRANCH   7  12
BRANCH   4  28
ATOM     28  O   UNL     1      97.242  95.453 102.948  1.00  0.00    -0.365 OA
ATOM     29  H   UNL     1      97.913  94.858 103.373  1.00  0.00     0.214 HD
ENDBRANCH   4  28
BRANCH   8  30
ATOM     30  C   UNL     1     100.807  98.098 101.455  1.00  0.00     0.249 C 
BRANCH  30  31
ATOM     31  O   UNL     1     101.795  98.715 102.282  1.00  0.00    -0.461 OA
BRANCH  31  32
ATOM     32  C   UNL     1     102.938  98.072 102.767  1.00  0.00     0.338 C 
ATOM     33  O   UNL     1     102.876  96.871 103.153  1.00  0.00    -0.246 OA
BRANCH  32  34
ATOM     34  C   UNL     1     104.224  98.803 102.810  1.00  0.00     0.060 A 
ATOM     35  C   UNL     1     104.400  99.904 103.671  1.00  0.00     0.015 A 
ATOM     36  C   UNL     1     105.290  98.412 101.977  1.00  0.00     0.015 A 
ATOM     37  C   UNL     1     105.621 100.591 103.704  1.00  0.00     0.001 A 
ATOM     38  C   UNL     1     106.503  99.109 102.008  1.00  0.00     0.001 A 
ATOM     39  C   UNL     1     106.670 100.197 102.871  1.00  0.00     0.000 A 
ENDBRANCH  32  34
ENDBRANCH  31  32
ENDBRANCH  30  31
ENDBRANCH   8  30
TORSDOF 12
ENDMDL
MODEL 8
REMARK VINA RESULT:    -4.438      4.129      8.921
REMARK INTER + INTRA:          -9.115
REMARK INTER:                  -6.662
REMARK INTRA:                  -2.453
REMARK UNBOUND:                -2.211
REMARK SMILES C[C@]12C[C@]3(O)O[C@H](O1)[C@@]1(COC(=O)c4ccccc4)[C@@H]3C[C@]12O[C@@H]1O[C@@H](CO)[C@@H](O)[C@@H](O)[C@@H]1O
REMARK SMILES IDX 1 1 2 2 3 3 4 4 20 5 21 6 22 7 9 8 7 9 8 10 6 11 23 12 24 13
REMARK SMILES IDX 33 14 25 15 31 16 26 17 29 18 34 19 32 21 27 23 28 24 30 26
REMARK SMILES IDX 5 28 10 30 11 31 12 32 13 33 14 34 15 35 19 36 16 37 18 38
REMARK SMILES IDX 17 39
REMARK H PARENT 34 20 32 22 28 25 30 27 5 29
REMARK Flexibility Score: inf
ROOT
ATOM      1  C   UNL     1     108.937 100.939 100.412  1.00  0.00     0.046 C 
ATOM      2  C   UNL     1     107.566 100.580 100.997  1.00  0.00     0.104 C 
ATOM      3  C   UNL     1     107.420  99.025 101.166  1.00  0.00     0.104 C 
ATOM      4  C   UNL     1     106.019  98.869 101.841  1.00  0.00     0.175 C 
ATOM      5  C   UNL     1     105.907  99.837 103.060  1.00  0.00     0.070 C 
ATOM      6  C   UNL     1     107.271 100.379 103.547  1.00  0.00     0.050 C 
ATOM      7  C   UNL     1     107.214 101.332 102.347  1.00  0.00     0.115 C 
ATOM      8  C   UNL     1     105.673 101.151 102.296  1.00  0.00     0.096 C 
ATOM      9  C   UNL     1     105.350 100.745 100.862  1.00  0.00     0.267 C 
ATOM     10  O   UNL     1     106.534 100.963 100.110  1.00  0.00    -0.342 OA
ATOM     11  O   UNL     1     105.075  99.354 100.907  1.00  0.00    -0.320 OA
ENDROOT
BRANCH   7  12
ATOM     12  O   UNL     1     107.983 102.538 102.453  1.00  0.00    -0.339 OA
BRANCH  12  13
ATOM     13  C   UNL     1     107.459 103.791 102.057  1.00  0.00     0.282 C 
ATOM     14  C   UNL     1     107.554 104.826 103.210  1.00  0.00     0.202 C 
ATOM     15  O   UNL     1     107.974 104.254 100.827  1.00  0.00    -0.341 OA
ATOM     16  C   UNL     1     107.458 106.275 102.670  1.00  0.00     0.179 C 
ATOM     17  C   UNL     1     107.267 105.385 100.314  1.00  0.00     0.178 C 
ATOM     18  C   UNL     1     106.612 106.309 101.390  1.00  0.00     0.177 C 
BRANCH  14  19
ATOM     19  O   UNL     1     108.738 104.643 103.949  1.00  0.00    -0.385 OA
ATOM     20  H   UNL     1     108.501 104.760 104.902  1.00  0.00     0.211 HD
ENDBRANCH  14  19
BRANCH  16  21
ATOM     21  O   UNL     1     106.889 107.122 103.633  1.00  0.00    -0.387 OA
ATOM     22  H   UNL     1     107.628 107.673 104.003  1.00  0.00     0.211 HD
ENDBRANCH  16  21
BRANCH  17  23
ATOM     23  C   UNL     1     106.283 104.936  99.217  1.00  0.00     0.191 C 
BRANCH  23  24
ATOM     24  O   UNL     1     105.482 103.875  99.667  1.00  0.00    -0.394 OA
ATOM     25  H   UNL     1     104.540 104.164  99.553  1.00  0.00     0.210 HD
ENDBRANCH  23  24
ENDBRANCH  17  23
BRANCH  18  26
ATOM     26  O   UNL     1     105.297 105.894 101.669  1.00  0.00    -0.387 OA
ATOM     27  H   UNL     1     104.725 106.215 100.919  1.00  0.00     0.211 HD
ENDBRANCH  18  26
ENDBRANCH  12  13
ENDBRANCH   7  12
BRANCH   4  28
ATOM     28  O   UNL     1     105.741  97.544 102.210  1.00  0.00    -0.365 OA
ATOM     29  H   UNL     1     104.759  97.424 102.133  1.00  0.00     0.214 HD
ENDBRANCH   4  28
BRANCH   8  30
ATOM     30  C   UNL     1     104.593 102.016 102.997  1.00  0.00     0.249 C 
BRANCH  30  31
ATOM     31  O   UNL     1     104.105 103.020 102.106  1.00  0.00    -0.461 OA
BRANCH  31  32
ATOM     32  C   UNL     1     102.777 103.455 102.052  1.00  0.00     0.338 C 
ATOM     33  O   UNL     1     102.512 104.652 101.748  1.00  0.00    -0.246 OA
BRANCH  32  34
ATOM     34  C   UNL     1     101.684 102.500 102.340  1.00  0.00     0.060 A 
ATOM     35  C   UNL     1     101.231 101.601 101.353  1.00  0.00     0.015 A 
ATOM     36  C   UNL     1     101.071 102.485 103.607  1.00  0.00     0.015 A 
ATOM     37  C   UNL     1     100.195 100.702 101.635  1.00  0.00     0.001 A 
ATOM     38  C   UNL     1     100.029 101.591 103.878  1.00  0.00     0.001 A 
ATOM     39  C   UNL     1      99.592 100.698 102.894  1.00  0.00     0.000 A 
ENDBRANCH  32  34
ENDBRANCH  31  32
ENDBRANCH  30  31
ENDBRANCH   8  30
TORSDOF 12
ENDMDL
MODEL 9
REMARK VINA RESULT:    -4.416      6.408     11.414
REMARK INTER + INTRA:          -9.079
REMARK INTER:                  -6.825
REMARK INTRA:                  -2.254
REMARK UNBOUND:                -2.211
REMARK SMILES C[C@]12C[C@]3(O)O[C@H](O1)[C@@]1(COC(=O)c4ccccc4)[C@@H]3C[C@]12O[C@@H]1O[C@@H](CO)[C@@H](O)[C@@H](O)[C@@H]1O
REMARK SMILES IDX 1 1 2 2 3 3 4 4 20 5 21 6 22 7 9 8 7 9 8 10 6 11 23 12 24 13
REMARK SMILES IDX 33 14 25 15 31 16 26 17 29 18 34 19 32 21 27 23 28 24 30 26
REMARK SMILES IDX 5 28 10 30 11 31 12 32 13 33 14 34 15 35 19 36 16 37 18 38
REMARK SMILES IDX 17 39
REMARK H PARENT 34 20 32 22 28 25 30 27 5 29
REMARK Flexibility Score: inf
ROOT
ATOM      1  C   UNL     1     109.958 107.485 101.735  1.00  0.00     0.046 C 
ATOM      2  C   UNL     1     108.993 106.294 101.786  1.00  0.00     0.104 C 
ATOM      3  C   UNL     1     109.594 105.124 102.646  1.00  0.00     0.104 C 
ATOM      4  C   UNL     1     108.451 104.059 102.649  1.00  0.00     0.175 C 
ATOM      5  C   UNL     1     107.096 104.737 103.026  1.00  0.00     0.070 C 
ATOM      6  C   UNL     1     107.261 106.125 103.684  1.00  0.00     0.050 C 
ATOM      7  C   UNL     1     107.530 106.659 102.272  1.00  0.00     0.115 C 
ATOM      8  C   UNL     1     106.796 105.423 101.683  1.00  0.00     0.096 C 
ATOM      9  C   UNL     1     107.763 104.808 100.676  1.00  0.00     0.267 C 
ATOM     10  O   UNL     1     108.805 105.755 100.494  1.00  0.00    -0.342 OA
ATOM     11  O   UNL     1     108.289 103.650 101.305  1.00  0.00    -0.320 OA
ENDROOT
BRANCH   7  12
ATOM     12  O   UNL     1     107.274 108.054 102.057  1.00  0.00    -0.339 OA
BRANCH  12  13
ATOM     13  C   UNL     1     106.455 108.504 100.995  1.00  0.00     0.282 C 
ATOM     14  C   UNL     1     105.919 109.934 101.271  1.00  0.00     0.202 C 
ATOM     15  O   UNL     1     107.045 108.349  99.723  1.00  0.00    -0.341 OA
ATOM     16  C   UNL     1     105.455 110.621  99.961  1.00  0.00     0.179 C 
ATOM     17  C   UNL     1     106.129 108.571  98.649  1.00  0.00     0.178 C 
ATOM     18  C   UNL     1     104.967 109.568  98.956  1.00  0.00     0.177 C 
BRANCH  14  19
ATOM     19  O   UNL     1     106.890 110.714 101.928  1.00  0.00    -0.385 OA
ATOM     20  H   UNL     1     106.483 111.600 102.091  1.00  0.00     0.211 HD
ENDBRANCH  14  19
BRANCH  16  21
ATOM     21  O   UNL     1     104.423 111.535 100.224  1.00  0.00    -0.387 OA
ATOM     22  H   UNL     1     103.599 111.160  99.815  1.00  0.00     0.211 HD
ENDBRANCH  16  21
BRANCH  17  23
ATOM     23  C   UNL     1     105.640 107.221  98.089  1.00  0.00     0.191 C 
BRANCH  23  24
ATOM     24  O   UNL     1     104.666 107.414  97.096  1.00  0.00    -0.394 OA
ATOM     25  H   UNL     1     104.156 108.224  97.354  1.00  0.00     0.210 HD
ENDBRANCH  23  24
ENDBRANCH  17  23
BRANCH  18  26
ATOM     26  O   UNL     1     103.849 108.887  99.474  1.00  0.00    -0.387 OA
ATOM     27  H   UNL     1     103.446 108.374  98.720  1.00  0.00     0.211 HD
ENDBRANCH  18  26
ENDBRANCH  12  13
ENDBRANCH   7  12
BRANCH   4  28
ATOM     28  O   UNL     1     108.731 102.968 103.486  1.00  0.00    -0.365 OA
ATOM     29  H   UNL     1     108.671 102.152 102.925  1.00  0.00     0.214 HD
ENDBRANCH   4  28
BRANCH   8  30
ATOM     30  C   UNL     1     105.294 105.298 101.319  1.00  0.00     0.249 C 
BRANCH  30  31
ATOM     31  O   UNL     1     105.095 104.228 100.392  1.00  0.00    -0.461 OA
BRANCH  31  32
ATOM     32  C   UNL     1     104.426 103.037 100.689  1.00  0.00     0.338 C 
ATOM     33  O   UNL     1     103.318 102.776 100.142  1.00  0.00    -0.246 OA
BRANCH  32  34
ATOM     34  C   UNL     1     105.032 102.076 101.639  1.00  0.00     0.060 A 
ATOM     35  C   UNL     1     106.072 101.217 101.231  1.00  0.00     0.015 A 
ATOM     36  C   UNL     1     104.566 102.001 102.965  1.00  0.00     0.015 A 
ATOM     37  C   UNL     1     106.638 100.310 102.136  1.00  0.00     0.001 A 
ATOM     38  C   UNL     1     105.130 101.085 103.860  1.00  0.00     0.001 A 
ATOM     39  C   UNL     1     106.167 100.241 103.448  1.00  0.00     0.000 A 
ENDBRANCH  32  34
ENDBRANCH  31  32
ENDBRANCH  30  31
ENDBRANCH   8  30
TORSDOF 12
ENDMDL
