MODEL 1
REMARK VINA RESULT:    34.248      0.000      0.000
REMARK INTER + INTRA:          42.329
REMARK INTER:                  42.257
REMARK INTRA:                   0.072
REMARK UNBOUND:                 0.072
REMARK SMILES O=c1c(O)c(-c2cc(O)c(O)c(O)c2)oc2cc(O)cc(O)c12
REMARK SMILES IDX 5 1 3 2 2 3 1 4 23 5 21 6 20 7 18 8 17 9 16 10 15 11 6 12
REMARK SMILES IDX 7 13 8 14 14 15 10 16 12 17 9 18 11 20 13 22 4 24 22 26
REMARK SMILES IDX 19 28
REMARK H PARENT 9 19 11 21 13 23 4 25 22 27 19 29
REMARK Flexibility Score: inf
ROOT
ATOM      1  C   UNL     1      17.547  41.215  10.676  1.00  0.00     0.180 A 
ATOM      2  C   UNL     1      18.449  40.258  10.180  1.00  0.00     0.208 A 
ATOM      3  C   UNL     1      19.825  40.455  10.373  1.00  0.00     0.238 A 
ATOM      4  O   UNL     1      20.629  39.634   9.862  1.00  0.00    -0.285 OA
ATOM      5  C   UNL     1      20.280  41.575  11.110  1.00  0.00     0.111 A 
ATOM      6  C   UNL     1      21.650  41.851  11.406  1.00  0.00     0.134 A 
ATOM      7  C   UNL     1      21.990  43.046  12.052  1.00  0.00     0.093 A 
ATOM      8  C   UNL     1      21.006  43.946  12.467  1.00  0.00     0.123 A 
ATOM      9  C   UNL     1      19.664  43.660  12.232  1.00  0.00     0.094 A 
ATOM     10  C   UNL     1      19.295  42.494  11.556  1.00  0.00     0.146 A 
ATOM     11  O   UNL     1      18.005  42.273  11.335  1.00  0.00    -0.452 OA
ENDROOT
BRANCH   1  12
ATOM     12  C   UNL     1      16.083  41.084  10.499  1.00  0.00     0.029 A 
ATOM     13  C   UNL     1      15.289  42.185  10.132  1.00  0.00     0.062 A 
ATOM     14  C   UNL     1      13.902  42.047   9.993  1.00  0.00     0.162 A 
ATOM     15  C   UNL     1      15.463  39.853  10.759  1.00  0.00     0.062 A 
ATOM     16  C   UNL     1      13.293  40.804  10.233  1.00  0.00     0.200 A 
ATOM     17  C   UNL     1      14.079  39.706  10.621  1.00  0.00     0.162 A 
BRANCH  14  18
ATOM     18  O   UNL     1      13.125  43.144   9.622  1.00  0.00    -0.504 OA
ATOM     19  H   UNL     1      13.543  43.991   9.256  1.00  0.00     0.293 HD
ENDBRANCH  14  18
BRANCH  16  20
ATOM     20  O   UNL     1      11.913  40.648  10.095  1.00  0.00    -0.502 OA
ATOM     21  H   UNL     1      11.505  39.880   9.575  1.00  0.00     0.293 HD
ENDBRANCH  16  20
BRANCH  17  22
ATOM     22  O   UNL     1      13.504  38.461  10.875  1.00  0.00    -0.504 OA
ATOM     23  H   UNL     1      12.879  38.012  10.216  1.00  0.00     0.293 HD
ENDBRANCH  17  22
ENDBRANCH   1  12
BRANCH   2  24
ATOM     24  O   UNL     1      17.975  39.119   9.522  1.00  0.00    -0.502 OA
ATOM     25  H   UNL     1      18.266  38.872   8.584  1.00  0.00     0.293 HD
ENDBRANCH   2  24
BRANCH   6  26
ATOM     26  O   UNL     1      22.705  40.980  11.115  1.00  0.00    -0.507 OA
ATOM     27  H   UNL     1      23.628  41.036  11.518  1.00  0.00     0.293 HD
ENDBRANCH   6  26
BRANCH   8  28
ATOM     28  O   UNL     1      21.353  45.125  13.125  1.00  0.00    -0.508 OA
ATOM     29  H   UNL     1      20.857  45.436  13.951  1.00  0.00     0.293 HD
ENDBRANCH   8  28
TORSDOF 7
ENDMDL
MODEL 2
REMARK VINA RESULT:    34.600      0.064      1.755
REMARK INTER + INTRA:          42.763
REMARK INTER:                  42.711
REMARK INTRA:                   0.052
REMARK UNBOUND:                 0.072
REMARK SMILES O=c1c(O)c(-c2cc(O)c(O)c(O)c2)oc2cc(O)cc(O)c12
REMARK SMILES IDX 5 1 3 2 2 3 1 4 23 5 21 6 20 7 18 8 17 9 16 10 15 11 6 12
REMARK SMILES IDX 7 13 8 14 14 15 10 16 12 17 9 18 11 20 13 22 4 24 22 26
REMARK SMILES IDX 19 28
REMARK H PARENT 9 19 11 21 13 23 4 25 22 27 19 29
REMARK Flexibility Score: inf
ROOT
ATOM      1  C   UNL     1      17.569  41.173  10.727  1.00  0.00     0.180 A 
ATOM      2  C   UNL     1      18.475  40.226  10.219  1.00  0.00     0.208 A 
ATOM      3  C   UNL     1      19.851  40.438  10.395  1.00  0.00     0.238 A 
ATOM      4  O   UNL     1      20.657  39.625   9.873  1.00  0.00    -0.285 OA
ATOM      5  C   UNL     1      20.303  41.563  11.125  1.00  0.00     0.111 A 
ATOM      6  C   UNL     1      21.674  41.854  11.404  1.00  0.00     0.134 A 
ATOM      7  C   UNL     1      22.010  43.053  12.044  1.00  0.00     0.093 A 
ATOM      8  C   UNL     1      21.021  43.942  12.472  1.00  0.00     0.123 A 
ATOM      9  C   UNL     1      19.679  43.642  12.255  1.00  0.00     0.094 A 
ATOM     10  C   UNL     1      19.314  42.471  11.584  1.00  0.00     0.146 A 
ATOM     11  O   UNL     1      18.024  42.236  11.380  1.00  0.00    -0.452 OA
ENDROOT
BRANCH   1  12
ATOM     12  C   UNL     1      16.104  41.027  10.569  1.00  0.00     0.029 A 
ATOM     13  C   UNL     1      15.462  39.798  10.801  1.00  0.00     0.062 A 
ATOM     14  C   UNL     1      14.078  39.673  10.623  1.00  0.00     0.162 A 
ATOM     15  C   UNL     1      15.345  42.119  10.123  1.00  0.00     0.062 A 
ATOM     16  C   UNL     1      13.323  40.779  10.198  1.00  0.00     0.200 A 
ATOM     17  C   UNL     1      13.963  42.003   9.944  1.00  0.00     0.162 A 
BRANCH  14  18
ATOM     18  O   UNL     1      13.451  38.451  10.861  1.00  0.00    -0.504 OA
ATOM     19  H   UNL     1      13.705  37.614  10.348  1.00  0.00     0.293 HD
ENDBRANCH  14  18
BRANCH  16  20
ATOM     20  O   UNL     1      11.943  40.673  10.020  1.00  0.00    -0.502 OA
ATOM     21  H   UNL     1      11.317  40.429  10.779  1.00  0.00     0.293 HD
ENDBRANCH  16  20
BRANCH  17  22
ATOM     22  O   UNL     1      13.243  43.117   9.514  1.00  0.00    -0.504 OA
ATOM     23  H   UNL     1      13.127  43.941  10.092  1.00  0.00     0.293 HD
ENDBRANCH  17  22
ENDBRANCH   1  12
BRANCH   2  24
ATOM     24  O   UNL     1      18.004  39.082   9.568  1.00  0.00    -0.502 OA
ATOM     25  H   UNL     1      17.056  39.005   9.219  1.00  0.00     0.293 HD
ENDBRANCH   2  24
BRANCH   6  26
ATOM     26  O   UNL     1      22.735  40.994  11.099  1.00  0.00    -0.507 OA
ATOM     27  H   UNL     1      22.636  40.073  10.701  1.00  0.00     0.293 HD
ENDBRANCH   6  26
BRANCH   8  28
ATOM     28  O   UNL     1      21.364  45.125  13.125  1.00  0.00    -0.508 OA
ATOM     29  H   UNL     1      20.720  45.588  13.754  1.00  0.00     0.293 HD
ENDBRANCH   8  28
TORSDOF 7
ENDMDL
