MODEL 1
REMARK VINA RESULT:    -2.956      0.000      0.000
REMARK INTER + INTRA:          -4.782
REMARK INTER:                  -4.166
REMARK INTRA:                  -0.616
REMARK UNBOUND:                -0.616
REMARK SMILES CCCCCCCCC(=O)[O-]
REMARK SMILES IDX 6 1 7 2 8 3 9 4 10 5 11 6 5 7 4 8 3 9 2 10 1 11
REMARK H PARENT
REMARK Flexibility Score: inf
ROOT
ATOM      1  C   UNL     1      21.244  65.634  19.217  1.00  0.00     0.000 C 
ENDROOT
BRANCH   1   2
ATOM      2  C   UNL     1      19.861  65.297  18.633  1.00  0.00     0.006 C 
BRANCH   2   3
ATOM      3  C   UNL     1      19.412  66.319  17.580  1.00  0.00     0.053 C 
BRANCH   3   4
ATOM      4  C   UNL     1      18.735  67.501  18.206  1.00  0.00     0.041 C 
ATOM      5  O   UNL     1      18.689  68.602  17.598  1.00  0.00    -0.550 OA
ATOM      6  O   UNL     1      18.130  67.376  19.450  1.00  0.00    -0.550 OA
ENDBRANCH   3   4
ENDBRANCH   2   3
ENDBRANCH   1   2
BRANCH   1   7
ATOM      7  C   UNL     1      22.390  65.330  18.238  1.00  0.00     0.000 C 
BRANCH   7   8
ATOM      8  C   UNL     1      23.132  66.599  17.785  1.00  0.00    -0.000 C 
BRANCH   8   9
ATOM      9  C   UNL     1      22.707  67.853  18.571  1.00  0.00    -0.000 C 
BRANCH   9  10
ATOM     10  C   UNL     1      22.220  69.029  17.706  1.00  0.00    -0.003 C 
ATOM     11  C   UNL     1      22.703  70.387  18.214  1.00  0.00     0.004 C 
ENDBRANCH   9  10
ENDBRANCH   8   9
ENDBRANCH   7   8
ENDBRANCH   1   7
TORSDOF 7
ENDMDL
MODEL 2
REMARK VINA RESULT:    -2.894      2.077      3.880
REMARK INTER + INTRA:          -4.694
REMARK INTER:                  -3.967
REMARK INTRA:                  -0.727
REMARK UNBOUND:                -0.616
REMARK SMILES CCCCCCCCC(=O)[O-]
REMARK SMILES IDX 6 1 7 2 8 3 9 4 10 5 11 6 5 7 4 8 3 9 2 10 1 11
REMARK H PARENT
REMARK Flexibility Score: inf
ROOT
ATOM      1  C   UNL     1      22.464  65.661  18.172  1.00  0.00     0.000 C 
ENDROOT
BRANCH   1   2
ATOM      2  C   UNL     1      22.871  67.040  17.625  1.00  0.00     0.006 C 
BRANCH   2   3
ATOM      3  C   UNL     1      22.559  68.170  18.615  1.00  0.00     0.053 C 
BRANCH   3   4
ATOM      4  C   UNL     1      22.437  69.495  17.926  1.00  0.00     0.041 C 
ATOM      5  O   UNL     1      22.650  70.562  18.559  1.00  0.00    -0.550 OA
ATOM      6  O   UNL     1      22.116  69.548  16.575  1.00  0.00    -0.550 OA
ENDBRANCH   3   4
ENDBRANCH   2   3
ENDBRANCH   1   2
BRANCH   1   7
ATOM      7  C   UNL     1      21.276  65.737  19.146  1.00  0.00     0.000 C 
BRANCH   7   8
ATOM      8  C   UNL     1      19.978  65.177  18.539  1.00  0.00    -0.000 C 
BRANCH   8   9
ATOM      9  C   UNL     1      18.734  65.998  18.926  1.00  0.00    -0.000 C 
BRANCH   9  10
ATOM     10  C   UNL     1      18.955  67.520  18.990  1.00  0.00    -0.003 C 
ATOM     11  C   UNL     1      18.895  68.193  17.618  1.00  0.00     0.004 C 
ENDBRANCH   9  10
ENDBRANCH   8   9
ENDBRANCH   7   8
ENDBRANCH   1   7
TORSDOF 7
ENDMDL
MODEL 3
REMARK VINA RESULT:    -2.869      1.797      3.783
REMARK INTER + INTRA:          -4.659
REMARK INTER:                  -3.958
REMARK INTRA:                  -0.701
REMARK UNBOUND:                -0.616
REMARK SMILES CCCCCCCCC(=O)[O-]
REMARK SMILES IDX 6 1 7 2 8 3 9 4 10 5 11 6 5 7 4 8 3 9 2 10 1 11
REMARK H PARENT
REMARK Flexibility Score: inf
ROOT
ATOM      1  C   UNL     1      23.162  66.316  17.658  1.00  0.00     0.000 C 
ENDROOT
BRANCH   1   2
ATOM      2  C   UNL     1      22.751  67.677  18.244  1.00  0.00     0.006 C 
BRANCH   2   3
ATOM      3  C   UNL     1      22.104  68.589  17.193  1.00  0.00     0.053 C 
BRANCH   3   4
ATOM      4  C   UNL     1      21.954  69.994  17.691  1.00  0.00     0.041 C 
ATOM      5  O   UNL     1      22.837  70.503  18.430  1.00  0.00    -0.550 OA
ATOM      6  O   UNL     1      20.851  70.750  17.315  1.00  0.00    -0.550 OA
ENDBRANCH   3   4
ENDBRANCH   2   3
ENDBRANCH   1   2
BRANCH   1   7
ATOM      7  C   UNL     1      22.525  65.132  18.405  1.00  0.00     0.000 C 
BRANCH   7   8
ATOM      8  C   UNL     1      21.284  65.545  19.215  1.00  0.00    -0.000 C 
BRANCH   8   9
ATOM      9  C   UNL     1      19.964  65.122  18.544  1.00  0.00    -0.000 C 
BRANCH   9  10
ATOM     10  C   UNL     1      19.107  66.282  18.005  1.00  0.00    -0.003 C 
ATOM     11  C   UNL     1      18.953  67.428  19.006  1.00  0.00     0.004 C 
ENDBRANCH   9  10
ENDBRANCH   8   9
ENDBRANCH   7   8
ENDBRANCH   1   7
TORSDOF 7
ENDMDL
MODEL 4
REMARK VINA RESULT:    -2.849      2.085      3.798
REMARK INTER + INTRA:          -4.631
REMARK INTER:                  -4.025
REMARK INTRA:                  -0.606
REMARK UNBOUND:                -0.616
REMARK SMILES CCCCCCCCC(=O)[O-]
REMARK SMILES IDX 6 1 7 2 8 3 9 4 10 5 11 6 5 7 4 8 3 9 2 10 1 11
REMARK H PARENT
REMARK Flexibility Score: inf
ROOT
ATOM      1  C   UNL     1      19.786  67.442  19.073  1.00  0.00     0.000 C 
ENDROOT
BRANCH   1   2
ATOM      2  C   UNL     1      20.506  68.294  18.015  1.00  0.00     0.006 C 
BRANCH   2   3
ATOM      3  C   UNL     1      21.828  68.871  18.538  1.00  0.00     0.053 C 
BRANCH   3   4
ATOM      4  C   UNL     1      22.118  70.219  17.951  1.00  0.00     0.041 C 
ATOM      5  O   UNL     1      23.252  70.746  18.098  1.00  0.00    -0.550 OA
ATOM      6  O   UNL     1      21.143  70.880  17.214  1.00  0.00    -0.550 OA
ENDBRANCH   3   4
ENDBRANCH   2   3
ENDBRANCH   1   2
BRANCH   1   7
ATOM      7  C   UNL     1      19.750  65.948  18.707  1.00  0.00     0.000 C 
BRANCH   7   8
ATOM      8  C   UNL     1      21.036  65.209  19.117  1.00  0.00    -0.000 C 
BRANCH   8   9
ATOM      9  C   UNL     1      21.966  64.919  17.925  1.00  0.00    -0.000 C 
BRANCH   9  10
ATOM     10  C   UNL     1      23.316  65.657  17.959  1.00  0.00    -0.003 C 
ATOM     11  C   UNL     1      23.748  66.181  16.589  1.00  0.00     0.004 C 
ENDBRANCH   9  10
ENDBRANCH   8   9
ENDBRANCH   7   8
ENDBRANCH   1   7
TORSDOF 7
ENDMDL
MODEL 5
REMARK VINA RESULT:    -2.820      1.522      2.212
REMARK INTER + INTRA:          -4.590
REMARK INTER:                  -3.911
REMARK INTRA:                  -0.679
REMARK UNBOUND:                -0.616
REMARK SMILES CCCCCCCCC(=O)[O-]
REMARK SMILES IDX 6 1 7 2 8 3 9 4 10 5 11 6 5 7 4 8 3 9 2 10 1 11
REMARK H PARENT
REMARK Flexibility Score: inf
ROOT
ATOM      1  C   UNL     1      21.830  67.054  16.242  1.00  0.00     0.000 C 
ENDROOT
BRANCH   1   2
ATOM      2  C   UNL     1      20.915  65.843  16.490  1.00  0.00     0.006 C 
BRANCH   2   3
ATOM      3  C   UNL     1      19.581  66.247  17.132  1.00  0.00     0.053 C 
BRANCH   3   4
ATOM      4  C   UNL     1      19.502  65.820  18.566  1.00  0.00     0.041 C 
ATOM      5  O   UNL     1      18.455  66.027  19.234  1.00  0.00    -0.550 OA
ATOM      6  O   UNL     1      20.577  65.166  19.156  1.00  0.00    -0.550 OA
ENDBRANCH   3   4
ENDBRANCH   2   3
ENDBRANCH   1   2
BRANCH   1   7
ATOM      7  C   UNL     1      23.082  67.043  17.135  1.00  0.00     0.000 C 
BRANCH   7   8
ATOM      8  C   UNL     1      22.826  67.667  18.518  1.00  0.00    -0.000 C 
BRANCH   8   9
ATOM      9  C   UNL     1      21.952  68.934  18.450  1.00  0.00    -0.000 C 
BRANCH   9  10
ATOM     10  C   UNL     1      22.701  70.219  18.056  1.00  0.00    -0.003 C 
ATOM     11  C   UNL     1      22.151  70.867  16.785  1.00  0.00     0.004 C 
ENDBRANCH   9  10
ENDBRANCH   8   9
ENDBRANCH   7   8
ENDBRANCH   1   7
TORSDOF 7
ENDMDL
MODEL 6
REMARK VINA RESULT:    -2.791      2.622      3.728
REMARK INTER + INTRA:          -4.548
REMARK INTER:                  -3.753
REMARK INTRA:                  -0.795
REMARK UNBOUND:                -0.616
REMARK SMILES CCCCCCCCC(=O)[O-]
REMARK SMILES IDX 6 1 7 2 8 3 9 4 10 5 11 6 5 7 4 8 3 9 2 10 1 11
REMARK H PARENT
REMARK Flexibility Score: inf
ROOT
ATOM      1  C   UNL     1      20.524  67.656  19.058  1.00  0.00     0.000 C 
ENDROOT
BRANCH   1   2
ATOM      2  C   UNL     1      21.485  66.472  18.860  1.00  0.00     0.006 C 
BRANCH   2   3
ATOM      3  C   UNL     1      22.848  66.918  18.315  1.00  0.00     0.053 C 
BRANCH   3   4
ATOM      4  C   UNL     1      23.090  66.398  16.930  1.00  0.00     0.041 C 
ATOM      5  O   UNL     1      24.262  66.311  16.480  1.00  0.00    -0.550 OA
ATOM      6  O   UNL     1      22.020  65.983  16.148  1.00  0.00    -0.550 OA
ENDBRANCH   3   4
ENDBRANCH   2   3
ENDBRANCH   1   2
BRANCH   1   7
ATOM      7  C   UNL     1      19.453  67.740  17.957  1.00  0.00     0.000 C 
BRANCH   7   8
ATOM      8  C   UNL     1      19.883  68.639  16.784  1.00  0.00    -0.000 C 
BRANCH   8   9
ATOM      9  C   UNL     1      20.441  69.998  17.245  1.00  0.00    -0.000 C 
BRANCH   9  10
ATOM     10  C   UNL     1      21.907  70.263  16.858  1.00  0.00    -0.003 C 
ATOM     11  C   UNL     1      22.816  70.476  18.068  1.00  0.00     0.004 C 
ENDBRANCH   9  10
ENDBRANCH   8   9
ENDBRANCH   7   8
ENDBRANCH   1   7
TORSDOF 7
ENDMDL
MODEL 7
REMARK VINA RESULT:    -2.757     10.079     11.809
REMARK INTER + INTRA:          -4.501
REMARK INTER:                  -3.804
REMARK INTRA:                  -0.697
REMARK UNBOUND:                -0.616
REMARK SMILES CCCCCCCCC(=O)[O-]
REMARK SMILES IDX 6 1 7 2 8 3 9 4 10 5 11 6 5 7 4 8 3 9 2 10 1 11
REMARK H PARENT
REMARK Flexibility Score: inf
ROOT
ATOM      1  C   UNL     1      28.748  71.102   9.409  1.00  0.00     0.000 C 
ENDROOT
BRANCH   1   2
ATOM      2  C   UNL     1      27.903  71.168  10.693  1.00  0.00     0.006 C 
BRANCH   2   3
ATOM      3  C   UNL     1      28.605  71.956  11.807  1.00  0.00     0.053 C 
BRANCH   3   4
ATOM      4  C   UNL     1      27.778  72.010  13.056  1.00  0.00     0.041 C 
ATOM      5  O   UNL     1      26.542  71.771  13.010  1.00  0.00    -0.550 OA
ATOM      6  O   UNL     1      28.379  72.296  14.275  1.00  0.00    -0.550 OA
ENDBRANCH   3   4
ENDBRANCH   2   3
ENDBRANCH   1   2
BRANCH   1   7
ATOM      7  C   UNL     1      28.033  71.723   8.198  1.00  0.00     0.000 C 
BRANCH   7   8
ATOM      8  C   UNL     1      26.506  71.539   8.255  1.00  0.00    -0.000 C 
BRANCH   8   9
ATOM      9  C   UNL     1      25.741  72.874   8.203  1.00  0.00    -0.000 C 
BRANCH   9  10
ATOM     10  C   UNL     1      26.539  74.100   8.682  1.00  0.00    -0.003 C 
ATOM     11  C   UNL     1      26.235  74.484  10.130  1.00  0.00     0.004 C 
ENDBRANCH   9  10
ENDBRANCH   8   9
ENDBRANCH   7   8
ENDBRANCH   1   7
TORSDOF 7
ENDMDL
MODEL 8
REMARK VINA RESULT:    -2.733      1.768      2.849
REMARK INTER + INTRA:          -4.467
REMARK INTER:                  -3.721
REMARK INTRA:                  -0.746
REMARK UNBOUND:                -0.616
REMARK SMILES CCCCCCCCC(=O)[O-]
REMARK SMILES IDX 6 1 7 2 8 3 9 4 10 5 11 6 5 7 4 8 3 9 2 10 1 11
REMARK H PARENT
REMARK Flexibility Score: inf
ROOT
ATOM      1  C   UNL     1      22.599  67.892  17.848  1.00  0.00     0.000 C 
ENDROOT
BRANCH   1   2
ATOM      2  C   UNL     1      21.454  66.875  17.990  1.00  0.00     0.006 C 
BRANCH   2   3
ATOM      3  C   UNL     1      20.355  67.368  18.940  1.00  0.00     0.053 C 
BRANCH   3   4
ATOM      4  C   UNL     1      19.044  66.695  18.671  1.00  0.00     0.041 C 
ATOM      5  O   UNL     1      18.921  65.912  17.693  1.00  0.00    -0.550 OA
ATOM      6  O   UNL     1      17.965  66.911  19.520  1.00  0.00    -0.550 OA
ENDBRANCH   3   4
ENDBRANCH   2   3
ENDBRANCH   1   2
BRANCH   1   7
ATOM      7  C   UNL     1      22.393  69.141  18.721  1.00  0.00     0.000 C 
BRANCH   7   8
ATOM      8  C   UNL     1      22.779  70.441  17.993  1.00  0.00    -0.000 C 
BRANCH   8   9
ATOM      9  C   UNL     1      21.989  70.653  16.688  1.00  0.00    -0.000 C 
BRANCH   9  10
ATOM     10  C   UNL     1      20.491  70.954  16.877  1.00  0.00    -0.003 C 
ATOM     11  C   UNL     1      19.585  69.877  16.279  1.00  0.00     0.004 C 
ENDBRANCH   9  10
ENDBRANCH   8   9
ENDBRANCH   7   8
ENDBRANCH   1   7
TORSDOF 7
ENDMDL
MODEL 9
REMARK VINA RESULT:    -2.729      2.748      4.151
REMARK INTER + INTRA:          -4.462
REMARK INTER:                  -3.739
REMARK INTRA:                  -0.723
REMARK UNBOUND:                -0.616
REMARK SMILES CCCCCCCCC(=O)[O-]
REMARK SMILES IDX 6 1 7 2 8 3 9 4 10 5 11 6 5 7 4 8 3 9 2 10 1 11
REMARK H PARENT
REMARK Flexibility Score: inf
ROOT
ATOM      1  C   UNL     1      22.344  69.071  18.623  1.00  0.00     0.000 C 
ENDROOT
BRANCH   1   2
ATOM      2  C   UNL     1      22.769  67.887  17.739  1.00  0.00     0.006 C 
BRANCH   2   3
ATOM      3  C   UNL     1      21.713  66.774  17.713  1.00  0.00     0.053 C 
BRANCH   3   4
ATOM      4  C   UNL     1      22.183  65.544  18.429  1.00  0.00     0.041 C 
ATOM      5  O   UNL     1      23.263  64.990  18.096  1.00  0.00    -0.550 OA
ATOM      6  O   UNL     1      21.442  65.029  19.484  1.00  0.00    -0.550 OA
ENDBRANCH   3   4
ENDBRANCH   2   3
ENDBRANCH   1   2
BRANCH   1   7
ATOM      7  C   UNL     1      22.789  70.427  18.051  1.00  0.00     0.000 C 
BRANCH   7   8
ATOM      8  C   UNL     1      22.086  70.768  16.725  1.00  0.00    -0.000 C 
BRANCH   8   9
ATOM      9  C   UNL     1      20.555  70.850  16.864  1.00  0.00    -0.000 C 
BRANCH   9  10
ATOM     10  C   UNL     1      19.773  69.782  16.079  1.00  0.00    -0.003 C 
ATOM     11  C   UNL     1      20.582  69.165  14.938  1.00  0.00     0.004 C 
ENDBRANCH   9  10
ENDBRANCH   8   9
ENDBRANCH   7   8
ENDBRANCH   1   7
TORSDOF 7
ENDMDL
