MODEL 1
REMARK VINA RESULT:    -6.527      0.000      0.000
REMARK INTER + INTRA:         -10.262
REMARK INTER:                  -9.198
REMARK INTRA:                  -1.064
REMARK UNBOUND:                -1.064
REMARK SMILES OC[C@@H]1O[C@@H](O[C@@H]2OC=C[C@@H]3[C@H](O)[C@H]4O[C@@]4(CO)[C@H]23)[C@H](O)[C@H](O)[C@@H]1O
REMARK SMILES IDX 6 1 7 2 10 3 9 4 11 5 8 6 19 7 12 8 16 9 14 10 15 11 13 12
REMARK SMILES IDX 17 14 18 15 5 17 20 18 4 19 22 20 3 21 24 22 21 23 23 25
REMARK SMILES IDX 2 27 1 28 25 30
REMARK H PARENT 13 13 18 16 21 24 23 26 1 29 25 31
REMARK Flexibility Score: inf
ROOT
ATOM      1  O   UNL     1      14.455  22.400  22.862  1.00  0.00    -0.310 OA
ENDROOT
BRANCH   1   2
ATOM      2  C   UNL     1      13.984  21.220  23.474  1.00  0.00     0.315 C 
ATOM      3  C   UNL     1      13.530  18.444  23.807  1.00  0.00     0.018 C 
ATOM      4  C   UNL     1      14.765  18.939  23.927  1.00  0.00     0.186 C 
ATOM      5  C   UNL     1      12.374  19.264  23.250  1.00  0.00     0.059 C 
ATOM      6  O   UNL     1      15.037  20.269  23.599  1.00  0.00    -0.472 OA
ATOM      7  C   UNL     1      12.837  20.609  22.648  1.00  0.00     0.105 C 
ATOM      8  C   UNL     1      11.687  18.561  22.066  1.00  0.00     0.154 C 
ATOM      9  C   UNL     1      13.139  20.289  21.169  1.00  0.00     0.130 C 
ATOM     10  C   UNL     1      12.440  19.032  20.822  1.00  0.00     0.183 C 
ATOM     11  O   UNL     1      12.001  20.282  20.335  1.00  0.00    -0.360 OA
BRANCH   8  12
ATOM     12  O   UNL     1      11.664  17.158  22.190  1.00  0.00    -0.390 OA
ATOM     13  H   UNL     1      12.583  16.813  22.028  1.00  0.00     0.211 HD
ENDBRANCH   8  12
BRANCH   9  14
ATOM     14  C   UNL     1      14.492  20.515  20.465  1.00  0.00     0.195 C 
BRANCH  14  15
ATOM     15  O   UNL     1      14.547  21.770  19.836  1.00  0.00    -0.393 OA
ATOM     16  H   UNL     1      14.956  21.625  18.942  1.00  0.00     0.210 HD
ENDBRANCH  14  15
ENDBRANCH   9  14
ENDBRANCH   1   2
BRANCH   1  17
ATOM     17  C   UNL     1      15.841  22.649  23.068  1.00  0.00     0.286 C 
ATOM     18  C   UNL     1      16.488  23.560  21.971  1.00  0.00     0.202 C 
ATOM     19  O   UNL     1      16.182  22.893  24.434  1.00  0.00    -0.341 OA
ATOM     20  C   UNL     1      16.798  24.989  22.454  1.00  0.00     0.179 C 
ATOM     21  C   UNL     1      16.376  24.253  24.789  1.00  0.00     0.178 C 
ATOM     22  C   UNL     1      17.381  24.961  23.863  1.00  0.00     0.177 C 
BRANCH  18  23
ATOM     23  O   UNL     1      17.678  22.969  21.506  1.00  0.00    -0.385 OA
ATOM     24  H   UNL     1      18.187  22.667  22.304  1.00  0.00     0.211 HD
ENDBRANCH  18  23
BRANCH  20  25
ATOM     25  O   UNL     1      17.701  25.625  21.585  1.00  0.00    -0.387 OA
ATOM     26  H   UNL     1      18.590  25.601  22.026  1.00  0.00     0.211 HD
ENDBRANCH  20  25
BRANCH  21  27
ATOM     27  C   UNL     1      16.836  24.300  26.251  1.00  0.00     0.191 C 
BRANCH  27  28
ATOM     28  O   UNL     1      17.694  23.228  26.529  1.00  0.00    -0.394 OA
ATOM     29  H   UNL     1      17.224  22.410  26.222  1.00  0.00     0.210 HD
ENDBRANCH  27  28
ENDBRANCH  21  27
BRANCH  22  30
ATOM     30  O   UNL     1      18.618  24.290  23.863  1.00  0.00    -0.387 OA
ATOM     31  H   UNL     1      18.665  23.766  24.706  1.00  0.00     0.211 HD
ENDBRANCH  22  30
ENDBRANCH   1  17
TORSDOF 10
ENDMDL
MODEL 2
REMARK VINA RESULT:    -6.029      7.708      9.626
REMARK INTER + INTRA:          -9.561
REMARK INTER:                  -8.086
REMARK INTRA:                  -1.474
REMARK UNBOUND:                -1.064
REMARK SMILES OC[C@@H]1O[C@@H](O[C@@H]2OC=C[C@@H]3[C@H](O)[C@H]4O[C@@]4(CO)[C@H]23)[C@H](O)[C@H](O)[C@@H]1O
REMARK SMILES IDX 6 1 7 2 10 3 9 4 11 5 8 6 19 7 12 8 16 9 14 10 15 11 13 12
REMARK SMILES IDX 17 14 18 15 5 17 20 18 4 19 22 20 3 21 24 22 21 23 23 25
REMARK SMILES IDX 2 27 1 28 25 30
REMARK H PARENT 13 13 18 16 21 24 23 26 1 29 25 31
REMARK Flexibility Score: inf
ROOT
ATOM      1  O   UNL     1      19.202  13.469  19.434  1.00  0.00    -0.310 OA
ENDROOT
BRANCH   1   2
ATOM      2  C   UNL     1      18.009  13.312  18.698  1.00  0.00     0.315 C 
ATOM      3  C   UNL     1      16.185  13.667  16.559  1.00  0.00     0.018 C 
ATOM      4  C   UNL     1      17.310  12.971  16.370  1.00  0.00     0.186 C 
ATOM      5  C   UNL     1      15.943  14.500  17.810  1.00  0.00     0.059 C 
ATOM      6  O   UNL     1      18.299  12.930  17.356  1.00  0.00    -0.472 OA
ATOM      7  C   UNL     1      17.204  14.624  18.694  1.00  0.00     0.105 C 
ATOM      8  C   UNL     1      15.601  15.962  17.471  1.00  0.00     0.154 C 
ATOM      9  C   UNL     1      17.926  15.881  18.166  1.00  0.00     0.130 C 
ATOM     10  C   UNL     1      16.942  16.690  17.413  1.00  0.00     0.183 C 
ATOM     11  O   UNL     1      17.422  17.095  18.677  1.00  0.00    -0.360 OA
BRANCH   8  12
ATOM     12  O   UNL     1      14.855  16.097  16.284  1.00  0.00    -0.390 OA
ATOM     13  H   UNL     1      14.812  15.209  15.837  1.00  0.00     0.211 HD
ENDBRANCH   8  12
BRANCH   9  14
ATOM     14  C   UNL     1      19.372  15.922  17.630  1.00  0.00     0.195 C 
BRANCH  14  15
ATOM     15  O   UNL     1      20.304  16.101  18.666  1.00  0.00    -0.393 OA
ATOM     16  H   UNL     1      19.783  16.217  19.504  1.00  0.00     0.210 HD
ENDBRANCH  14  15
ENDBRANCH   9  14
ENDBRANCH   1   2
BRANCH   1  17
ATOM     17  C   UNL     1      19.002  13.706  20.823  1.00  0.00     0.286 C 
ATOM     18  C   UNL     1      19.201  12.435  21.714  1.00  0.00     0.202 C 
ATOM     19  O   UNL     1      19.554  14.943  21.278  1.00  0.00    -0.341 OA
ATOM     20  C   UNL     1      20.503  12.450  22.537  1.00  0.00     0.179 C 
ATOM     21  C   UNL     1      20.794  14.850  21.963  1.00  0.00     0.178 C 
ATOM     22  C   UNL     1      20.747  13.838  23.121  1.00  0.00     0.177 C 
BRANCH  18  23
ATOM     23  O   UNL     1      18.110  12.297  22.593  1.00  0.00    -0.385 OA
ATOM     24  H   UNL     1      17.922  13.196  22.970  1.00  0.00     0.211 HD
ENDBRANCH  18  23
BRANCH  20  25
ATOM     25  O   UNL     1      20.449  11.506  23.576  1.00  0.00    -0.387 OA
ATOM     26  H   UNL     1      21.184  11.727  24.205  1.00  0.00     0.211 HD
ENDBRANCH  20  25
BRANCH  21  27
ATOM     27  C   UNL     1      21.165  16.252  22.462  1.00  0.00     0.191 C 
BRANCH  27  28
ATOM     28  O   UNL     1      21.559  17.065  21.391  1.00  0.00    -0.394 OA
ATOM     29  H   UNL     1      22.277  17.654  21.740  1.00  0.00     0.210 HD
ENDBRANCH  27  28
ENDBRANCH  21  27
BRANCH  22  30
ATOM     30  O   UNL     1      19.727  14.168  24.031  1.00  0.00    -0.387 OA
ATOM     31  H   UNL     1      19.976  13.770  24.907  1.00  0.00     0.211 HD
ENDBRANCH  22  30
ENDBRANCH   1  17
TORSDOF 10
ENDMDL
MODEL 3
REMARK VINA RESULT:    -6.025      6.950      9.031
REMARK INTER + INTRA:          -9.555
REMARK INTER:                  -8.294
REMARK INTRA:                  -1.260
REMARK UNBOUND:                -1.064
REMARK SMILES OC[C@@H]1O[C@@H](O[C@@H]2OC=C[C@@H]3[C@H](O)[C@H]4O[C@@]4(CO)[C@H]23)[C@H](O)[C@H](O)[C@@H]1O
REMARK SMILES IDX 6 1 7 2 10 3 9 4 11 5 8 6 19 7 12 8 16 9 14 10 15 11 13 12
REMARK SMILES IDX 17 14 18 15 5 17 20 18 4 19 22 20 3 21 24 22 21 23 23 25
REMARK SMILES IDX 2 27 1 28 25 30
REMARK H PARENT 13 13 18 16 21 24 23 26 1 29 25 31
REMARK Flexibility Score: inf
ROOT
ATOM      1  O   UNL     1      19.632  16.084  25.288  1.00  0.00    -0.310 OA
ENDROOT
BRANCH   1   2
ATOM      2  C   UNL     1      21.013  16.213  25.033  1.00  0.00     0.315 C 
ATOM      3  C   UNL     1      23.444  15.990  23.593  1.00  0.00     0.018 C 
ATOM      4  C   UNL     1      22.496  16.837  23.179  1.00  0.00     0.186 C 
ATOM      5  C   UNL     1      23.187  14.944  24.670  1.00  0.00     0.059 C 
ATOM      6  O   UNL     1      21.231  16.837  23.770  1.00  0.00    -0.472 OA
ATOM      7  C   UNL     1      21.693  14.832  25.045  1.00  0.00     0.105 C 
ATOM      8  C   UNL     1      23.542  13.526  24.190  1.00  0.00     0.154 C 
ATOM      9  C   UNL     1      21.128  13.771  24.077  1.00  0.00     0.130 C 
ATOM     10  C   UNL     1      22.265  12.981  23.552  1.00  0.00     0.183 C 
ATOM     11  O   UNL     1      21.354  12.439  24.485  1.00  0.00    -0.360 OA
BRANCH   8  12
ATOM     12  O   UNL     1      24.644  13.494  23.314  1.00  0.00    -0.390 OA
ATOM     13  H   UNL     1      24.306  13.545  22.381  1.00  0.00     0.211 HD
ENDBRANCH   8  12
BRANCH   9  14
ATOM     14  C   UNL     1      19.959  13.989  23.095  1.00  0.00     0.195 C 
BRANCH  14  15
ATOM     15  O   UNL     1      18.718  13.738  23.703  1.00  0.00    -0.393 OA
ATOM     16  H   UNL     1      18.584  14.448  24.386  1.00  0.00     0.210 HD
ENDBRANCH  14  15
ENDBRANCH   9  14
ENDBRANCH   1   2
BRANCH   1  17
ATOM     17  C   UNL     1      18.875  17.255  25.004  1.00  0.00     0.286 C 
ATOM     18  C   UNL     1      17.508  16.966  24.298  1.00  0.00     0.202 C 
ATOM     19  O   UNL     1      18.901  18.222  26.056  1.00  0.00    -0.341 OA
ATOM     20  C   UNL     1      16.285  17.153  25.214  1.00  0.00     0.179 C 
ATOM     21  C   UNL     1      17.751  18.261  26.886  1.00  0.00     0.178 C 
ATOM     22  C   UNL     1      16.450  18.401  26.076  1.00  0.00     0.177 C 
BRANCH  18  23
ATOM     23  O   UNL     1      17.369  17.805  23.176  1.00  0.00    -0.385 OA
ATOM     24  H   UNL     1      18.280  17.962  22.812  1.00  0.00     0.211 HD
ENDBRANCH  18  23
BRANCH  20  25
ATOM     25  O   UNL     1      15.105  17.259  24.457  1.00  0.00    -0.387 OA
ATOM     26  H   UNL     1      15.243  18.000  23.811  1.00  0.00     0.211 HD
ENDBRANCH  20  25
BRANCH  21  27
ATOM     27  C   UNL     1      17.919  19.421  27.875  1.00  0.00     0.191 C 
BRANCH  27  28
ATOM     28  O   UNL     1      18.437  20.548  27.223  1.00  0.00    -0.394 OA
ATOM     29  H   UNL     1      18.417  20.340  26.253  1.00  0.00     0.210 HD
ENDBRANCH  27  28
ENDBRANCH  21  27
BRANCH  22  30
ATOM     30  O   UNL     1      16.488  19.550  25.265  1.00  0.00    -0.387 OA
ATOM     31  H   UNL     1      15.626  19.589  24.773  1.00  0.00     0.211 HD
ENDBRANCH  22  30
ENDBRANCH   1  17
TORSDOF 10
ENDMDL
MODEL 4
REMARK VINA RESULT:    -5.958      7.297      9.818
REMARK INTER + INTRA:          -9.459
REMARK INTER:                  -8.005
REMARK INTRA:                  -1.455
REMARK UNBOUND:                -1.064
REMARK SMILES OC[C@@H]1O[C@@H](O[C@@H]2OC=C[C@@H]3[C@H](O)[C@H]4O[C@@]4(CO)[C@H]23)[C@H](O)[C@H](O)[C@@H]1O
REMARK SMILES IDX 6 1 7 2 10 3 9 4 11 5 8 6 19 7 12 8 16 9 14 10 15 11 13 12
REMARK SMILES IDX 17 14 18 15 5 17 20 18 4 19 22 20 3 21 24 22 21 23 23 25
REMARK SMILES IDX 2 27 1 28 25 30
REMARK H PARENT 13 13 18 16 21 24 23 26 1 29 25 31
REMARK Flexibility Score: inf
ROOT
ATOM      1  O   UNL     1      22.000  16.318  25.775  1.00  0.00    -0.310 OA
ENDROOT
BRANCH   1   2
ATOM      2  C   UNL     1      22.230  17.492  26.522  1.00  0.00     0.315 C 
ATOM      3  C   UNL     1      21.918  19.357  28.632  1.00  0.00     0.018 C 
ATOM      4  C   UNL     1      22.475  18.165  28.869  1.00  0.00     0.186 C 
ATOM      5  C   UNL     1      21.208  19.678  27.324  1.00  0.00     0.059 C 
ATOM      6  O   UNL     1      22.481  17.172  27.887  1.00  0.00    -0.472 OA
ATOM      7  C   UNL     1      21.015  18.432  26.432  1.00  0.00     0.105 C 
ATOM      8  C   UNL     1      19.771  20.177  27.557  1.00  0.00     0.154 C 
ATOM      9  C   UNL     1      19.653  17.852  26.866  1.00  0.00     0.130 C 
ATOM     10  C   UNL     1      18.901  18.921  27.560  1.00  0.00     0.183 C 
ATOM     11  O   UNL     1      18.540  18.480  26.268  1.00  0.00    -0.360 OA
BRANCH   8  12
ATOM     12  O   UNL     1      19.631  20.940  28.732  1.00  0.00    -0.390 OA
ATOM     13  H   UNL     1      19.780  20.343  29.514  1.00  0.00     0.211 HD
ENDBRANCH   8  12
BRANCH   9  14
ATOM     14  C   UNL     1      19.419  16.422  27.395  1.00  0.00     0.195 C 
BRANCH  14  15
ATOM     15  O   UNL     1      18.985  15.556  26.378  1.00  0.00    -0.393 OA
ATOM     16  H   UNL     1      18.867  14.661  26.794  1.00  0.00     0.210 HD
ENDBRANCH  14  15
ENDBRANCH   9  14
ENDBRANCH   1   2
BRANCH   1  17
ATOM     17  C   UNL     1      21.773  16.546  24.388  1.00  0.00     0.286 C 
ATOM     18  C   UNL     1      23.061  16.417  23.509  1.00  0.00     0.202 C 
ATOM     19  O   UNL     1      20.563  15.960  23.903  1.00  0.00    -0.341 OA
ATOM     20  C   UNL     1      23.104  15.137  22.653  1.00  0.00     0.179 C 
ATOM     21  C   UNL     1      20.710  14.743  23.188  1.00  0.00     0.178 C 
ATOM     22  C   UNL     1      21.734  14.858  22.044  1.00  0.00     0.177 C 
BRANCH  18  23
ATOM     23  O   UNL     1      23.169  17.535  22.661  1.00  0.00    -0.385 OA
ATOM     24  H   UNL     1      23.959  18.056  22.961  1.00  0.00     0.211 HD
ENDBRANCH  18  23
BRANCH  20  25
ATOM     25  O   UNL     1      24.058  15.254  21.627  1.00  0.00    -0.387 OA
ATOM     26  H   UNL     1      24.948  15.119  22.045  1.00  0.00     0.211 HD
ENDBRANCH  20  25
BRANCH  21  27
ATOM     27  C   UNL     1      19.329  14.334  22.661  1.00  0.00     0.191 C 
BRANCH  27  28
ATOM     28  O   UNL     1      18.438  14.136  23.724  1.00  0.00    -0.394 OA
ATOM     29  H   UNL     1      18.549  14.917  24.327  1.00  0.00     0.210 HD
ENDBRANCH  27  28
ENDBRANCH  21  27
BRANCH  22  30
ATOM     30  O   UNL     1      21.377  15.889  21.156  1.00  0.00    -0.387 OA
ATOM     31  H   UNL     1      20.866  15.471  20.413  1.00  0.00     0.211 HD
ENDBRANCH  22  30
ENDBRANCH   1  17
TORSDOF 10
ENDMDL
MODEL 5
REMARK VINA RESULT:    -5.846      1.189      2.594
REMARK INTER + INTRA:          -9.302
REMARK INTER:                  -8.406
REMARK INTRA:                  -0.897
REMARK UNBOUND:                -1.064
REMARK SMILES OC[C@@H]1O[C@@H](O[C@@H]2OC=C[C@@H]3[C@H](O)[C@H]4O[C@@]4(CO)[C@H]23)[C@H](O)[C@H](O)[C@@H]1O
REMARK SMILES IDX 6 1 7 2 10 3 9 4 11 5 8 6 19 7 12 8 16 9 14 10 15 11 13 12
REMARK SMILES IDX 17 14 18 15 5 17 20 18 4 19 22 20 3 21 24 22 21 23 23 25
REMARK SMILES IDX 2 27 1 28 25 30
REMARK H PARENT 13 13 18 16 21 24 23 26 1 29 25 31
REMARK Flexibility Score: inf
ROOT
ATOM      1  O   UNL     1      14.504  22.279  22.916  1.00  0.00    -0.310 OA
ENDROOT
BRANCH   1   2
ATOM      2  C   UNL     1      13.973  21.107  23.493  1.00  0.00     0.315 C 
ATOM      3  C   UNL     1      13.440  18.339  23.781  1.00  0.00     0.018 C 
ATOM      4  C   UNL     1      14.678  18.806  23.972  1.00  0.00     0.186 C 
ATOM      5  C   UNL     1      12.335  19.189  23.167  1.00  0.00     0.059 C 
ATOM      6  O   UNL     1      14.997  20.131  23.669  1.00  0.00    -0.472 OA
ATOM      7  C   UNL     1      12.861  20.527  22.602  1.00  0.00     0.105 C 
ATOM      8  C   UNL     1      11.700  18.508  21.942  1.00  0.00     0.154 C 
ATOM      9  C   UNL     1      13.237  20.209  21.139  1.00  0.00     0.130 C 
ATOM     10  C   UNL     1      12.530  18.970  20.745  1.00  0.00     0.183 C 
ATOM     11  O   UNL     1      12.146  20.233  20.244  1.00  0.00    -0.360 OA
BRANCH   8  12
ATOM     12  O   UNL     1      11.639  17.106  22.054  1.00  0.00    -0.390 OA
ATOM     13  H   UNL     1      12.160  16.832  22.856  1.00  0.00     0.211 HD
ENDBRANCH   8  12
BRANCH   9  14
ATOM     14  C   UNL     1      14.631  20.409  20.511  1.00  0.00     0.195 C 
BRANCH  14  15
ATOM     15  O   UNL     1      14.811  21.725  20.055  1.00  0.00    -0.393 OA
ATOM     16  H   UNL     1      14.262  22.310  20.642  1.00  0.00     0.210 HD
ENDBRANCH  14  15
ENDBRANCH   9  14
ENDBRANCH   1   2
BRANCH   1  17
ATOM     17  C   UNL     1      14.728  23.336  23.844  1.00  0.00     0.286 C 
ATOM     18  C   UNL     1      14.690  22.878  25.341  1.00  0.00     0.202 C 
ATOM     19  O   UNL     1      15.754  24.244  23.442  1.00  0.00    -0.341 OA
ATOM     20  C   UNL     1      16.076  22.834  26.011  1.00  0.00     0.179 C 
ATOM     21  C   UNL     1      17.014  24.069  24.070  1.00  0.00     0.178 C 
ATOM     22  C   UNL     1      16.903  24.050  25.606  1.00  0.00     0.177 C 
BRANCH  18  23
ATOM     23  O   UNL     1      13.855  23.738  26.078  1.00  0.00    -0.385 OA
ATOM     24  H   UNL     1      14.130  24.668  25.864  1.00  0.00     0.211 HD
ENDBRANCH  18  23
BRANCH  20  25
ATOM     25  O   UNL     1      15.953  22.797  27.411  1.00  0.00    -0.387 OA
ATOM     26  H   UNL     1      16.195  23.699  27.746  1.00  0.00     0.211 HD
ENDBRANCH  20  25
BRANCH  21  27
ATOM     27  C   UNL     1      17.942  25.193  23.593  1.00  0.00     0.191 C 
BRANCH  27  28
ATOM     28  O   UNL     1      17.395  25.838  22.477  1.00  0.00    -0.394 OA
ATOM     29  H   UNL     1      17.137  25.121  21.841  1.00  0.00     0.210 HD
ENDBRANCH  27  28
ENDBRANCH  21  27
BRANCH  22  30
ATOM     30  O   UNL     1      16.297  25.229  26.077  1.00  0.00    -0.387 OA
ATOM     31  H   UNL     1      17.003  25.757  26.535  1.00  0.00     0.211 HD
ENDBRANCH  22  30
ENDBRANCH   1  17
TORSDOF 10
ENDMDL
MODEL 6
REMARK VINA RESULT:    -5.840      7.361      9.333
REMARK INTER + INTRA:          -9.293
REMARK INTER:                  -8.038
REMARK INTRA:                  -1.255
REMARK UNBOUND:                -1.064
REMARK SMILES OC[C@@H]1O[C@@H](O[C@@H]2OC=C[C@@H]3[C@H](O)[C@H]4O[C@@]4(CO)[C@H]23)[C@H](O)[C@H](O)[C@@H]1O
REMARK SMILES IDX 6 1 7 2 10 3 9 4 11 5 8 6 19 7 12 8 16 9 14 10 15 11 13 12
REMARK SMILES IDX 17 14 18 15 5 17 20 18 4 19 22 20 3 21 24 22 21 23 23 25
REMARK SMILES IDX 2 27 1 28 25 30
REMARK H PARENT 13 13 18 16 21 24 23 26 1 29 25 31
REMARK Flexibility Score: inf
ROOT
ATOM      1  O   UNL     1      19.622  16.020  19.634  1.00  0.00    -0.310 OA
ENDROOT
BRANCH   1   2
ATOM      2  C   UNL     1      19.478  14.628  19.813  1.00  0.00     0.315 C 
ATOM      3  C   UNL     1      19.612  12.132  21.145  1.00  0.00     0.018 C 
ATOM      4  C   UNL     1      18.739  13.060  21.549  1.00  0.00     0.186 C 
ATOM      5  C   UNL     1      20.724  12.437  20.151  1.00  0.00     0.059 C 
ATOM      6  O   UNL     1      18.775  14.352  21.021  1.00  0.00    -0.472 OA
ATOM      7  C   UNL     1      20.858  13.948  19.857  1.00  0.00     0.105 C 
ATOM      8  C   UNL     1      22.109  12.057  20.704  1.00  0.00     0.154 C 
ATOM      9  C   UNL     1      21.854  14.463  20.916  1.00  0.00     0.130 C 
ATOM     10  C   UNL     1      22.610  13.301  21.436  1.00  0.00     0.183 C 
ATOM     11  O   UNL     1      23.210  14.255  20.585  1.00  0.00    -0.360 OA
BRANCH   8  12
ATOM     12  O   UNL     1      22.086  10.914  21.526  1.00  0.00    -0.390 OA
ATOM     13  H   UNL     1      21.867  10.125  20.960  1.00  0.00     0.211 HD
ENDBRANCH   8  12
BRANCH   9  14
ATOM     14  C   UNL     1      21.572  15.584  21.937  1.00  0.00     0.195 C 
BRANCH  14  15
ATOM     15  O   UNL     1      21.907  16.848  21.425  1.00  0.00    -0.393 OA
ATOM     16  H   UNL     1      22.786  16.750  20.971  1.00  0.00     0.210 HD
ENDBRANCH  14  15
ENDBRANCH   9  14
ENDBRANCH   1   2
BRANCH   1  17
ATOM     17  C   UNL     1      18.437  16.765  19.886  1.00  0.00     0.286 C 
ATOM     18  C   UNL     1      18.698  18.157  20.554  1.00  0.00     0.202 C 
ATOM     19  O   UNL     1      17.479  16.694  18.830  1.00  0.00    -0.341 OA
ATOM     20  C   UNL     1      18.499  19.350  19.602  1.00  0.00     0.179 C 
ATOM     21  C   UNL     1      17.427  17.818  17.965  1.00  0.00     0.178 C 
ATOM     22  C   UNL     1      17.260  19.140  18.736  1.00  0.00     0.177 C 
BRANCH  18  23
ATOM     23  O   UNL     1      17.849  18.316  21.665  1.00  0.00    -0.385 OA
ATOM     24  H   UNL     1      17.233  17.537  21.678  1.00  0.00     0.211 HD
ENDBRANCH  18  23
BRANCH  20  25
ATOM     25  O   UNL     1      18.368  20.549  20.323  1.00  0.00    -0.387 OA
ATOM     26  H   UNL     1      17.472  20.919  20.108  1.00  0.00     0.211 HD
ENDBRANCH  20  25
BRANCH  21  27
ATOM     27  C   UNL     1      16.277  17.602  16.974  1.00  0.00     0.191 C 
BRANCH  27  28
ATOM     28  O   UNL     1      15.171  17.038  17.623  1.00  0.00    -0.394 OA
ATOM     29  H   UNL     1      15.217  16.061  17.451  1.00  0.00     0.210 HD
ENDBRANCH  27  28
ENDBRANCH  21  27
BRANCH  22  30
ATOM     30  O   UNL     1      16.106  19.106  19.540  1.00  0.00    -0.387 OA
ATOM     31  H   UNL     1      16.381  19.369  20.457  1.00  0.00     0.211 HD
ENDBRANCH  22  30
ENDBRANCH   1  17
TORSDOF 10
ENDMDL
MODEL 7
REMARK VINA RESULT:    -5.749      6.709      8.664
REMARK INTER + INTRA:          -9.166
REMARK INTER:                  -7.653
REMARK INTRA:                  -1.513
REMARK UNBOUND:                -1.064
REMARK SMILES OC[C@@H]1O[C@@H](O[C@@H]2OC=C[C@@H]3[C@H](O)[C@H]4O[C@@]4(CO)[C@H]23)[C@H](O)[C@H](O)[C@@H]1O
REMARK SMILES IDX 6 1 7 2 10 3 9 4 11 5 8 6 19 7 12 8 16 9 14 10 15 11 13 12
REMARK SMILES IDX 17 14 18 15 5 17 20 18 4 19 22 20 3 21 24 22 21 23 23 25
REMARK SMILES IDX 2 27 1 28 25 30
REMARK H PARENT 13 13 18 16 21 24 23 26 1 29 25 31
REMARK Flexibility Score: inf
ROOT
ATOM      1  O   UNL     1      19.958  16.919  20.408  1.00  0.00    -0.310 OA
ENDROOT
BRANCH   1   2
ATOM      2  C   UNL     1      20.287  16.431  21.689  1.00  0.00     0.315 C 
ATOM      3  C   UNL     1      21.399  14.681  23.620  1.00  0.00     0.018 C 
ATOM      4  C   UNL     1      22.200  15.413  22.840  1.00  0.00     0.186 C 
ATOM      5  C   UNL     1      19.905  14.550  23.358  1.00  0.00     0.059 C 
ATOM      6  O   UNL     1      21.681  16.148  21.772  1.00  0.00    -0.472 OA
ATOM      7  C   UNL     1      19.486  15.154  21.999  1.00  0.00     0.105 C 
ATOM      8  C   UNL     1      19.467  13.079  23.245  1.00  0.00     0.154 C 
ATOM      9  C   UNL     1      19.621  13.988  20.998  1.00  0.00     0.130 C 
ATOM     10  C   UNL     1      19.618  12.723  21.767  1.00  0.00     0.183 C 
ATOM     11  O   UNL     1      18.515  13.113  20.976  1.00  0.00    -0.360 OA
BRANCH   8  12
ATOM     12  O   UNL     1      20.193  12.217  24.090  1.00  0.00    -0.390 OA
ATOM     13  H   UNL     1      20.017  11.279  23.807  1.00  0.00     0.211 HD
ENDBRANCH   8  12
BRANCH   9  14
ATOM     14  C   UNL     1      20.502  13.995  19.733  1.00  0.00     0.195 C 
BRANCH  14  15
ATOM     15  O   UNL     1      19.808  14.497  18.619  1.00  0.00    -0.393 OA
ATOM     16  H   UNL     1      19.121  13.819  18.381  1.00  0.00     0.210 HD
ENDBRANCH  14  15
ENDBRANCH   9  14
ENDBRANCH   1   2
BRANCH   1  17
ATOM     17  C   UNL     1      18.600  17.321  20.268  1.00  0.00     0.286 C 
ATOM     18  C   UNL     1      18.384  18.866  20.402  1.00  0.00     0.202 C 
ATOM     19  O   UNL     1      17.901  16.630  19.232  1.00  0.00    -0.341 OA
ATOM     20  C   UNL     1      18.077  19.568  19.066  1.00  0.00     0.179 C 
ATOM     21  C   UNL     1      17.736  17.342  18.016  1.00  0.00     0.178 C 
ATOM     22  C   UNL     1      17.110  18.732  18.234  1.00  0.00     0.177 C 
BRANCH  18  23
ATOM     23  O   UNL     1      17.332  19.121  21.301  1.00  0.00    -0.385 OA
ATOM     24  H   UNL     1      17.598  18.740  22.179  1.00  0.00     0.211 HD
ENDBRANCH  18  23
BRANCH  20  25
ATOM     25  O   UNL     1      17.525  20.842  19.286  1.00  0.00    -0.387 OA
ATOM     26  H   UNL     1      16.541  20.725  19.337  1.00  0.00     0.211 HD
ENDBRANCH  20  25
BRANCH  21  27
ATOM     27  C   UNL     1      16.877  16.485  17.078  1.00  0.00     0.191 C 
BRANCH  27  28
ATOM     28  O   UNL     1      17.468  15.230  16.884  1.00  0.00    -0.394 OA
ATOM     29  H   UNL     1      18.418  15.403  16.653  1.00  0.00     0.210 HD
ENDBRANCH  27  28
ENDBRANCH  21  27
BRANCH  22  30
ATOM     30  O   UNL     1      15.872  18.623  18.892  1.00  0.00    -0.387 OA
ATOM     31  H   UNL     1      15.742  17.664  19.115  1.00  0.00     0.211 HD
ENDBRANCH  22  30
ENDBRANCH   1  17
TORSDOF 10
ENDMDL
MODEL 8
REMARK VINA RESULT:    -5.709      7.616     10.112
REMARK INTER + INTRA:          -9.109
REMARK INTER:                  -7.945
REMARK INTRA:                  -1.164
REMARK UNBOUND:                -1.064
REMARK SMILES OC[C@@H]1O[C@@H](O[C@@H]2OC=C[C@@H]3[C@H](O)[C@H]4O[C@@]4(CO)[C@H]23)[C@H](O)[C@H](O)[C@@H]1O
REMARK SMILES IDX 6 1 7 2 10 3 9 4 11 5 8 6 19 7 12 8 16 9 14 10 15 11 13 12
REMARK SMILES IDX 17 14 18 15 5 17 20 18 4 19 22 20 3 21 24 22 21 23 23 25
REMARK SMILES IDX 2 27 1 28 25 30
REMARK H PARENT 13 13 18 16 21 24 23 26 1 29 25 31
REMARK Flexibility Score: inf
ROOT
ATOM      1  O   UNL     1      19.839  15.139  22.145  1.00  0.00    -0.310 OA
ENDROOT
BRANCH   1   2
ATOM      2  C   UNL     1      21.042  15.844  22.359  1.00  0.00     0.315 C 
ATOM      3  C   UNL     1      23.782  16.222  22.975  1.00  0.00     0.018 C 
ATOM      4  C   UNL     1      23.429  15.619  21.836  1.00  0.00     0.186 C 
ATOM      5  C   UNL     1      22.784  16.500  24.092  1.00  0.00     0.059 C 
ATOM      6  O   UNL     1      22.098  15.270  21.594  1.00  0.00    -0.472 OA
ATOM      7  C   UNL     1      21.419  15.818  23.851  1.00  0.00     0.105 C 
ATOM      8  C   UNL     1      23.246  15.909  25.436  1.00  0.00     0.154 C 
ATOM      9  C   UNL     1      21.557  14.430  24.511  1.00  0.00     0.130 C 
ATOM     10  C   UNL     1      22.680  14.490  25.472  1.00  0.00     0.183 C 
ATOM     11  O   UNL     1      21.338  14.428  25.905  1.00  0.00    -0.360 OA
BRANCH   8  12
ATOM     12  O   UNL     1      24.644  15.943  25.607  1.00  0.00    -0.390 OA
ATOM     13  H   UNL     1      24.839  16.076  26.574  1.00  0.00     0.211 HD
ENDBRANCH   8  12
BRANCH   9  14
ATOM     14  C   UNL     1      21.366  13.078  23.794  1.00  0.00     0.195 C 
BRANCH  14  15
ATOM     15  O   UNL     1      20.019  12.677  23.792  1.00  0.00    -0.393 OA
ATOM     16  H   UNL     1      19.870  12.178  22.945  1.00  0.00     0.210 HD
ENDBRANCH  14  15
ENDBRANCH   9  14
ENDBRANCH   1   2
BRANCH   1  17
ATOM     17  C   UNL     1      18.851  15.877  21.433  1.00  0.00     0.286 C 
ATOM     18  C   UNL     1      19.229  17.379  21.206  1.00  0.00     0.202 C 
ATOM     19  O   UNL     1      18.270  15.156  20.346  1.00  0.00    -0.341 OA
ATOM     20  C   UNL     1      19.623  17.708  19.754  1.00  0.00     0.179 C 
ATOM     21  C   UNL     1      18.757  15.486  19.055  1.00  0.00     0.178 C 
ATOM     22  C   UNL     1      18.692  16.999  18.776  1.00  0.00     0.177 C 
BRANCH  18  23
ATOM     23  O   UNL     1      18.149  18.200  21.581  1.00  0.00    -0.385 OA
ATOM     24  H   UNL     1      18.009  18.073  22.556  1.00  0.00     0.211 HD
ENDBRANCH  18  23
BRANCH  20  25
ATOM     25  O   UNL     1      19.576  19.094  19.525  1.00  0.00    -0.387 OA
ATOM     26  H   UNL     1      18.766  19.268  18.978  1.00  0.00     0.211 HD
ENDBRANCH  20  25
BRANCH  21  27
ATOM     27  C   UNL     1      17.944  14.694  18.024  1.00  0.00     0.191 C 
BRANCH  27  28
ATOM     28  O   UNL     1      16.614  14.565  18.444  1.00  0.00    -0.394 OA
ATOM     29  H   UNL     1      16.578  13.747  19.006  1.00  0.00     0.210 HD
ENDBRANCH  27  28
ENDBRANCH  21  27
BRANCH  22  30
ATOM     30  O   UNL     1      17.377  17.477  18.924  1.00  0.00    -0.387 OA
ATOM     31  H   UNL     1      17.155  17.980  18.096  1.00  0.00     0.211 HD
ENDBRANCH  22  30
ENDBRANCH   1  17
TORSDOF 10
ENDMDL
MODEL 9
REMARK VINA RESULT:    -5.577      7.781      9.336
REMARK INTER + INTRA:          -8.923
REMARK INTER:                  -7.868
REMARK INTRA:                  -1.055
REMARK UNBOUND:                -1.064
REMARK SMILES OC[C@@H]1O[C@@H](O[C@@H]2OC=C[C@@H]3[C@H](O)[C@H]4O[C@@]4(CO)[C@H]23)[C@H](O)[C@H](O)[C@@H]1O
REMARK SMILES IDX 6 1 7 2 10 3 9 4 11 5 8 6 19 7 12 8 16 9 14 10 15 11 13 12
REMARK SMILES IDX 17 14 18 15 5 17 20 18 4 19 22 20 3 21 24 22 21 23 23 25
REMARK SMILES IDX 2 27 1 28 25 30
REMARK H PARENT 13 13 18 16 21 24 23 26 1 29 25 31
REMARK Flexibility Score: inf
ROOT
ATOM      1  O   UNL     1      18.723  15.665  20.654  1.00  0.00    -0.310 OA
ENDROOT
BRANCH   1   2
ATOM      2  C   UNL     1      19.159  14.559  19.895  1.00  0.00     0.315 C 
ATOM      3  C   UNL     1      19.842  13.080  17.576  1.00  0.00     0.018 C 
ATOM      4  C   UNL     1      20.609  14.102  17.968  1.00  0.00     0.186 C 
ATOM      5  C   UNL     1      18.466  12.818  18.175  1.00  0.00     0.059 C 
ATOM      6  O   UNL     1      20.199  14.947  19.002  1.00  0.00    -0.472 OA
ATOM      7  C   UNL     1      17.988  13.968  19.089  1.00  0.00     0.105 C 
ATOM      8  C   UNL     1      17.374  12.743  17.094  1.00  0.00     0.154 C 
ATOM      9  C   UNL     1      17.239  14.929  18.143  1.00  0.00     0.130 C 
ATOM     10  C   UNL     1      16.873  14.176  16.922  1.00  0.00     0.183 C 
ATOM     11  O   UNL     1      15.904  14.555  17.877  1.00  0.00    -0.360 OA
BRANCH   8  12
ATOM     12  O   UNL     1      17.824  12.174  15.887  1.00  0.00    -0.390 OA
ATOM     13  H   UNL     1      18.794  11.974  15.976  1.00  0.00     0.211 HD
ENDBRANCH   8  12
BRANCH   9  14
ATOM     14  C   UNL     1      17.579  16.418  17.930  1.00  0.00     0.195 C 
BRANCH  14  15
ATOM     15  O   UNL     1      16.987  17.231  18.911  1.00  0.00    -0.393 OA
ATOM     16  H   UNL     1      16.459  16.630  19.501  1.00  0.00     0.210 HD
ENDBRANCH  14  15
ENDBRANCH   9  14
ENDBRANCH   1   2
BRANCH   1  17
ATOM     17  C   UNL     1      19.253  15.709  21.975  1.00  0.00     0.286 C 
ATOM     18  C   UNL     1      18.979  14.411  22.806  1.00  0.00     0.202 C 
ATOM     19  O   UNL     1      20.551  16.299  22.052  1.00  0.00    -0.341 OA
ATOM     20  C   UNL     1      20.225  13.528  23.007  1.00  0.00     0.179 C 
ATOM     21  C   UNL     1      21.636  15.391  22.163  1.00  0.00     0.178 C 
ATOM     22  C   UNL     1      21.445  14.391  23.317  1.00  0.00     0.177 C 
BRANCH  18  23
ATOM     23  O   UNL     1      18.460  14.758  24.067  1.00  0.00    -0.385 OA
ATOM     24  H   UNL     1      17.742  15.427  23.915  1.00  0.00     0.211 HD
ENDBRANCH  18  23
BRANCH  20  25
ATOM     25  O   UNL     1      20.024  12.609  24.051  1.00  0.00    -0.387 OA
ATOM     26  H   UNL     1      20.846  12.620  24.608  1.00  0.00     0.211 HD
ENDBRANCH  20  25
BRANCH  21  27
ATOM     27  C   UNL     1      22.922  16.209  22.342  1.00  0.00     0.191 C 
BRANCH  27  28
ATOM     28  O   UNL     1      22.658  17.385  23.055  1.00  0.00    -0.394 OA
ATOM     29  H   UNL     1      23.058  18.125  22.527  1.00  0.00     0.210 HD
ENDBRANCH  27  28
ENDBRANCH  21  27
BRANCH  22  30
ATOM     30  O   UNL     1      21.264  15.066  24.538  1.00  0.00    -0.387 OA
ATOM     31  H   UNL     1      20.539  15.731  24.400  1.00  0.00     0.211 HD
ENDBRANCH  22  30
ENDBRANCH   1  17
TORSDOF 10
ENDMDL
