MODEL 1
REMARK VINA RESULT:    -3.136      0.000      0.000
REMARK INTER + INTRA:          -3.709
REMARK INTER:                  -3.686
REMARK INTRA:                  -0.023
REMARK UNBOUND:                -0.023
REMARK SMILES CCCCC(=O)[O-]
REMARK SMILES IDX 4 1 5 2 6 3 7 4 3 5 2 6 1 7
REMARK H PARENT
REMARK Flexibility Score: inf
ROOT
ATOM      1  C   UNL     1       1.289   7.932  -2.969  1.00  0.00     0.053 C 
ENDROOT
BRANCH   1   2
ATOM      2  C   UNL     1       1.744   6.548  -3.309  1.00  0.00     0.041 C 
ATOM      3  O   UNL     1       1.218   5.553  -2.745  1.00  0.00    -0.550 OA
ATOM      4  O   UNL     1       2.782   6.360  -4.211  1.00  0.00    -0.550 OA
ENDBRANCH   1   2
BRANCH   1   5
ATOM      5  C   UNL     1       0.187   7.889  -1.907  1.00  0.00     0.006 C 
BRANCH   5   6
ATOM      6  C   UNL     1      -0.589   9.210  -1.867  1.00  0.00    -0.003 C 
ATOM      7  C   UNL     1      -2.055   8.979  -1.510  1.00  0.00     0.004 C 
ENDBRANCH   5   6
ENDBRANCH   1   5
TORSDOF 3
ENDMDL
MODEL 2
REMARK VINA RESULT:    -3.109      9.054      9.818
REMARK INTER + INTRA:          -3.677
REMARK INTER:                  -3.572
REMARK INTRA:                  -0.105
REMARK UNBOUND:                -0.023
REMARK SMILES CCCCC(=O)[O-]
REMARK SMILES IDX 4 1 5 2 6 3 7 4 3 5 2 6 1 7
REMARK H PARENT
REMARK Flexibility Score: inf
ROOT
ATOM      1  C   UNL     1      -0.221   2.942   6.274  1.00  0.00     0.053 C 
ENDROOT
BRANCH   1   2
ATOM      2  C   UNL     1      -0.411   1.460   6.204  1.00  0.00     0.041 C 
ATOM      3  O   UNL     1      -0.611   0.898   5.096  1.00  0.00    -0.550 OA
ATOM      4  O   UNL     1      -0.415   0.704   7.370  1.00  0.00    -0.550 OA
ENDBRANCH   1   2
BRANCH   1   5
ATOM      5  C   UNL     1       0.565   3.439   5.057  1.00  0.00     0.006 C 
BRANCH   5   6
ATOM      6  C   UNL     1      -0.304   4.339   4.172  1.00  0.00    -0.003 C 
ATOM      7  C   UNL     1      -0.664   3.644   2.862  1.00  0.00     0.004 C 
ENDBRANCH   5   6
ENDBRANCH   1   5
TORSDOF 3
ENDMDL
MODEL 3
REMARK VINA RESULT:    -3.086      2.096      4.072
REMARK INTER + INTRA:          -3.651
REMARK INTER:                  -3.541
REMARK INTRA:                  -0.110
REMARK UNBOUND:                -0.023
REMARK SMILES CCCCC(=O)[O-]
REMARK SMILES IDX 4 1 5 2 6 3 7 4 3 5 2 6 1 7
REMARK H PARENT
REMARK Flexibility Score: inf
ROOT
ATOM      1  C   UNL     1       1.797   7.657  -3.479  1.00  0.00     0.053 C 
ENDROOT
BRANCH   1   2
ATOM      2  C   UNL     1       0.785   7.453  -2.397  1.00  0.00     0.041 C 
ATOM      3  O   UNL     1       0.771   6.381  -1.737  1.00  0.00    -0.550 OA
ATOM      4  O   UNL     1      -0.174   8.426  -2.149  1.00  0.00    -0.550 OA
ENDBRANCH   1   2
BRANCH   1   5
ATOM      5  C   UNL     1       2.487   6.334  -3.825  1.00  0.00     0.006 C 
BRANCH   5   6
ATOM      6  C   UNL     1       4.002   6.434  -3.618  1.00  0.00    -0.003 C 
ATOM      7  C   UNL     1       4.389   6.063  -2.188  1.00  0.00     0.004 C 
ENDBRANCH   5   6
ENDBRANCH   1   5
TORSDOF 3
ENDMDL
MODEL 4
REMARK VINA RESULT:    -3.066      7.674      8.263
REMARK INTER + INTRA:          -3.627
REMARK INTER:                  -3.591
REMARK INTRA:                  -0.035
REMARK UNBOUND:                -0.023
REMARK SMILES CCCCC(=O)[O-]
REMARK SMILES IDX 4 1 5 2 6 3 7 4 3 5 2 6 1 7
REMARK H PARENT
REMARK Flexibility Score: inf
ROOT
ATOM      1  C   UNL     1      -0.409   4.336   4.390  1.00  0.00     0.053 C 
ENDROOT
BRANCH   1   2
ATOM      2  C   UNL     1      -0.295   4.084   2.920  1.00  0.00     0.041 C 
ATOM      3  O   UNL     1      -0.853   3.080   2.404  1.00  0.00    -0.550 OA
ATOM      4  O   UNL     1       0.466   4.931   2.126  1.00  0.00    -0.550 OA
ENDBRANCH   1   2
BRANCH   1   5
ATOM      5  C   UNL     1      -0.090   3.062   5.178  1.00  0.00     0.006 C 
BRANCH   5   6
ATOM      6  C   UNL     1      -0.177   3.314   6.687  1.00  0.00    -0.003 C 
ATOM      7  C   UNL     1      -0.985   4.574   6.991  1.00  0.00     0.004 C 
ENDBRANCH   5   6
ENDBRANCH   1   5
TORSDOF 3
ENDMDL
MODEL 5
REMARK VINA RESULT:    -3.043      7.496      8.208
REMARK INTER + INTRA:          -3.600
REMARK INTER:                  -3.520
REMARK INTRA:                  -0.080
REMARK UNBOUND:                -0.023
REMARK SMILES CCCCC(=O)[O-]
REMARK SMILES IDX 4 1 5 2 6 3 7 4 3 5 2 6 1 7
REMARK H PARENT
REMARK Flexibility Score: inf
ROOT
ATOM      1  C   UNL     1      -0.043   4.887   5.109  1.00  0.00     0.053 C 
ENDROOT
BRANCH   1   2
ATOM      2  C   UNL     1       1.312   4.923   5.741  1.00  0.00     0.041 C 
ATOM      3  O   UNL     1       1.463   5.413   6.891  1.00  0.00    -0.550 OA
ATOM      4  O   UNL     1       2.418   4.459   5.041  1.00  0.00    -0.550 OA
ENDBRANCH   1   2
BRANCH   1   5
ATOM      5  C   UNL     1      -0.053   5.707   3.816  1.00  0.00     0.006 C 
BRANCH   5   6
ATOM      6  C   UNL     1       0.006   4.794   2.586  1.00  0.00    -0.003 C 
ATOM      7  C   UNL     1      -0.717   3.474   2.844  1.00  0.00     0.004 C 
ENDBRANCH   5   6
ENDBRANCH   1   5
TORSDOF 3
ENDMDL
MODEL 6
REMARK VINA RESULT:    -2.985      7.947      8.684
REMARK INTER + INTRA:          -3.532
REMARK INTER:                  -3.436
REMARK INTRA:                  -0.097
REMARK UNBOUND:                -0.023
REMARK SMILES CCCCC(=O)[O-]
REMARK SMILES IDX 4 1 5 2 6 3 7 4 3 5 2 6 1 7
REMARK H PARENT
REMARK Flexibility Score: inf
ROOT
ATOM      1  C   UNL     1      -0.417   4.292   5.415  1.00  0.00     0.053 C 
ENDROOT
BRANCH   1   2
ATOM      2  C   UNL     1       0.860   4.608   6.126  1.00  0.00     0.041 C 
ATOM      3  O   UNL     1       0.846   4.920   7.346  1.00  0.00    -0.550 OA
ATOM      4  O   UNL     1       2.062   4.605   5.430  1.00  0.00    -0.550 OA
ENDBRANCH   1   2
BRANCH   1   5
ATOM      5  C   UNL     1      -0.172   3.273   4.298  1.00  0.00     0.006 C 
BRANCH   5   6
ATOM      6  C   UNL     1      -0.668   3.807   2.949  1.00  0.00    -0.003 C 
ATOM      7  C   UNL     1       0.144   5.020   2.503  1.00  0.00     0.004 C 
ENDBRANCH   5   6
ENDBRANCH   1   5
TORSDOF 3
ENDMDL
MODEL 7
REMARK VINA RESULT:    -2.921      2.111      2.562
REMARK INTER + INTRA:          -3.456
REMARK INTER:                  -3.368
REMARK INTRA:                  -0.088
REMARK UNBOUND:                -0.023
REMARK SMILES CCCCC(=O)[O-]
REMARK SMILES IDX 4 1 5 2 6 3 7 4 3 5 2 6 1 7
REMARK H PARENT
REMARK Flexibility Score: inf
ROOT
ATOM      1  C   UNL     1       2.586   6.654  -3.746  1.00  0.00     0.053 C 
ENDROOT
BRANCH   1   2
ATOM      2  C   UNL     1       3.918   6.337  -3.145  1.00  0.00     0.041 C 
ATOM      3  O   UNL     1       4.084   6.407  -1.899  1.00  0.00    -0.550 OA
ATOM      4  O   UNL     1       4.991   6.011  -3.965  1.00  0.00    -0.550 OA
ENDBRANCH   1   2
BRANCH   1   5
ATOM      5  C   UNL     1       1.457   6.169  -2.833  1.00  0.00     0.006 C 
BRANCH   5   6
ATOM      6  C   UNL     1       0.666   7.351  -2.261  1.00  0.00    -0.003 C 
ATOM      7  C   UNL     1       1.066   8.661  -2.937  1.00  0.00     0.004 C 
ENDBRANCH   5   6
ENDBRANCH   1   5
TORSDOF 3
ENDMDL
MODEL 8
REMARK VINA RESULT:    -2.890      1.292      1.648
REMARK INTER + INTRA:          -3.420
REMARK INTER:                  -3.375
REMARK INTRA:                  -0.045
REMARK UNBOUND:                -0.023
REMARK SMILES CCCCC(=O)[O-]
REMARK SMILES IDX 4 1 5 2 6 3 7 4 3 5 2 6 1 7
REMARK H PARENT
REMARK Flexibility Score: inf
ROOT
ATOM      1  C   UNL     1       1.456   8.132  -2.083  1.00  0.00     0.053 C 
ENDROOT
BRANCH   1   2
ATOM      2  C   UNL     1       1.684   8.005  -3.555  1.00  0.00     0.041 C 
ATOM      3  O   UNL     1       1.453   8.980  -4.318  1.00  0.00    -0.550 OA
ATOM      4  O   UNL     1       2.104   6.795  -4.092  1.00  0.00    -0.550 OA
ENDBRANCH   1   2
BRANCH   1   5
ATOM      5  C   UNL     1       0.039   7.679  -1.718  1.00  0.00     0.006 C 
BRANCH   5   6
ATOM      6  C   UNL     1      -0.739   8.808  -1.032  1.00  0.00    -0.003 C 
ATOM      7  C   UNL     1      -2.092   9.031  -1.701  1.00  0.00     0.004 C 
ENDBRANCH   5   6
ENDBRANCH   1   5
TORSDOF 3
ENDMDL
MODEL 9
REMARK VINA RESULT:    -2.724      6.807      7.544
REMARK INTER + INTRA:          -3.225
REMARK INTER:                  -3.114
REMARK INTRA:                  -0.111
REMARK UNBOUND:                -0.023
REMARK SMILES CCCCC(=O)[O-]
REMARK SMILES IDX 4 1 5 2 6 3 7 4 3 5 2 6 1 7
REMARK H PARENT
REMARK Flexibility Score: inf
ROOT
ATOM      1  C   UNL     1       0.174   3.824   4.381  1.00  0.00     0.053 C 
ENDROOT
BRANCH   1   2
ATOM      2  C   UNL     1       1.533   4.283   4.803  1.00  0.00     0.041 C 
ATOM      3  O   UNL     1       2.540   4.012   4.097  1.00  0.00    -0.550 OA
ATOM      4  O   UNL     1       1.696   4.968   6.000  1.00  0.00    -0.550 OA
ENDBRANCH   1   2
BRANCH   1   5
ATOM      5  C   UNL     1      -0.152   4.333   2.974  1.00  0.00     0.006 C 
BRANCH   5   6
ATOM      6  C   UNL     1      -0.098   5.864   2.918  1.00  0.00    -0.003 C 
ATOM      7  C   UNL     1       0.810   6.343   1.787  1.00  0.00     0.004 C 
ENDBRANCH   5   6
ENDBRANCH   1   5
TORSDOF 3
ENDMDL
