MODEL 1
REMARK VINA RESULT:    -3.103      0.000      0.000
REMARK INTER + INTRA:          -3.375
REMARK INTER:                  -3.375
REMARK INTRA:                   0.000
REMARK UNBOUND:                 0.000
REMARK SMILES [NH3+]CC(=O)[O-]
REMARK SMILES IDX 2 1 1 2 3 6 4 7 5 8
REMARK H PARENT 1 3 1 4 1 5
REMARK Flexibility Score: inf
ROOT
ATOM      1  C   UNL     1      12.703  -4.585  22.713  1.00  0.00     0.312 C 
ENDROOT
BRANCH   1   2
ATOM      2  N   UNL     1      12.059  -4.579  24.026  1.00  0.00    -0.353 N 
ATOM      3  H   UNL     1      12.377  -5.403  24.585  1.00  0.00     0.344 HD
ATOM      4  H   UNL     1      12.291  -3.695  24.535  1.00  0.00     0.344 HD
ATOM      5  H   UNL     1      11.022  -4.634  23.899  1.00  0.00     0.344 HD
ENDBRANCH   1   2
BRANCH   1   6
ATOM      6  C   UNL     1      14.193  -4.612  22.855  1.00  0.00     0.096 C 
ATOM      7  O   UNL     1      14.758  -3.906  23.731  1.00  0.00    -0.544 OA
ATOM      8  O   UNL     1      14.953  -5.454  22.054  1.00  0.00    -0.544 OA
ENDBRANCH   1   6
TORSDOF 2
ENDMDL
MODEL 2
REMARK VINA RESULT:    -3.052      1.210      1.472
REMARK INTER + INTRA:          -3.319
REMARK INTER:                  -3.319
REMARK INTRA:                   0.000
REMARK UNBOUND:                 0.000
REMARK SMILES [NH3+]CC(=O)[O-]
REMARK SMILES IDX 2 1 1 2 3 6 4 7 5 8
REMARK H PARENT 1 3 1 4 1 5
REMARK Flexibility Score: inf
ROOT
ATOM      1  C   UNL     1      13.254  -3.874  23.576  1.00  0.00     0.312 C 
ENDROOT
BRANCH   1   2
ATOM      2  N   UNL     1      12.100  -4.729  23.849  1.00  0.00    -0.353 N 
ATOM      3  H   UNL     1      12.409  -5.610  24.319  1.00  0.00     0.344 HD
ATOM      4  H   UNL     1      11.415  -4.225  24.458  1.00  0.00     0.344 HD
ATOM      5  H   UNL     1      11.633  -4.974  22.945  1.00  0.00     0.344 HD
ENDBRANCH   1   2
BRANCH   1   6
ATOM      6  C   UNL     1      13.990  -4.352  22.363  1.00  0.00     0.096 C 
ATOM      7  O   UNL     1      14.768  -5.339  22.442  1.00  0.00    -0.544 OA
ATOM      8  O   UNL     1      13.778  -3.739  21.135  1.00  0.00    -0.544 OA
ENDBRANCH   1   6
TORSDOF 2
ENDMDL
MODEL 3
REMARK VINA RESULT:    -3.028     21.002     21.183
REMARK INTER + INTRA:          -3.294
REMARK INTER:                  -3.294
REMARK INTRA:                   0.000
REMARK UNBOUND:                 0.000
REMARK SMILES [NH3+]CC(=O)[O-]
REMARK SMILES IDX 2 1 1 2 3 6 4 7 5 8
REMARK H PARENT 1 3 1 4 1 5
REMARK Flexibility Score: inf
ROOT
ATOM      1  C   UNL     1      19.088  12.712  12.043  1.00  0.00     0.312 C 
ENDROOT
BRANCH   1   2
ATOM      2  N   UNL     1      18.437  13.781  11.286  1.00  0.00    -0.353 N 
ATOM      3  H   UNL     1      18.064  14.507  11.938  1.00  0.00     0.344 HD
ATOM      4  H   UNL     1      19.119  14.217  10.623  1.00  0.00     0.344 HD
ATOM      5  H   UNL     1      17.644  13.377  10.737  1.00  0.00     0.344 HD
ENDBRANCH   1   2
BRANCH   1   6
ATOM      6  C   UNL     1      19.034  12.998  13.512  1.00  0.00     0.096 C 
ATOM      7  O   UNL     1      18.070  12.578  14.204  1.00  0.00    -0.544 OA
ATOM      8  O   UNL     1      20.074  13.685  14.125  1.00  0.00    -0.544 OA
ENDBRANCH   1   6
TORSDOF 2
ENDMDL
MODEL 4
REMARK VINA RESULT:    -3.007      3.118      3.401
REMARK INTER + INTRA:          -3.270
REMARK INTER:                  -3.270
REMARK INTRA:                   0.000
REMARK UNBOUND:                 0.000
REMARK SMILES [NH3+]CC(=O)[O-]
REMARK SMILES IDX 2 1 1 2 3 6 4 7 5 8
REMARK H PARENT 1 3 1 4 1 5
REMARK Flexibility Score: inf
ROOT
ATOM      1  C   UNL     1      13.500  -3.928  21.702  1.00  0.00     0.312 C 
ENDROOT
BRANCH   1   2
ATOM      2  N   UNL     1      13.488  -2.898  22.740  1.00  0.00    -0.353 N 
ATOM      3  H   UNL     1      13.671  -3.329  23.675  1.00  0.00     0.344 HD
ATOM      4  H   UNL     1      14.215  -2.174  22.536  1.00  0.00     0.344 HD
ATOM      5  H   UNL     1      12.548  -2.439  22.756  1.00  0.00     0.344 HD
ENDBRANCH   1   2
BRANCH   1   6
ATOM      6  C   UNL     1      12.597  -3.548  20.570  1.00  0.00     0.096 C 
ATOM      7  O   UNL     1      13.081  -3.143  19.482  1.00  0.00    -0.544 OA
ATOM      8  O   UNL     1      11.221  -3.691  20.702  1.00  0.00    -0.544 OA
ENDBRANCH   1   6
TORSDOF 2
ENDMDL
MODEL 5
REMARK VINA RESULT:    -3.004      3.960      4.096
REMARK INTER + INTRA:          -3.267
REMARK INTER:                  -3.267
REMARK INTRA:                   0.000
REMARK UNBOUND:                 0.000
REMARK SMILES [NH3+]CC(=O)[O-]
REMARK SMILES IDX 2 1 1 2 3 6 4 7 5 8
REMARK H PARENT 1 3 1 4 1 5
REMARK Flexibility Score: inf
ROOT
ATOM      1  C   UNL     1      13.133  -2.698  19.244  1.00  0.00     0.312 C 
ENDROOT
BRANCH   1   2
ATOM      2  N   UNL     1      14.580  -2.486  19.250  1.00  0.00    -0.353 N 
ATOM      3  H   UNL     1      14.999  -2.847  18.363  1.00  0.00     0.344 HD
ATOM      4  H   UNL     1      14.794  -1.467  19.353  1.00  0.00     0.344 HD
ATOM      5  H   UNL     1      14.999  -3.003  20.057  1.00  0.00     0.344 HD
ENDBRANCH   1   2
BRANCH   1   6
ATOM      6  C   UNL     1      12.710  -3.486  20.445  1.00  0.00     0.096 C 
ATOM      7  O   UNL     1      13.570  -3.904  21.264  1.00  0.00    -0.544 OA
ATOM      8  O   UNL     1      11.362  -3.715  20.686  1.00  0.00    -0.544 OA
ENDBRANCH   1   6
TORSDOF 2
ENDMDL
MODEL 6
REMARK VINA RESULT:    -2.987     19.699     19.867
REMARK INTER + INTRA:          -3.249
REMARK INTER:                  -3.249
REMARK INTRA:                   0.000
REMARK UNBOUND:                 0.000
REMARK SMILES [NH3+]CC(=O)[O-]
REMARK SMILES IDX 2 1 1 2 3 6 4 7 5 8
REMARK H PARENT 1 3 1 4 1 5
REMARK Flexibility Score: inf
ROOT
ATOM      1  C   UNL     1      18.349  12.686  13.977  1.00  0.00     0.312 C 
ENDROOT
BRANCH   1   2
ATOM      2  N   UNL     1      18.747  11.623  13.056  1.00  0.00    -0.353 N 
ATOM      3  H   UNL     1      17.928  11.010  12.840  1.00  0.00     0.344 HD
ATOM      4  H   UNL     1      19.123  12.037  12.171  1.00  0.00     0.344 HD
ATOM      5  H   UNL     1      19.495  11.044  13.503  1.00  0.00     0.344 HD
ENDBRANCH   1   2
BRANCH   1   6
ATOM      6  C   UNL     1      16.869  12.659  14.206  1.00  0.00     0.096 C 
ATOM      7  O   UNL     1      16.407  12.287  15.316  1.00  0.00    -0.544 OA
ATOM      8  O   UNL     1      16.004  13.095  13.211  1.00  0.00    -0.544 OA
ENDBRANCH   1   6
TORSDOF 2
ENDMDL
MODEL 7
REMARK VINA RESULT:    -2.985      9.501      9.754
REMARK INTER + INTRA:          -3.247
REMARK INTER:                  -3.247
REMARK INTRA:                   0.000
REMARK UNBOUND:                 0.000
REMARK SMILES [NH3+]CC(=O)[O-]
REMARK SMILES IDX 2 1 1 2 3 6 4 7 5 8
REMARK H PARENT 1 3 1 4 1 5
REMARK Flexibility Score: inf
ROOT
ATOM      1  C   UNL     1      20.735   2.094  21.045  1.00  0.00     0.312 C 
ENDROOT
BRANCH   1   2
ATOM      2  N   UNL     1      19.893   2.141  22.240  1.00  0.00    -0.353 N 
ATOM      3  H   UNL     1      19.711   3.134  22.511  1.00  0.00     0.344 HD
ATOM      4  H   UNL     1      18.987   1.651  22.059  1.00  0.00     0.344 HD
ATOM      5  H   UNL     1      20.387   1.659  23.026  1.00  0.00     0.344 HD
ENDBRANCH   1   2
BRANCH   1   6
ATOM      6  C   UNL     1      19.900   2.186  19.806  1.00  0.00     0.096 C 
ATOM      7  O   UNL     1      19.658   3.307  19.287  1.00  0.00    -0.544 OA
ATOM      8  O   UNL     1      19.430   1.029  19.197  1.00  0.00    -0.544 OA
ENDBRANCH   1   6
TORSDOF 2
ENDMDL
MODEL 8
REMARK VINA RESULT:    -2.933     19.111     19.259
REMARK INTER + INTRA:          -3.191
REMARK INTER:                  -3.191
REMARK INTRA:                   0.000
REMARK UNBOUND:                 0.000
REMARK SMILES [NH3+]CC(=O)[O-]
REMARK SMILES IDX 2 1 1 2 3 6 4 7 5 8
REMARK H PARENT 1 3 1 4 1 5
REMARK Flexibility Score: inf
ROOT
ATOM      1  C   UNL     1      16.209  11.867  15.459  1.00  0.00     0.312 C 
ENDROOT
BRANCH   1   2
ATOM      2  N   UNL     1      17.283  11.248  16.234  1.00  0.00    -0.353 N 
ATOM      3  H   UNL     1      18.096  11.901  16.306  1.00  0.00     0.344 HD
ATOM      4  H   UNL     1      16.940  11.003  17.191  1.00  0.00     0.344 HD
ATOM      5  H   UNL     1      17.593  10.373  15.752  1.00  0.00     0.344 HD
ENDBRANCH   1   2
BRANCH   1   6
ATOM      6  C   UNL     1      16.768  12.625  14.294  1.00  0.00     0.096 C 
ATOM      7  O   UNL     1      18.011  12.663  14.101  1.00  0.00    -0.544 OA
ATOM      8  O   UNL     1      15.912  13.245  13.394  1.00  0.00    -0.544 OA
ENDBRANCH   1   6
TORSDOF 2
ENDMDL
MODEL 9
REMARK VINA RESULT:    -2.875      2.820      3.122
REMARK INTER + INTRA:          -3.127
REMARK INTER:                  -3.127
REMARK INTRA:                   0.000
REMARK UNBOUND:                 0.000
REMARK SMILES [NH3+]CC(=O)[O-]
REMARK SMILES IDX 2 1 1 2 3 6 4 7 5 8
REMARK H PARENT 1 3 1 4 1 5
REMARK Flexibility Score: inf
ROOT
ATOM      1  C   UNL     1      13.106  -3.538  20.381  1.00  0.00     0.312 C 
ENDROOT
BRANCH   1   2
ATOM      2  N   UNL     1      14.073  -2.772  19.596  1.00  0.00    -0.353 N 
ATOM      3  H   UNL     1      14.691  -2.217  20.231  1.00  0.00     0.344 HD
ATOM      4  H   UNL     1      14.653  -3.418  19.012  1.00  0.00     0.344 HD
ATOM      5  H   UNL     1      13.558  -2.116  18.965  1.00  0.00     0.344 HD
ENDBRANCH   1   2
BRANCH   1   6
ATOM      6  C   UNL     1      13.679  -3.903  21.715  1.00  0.00     0.096 C 
ATOM      7  O   UNL     1      14.551  -4.806  21.804  1.00  0.00    -0.544 OA
ATOM      8  O   UNL     1      13.286  -3.211  22.853  1.00  0.00    -0.544 OA
ENDBRANCH   1   6
TORSDOF 2
ENDMDL
