MODEL 1
REMARK VINA RESULT:    -4.099      0.000      0.000
REMARK INTER + INTRA:         -12.685
REMARK INTER:                  -8.892
REMARK INTRA:                  -3.792
REMARK UNBOUND:                -3.792
REMARK SMILES CCCCCCCCCCCCCCCCCCCCCC(=O)[O-]
REMARK SMILES IDX 12 1 11 2 10 3 9 4 8 5 7 6 6 7 5 8 4 9 3 10 2 11 1 12 13 13
REMARK SMILES IDX 14 14 15 15 16 16 17 17 18 18 19 19 20 20 21 21 22 22 23 23
REMARK SMILES IDX 24 24
REMARK H PARENT
REMARK Flexibility Score: inf
ROOT
ATOM      1  C   UNL     1     -23.705  -7.268  -6.487  1.00  0.00     0.000 C 
ENDROOT
BRANCH   1   2
ATOM      2  C   UNL     1     -24.606  -6.140  -7.010  1.00  0.00     0.000 C 
BRANCH   2   3
ATOM      3  C   UNL     1     -26.102  -6.479  -6.909  1.00  0.00     0.000 C 
BRANCH   3   4
ATOM      4  C   UNL     1     -26.808  -5.721  -5.774  1.00  0.00    -0.000 C 
BRANCH   4   5
ATOM      5  C   UNL     1     -26.452  -6.327  -4.411  1.00  0.00    -0.000 C 
BRANCH   5   6
ATOM      6  C   UNL     1     -26.094  -5.233  -3.395  1.00  0.00    -0.000 C 
BRANCH   6   7
ATOM      7  C   UNL     1     -24.620  -5.291  -2.950  1.00  0.00    -0.000 C 
BRANCH   7   8
ATOM      8  C   UNL     1     -23.815  -3.999  -3.193  1.00  0.00    -0.000 C 
BRANCH   8   9
ATOM      9  C   UNL     1     -23.283  -3.821  -4.629  1.00  0.00    -0.000 C 
BRANCH   9  10
ATOM     10  C   UNL     1     -23.970  -2.708  -5.445  1.00  0.00    -0.000 C 
BRANCH  10  11
ATOM     11  C   UNL     1     -25.103  -1.973  -4.708  1.00  0.00    -0.003 C 
ATOM     12  C   UNL     1     -26.446  -2.071  -5.431  1.00  0.00     0.004 C 
ENDBRANCH  10  11
ENDBRANCH   9  10
ENDBRANCH   8   9
ENDBRANCH   7   8
ENDBRANCH   6   7
ENDBRANCH   5   6
ENDBRANCH   4   5
ENDBRANCH   3   4
ENDBRANCH   2   3
ENDBRANCH   1   2
BRANCH   1  13
ATOM     13  C   UNL     1     -24.441  -8.616  -6.520  1.00  0.00     0.000 C 
BRANCH  13  14
ATOM     14  C   UNL     1     -24.365  -9.364  -5.180  1.00  0.00     0.000 C 
BRANCH  14  15
ATOM     15  C   UNL     1     -23.312  -8.769  -4.228  1.00  0.00     0.000 C 
BRANCH  15  16
ATOM     16  C   UNL     1     -22.149  -9.750  -3.966  1.00  0.00     0.000 C 
BRANCH  16  17
ATOM     17  C   UNL     1     -22.364 -11.146  -4.580  1.00  0.00     0.000 C 
BRANCH  17  18
ATOM     18  C   UNL     1     -21.366 -11.462  -5.706  1.00  0.00     0.000 C 
BRANCH  18  19
ATOM     19  C   UNL     1     -20.144 -10.524  -5.713  1.00  0.00     0.000 C 
BRANCH  19  20
ATOM     20  C   UNL     1     -19.998  -9.644  -6.968  1.00  0.00     0.006 C 
BRANCH  20  21
ATOM     21  C   UNL     1     -21.219  -9.708  -7.896  1.00  0.00     0.053 C 
BRANCH  21  22
ATOM     22  C   UNL     1     -21.117  -8.678  -8.977  1.00  0.00     0.041 C 
ATOM     23  O   UNL     1     -19.988  -8.294  -9.385  1.00  0.00    -0.550 OA
ATOM     24  O   UNL     1     -22.270  -8.148  -9.544  1.00  0.00    -0.550 OA
ENDBRANCH  21  22
ENDBRANCH  20  21
ENDBRANCH  19  20
ENDBRANCH  18  19
ENDBRANCH  17  18
ENDBRANCH  16  17
ENDBRANCH  15  16
ENDBRANCH  14  15
ENDBRANCH  13  14
ENDBRANCH   1  13
TORSDOF 20
ENDMDL
MODEL 2
REMARK VINA RESULT:    -4.092      3.386      8.053
REMARK INTER + INTRA:         -12.670
REMARK INTER:                  -9.436
REMARK INTRA:                  -3.234
REMARK UNBOUND:                -3.792
REMARK SMILES CCCCCCCCCCCCCCCCCCCCCC(=O)[O-]
REMARK SMILES IDX 12 1 11 2 10 3 9 4 8 5 7 6 6 7 5 8 4 9 3 10 2 11 1 12 13 13
REMARK SMILES IDX 14 14 15 15 16 16 17 17 18 18 19 19 20 20 21 21 22 22 23 23
REMARK SMILES IDX 24 24
REMARK H PARENT
REMARK Flexibility Score: inf
ROOT
ATOM      1  C   UNL     1     -25.324  -5.940  -3.482  1.00  0.00     0.000 C 
ENDROOT
BRANCH   1   2
ATOM      2  C   UNL     1     -25.216  -7.382  -2.964  1.00  0.00     0.000 C 
BRANCH   2   3
ATOM      3  C   UNL     1     -24.166  -8.209  -3.722  1.00  0.00     0.000 C 
BRANCH   3   4
ATOM      4  C   UNL     1     -24.771  -9.032  -4.869  1.00  0.00    -0.000 C 
BRANCH   4   5
ATOM      5  C   UNL     1     -24.547  -8.335  -6.217  1.00  0.00    -0.000 C 
BRANCH   5   6
ATOM      6  C   UNL     1     -23.082  -7.907  -6.383  1.00  0.00    -0.000 C 
BRANCH   6   7
ATOM      7  C   UNL     1     -22.405  -8.559  -7.603  1.00  0.00    -0.000 C 
BRANCH   7   8
ATOM      8  C   UNL     1     -22.415 -10.100  -7.608  1.00  0.00    -0.000 C 
BRANCH   8   9
ATOM      9  C   UNL     1     -21.100 -10.763  -7.150  1.00  0.00    -0.000 C 
BRANCH   9  10
ATOM     10  C   UNL     1     -21.253 -11.800  -6.018  1.00  0.00    -0.000 C 
BRANCH  10  11
ATOM     11  C   UNL     1     -21.919 -11.264  -4.738  1.00  0.00    -0.003 C 
ATOM     12  C   UNL     1     -21.082 -10.195  -4.035  1.00  0.00     0.004 C 
ENDBRANCH  10  11
ENDBRANCH   9  10
ENDBRANCH   8   9
ENDBRANCH   7   8
ENDBRANCH   6   7
ENDBRANCH   5   6
ENDBRANCH   4   5
ENDBRANCH   3   4
ENDBRANCH   2   3
ENDBRANCH   1   2
BRANCH   1  13
ATOM     13  C   UNL     1     -26.761  -5.623  -3.921  1.00  0.00     0.000 C 
BRANCH  13  14
ATOM     14  C   UNL     1     -26.835  -5.079  -5.356  1.00  0.00     0.000 C 
BRANCH  14  15
ATOM     15  C   UNL     1     -25.446  -4.786  -5.950  1.00  0.00     0.000 C 
BRANCH  15  16
ATOM     16  C   UNL     1     -25.245  -3.282  -6.238  1.00  0.00     0.000 C 
BRANCH  16  17
ATOM     17  C   UNL     1     -26.369  -2.388  -5.681  1.00  0.00     0.000 C 
BRANCH  17  18
ATOM     18  C   UNL     1     -25.843  -1.268  -4.768  1.00  0.00     0.000 C 
BRANCH  18  19
ATOM     19  C   UNL     1     -26.041  -1.565  -3.270  1.00  0.00     0.000 C 
BRANCH  19  20
ATOM     20  C   UNL     1     -24.910  -2.369  -2.604  1.00  0.00     0.006 C 
BRANCH  20  21
ATOM     21  C   UNL     1     -25.262  -2.847  -1.188  1.00  0.00     0.053 C 
BRANCH  21  22
ATOM     22  C   UNL     1     -24.025  -3.233  -0.437  1.00  0.00     0.041 C 
ATOM     23  O   UNL     1     -23.248  -2.345   0.007  1.00  0.00    -0.550 OA
ATOM     24  O   UNL     1     -23.736  -4.574  -0.216  1.00  0.00    -0.550 OA
ENDBRANCH  21  22
ENDBRANCH  20  21
ENDBRANCH  19  20
ENDBRANCH  18  19
ENDBRANCH  17  18
ENDBRANCH  16  17
ENDBRANCH  15  16
ENDBRANCH  14  15
ENDBRANCH  13  14
ENDBRANCH   1  13
TORSDOF 20
ENDMDL
MODEL 3
REMARK VINA RESULT:    -4.080      2.027      4.030
REMARK INTER + INTRA:         -12.643
REMARK INTER:                  -8.590
REMARK INTRA:                  -4.053
REMARK UNBOUND:                -3.792
REMARK SMILES CCCCCCCCCCCCCCCCCCCCCC(=O)[O-]
REMARK SMILES IDX 12 1 11 2 10 3 9 4 8 5 7 6 6 7 5 8 4 9 3 10 2 11 1 12 13 13
REMARK SMILES IDX 14 14 15 15 16 16 17 17 18 18 19 19 20 20 21 21 22 22 23 23
REMARK SMILES IDX 24 24
REMARK H PARENT
REMARK Flexibility Score: inf
ROOT
ATOM      1  C   UNL     1     -22.445  -9.119  -3.602  1.00  0.00     0.000 C 
ENDROOT
BRANCH   1   2
ATOM      2  C   UNL     1     -23.533  -8.266  -4.272  1.00  0.00     0.000 C 
BRANCH   2   3
ATOM      3  C   UNL     1     -24.456  -9.091  -5.184  1.00  0.00     0.000 C 
BRANCH   3   4
ATOM      4  C   UNL     1     -24.656  -8.448  -6.565  1.00  0.00    -0.000 C 
BRANCH   4   5
ATOM      5  C   UNL     1     -24.045  -7.041  -6.605  1.00  0.00    -0.000 C 
BRANCH   5   6
ATOM      6  C   UNL     1     -25.030  -6.026  -7.202  1.00  0.00    -0.000 C 
BRANCH   6   7
ATOM      7  C   UNL     1     -26.489  -6.302  -6.796  1.00  0.00    -0.000 C 
BRANCH   7   8
ATOM      8  C   UNL     1     -27.013  -5.447  -5.625  1.00  0.00    -0.000 C 
BRANCH   8   9
ATOM      9  C   UNL     1     -26.665  -5.979  -4.221  1.00  0.00    -0.000 C 
BRANCH   9  10
ATOM     10  C   UNL     1     -25.893  -4.991  -3.322  1.00  0.00    -0.000 C 
BRANCH  10  11
ATOM     11  C   UNL     1     -24.415  -4.793  -3.701  1.00  0.00    -0.003 C 
ATOM     12  C   UNL     1     -24.132  -3.413  -4.293  1.00  0.00     0.004 C 
ENDBRANCH  10  11
ENDBRANCH   9  10
ENDBRANCH   8   9
ENDBRANCH   7   8
ENDBRANCH   6   7
ENDBRANCH   5   6
ENDBRANCH   4   5
ENDBRANCH   3   4
ENDBRANCH   2   3
ENDBRANCH   1   2
BRANCH   1  13
ATOM     13  C   UNL     1     -22.462 -10.555  -4.146  1.00  0.00     0.000 C 
BRANCH  13  14
ATOM     14  C   UNL     1     -21.197 -10.899  -4.947  1.00  0.00     0.000 C 
BRANCH  14  15
ATOM     15  C   UNL     1     -21.514 -11.452  -6.348  1.00  0.00     0.000 C 
BRANCH  15  16
ATOM     16  C   UNL     1     -20.765 -10.683  -7.457  1.00  0.00     0.000 C 
BRANCH  16  17
ATOM     17  C   UNL     1     -21.433  -9.352  -7.850  1.00  0.00     0.000 C 
BRANCH  17  18
ATOM     18  C   UNL     1     -20.477  -8.152  -7.754  1.00  0.00     0.000 C 
BRANCH  18  19
ATOM     19  C   UNL     1     -20.470  -7.495  -6.361  1.00  0.00     0.000 C 
BRANCH  19  20
ATOM     20  C   UNL     1     -19.260  -7.842  -5.475  1.00  0.00     0.006 C 
BRANCH  20  21
ATOM     21  C   UNL     1     -18.096  -8.462  -6.261  1.00  0.00     0.053 C 
BRANCH  21  22
ATOM     22  C   UNL     1     -17.329  -9.420  -5.402  1.00  0.00     0.041 C 
ATOM     23  O   UNL     1     -16.590  -8.992  -4.476  1.00  0.00    -0.550 OA
ATOM     24  O   UNL     1     -17.439 -10.788  -5.618  1.00  0.00    -0.550 OA
ENDBRANCH  21  22
ENDBRANCH  20  21
ENDBRANCH  19  20
ENDBRANCH  18  19
ENDBRANCH  17  18
ENDBRANCH  16  17
ENDBRANCH  15  16
ENDBRANCH  14  15
ENDBRANCH  13  14
ENDBRANCH   1  13
TORSDOF 20
ENDMDL
MODEL 4
REMARK VINA RESULT:    -4.029      1.960      3.414
REMARK INTER + INTRA:         -12.533
REMARK INTER:                  -9.453
REMARK INTRA:                  -3.080
REMARK UNBOUND:                -3.792
REMARK SMILES CCCCCCCCCCCCCCCCCCCCCC(=O)[O-]
REMARK SMILES IDX 12 1 11 2 10 3 9 4 8 5 7 6 6 7 5 8 4 9 3 10 2 11 1 12 13 13
REMARK SMILES IDX 14 14 15 15 16 16 17 17 18 18 19 19 20 20 21 21 22 22 23 23
REMARK SMILES IDX 24 24
REMARK H PARENT
REMARK Flexibility Score: inf
ROOT
ATOM      1  C   UNL     1     -23.366  -7.348  -2.810  1.00  0.00     0.000 C 
ENDROOT
BRANCH   1   2
ATOM      2  C   UNL     1     -24.892  -7.291  -2.638  1.00  0.00     0.000 C 
BRANCH   2   3
ATOM      3  C   UNL     1     -25.514  -6.035  -3.268  1.00  0.00     0.000 C 
BRANCH   3   4
ATOM      4  C   UNL     1     -26.415  -6.357  -4.471  1.00  0.00    -0.000 C 
BRANCH   4   5
ATOM      5  C   UNL     1     -26.773  -5.079  -5.240  1.00  0.00    -0.000 C 
BRANCH   5   6
ATOM      6  C   UNL     1     -25.632  -4.657  -6.176  1.00  0.00    -0.000 C 
BRANCH   6   7
ATOM      7  C   UNL     1     -25.416  -3.133  -6.204  1.00  0.00    -0.000 C 
BRANCH   7   8
ATOM      8  C   UNL     1     -26.375  -2.322  -5.310  1.00  0.00    -0.000 C 
BRANCH   8   9
ATOM      9  C   UNL     1     -25.695  -1.522  -4.180  1.00  0.00    -0.000 C 
BRANCH   9  10
ATOM     10  C   UNL     1     -24.451  -2.194  -3.564  1.00  0.00    -0.000 C 
BRANCH  10  11
ATOM     11  C   UNL     1     -24.527  -2.423  -2.044  1.00  0.00    -0.003 C 
ATOM     12  C   UNL     1     -25.953  -2.666  -1.550  1.00  0.00     0.004 C 
ENDBRANCH  10  11
ENDBRANCH   9  10
ENDBRANCH   8   9
ENDBRANCH   7   8
ENDBRANCH   6   7
ENDBRANCH   5   6
ENDBRANCH   4   5
ENDBRANCH   3   4
ENDBRANCH   2   3
ENDBRANCH   1   2
BRANCH   1  13
ATOM     13  C   UNL     1     -22.969  -8.451  -3.802  1.00  0.00     0.000 C 
BRANCH  13  14
ATOM     14  C   UNL     1     -24.165  -9.310  -4.241  1.00  0.00     0.000 C 
BRANCH  14  15
ATOM     15  C   UNL     1     -24.390  -9.280  -5.763  1.00  0.00     0.000 C 
BRANCH  15  16
ATOM     16  C   UNL     1     -23.590  -8.149  -6.444  1.00  0.00     0.000 C 
BRANCH  16  17
ATOM     17  C   UNL     1     -22.510  -8.653  -7.420  1.00  0.00     0.000 C 
BRANCH  17  18
ATOM     18  C   UNL     1     -22.501 -10.184  -7.562  1.00  0.00     0.000 C 
BRANCH  18  19
ATOM     19  C   UNL     1     -21.150 -10.819  -7.182  1.00  0.00     0.000 C 
BRANCH  19  20
ATOM     20  C   UNL     1     -21.006 -11.223  -5.703  1.00  0.00     0.006 C 
BRANCH  20  21
ATOM     21  C   UNL     1     -20.108 -10.270  -4.902  1.00  0.00     0.053 C 
BRANCH  21  22
ATOM     22  C   UNL     1     -18.680 -10.401  -5.334  1.00  0.00     0.041 C 
ATOM     23  O   UNL     1     -18.012 -11.422  -5.020  1.00  0.00    -0.550 OA
ATOM     24  O   UNL     1     -18.089  -9.398  -6.092  1.00  0.00    -0.550 OA
ENDBRANCH  21  22
ENDBRANCH  20  21
ENDBRANCH  19  20
ENDBRANCH  18  19
ENDBRANCH  17  18
ENDBRANCH  16  17
ENDBRANCH  15  16
ENDBRANCH  14  15
ENDBRANCH  13  14
ENDBRANCH   1  13
TORSDOF 20
ENDMDL
MODEL 5
REMARK VINA RESULT:    -3.890      2.780      7.198
REMARK INTER + INTRA:         -12.230
REMARK INTER:                  -8.238
REMARK INTRA:                  -3.992
REMARK UNBOUND:                -3.792
REMARK SMILES CCCCCCCCCCCCCCCCCCCCCC(=O)[O-]
REMARK SMILES IDX 12 1 11 2 10 3 9 4 8 5 7 6 6 7 5 8 4 9 3 10 2 11 1 12 13 13
REMARK SMILES IDX 14 14 15 15 16 16 17 17 18 18 19 19 20 20 21 21 22 22 23 23
REMARK SMILES IDX 24 24
REMARK H PARENT
REMARK Flexibility Score: inf
ROOT
ATOM      1  C   UNL     1     -22.537  -9.888  -4.437  1.00  0.00     0.000 C 
ENDROOT
BRANCH   1   2
ATOM      2  C   UNL     1     -22.166 -11.375  -4.532  1.00  0.00     0.000 C 
BRANCH   2   3
ATOM      3  C   UNL     1     -21.407 -11.718  -5.824  1.00  0.00     0.000 C 
BRANCH   3   4
ATOM      4  C   UNL     1     -21.733 -10.757  -6.977  1.00  0.00    -0.000 C 
BRANCH   4   5
ATOM      5  C   UNL     1     -20.448 -10.250  -7.644  1.00  0.00    -0.000 C 
BRANCH   5   6
ATOM      6  C   UNL     1     -20.626  -8.820  -8.175  1.00  0.00    -0.000 C 
BRANCH   6   7
ATOM      7  C   UNL     1     -19.663  -7.815  -7.518  1.00  0.00    -0.000 C 
BRANCH   7   8
ATOM      8  C   UNL     1     -20.207  -7.123  -6.252  1.00  0.00    -0.000 C 
BRANCH   8   9
ATOM      9  C   UNL     1     -19.670  -7.684  -4.919  1.00  0.00    -0.000 C 
BRANCH   9  10
ATOM     10  C   UNL     1     -18.389  -8.534  -5.039  1.00  0.00    -0.000 C 
BRANCH  10  11
ATOM     11  C   UNL     1     -18.489  -9.943  -4.430  1.00  0.00    -0.003 C 
ATOM     12  C   UNL     1     -17.748 -11.000  -5.250  1.00  0.00     0.004 C 
ENDBRANCH  10  11
ENDBRANCH   9  10
ENDBRANCH   8   9
ENDBRANCH   7   8
ENDBRANCH   6   7
ENDBRANCH   5   6
ENDBRANCH   4   5
ENDBRANCH   3   4
ENDBRANCH   2   3
ENDBRANCH   1   2
BRANCH   1  13
ATOM     13  C   UNL     1     -24.062  -9.705  -4.422  1.00  0.00     0.000 C 
BRANCH  13  14
ATOM     14  C   UNL     1     -24.567  -8.859  -5.601  1.00  0.00     0.000 C 
BRANCH  14  15
ATOM     15  C   UNL     1     -23.626  -7.689  -5.938  1.00  0.00     0.000 C 
BRANCH  15  16
ATOM     16  C   UNL     1     -23.904  -7.107  -7.340  1.00  0.00     0.000 C 
BRANCH  16  17
ATOM     17  C   UNL     1     -23.442  -5.647  -7.510  1.00  0.00     0.000 C 
BRANCH  17  18
ATOM     18  C   UNL     1     -24.035  -4.706  -6.449  1.00  0.00     0.000 C 
BRANCH  18  19
ATOM     19  C   UNL     1     -25.540  -4.443  -6.648  1.00  0.00     0.000 C 
BRANCH  19  20
ATOM     20  C   UNL     1     -26.377  -4.402  -5.357  1.00  0.00     0.006 C 
BRANCH  20  21
ATOM     21  C   UNL     1     -26.521  -5.777  -4.688  1.00  0.00     0.053 C 
BRANCH  21  22
ATOM     22  C   UNL     1     -25.786  -5.810  -3.383  1.00  0.00     0.041 C 
ATOM     23  O   UNL     1     -25.371  -4.741  -2.860  1.00  0.00    -0.550 OA
ATOM     24  O   UNL     1     -25.570  -7.022  -2.738  1.00  0.00    -0.550 OA
ENDBRANCH  21  22
ENDBRANCH  20  21
ENDBRANCH  19  20
ENDBRANCH  18  19
ENDBRANCH  17  18
ENDBRANCH  16  17
ENDBRANCH  15  16
ENDBRANCH  14  15
ENDBRANCH  13  14
ENDBRANCH   1  13
TORSDOF 20
ENDMDL
MODEL 6
REMARK VINA RESULT:    -3.876      2.103      3.499
REMARK INTER + INTRA:         -12.200
REMARK INTER:                  -8.322
REMARK INTRA:                  -3.878
REMARK UNBOUND:                -3.792
REMARK SMILES CCCCCCCCCCCCCCCCCCCCCC(=O)[O-]
REMARK SMILES IDX 12 1 11 2 10 3 9 4 8 5 7 6 6 7 5 8 4 9 3 10 2 11 1 12 13 13
REMARK SMILES IDX 14 14 15 15 16 16 17 17 18 18 19 19 20 20 21 21 22 22 23 23
REMARK SMILES IDX 24 24
REMARK H PARENT
REMARK Flexibility Score: inf
ROOT
ATOM      1  C   UNL     1     -22.239  -9.172  -8.242  1.00  0.00     0.000 C 
ENDROOT
BRANCH   1   2
ATOM      2  C   UNL     1     -23.196  -8.541  -7.220  1.00  0.00     0.000 C 
BRANCH   2   3
ATOM      3  C   UNL     1     -22.594  -7.310  -6.524  1.00  0.00     0.000 C 
BRANCH   3   4
ATOM      4  C   UNL     1     -22.907  -7.266  -5.020  1.00  0.00    -0.000 C 
BRANCH   4   5
ATOM      5  C   UNL     1     -23.977  -8.303  -4.655  1.00  0.00    -0.000 C 
BRANCH   5   6
ATOM      6  C   UNL     1     -24.957  -7.745  -3.613  1.00  0.00    -0.000 C 
BRANCH   6   7
ATOM      7  C   UNL     1     -25.280  -6.256  -3.835  1.00  0.00    -0.000 C 
BRANCH   7   8
ATOM      8  C   UNL     1     -26.738  -5.960  -4.241  1.00  0.00    -0.000 C 
BRANCH   8   9
ATOM      9  C   UNL     1     -26.915  -5.371  -5.655  1.00  0.00    -0.000 C 
BRANCH   9  10
ATOM     10  C   UNL     1     -26.424  -6.276  -6.803  1.00  0.00    -0.000 C 
BRANCH  10  11
ATOM     11  C   UNL     1     -25.513  -5.579  -7.829  1.00  0.00    -0.003 C 
ATOM     12  C   UNL     1     -24.705  -4.431  -7.225  1.00  0.00     0.004 C 
ENDBRANCH  10  11
ENDBRANCH   9  10
ENDBRANCH   8   9
ENDBRANCH   7   8
ENDBRANCH   6   7
ENDBRANCH   5   6
ENDBRANCH   4   5
ENDBRANCH   3   4
ENDBRANCH   2   3
ENDBRANCH   1   2
BRANCH   1  13
ATOM     13  C   UNL     1     -21.580 -10.435  -7.668  1.00  0.00     0.000 C 
BRANCH  13  14
ATOM     14  C   UNL     1     -22.308 -10.968  -6.425  1.00  0.00     0.000 C 
BRANCH  14  15
ATOM     15  C   UNL     1     -21.390 -11.058  -5.193  1.00  0.00     0.000 C 
BRANCH  15  16
ATOM     16  C   UNL     1     -19.897 -10.977  -5.577  1.00  0.00     0.000 C 
BRANCH  16  17
ATOM     17  C   UNL     1     -19.105  -9.928  -4.773  1.00  0.00     0.000 C 
BRANCH  17  18
ATOM     18  C   UNL     1     -19.347  -8.492  -5.264  1.00  0.00     0.000 C 
BRANCH  18  19
ATOM     19  C   UNL     1     -18.303  -8.020  -6.294  1.00  0.00     0.000 C 
BRANCH  19  20
ATOM     20  C   UNL     1     -18.805  -7.931  -7.747  1.00  0.00     0.006 C 
BRANCH  20  21
ATOM     21  C   UNL     1     -18.271  -9.059  -8.640  1.00  0.00     0.053 C 
BRANCH  21  22
ATOM     22  C   UNL     1     -17.571  -8.498  -9.839  1.00  0.00     0.041 C 
ATOM     23  O   UNL     1     -17.239  -7.283  -9.871  1.00  0.00    -0.550 OA
ATOM     24  O   UNL     1     -17.275  -9.321 -10.919  1.00  0.00    -0.550 OA
ENDBRANCH  21  22
ENDBRANCH  20  21
ENDBRANCH  19  20
ENDBRANCH  18  19
ENDBRANCH  17  18
ENDBRANCH  16  17
ENDBRANCH  15  16
ENDBRANCH  14  15
ENDBRANCH  13  14
ENDBRANCH   1  13
TORSDOF 20
ENDMDL
MODEL 7
REMARK VINA RESULT:    -3.864      1.970      6.600
REMARK INTER + INTRA:         -12.175
REMARK INTER:                  -9.018
REMARK INTRA:                  -3.156
REMARK UNBOUND:                -3.792
REMARK SMILES CCCCCCCCCCCCCCCCCCCCCC(=O)[O-]
REMARK SMILES IDX 12 1 11 2 10 3 9 4 8 5 7 6 6 7 5 8 4 9 3 10 2 11 1 12 13 13
REMARK SMILES IDX 14 14 15 15 16 16 17 17 18 18 19 19 20 20 21 21 22 22 23 23
REMARK SMILES IDX 24 24
REMARK H PARENT
REMARK Flexibility Score: inf
ROOT
ATOM      1  C   UNL     1     -23.170  -8.213  -6.353  1.00  0.00     0.000 C 
ENDROOT
BRANCH   1   2
ATOM      2  C   UNL     1     -22.831  -8.695  -7.771  1.00  0.00     0.000 C 
BRANCH   2   3
ATOM      3  C   UNL     1     -21.874  -9.898  -7.777  1.00  0.00     0.000 C 
BRANCH   3   4
ATOM      4  C   UNL     1     -22.333 -11.028  -6.842  1.00  0.00    -0.000 C 
BRANCH   4   5
ATOM      5  C   UNL     1     -21.167 -11.529  -5.980  1.00  0.00    -0.000 C 
BRANCH   5   6
ATOM      6  C   UNL     1     -21.045 -10.715  -4.684  1.00  0.00    -0.000 C 
BRANCH   6   7
ATOM      7  C   UNL     1     -19.685 -10.006  -4.551  1.00  0.00    -0.000 C 
BRANCH   7   8
ATOM      8  C   UNL     1     -18.468 -10.841  -4.996  1.00  0.00    -0.000 C 
BRANCH   8   9
ATOM      9  C   UNL     1     -17.545 -10.154  -6.023  1.00  0.00    -0.000 C 
BRANCH   9  10
ATOM     10  C   UNL     1     -18.167  -9.943  -7.419  1.00  0.00    -0.000 C 
BRANCH  10  11
ATOM     11  C   UNL     1     -18.074  -8.505  -7.957  1.00  0.00    -0.003 C 
ATOM     12  C   UNL     1     -19.073  -7.556  -7.294  1.00  0.00     0.004 C 
ENDBRANCH  10  11
ENDBRANCH   9  10
ENDBRANCH   8   9
ENDBRANCH   7   8
ENDBRANCH   6   7
ENDBRANCH   5   6
ENDBRANCH   4   5
ENDBRANCH   3   4
ENDBRANCH   2   3
ENDBRANCH   1   2
BRANCH   1  13
ATOM     13  C   UNL     1     -24.457  -8.878  -5.843  1.00  0.00     0.000 C 
BRANCH  13  14
ATOM     14  C   UNL     1     -24.463  -9.060  -4.317  1.00  0.00     0.000 C 
BRANCH  14  15
ATOM     15  C   UNL     1     -24.301  -7.730  -3.561  1.00  0.00     0.000 C 
BRANCH  15  16
ATOM     16  C   UNL     1     -25.658  -7.038  -3.310  1.00  0.00     0.000 C 
BRANCH  16  17
ATOM     17  C   UNL     1     -25.570  -5.501  -3.256  1.00  0.00     0.000 C 
BRANCH  17  18
ATOM     18  C   UNL     1     -26.014  -4.831  -4.566  1.00  0.00     0.000 C 
BRANCH  18  19
ATOM     19  C   UNL     1     -26.885  -5.745  -5.448  1.00  0.00     0.000 C 
BRANCH  19  20
ATOM     20  C   UNL     1     -26.342  -6.004  -6.865  1.00  0.00     0.006 C 
BRANCH  20  21
ATOM     21  C   UNL     1     -25.076  -5.196  -7.183  1.00  0.00     0.053 C 
BRANCH  21  22
ATOM     22  C   UNL     1     -24.704  -5.342  -8.626  1.00  0.00     0.041 C 
ATOM     23  O   UNL     1     -23.494  -5.441  -8.964  1.00  0.00    -0.550 OA
ATOM     24  O   UNL     1     -25.696  -5.378  -9.599  1.00  0.00    -0.550 OA
ENDBRANCH  21  22
ENDBRANCH  20  21
ENDBRANCH  19  20
ENDBRANCH  18  19
ENDBRANCH  17  18
ENDBRANCH  16  17
ENDBRANCH  15  16
ENDBRANCH  14  15
ENDBRANCH  13  14
ENDBRANCH   1  13
TORSDOF 20
ENDMDL
MODEL 8
REMARK VINA RESULT:    -3.852      2.213      3.834
REMARK INTER + INTRA:         -12.148
REMARK INTER:                  -8.795
REMARK INTRA:                  -3.353
REMARK UNBOUND:                -3.792
REMARK SMILES CCCCCCCCCCCCCCCCCCCCCC(=O)[O-]
REMARK SMILES IDX 12 1 11 2 10 3 9 4 8 5 7 6 6 7 5 8 4 9 3 10 2 11 1 12 13 13
REMARK SMILES IDX 14 14 15 15 16 16 17 17 18 18 19 19 20 20 21 21 22 22 23 23
REMARK SMILES IDX 24 24
REMARK H PARENT
REMARK Flexibility Score: inf
ROOT
ATOM      1  C   UNL     1     -23.523  -9.876  -6.385  1.00  0.00     0.000 C 
ENDROOT
BRANCH   1   2
ATOM      2  C   UNL     1     -23.694  -8.516  -7.079  1.00  0.00     0.000 C 
BRANCH   2   3
ATOM      3  C   UNL     1     -22.560  -7.533  -6.747  1.00  0.00     0.000 C 
BRANCH   3   4
ATOM      4  C   UNL     1     -23.039  -6.075  -6.680  1.00  0.00    -0.000 C 
BRANCH   4   5
ATOM      5  C   UNL     1     -24.288  -5.871  -7.546  1.00  0.00    -0.000 C 
BRANCH   5   6
ATOM      6  C   UNL     1     -25.327  -5.002  -6.823  1.00  0.00    -0.000 C 
BRANCH   6   7
ATOM      7  C   UNL     1     -26.601  -5.782  -6.449  1.00  0.00    -0.000 C 
BRANCH   7   8
ATOM      8  C   UNL     1     -27.087  -5.579  -5.000  1.00  0.00    -0.000 C 
BRANCH   8   9
ATOM      9  C   UNL     1     -26.099  -6.039  -3.909  1.00  0.00    -0.000 C 
BRANCH   9  10
ATOM     10  C   UNL     1     -25.794  -7.551  -3.901  1.00  0.00    -0.000 C 
BRANCH  10  11
ATOM     11  C   UNL     1     -24.357  -7.918  -3.492  1.00  0.00    -0.003 C 
ATOM     12  C   UNL     1     -23.498  -6.694  -3.175  1.00  0.00     0.004 C 
ENDBRANCH  10  11
ENDBRANCH   9  10
ENDBRANCH   8   9
ENDBRANCH   7   8
ENDBRANCH   6   7
ENDBRANCH   5   6
ENDBRANCH   4   5
ENDBRANCH   3   4
ENDBRANCH   2   3
ENDBRANCH   1   2
BRANCH   1  13
ATOM     13  C   UNL     1     -22.432 -10.708  -7.074  1.00  0.00     0.000 C 
BRANCH  13  14
ATOM     14  C   UNL     1     -21.567 -11.492  -6.075  1.00  0.00     0.000 C 
BRANCH  14  15
ATOM     15  C   UNL     1     -21.352 -10.732  -4.754  1.00  0.00     0.000 C 
BRANCH  15  16
ATOM     16  C   UNL     1     -20.046  -9.909  -4.765  1.00  0.00     0.000 C 
BRANCH  16  17
ATOM     17  C   UNL     1     -18.821 -10.695  -5.272  1.00  0.00     0.000 C 
BRANCH  17  18
ATOM     18  C   UNL     1     -17.978  -9.900  -6.282  1.00  0.00     0.000 C 
BRANCH  18  19
ATOM     19  C   UNL     1     -18.589  -9.879  -7.696  1.00  0.00     0.000 C 
BRANCH  19  20
ATOM     20  C   UNL     1     -19.238  -8.547  -8.114  1.00  0.00     0.006 C 
BRANCH  20  21
ATOM     21  C   UNL     1     -19.128  -8.269  -9.620  1.00  0.00     0.053 C 
BRANCH  21  22
ATOM     22  C   UNL     1     -17.697  -8.288 -10.058  1.00  0.00     0.041 C 
ATOM     23  O   UNL     1     -17.305  -9.127 -10.914  1.00  0.00    -0.550 OA
ATOM     24  O   UNL     1     -16.795  -7.372  -9.530  1.00  0.00    -0.550 OA
ENDBRANCH  21  22
ENDBRANCH  20  21
ENDBRANCH  19  20
ENDBRANCH  18  19
ENDBRANCH  17  18
ENDBRANCH  16  17
ENDBRANCH  15  16
ENDBRANCH  14  15
ENDBRANCH  13  14
ENDBRANCH   1  13
TORSDOF 20
ENDMDL
MODEL 9
REMARK VINA RESULT:    -3.809      3.082      7.152
REMARK INTER + INTRA:         -12.055
REMARK INTER:                  -8.283
REMARK INTRA:                  -3.772
REMARK UNBOUND:                -3.792
REMARK SMILES CCCCCCCCCCCCCCCCCCCCCC(=O)[O-]
REMARK SMILES IDX 12 1 11 2 10 3 9 4 8 5 7 6 6 7 5 8 4 9 3 10 2 11 1 12 13 13
REMARK SMILES IDX 14 14 15 15 16 16 17 17 18 18 19 19 20 20 21 21 22 22 23 23
REMARK SMILES IDX 24 24
REMARK H PARENT
REMARK Flexibility Score: inf
ROOT
ATOM      1  C   UNL     1     -22.900  -5.186  -6.813  1.00  0.00     0.000 C 
ENDROOT
BRANCH   1   2
ATOM      2  C   UNL     1     -23.587  -6.458  -7.333  1.00  0.00     0.000 C 
BRANCH   2   3
ATOM      3  C   UNL     1     -23.122  -7.726  -6.600  1.00  0.00     0.000 C 
BRANCH   3   4
ATOM      4  C   UNL     1     -24.161  -8.857  -6.650  1.00  0.00    -0.000 C 
BRANCH   4   5
ATOM      5  C   UNL     1     -24.280  -9.548  -5.286  1.00  0.00    -0.000 C 
BRANCH   5   6
ATOM      6  C   UNL     1     -22.944  -9.518  -4.531  1.00  0.00    -0.000 C 
BRANCH   6   7
ATOM      7  C   UNL     1     -22.390 -10.926  -4.245  1.00  0.00    -0.000 C 
BRANCH   7   8
ATOM      8  C   UNL     1     -21.635 -11.581  -5.419  1.00  0.00    -0.000 C 
BRANCH   8   9
ATOM      9  C   UNL     1     -20.494 -10.734  -6.016  1.00  0.00    -0.000 C 
BRANCH   9  10
ATOM     10  C   UNL     1     -20.692 -10.319  -7.489  1.00  0.00    -0.000 C 
BRANCH  10  11
ATOM     11  C   UNL     1     -19.784  -9.172  -7.964  1.00  0.00    -0.003 C 
ATOM     12  C   UNL     1     -18.310  -9.571  -8.039  1.00  0.00     0.004 C 
ENDBRANCH  10  11
ENDBRANCH   9  10
ENDBRANCH   8   9
ENDBRANCH   7   8
ENDBRANCH   6   7
ENDBRANCH   5   6
ENDBRANCH   4   5
ENDBRANCH   3   4
ENDBRANCH   2   3
ENDBRANCH   1   2
BRANCH   1  13
ATOM     13  C   UNL     1     -23.924  -4.062  -6.597  1.00  0.00     0.000 C 
BRANCH  13  14
ATOM     14  C   UNL     1     -25.371  -4.531  -6.807  1.00  0.00     0.000 C 
BRANCH  14  15
ATOM     15  C   UNL     1     -26.300  -4.129  -5.647  1.00  0.00     0.000 C 
BRANCH  15  16
ATOM     16  C   UNL     1     -27.134  -5.321  -5.133  1.00  0.00     0.000 C 
BRANCH  16  17
ATOM     17  C   UNL     1     -26.290  -6.551  -4.750  1.00  0.00     0.000 C 
BRANCH  17  18
ATOM     18  C   UNL     1     -25.633  -6.417  -3.366  1.00  0.00     0.000 C 
BRANCH  18  19
ATOM     19  C   UNL     1     -24.129  -6.091  -3.440  1.00  0.00     0.000 C 
BRANCH  19  20
ATOM     20  C   UNL     1     -23.731  -4.698  -2.920  1.00  0.00     0.006 C 
BRANCH  20  21
ATOM     21  C   UNL     1     -24.896  -3.944  -2.262  1.00  0.00     0.053 C 
BRANCH  21  22
ATOM     22  C   UNL     1     -24.669  -2.466  -2.320  1.00  0.00     0.041 C 
ATOM     23  O   UNL     1     -24.592  -1.792  -1.258  1.00  0.00    -0.550 OA
ATOM     24  O   UNL     1     -24.530  -1.832  -3.549  1.00  0.00    -0.550 OA
ENDBRANCH  21  22
ENDBRANCH  20  21
ENDBRANCH  19  20
ENDBRANCH  18  19
ENDBRANCH  17  18
ENDBRANCH  16  17
ENDBRANCH  15  16
ENDBRANCH  14  15
ENDBRANCH  13  14
ENDBRANCH   1  13
TORSDOF 20
ENDMDL
