MODEL 1
REMARK VINA RESULT:    -4.155      0.000      0.000
REMARK INTER + INTRA:          -9.567
REMARK INTER:                  -7.556
REMARK INTRA:                  -2.011
REMARK UNBOUND:                -2.011
REMARK SMILES CCCCCCCCCCCCCCCC(=O)[O-]
REMARK SMILES IDX 9 1 10 2 11 3 12 4 13 5 14 6 15 7 16 8 17 9 18 10 8 11 7 12
REMARK SMILES IDX 6 13 5 14 4 15 3 16 2 17 1 18
REMARK H PARENT
REMARK Flexibility Score: inf
ROOT
ATOM      1  C   UNL     1      -9.618 -36.224 -30.535  1.00  0.00     0.000 C 
ENDROOT
BRANCH   1   2
ATOM      2  C   UNL     1      -9.606 -35.503 -29.177  1.00  0.00     0.000 C 
BRANCH   2   3
ATOM      3  C   UNL     1      -8.920 -36.327 -28.075  1.00  0.00     0.000 C 
BRANCH   3   4
ATOM      4  C   UNL     1      -9.879 -36.703 -26.930  1.00  0.00     0.000 C 
BRANCH   4   5
ATOM      5  C   UNL     1     -10.932 -35.631 -26.585  1.00  0.00     0.000 C 
BRANCH   5   6
ATOM      6  C   UNL     1     -10.886 -35.112 -25.137  1.00  0.00     0.006 C 
BRANCH   6   7
ATOM      7  C   UNL     1     -12.020 -35.669 -24.267  1.00  0.00     0.053 C 
BRANCH   7   8
ATOM      8  C   UNL     1     -11.462 -36.431 -23.108  1.00  0.00     0.041 C 
ATOM      9  O   UNL     1     -11.982 -36.322 -21.966  1.00  0.00    -0.550 OA
ATOM     10  O   UNL     1     -10.397 -37.303 -23.298  1.00  0.00    -0.550 OA
ENDBRANCH   7   8
ENDBRANCH   6   7
ENDBRANCH   5   6
ENDBRANCH   4   5
ENDBRANCH   3   4
ENDBRANCH   2   3
ENDBRANCH   1   2
BRANCH   1  11
ATOM     11  C   UNL     1     -10.611 -37.398 -30.569  1.00  0.00     0.000 C 
BRANCH  11  12
ATOM     12  C   UNL     1     -11.933 -37.088 -29.845  1.00  0.00    -0.000 C 
BRANCH  12  13
ATOM     13  C   UNL     1     -12.888 -36.143 -30.597  1.00  0.00    -0.000 C 
BRANCH  13  14
ATOM     14  C   UNL     1     -13.237 -34.878 -29.793  1.00  0.00    -0.000 C 
BRANCH  14  15
ATOM     15  C   UNL     1     -14.591 -34.993 -29.073  1.00  0.00    -0.000 C 
BRANCH  15  16
ATOM     16  C   UNL     1     -14.444 -35.010 -27.541  1.00  0.00    -0.000 C 
BRANCH  16  17
ATOM     17  C   UNL     1     -15.120 -36.231 -26.900  1.00  0.00    -0.003 C 
ATOM     18  C   UNL     1     -14.202 -37.452 -26.834  1.00  0.00     0.004 C 
ENDBRANCH  16  17
ENDBRANCH  15  16
ENDBRANCH  14  15
ENDBRANCH  13  14
ENDBRANCH  12  13
ENDBRANCH  11  12
ENDBRANCH   1  11
TORSDOF 14
ENDMDL
MODEL 2
REMARK VINA RESULT:    -4.154      2.815      4.545
REMARK INTER + INTRA:          -9.565
REMARK INTER:                  -7.344
REMARK INTRA:                  -2.222
REMARK UNBOUND:                -2.011
REMARK SMILES CCCCCCCCCCCCCCCC(=O)[O-]
REMARK SMILES IDX 9 1 10 2 11 3 12 4 13 5 14 6 15 7 16 8 17 9 18 10 8 11 7 12
REMARK SMILES IDX 6 13 5 14 4 15 3 16 2 17 1 18
REMARK H PARENT
REMARK Flexibility Score: inf
ROOT
ATOM      1  C   UNL     1      -9.035 -37.020 -27.735  1.00  0.00     0.000 C 
ENDROOT
BRANCH   1   2
ATOM      2  C   UNL     1     -10.279 -37.422 -26.924  1.00  0.00     0.000 C 
BRANCH   2   3
ATOM      3  C   UNL     1     -10.637 -36.393 -25.839  1.00  0.00     0.000 C 
BRANCH   3   4
ATOM      4  C   UNL     1     -12.099 -35.916 -25.930  1.00  0.00     0.000 C 
BRANCH   4   5
ATOM      5  C   UNL     1     -12.276 -34.408 -26.192  1.00  0.00     0.000 C 
BRANCH   5   6
ATOM      6  C   UNL     1     -12.688 -34.038 -27.629  1.00  0.00     0.006 C 
BRANCH   6   7
ATOM      7  C   UNL     1     -13.290 -35.219 -28.399  1.00  0.00     0.053 C 
BRANCH   7   8
ATOM      8  C   UNL     1     -14.783 -35.151 -28.376  1.00  0.00     0.041 C 
ATOM      9  O   UNL     1     -15.365 -34.139 -27.902  1.00  0.00    -0.550 OA
ATOM     10  O   UNL     1     -15.535 -36.184 -28.922  1.00  0.00    -0.550 OA
ENDBRANCH   7   8
ENDBRANCH   6   7
ENDBRANCH   5   6
ENDBRANCH   4   5
ENDBRANCH   3   4
ENDBRANCH   2   3
ENDBRANCH   1   2
BRANCH   1  11
ATOM     11  C   UNL     1      -8.987 -35.511 -28.029  1.00  0.00     0.000 C 
BRANCH  11  12
ATOM     12  C   UNL     1      -9.411 -35.165 -29.468  1.00  0.00    -0.000 C 
BRANCH  12  13
ATOM     13  C   UNL     1      -9.324 -36.326 -30.475  1.00  0.00    -0.000 C 
BRANCH  13  14
ATOM     14  C   UNL     1     -10.641 -36.560 -31.237  1.00  0.00    -0.000 C 
BRANCH  14  15
ATOM     15  C   UNL     1     -11.451 -37.736 -30.665  1.00  0.00    -0.000 C 
BRANCH  15  16
ATOM     16  C   UNL     1     -12.934 -37.681 -31.072  1.00  0.00    -0.000 C 
BRANCH  16  17
ATOM     17  C   UNL     1     -13.157 -36.894 -32.373  1.00  0.00    -0.003 C 
ATOM     18  C   UNL     1     -14.203 -35.788 -32.225  1.00  0.00     0.004 C 
ENDBRANCH  16  17
ENDBRANCH  15  16
ENDBRANCH  14  15
ENDBRANCH  13  14
ENDBRANCH  12  13
ENDBRANCH  11  12
ENDBRANCH   1  11
TORSDOF 14
ENDMDL
MODEL 3
REMARK VINA RESULT:    -4.152      2.630      4.534
REMARK INTER + INTRA:          -9.561
REMARK INTER:                  -7.350
REMARK INTRA:                  -2.211
REMARK UNBOUND:                -2.011
REMARK SMILES CCCCCCCCCCCCCCCC(=O)[O-]
REMARK SMILES IDX 9 1 10 2 11 3 12 4 13 5 14 6 15 7 16 8 17 9 18 10 8 11 7 12
REMARK SMILES IDX 6 13 5 14 4 15 3 16 2 17 1 18
REMARK H PARENT
REMARK Flexibility Score: inf
ROOT
ATOM      1  C   UNL     1     -10.132 -36.526 -31.179  1.00  0.00     0.000 C 
ENDROOT
BRANCH   1   2
ATOM      2  C   UNL     1     -11.065 -37.730 -30.966  1.00  0.00     0.000 C 
BRANCH   2   3
ATOM      3  C   UNL     1     -12.553 -37.344 -31.029  1.00  0.00     0.000 C 
BRANCH   3   4
ATOM      4  C   UNL     1     -12.828 -35.940 -30.459  1.00  0.00     0.000 C 
BRANCH   4   5
ATOM      5  C   UNL     1     -12.859 -35.858 -28.919  1.00  0.00     0.000 C 
BRANCH   5   6
ATOM      6  C   UNL     1     -12.709 -34.441 -28.338  1.00  0.00     0.006 C 
BRANCH   6   7
ATOM      7  C   UNL     1     -13.801 -34.098 -27.316  1.00  0.00     0.053 C 
BRANCH   7   8
ATOM      8  C   UNL     1     -15.109 -34.690 -27.732  1.00  0.00     0.041 C 
ATOM      9  O   UNL     1     -15.685 -34.287 -28.777  1.00  0.00    -0.550 OA
ATOM     10  O   UNL     1     -15.670 -35.724 -26.992  1.00  0.00    -0.550 OA
ENDBRANCH   7   8
ENDBRANCH   6   7
ENDBRANCH   5   6
ENDBRANCH   4   5
ENDBRANCH   3   4
ENDBRANCH   2   3
ENDBRANCH   1   2
BRANCH   1  11
ATOM     11  C   UNL     1      -8.995 -36.472 -30.144  1.00  0.00     0.000 C 
BRANCH  11  12
ATOM     12  C   UNL     1      -9.187 -35.360 -29.098  1.00  0.00    -0.000 C 
BRANCH  12  13
ATOM     13  C   UNL     1      -9.087 -35.815 -27.630  1.00  0.00    -0.000 C 
BRANCH  13  14
ATOM     14  C   UNL     1      -9.433 -37.302 -27.438  1.00  0.00    -0.000 C 
BRANCH  14  15
ATOM     15  C   UNL     1     -10.742 -37.506 -26.657  1.00  0.00    -0.000 C 
BRANCH  15  16
ATOM     16  C   UNL     1     -10.738 -36.777 -25.302  1.00  0.00    -0.000 C 
BRANCH  16  17
ATOM     17  C   UNL     1     -12.129 -36.249 -24.915  1.00  0.00    -0.003 C 
ATOM     18  C   UNL     1     -13.210 -37.328 -24.971  1.00  0.00     0.004 C 
ENDBRANCH  16  17
ENDBRANCH  15  16
ENDBRANCH  14  15
ENDBRANCH  13  14
ENDBRANCH  12  13
ENDBRANCH  11  12
ENDBRANCH   1  11
TORSDOF 14
ENDMDL
MODEL 4
REMARK VINA RESULT:    -4.136     19.219     21.359
REMARK INTER + INTRA:          -9.533
REMARK INTER:                  -6.881
REMARK INTRA:                  -2.652
REMARK UNBOUND:                -2.011
REMARK SMILES CCCCCCCCCCCCCCCC(=O)[O-]
REMARK SMILES IDX 9 1 10 2 11 3 12 4 13 5 14 6 15 7 16 8 17 9 18 10 8 11 7 12
REMARK SMILES IDX 6 13 5 14 4 15 3 16 2 17 1 18
REMARK H PARENT
REMARK Flexibility Score: inf
ROOT
ATOM      1  C   UNL     1     -26.192 -22.903 -30.267  1.00  0.00     0.000 C 
ENDROOT
BRANCH   1   2
ATOM      2  C   UNL     1     -24.772 -22.315 -30.293  1.00  0.00     0.000 C 
BRANCH   2   3
ATOM      3  C   UNL     1     -24.755 -20.796 -30.049  1.00  0.00     0.000 C 
BRANCH   3   4
ATOM      4  C   UNL     1     -24.015 -20.024 -31.157  1.00  0.00     0.000 C 
BRANCH   4   5
ATOM      5  C   UNL     1     -24.862 -19.706 -32.405  1.00  0.00     0.000 C 
BRANCH   5   6
ATOM      6  C   UNL     1     -24.264 -20.183 -33.740  1.00  0.00     0.006 C 
BRANCH   6   7
ATOM      7  C   UNL     1     -24.683 -21.613 -34.105  1.00  0.00     0.053 C 
BRANCH   7   8
ATOM      8  C   UNL     1     -23.567 -22.569 -33.831  1.00  0.00     0.041 C 
ATOM      9  O   UNL     1     -22.410 -22.140 -33.582  1.00  0.00    -0.550 OA
ATOM     10  O   UNL     1     -23.816 -23.936 -33.799  1.00  0.00    -0.550 OA
ENDBRANCH   7   8
ENDBRANCH   6   7
ENDBRANCH   5   6
ENDBRANCH   4   5
ENDBRANCH   3   4
ENDBRANCH   2   3
ENDBRANCH   1   2
BRANCH   1  11
ATOM     11  C   UNL     1     -26.689 -23.304 -31.666  1.00  0.00     0.000 C 
BRANCH  11  12
ATOM     12  C   UNL     1     -28.130 -22.840 -31.948  1.00  0.00    -0.000 C 
BRANCH  12  13
ATOM     13  C   UNL     1     -28.256 -21.619 -32.878  1.00  0.00    -0.000 C 
BRANCH  13  14
ATOM     14  C   UNL     1     -28.264 -20.282 -32.116  1.00  0.00    -0.000 C 
BRANCH  14  15
ATOM     15  C   UNL     1     -28.893 -20.405 -30.718  1.00  0.00    -0.000 C 
BRANCH  15  16
ATOM     16  C   UNL     1     -28.159 -19.555 -29.666  1.00  0.00    -0.000 C 
BRANCH  16  17
ATOM     17  C   UNL     1     -27.932 -20.316 -28.350  1.00  0.00    -0.003 C 
ATOM     18  C   UNL     1     -27.075 -19.536 -27.353  1.00  0.00     0.004 C 
ENDBRANCH  16  17
ENDBRANCH  15  16
ENDBRANCH  14  15
ENDBRANCH  13  14
ENDBRANCH  12  13
ENDBRANCH  11  12
ENDBRANCH   1  11
TORSDOF 14
ENDMDL
MODEL 5
REMARK VINA RESULT:    -4.092      1.912      3.629
REMARK INTER + INTRA:          -9.453
REMARK INTER:                  -6.684
REMARK INTRA:                  -2.769
REMARK UNBOUND:                -2.011
REMARK SMILES CCCCCCCCCCCCCCCC(=O)[O-]
REMARK SMILES IDX 9 1 10 2 11 3 12 4 13 5 14 6 15 7 16 8 17 9 18 10 8 11 7 12
REMARK SMILES IDX 6 13 5 14 4 15 3 16 2 17 1 18
REMARK H PARENT
REMARK Flexibility Score: inf
ROOT
ATOM      1  C   UNL     1     -12.306 -34.001 -27.583  1.00  0.00     0.000 C 
ENDROOT
BRANCH   1   2
ATOM      2  C   UNL     1     -12.045 -34.138 -29.093  1.00  0.00     0.000 C 
BRANCH   2   3
ATOM      3  C   UNL     1     -10.917 -35.135 -29.410  1.00  0.00     0.000 C 
BRANCH   3   4
ATOM      4  C   UNL     1     -10.651 -36.119 -28.256  1.00  0.00     0.000 C 
BRANCH   4   5
ATOM      5  C   UNL     1     -11.418 -37.454 -28.350  1.00  0.00     0.000 C 
BRANCH   5   6
ATOM      6  C   UNL     1     -11.942 -38.002 -27.011  1.00  0.00     0.006 C 
BRANCH   6   7
ATOM      7  C   UNL     1     -11.427 -37.212 -25.801  1.00  0.00     0.053 C 
BRANCH   7   8
ATOM      8  C   UNL     1     -12.538 -36.959 -24.833  1.00  0.00     0.041 C 
ATOM      9  O   UNL     1     -12.334 -36.270 -23.798  1.00  0.00    -0.550 OA
ATOM     10  O   UNL     1     -13.814 -37.440 -25.098  1.00  0.00    -0.550 OA
ENDBRANCH   7   8
ENDBRANCH   6   7
ENDBRANCH   5   6
ENDBRANCH   4   5
ENDBRANCH   3   4
ENDBRANCH   2   3
ENDBRANCH   1   2
BRANCH   1  11
ATOM     11  C   UNL     1     -13.737 -34.409 -27.194  1.00  0.00     0.000 C 
BRANCH  11  12
ATOM     12  C   UNL     1     -14.605 -34.788 -28.408  1.00  0.00    -0.000 C 
BRANCH  12  13
ATOM     13  C   UNL     1     -14.924 -36.288 -28.544  1.00  0.00    -0.000 C 
BRANCH  13  14
ATOM     14  C   UNL     1     -15.210 -36.711 -29.996  1.00  0.00    -0.000 C 
BRANCH  14  15
ATOM     15  C   UNL     1     -14.914 -35.589 -31.006  1.00  0.00    -0.000 C 
BRANCH  15  16
ATOM     16  C   UNL     1     -13.953 -36.039 -32.120  1.00  0.00    -0.000 C 
BRANCH  16  17
ATOM     17  C   UNL     1     -13.102 -37.250 -31.708  1.00  0.00    -0.003 C 
ATOM     18  C   UNL     1     -11.679 -37.193 -32.266  1.00  0.00     0.004 C 
ENDBRANCH  16  17
ENDBRANCH  15  16
ENDBRANCH  14  15
ENDBRANCH  13  14
ENDBRANCH  12  13
ENDBRANCH  11  12
ENDBRANCH   1  11
TORSDOF 14
ENDMDL
MODEL 6
REMARK VINA RESULT:    -4.090      1.366      3.713
REMARK INTER + INTRA:          -9.449
REMARK INTER:                  -7.247
REMARK INTRA:                  -2.202
REMARK UNBOUND:                -2.011
REMARK SMILES CCCCCCCCCCCCCCCC(=O)[O-]
REMARK SMILES IDX 9 1 10 2 11 3 12 4 13 5 14 6 15 7 16 8 17 9 18 10 8 11 7 12
REMARK SMILES IDX 6 13 5 14 4 15 3 16 2 17 1 18
REMARK H PARENT
REMARK Flexibility Score: inf
ROOT
ATOM      1  C   UNL     1     -12.497 -34.040 -27.087  1.00  0.00     0.000 C 
ENDROOT
BRANCH   1   2
ATOM      2  C   UNL     1     -12.377 -34.326 -25.581  1.00  0.00     0.000 C 
BRANCH   2   3
ATOM      3  C   UNL     1     -11.122 -35.145 -25.231  1.00  0.00     0.000 C 
BRANCH   3   4
ATOM      4  C   UNL     1     -11.026 -36.456 -26.033  1.00  0.00     0.000 C 
BRANCH   4   5
ATOM      5  C   UNL     1     -11.504 -37.714 -25.283  1.00  0.00     0.000 C 
BRANCH   5   6
ATOM      6  C   UNL     1     -12.650 -37.482 -24.282  1.00  0.00     0.006 C 
BRANCH   6   7
ATOM      7  C   UNL     1     -12.347 -38.045 -22.888  1.00  0.00     0.053 C 
BRANCH   7   8
ATOM      8  C   UNL     1     -11.484 -37.097 -22.119  1.00  0.00     0.041 C 
ATOM      9  O   UNL     1     -12.005 -36.234 -21.364  1.00  0.00    -0.550 OA
ATOM     10  O   UNL     1     -10.100 -37.199 -22.196  1.00  0.00    -0.550 OA
ENDBRANCH   7   8
ENDBRANCH   6   7
ENDBRANCH   5   6
ENDBRANCH   4   5
ENDBRANCH   3   4
ENDBRANCH   2   3
ENDBRANCH   1   2
BRANCH   1  11
ATOM     11  C   UNL     1     -13.893 -34.375 -27.640  1.00  0.00     0.000 C 
BRANCH  11  12
ATOM     12  C   UNL     1     -14.486 -35.660 -27.035  1.00  0.00    -0.000 C 
BRANCH  12  13
ATOM     13  C   UNL     1     -14.374 -36.914 -27.922  1.00  0.00    -0.000 C 
BRANCH  13  14
ATOM     14  C   UNL     1     -13.741 -36.624 -29.294  1.00  0.00    -0.000 C 
BRANCH  14  15
ATOM     15  C   UNL     1     -12.312 -37.180 -29.413  1.00  0.00    -0.000 C 
BRANCH  15  16
ATOM     16  C   UNL     1     -11.381 -36.244 -30.205  1.00  0.00    -0.000 C 
BRANCH  16  17
ATOM     17  C   UNL     1     -10.087 -35.919 -29.443  1.00  0.00    -0.003 C 
ATOM     18  C   UNL     1      -9.486 -34.572 -29.843  1.00  0.00     0.004 C 
ENDBRANCH  16  17
ENDBRANCH  15  16
ENDBRANCH  14  15
ENDBRANCH  13  14
ENDBRANCH  12  13
ENDBRANCH  11  12
ENDBRANCH   1  11
TORSDOF 14
ENDMDL
MODEL 7
REMARK VINA RESULT:    -4.060      3.656      6.552
REMARK INTER + INTRA:          -9.395
REMARK INTER:                  -6.994
REMARK INTRA:                  -2.402
REMARK UNBOUND:                -2.011
REMARK SMILES CCCCCCCCCCCCCCCC(=O)[O-]
REMARK SMILES IDX 9 1 10 2 11 3 12 4 13 5 14 6 15 7 16 8 17 9 18 10 8 11 7 12
REMARK SMILES IDX 6 13 5 14 4 15 3 16 2 17 1 18
REMARK H PARENT
REMARK Flexibility Score: inf
ROOT
ATOM      1  C   UNL     1     -12.769 -34.329 -27.382  1.00  0.00     0.000 C 
ENDROOT
BRANCH   1   2
ATOM      2  C   UNL     1     -14.257 -34.671 -27.565  1.00  0.00     0.000 C 
BRANCH   2   3
ATOM      3  C   UNL     1     -14.480 -36.124 -28.019  1.00  0.00     0.000 C 
BRANCH   3   4
ATOM      4  C   UNL     1     -13.190 -36.790 -28.534  1.00  0.00     0.000 C 
BRANCH   4   5
ATOM      5  C   UNL     1     -13.125 -36.988 -30.061  1.00  0.00     0.000 C 
BRANCH   5   6
ATOM      6  C   UNL     1     -13.471 -35.742 -30.897  1.00  0.00     0.006 C 
BRANCH   6   7
ATOM      7  C   UNL     1     -14.537 -36.019 -31.965  1.00  0.00     0.053 C 
BRANCH   7   8
ATOM      8  C   UNL     1     -15.894 -35.653 -31.455  1.00  0.00     0.041 C 
ATOM      9  O   UNL     1     -16.854 -36.461 -31.568  1.00  0.00    -0.550 OA
ATOM     10  O   UNL     1     -16.089 -34.440 -30.807  1.00  0.00    -0.550 OA
ENDBRANCH   7   8
ENDBRANCH   6   7
ENDBRANCH   5   6
ENDBRANCH   4   5
ENDBRANCH   3   4
ENDBRANCH   2   3
ENDBRANCH   1   2
BRANCH   1  11
ATOM     11  C   UNL     1     -12.321 -34.418 -25.914  1.00  0.00     0.000 C 
BRANCH  11  12
ATOM     12  C   UNL     1     -10.968 -35.131 -25.741  1.00  0.00    -0.000 C 
BRANCH  12  13
ATOM     13  C   UNL     1     -11.054 -36.628 -25.393  1.00  0.00    -0.000 C 
BRANCH  13  14
ATOM     14  C   UNL     1     -10.304 -37.522 -26.396  1.00  0.00    -0.000 C 
BRANCH  14  15
ATOM     15  C   UNL     1      -9.517 -36.707 -27.437  1.00  0.00    -0.000 C 
BRANCH  15  16
ATOM     16  C   UNL     1      -9.542 -37.356 -28.832  1.00  0.00    -0.000 C 
BRANCH  16  17
ATOM     17  C   UNL     1      -9.279 -36.342 -29.956  1.00  0.00    -0.003 C 
ATOM     18  C   UNL     1      -9.829 -34.951 -29.641  1.00  0.00     0.004 C 
ENDBRANCH  16  17
ENDBRANCH  15  16
ENDBRANCH  14  15
ENDBRANCH  13  14
ENDBRANCH  12  13
ENDBRANCH  11  12
ENDBRANCH   1  11
TORSDOF 14
ENDMDL
MODEL 8
REMARK VINA RESULT:    -4.054      3.657      6.375
REMARK INTER + INTRA:          -9.384
REMARK INTER:                  -6.999
REMARK INTRA:                  -2.386
REMARK UNBOUND:                -2.011
REMARK SMILES CCCCCCCCCCCCCCCC(=O)[O-]
REMARK SMILES IDX 9 1 10 2 11 3 12 4 13 5 14 6 15 7 16 8 17 9 18 10 8 11 7 12
REMARK SMILES IDX 6 13 5 14 4 15 3 16 2 17 1 18
REMARK H PARENT
REMARK Flexibility Score: inf
ROOT
ATOM      1  C   UNL     1     -12.256 -34.556 -25.499  1.00  0.00     0.000 C 
ENDROOT
BRANCH   1   2
ATOM      2  C   UNL     1     -12.368 -33.957 -26.911  1.00  0.00     0.000 C 
BRANCH   2   3
ATOM      3  C   UNL     1     -12.611 -35.025 -27.990  1.00  0.00     0.000 C 
BRANCH   3   4
ATOM      4  C   UNL     1     -13.680 -36.054 -27.578  1.00  0.00     0.000 C 
BRANCH   4   5
ATOM      5  C   UNL     1     -13.621 -37.393 -28.340  1.00  0.00     0.000 C 
BRANCH   5   6
ATOM      6  C   UNL     1     -13.822 -37.289 -29.862  1.00  0.00     0.006 C 
BRANCH   6   7
ATOM      7  C   UNL     1     -12.519 -37.483 -30.649  1.00  0.00     0.053 C 
BRANCH   7   8
ATOM      8  C   UNL     1     -12.681 -36.995 -32.053  1.00  0.00     0.041 C 
ATOM      9  O   UNL     1     -13.793 -36.554 -32.448  1.00  0.00    -0.550 OA
ATOM     10  O   UNL     1     -11.590 -36.978 -32.913  1.00  0.00    -0.550 OA
ENDBRANCH   7   8
ENDBRANCH   6   7
ENDBRANCH   5   6
ENDBRANCH   4   5
ENDBRANCH   3   4
ENDBRANCH   2   3
ENDBRANCH   1   2
BRANCH   1  11
ATOM     11  C   UNL     1     -10.924 -35.291 -25.275  1.00  0.00     0.000 C 
BRANCH  11  12
ATOM     12  C   UNL     1     -11.107 -36.692 -24.663  1.00  0.00    -0.000 C 
BRANCH  12  13
ATOM     13  C   UNL     1     -10.798 -37.867 -25.610  1.00  0.00    -0.000 C 
BRANCH  13  14
ATOM     14  C   UNL     1      -9.621 -37.579 -26.558  1.00  0.00    -0.000 C 
BRANCH  14  15
ATOM     15  C   UNL     1      -9.945 -37.927 -28.022  1.00  0.00    -0.000 C 
BRANCH  15  16
ATOM     16  C   UNL     1      -9.220 -37.007 -29.019  1.00  0.00    -0.000 C 
BRANCH  16  17
ATOM     17  C   UNL     1      -9.048 -35.578 -28.482  1.00  0.00    -0.003 C 
ATOM     18  C   UNL     1      -9.261 -34.510 -29.556  1.00  0.00     0.004 C 
ENDBRANCH  16  17
ENDBRANCH  15  16
ENDBRANCH  14  15
ENDBRANCH  13  14
ENDBRANCH  12  13
ENDBRANCH  11  12
ENDBRANCH   1  11
TORSDOF 14
ENDMDL
MODEL 9
REMARK VINA RESULT:    -4.029     20.189     22.626
REMARK INTER + INTRA:          -9.337
REMARK INTER:                  -6.966
REMARK INTRA:                  -2.372
REMARK UNBOUND:                -2.011
REMARK SMILES CCCCCCCCCCCCCCCC(=O)[O-]
REMARK SMILES IDX 9 1 10 2 11 3 12 4 13 5 14 6 15 7 16 8 17 9 18 10 8 11 7 12
REMARK SMILES IDX 6 13 5 14 4 15 3 16 2 17 1 18
REMARK H PARENT
REMARK Flexibility Score: inf
ROOT
ATOM      1  C   UNL     1     -26.432 -22.325 -31.115  1.00  0.00     0.000 C 
ENDROOT
BRANCH   1   2
ATOM      2  C   UNL     1     -27.584 -23.117 -31.757  1.00  0.00     0.000 C 
BRANCH   2   3
ATOM      3  C   UNL     1     -28.601 -22.210 -32.470  1.00  0.00     0.000 C 
BRANCH   3   4
ATOM      4  C   UNL     1     -28.349 -22.111 -33.986  1.00  0.00     0.000 C 
BRANCH   4   5
ATOM      5  C   UNL     1     -28.013 -20.696 -34.499  1.00  0.00     0.000 C 
BRANCH   5   6
ATOM      6  C   UNL     1     -26.594 -20.528 -35.068  1.00  0.00     0.006 C 
BRANCH   6   7
ATOM      7  C   UNL     1     -25.602 -21.558 -34.513  1.00  0.00     0.053 C 
BRANCH   7   8
ATOM      8  C   UNL     1     -24.384 -20.874 -33.979  1.00  0.00     0.041 C 
ATOM      9  O   UNL     1     -24.225 -19.637 -34.149  1.00  0.00    -0.550 OA
ATOM     10  O   UNL     1     -23.446 -21.595 -33.249  1.00  0.00    -0.550 OA
ENDBRANCH   7   8
ENDBRANCH   6   7
ENDBRANCH   5   6
ENDBRANCH   4   5
ENDBRANCH   3   4
ENDBRANCH   2   3
ENDBRANCH   1   2
BRANCH   1  11
ATOM     11  C   UNL     1     -26.223 -22.686 -29.635  1.00  0.00     0.000 C 
BRANCH  11  12
ATOM     12  C   UNL     1     -26.491 -21.505 -28.684  1.00  0.00    -0.000 C 
BRANCH  12  13
ATOM     13  C   UNL     1     -27.912 -20.915 -28.755  1.00  0.00    -0.000 C 
BRANCH  13  14
ATOM     14  C   UNL     1     -28.002 -19.496 -28.166  1.00  0.00    -0.000 C 
BRANCH  14  15
ATOM     15  C   UNL     1     -28.474 -18.459 -29.198  1.00  0.00    -0.000 C 
BRANCH  15  16
ATOM     16  C   UNL     1     -28.855 -19.099 -30.544  1.00  0.00    -0.000 C 
BRANCH  16  17
ATOM     17  C   UNL     1     -28.053 -18.519 -31.719  1.00  0.00    -0.003 C 
ATOM     18  C   UNL     1     -26.545 -18.721 -31.566  1.00  0.00     0.004 C 
ENDBRANCH  16  17
ENDBRANCH  15  16
ENDBRANCH  14  15
ENDBRANCH  13  14
ENDBRANCH  12  13
ENDBRANCH  11  12
ENDBRANCH   1  11
TORSDOF 14
ENDMDL
