MODEL 1
REMARK VINA RESULT:    -5.755      0.000      0.000
REMARK INTER + INTRA:          -8.243
REMARK INTER:                  -8.782
REMARK INTRA:                   0.539
REMARK UNBOUND:                 0.539
REMARK SMILES C[C@H]1O[C@H](Oc2c(-c3ccc(O)cc3)oc3cc(O[C@H]4O[C@H](C)[C@@H](O)[C@@H](O)[C@@H]4O)cc(O)c3c2=O)[C@@H](O)[C@@H](O)[C@@H]1O
REMARK SMILES IDX 18 1 30 2 31 3 33 4 16 5 17 6 15 7 7 8 6 9 34 10 35 11 19 12
REMARK SMILES IDX 20 13 23 14 22 15 24 16 21 17 26 18 28 19 25 20 27 22 29 24
REMARK SMILES IDX 32 26 8 28 9 29 14 30 10 31 13 32 11 33 12 34 5 36 4 37
REMARK SMILES IDX 36 38 3 39 38 40 2 41 40 42 1 43 37 44 39 46 41 48
REMARK H PARENT 25 21 27 23 29 25 32 27 12 35 37 45 39 47 41 49
REMARK Flexibility Score: inf
ROOT
ATOM      1  C   UNL     1       9.213   2.533  -0.808  1.00  0.00     0.130 A 
ATOM      2  C   UNL     1       8.686   1.509  -0.040  1.00  0.00     0.093 A 
ATOM      3  C   UNL     1       9.512   0.683   0.729  1.00  0.00     0.134 A 
ATOM      4  C   UNL     1      10.929   0.757   0.564  1.00  0.00     0.111 A 
ATOM      5  C   UNL     1      11.437   1.673  -0.399  1.00  0.00     0.146 A 
ATOM      6  C   UNL     1      10.586   2.563  -1.057  1.00  0.00     0.094 A 
ATOM      7  O   UNL     1      12.730   1.686  -0.707  1.00  0.00    -0.452 OA
ATOM      8  C   UNL     1      13.635   0.937  -0.090  1.00  0.00     0.180 A 
ATOM      9  C   UNL     1      13.249   0.115   0.984  1.00  0.00     0.214 A 
ATOM     10  C   UNL     1      11.874  -0.027   1.264  1.00  0.00     0.239 A 
ATOM     11  O   UNL     1      11.521  -0.849   2.143  1.00  0.00    -0.285 OA
ENDROOT
BRANCH   1  12
ATOM     12  O   UNL     1       8.351   3.540  -1.259  1.00  0.00    -0.462 OA
BRANCH  12  13
ATOM     13  C   UNL     1       8.005   4.676  -0.447  1.00  0.00     0.339 C 
ATOM     14  C   UNL     1      10.327   4.220   2.373  1.00  0.00     0.042 C 
ATOM     15  C   UNL     1       9.903   4.493   0.931  1.00  0.00     0.151 C 
ATOM     16  C   UNL     1      10.478   5.847   0.441  1.00  0.00     0.174 C 
ATOM     17  O   UNL     1       8.481   4.510   0.882  1.00  0.00    -0.335 OA
ATOM     18  C   UNL     1      10.009   6.144  -0.988  1.00  0.00     0.180 C 
ATOM     19  C   UNL     1       8.484   6.008  -1.074  1.00  0.00     0.214 C 
BRANCH  16  20
ATOM     20  O   UNL     1      11.884   5.874   0.482  1.00  0.00    -0.388 OA
ATOM     21  H   UNL     1      12.166   6.747   0.863  1.00  0.00     0.211 HD
ENDBRANCH  16  20
BRANCH  18  22
ATOM     22  O   UNL     1      10.638   5.272  -1.891  1.00  0.00    -0.387 OA
ATOM     23  H   UNL     1       9.948   4.615  -2.202  1.00  0.00     0.211 HD
ENDBRANCH  18  22
BRANCH  19  24
ATOM     24  O   UNL     1       7.876   7.087  -0.423  1.00  0.00    -0.384 OA
ATOM     25  H   UNL     1       8.335   7.921  -0.716  1.00  0.00     0.211 HD
ENDBRANCH  19  24
ENDBRANCH  12  13
ENDBRANCH   1  12
BRANCH   3  26
ATOM     26  O   UNL     1       8.880  -0.152   1.663  1.00  0.00    -0.507 OA
ATOM     27  H   UNL     1       9.299  -0.470   2.518  1.00  0.00     0.293 HD
ENDBRANCH   3  26
BRANCH   8  28
ATOM     28  C   UNL     1      15.012   0.975  -0.602  1.00  0.00     0.021 A 
ATOM     29  C   UNL     1      15.946   1.885  -0.083  1.00  0.00     0.016 A 
ATOM     30  C   UNL     1      15.350   0.181  -1.716  1.00  0.00     0.016 A 
ATOM     31  C   UNL     1      17.198   2.033  -0.699  1.00  0.00     0.047 A 
ATOM     32  C   UNL     1      16.612   0.304  -2.300  1.00  0.00     0.047 A 
ATOM     33  C   UNL     1      17.527   1.248  -1.813  1.00  0.00     0.115 A 
BRANCH  33  34
ATOM     34  O   UNL     1      18.762   1.405  -2.438  1.00  0.00    -0.508 OA
ATOM     35  H   UNL     1      18.950   2.223  -2.986  1.00  0.00     0.293 HD
ENDBRANCH  33  34
ENDBRANCH   8  28
BRANCH   9  36
ATOM     36  O   UNL     1      14.178  -0.529   1.816  1.00  0.00    -0.454 OA
BRANCH  36  37
ATOM     37  C   UNL     1      14.454  -0.171   3.167  1.00  0.00     0.339 C 
ATOM     38  C   UNL     1      14.892   1.319   3.182  1.00  0.00     0.214 C 
ATOM     39  O   UNL     1      15.481  -1.036   3.618  1.00  0.00    -0.335 OA
ATOM     40  C   UNL     1      16.306   1.498   3.759  1.00  0.00     0.180 C 
ATOM     41  C   UNL     1      15.926  -0.738   4.937  1.00  0.00     0.151 C 
ATOM     42  C   UNL     1      16.440   0.727   5.088  1.00  0.00     0.174 C 
ATOM     43  C   UNL     1      14.879  -1.125   5.996  1.00  0.00     0.042 C 
BRANCH  38  44
ATOM     44  O   UNL     1      13.948   2.138   3.832  1.00  0.00    -0.384 OA
ATOM     45  H   UNL     1      14.106   2.083   4.817  1.00  0.00     0.211 HD
ENDBRANCH  38  44
BRANCH  40  46
ATOM     46  O   UNL     1      16.600   2.858   3.962  1.00  0.00    -0.387 OA
ATOM     47  H   UNL     1      17.571   2.909   4.151  1.00  0.00     0.211 HD
ENDBRANCH  40  46
BRANCH  42  48
ATOM     48  O   UNL     1      17.770   0.739   5.538  1.00  0.00    -0.388 OA
ATOM     49  H   UNL     1      18.064  -0.203   5.617  1.00  0.00     0.211 HD
ENDBRANCH  42  48
ENDBRANCH  36  37
ENDBRANCH   9  36
TORSDOF 13
ENDMDL
MODEL 2
REMARK VINA RESULT:    -5.181      3.653      5.847
REMARK INTER + INTRA:          -7.367
REMARK INTER:                  -6.481
REMARK INTRA:                  -0.886
REMARK UNBOUND:                 0.539
REMARK SMILES C[C@H]1O[C@H](Oc2c(-c3ccc(O)cc3)oc3cc(O[C@H]4O[C@H](C)[C@@H](O)[C@@H](O)[C@@H]4O)cc(O)c3c2=O)[C@@H](O)[C@@H](O)[C@@H]1O
REMARK SMILES IDX 18 1 30 2 31 3 33 4 16 5 17 6 15 7 7 8 6 9 34 10 35 11 19 12
REMARK SMILES IDX 20 13 23 14 22 15 24 16 21 17 26 18 28 19 25 20 27 22 29 24
REMARK SMILES IDX 32 26 8 28 9 29 14 30 10 31 13 32 11 33 12 34 5 36 4 37
REMARK SMILES IDX 36 38 3 39 38 40 2 41 40 42 1 43 37 44 39 46 41 48
REMARK H PARENT 25 21 27 23 29 25 32 27 12 35 37 45 39 47 41 49
REMARK Flexibility Score: inf
ROOT
ATOM      1  C   UNL     1       8.993   8.482  -1.783  1.00  0.00     0.130 A 
ATOM      2  C   UNL     1       8.346   8.375  -0.563  1.00  0.00     0.093 A 
ATOM      3  C   UNL     1       8.719   7.403   0.370  1.00  0.00     0.134 A 
ATOM      4  C   UNL     1       9.633   6.374  -0.014  1.00  0.00     0.111 A 
ATOM      5  C   UNL     1      10.117   6.384  -1.353  1.00  0.00     0.146 A 
ATOM      6  C   UNL     1       9.816   7.440  -2.214  1.00  0.00     0.094 A 
ATOM      7  O   UNL     1      10.850   5.377  -1.816  1.00  0.00    -0.452 OA
ATOM      8  C   UNL     1      11.257   4.362  -1.063  1.00  0.00     0.180 A 
ATOM      9  C   UNL     1      10.959   4.348   0.311  1.00  0.00     0.214 A 
ATOM     10  C   UNL     1      10.081   5.326   0.822  1.00  0.00     0.239 A 
ATOM     11  O   UNL     1       9.721   5.244   2.020  1.00  0.00    -0.285 OA
ENDROOT
BRANCH   1  12
ATOM     12  O   UNL     1       8.845   9.667  -2.514  1.00  0.00    -0.462 OA
BRANCH  12  13
ATOM     13  C   UNL     1       8.978  10.966  -1.911  1.00  0.00     0.339 C 
ATOM     14  C   UNL     1      12.032  12.171  -3.576  1.00  0.00     0.042 C 
ATOM     15  C   UNL     1      10.577  11.718  -3.464  1.00  0.00     0.151 C 
ATOM     16  C   UNL     1       9.623  12.803  -4.029  1.00  0.00     0.174 C 
ATOM     17  O   UNL     1      10.294  11.473  -2.091  1.00  0.00    -0.335 OA
ATOM     18  C   UNL     1       8.162  12.369  -3.868  1.00  0.00     0.180 C 
ATOM     19  C   UNL     1       7.899  11.956  -2.415  1.00  0.00     0.214 C 
BRANCH  16  20
ATOM     20  O   UNL     1       9.877  13.081  -5.384  1.00  0.00    -0.388 OA
ATOM     21  H   UNL     1       9.081  13.542  -5.760  1.00  0.00     0.211 HD
ENDBRANCH  16  20
BRANCH  18  22
ATOM     22  O   UNL     1       7.875  11.312  -4.746  1.00  0.00    -0.387 OA
ATOM     23  H   UNL     1       8.727  11.079  -5.221  1.00  0.00     0.211 HD
ENDBRANCH  18  22
BRANCH  19  24
ATOM     24  O   UNL     1       7.875  13.090  -1.597  1.00  0.00    -0.384 OA
ATOM     25  H   UNL     1       8.786  13.492  -1.603  1.00  0.00     0.211 HD
ENDBRANCH  19  24
ENDBRANCH  12  13
ENDBRANCH   1  12
BRANCH   3  26
ATOM     26  O   UNL     1       8.190   7.529   1.662  1.00  0.00    -0.507 OA
ATOM     27  H   UNL     1       8.022   6.761   2.287  1.00  0.00     0.293 HD
ENDBRANCH   3  26
BRANCH   8  28
ATOM     28  C   UNL     1      11.974   3.266  -1.730  1.00  0.00     0.021 A 
ATOM     29  C   UNL     1      11.413   1.982  -1.804  1.00  0.00     0.016 A 
ATOM     30  C   UNL     1      13.293   3.482  -2.175  1.00  0.00     0.016 A 
ATOM     31  C   UNL     1      12.179   0.908  -2.283  1.00  0.00     0.047 A 
ATOM     32  C   UNL     1      14.037   2.417  -2.688  1.00  0.00     0.047 A 
ATOM     33  C   UNL     1      13.494   1.126  -2.715  1.00  0.00     0.115 A 
BRANCH  33  34
ATOM     34  O   UNL     1      14.264   0.059  -3.175  1.00  0.00    -0.508 OA
ATOM     35  H   UNL     1      13.824  -0.797  -3.458  1.00  0.00     0.293 HD
ENDBRANCH  33  34
ENDBRANCH   8  28
BRANCH   9  36
ATOM     36  O   UNL     1      11.539   3.430   1.201  1.00  0.00    -0.454 OA
BRANCH  36  37
ATOM     37  C   UNL     1      12.867   2.924   1.106  1.00  0.00     0.339 C 
ATOM     38  C   UNL     1      12.902   1.548   1.827  1.00  0.00     0.214 C 
ATOM     39  O   UNL     1      13.713   3.875   1.728  1.00  0.00    -0.335 OA
ATOM     40  C   UNL     1      13.907   1.531   2.990  1.00  0.00     0.180 C 
ATOM     41  C   UNL     1      15.074   3.461   1.787  1.00  0.00     0.151 C 
ATOM     42  C   UNL     1      15.263   2.102   2.529  1.00  0.00     0.174 C 
ATOM     43  C   UNL     1      15.743   3.494   0.401  1.00  0.00     0.042 C 
BRANCH  38  44
ATOM     44  O   UNL     1      13.119   0.487   0.925  1.00  0.00    -0.384 OA
ATOM     45  H   UNL     1      14.055   0.157   1.045  1.00  0.00     0.211 HD
ENDBRANCH  38  44
BRANCH  40  46
ATOM     46  O   UNL     1      14.080   0.228   3.490  1.00  0.00    -0.387 OA
ATOM     47  H   UNL     1      14.673   0.309   4.279  1.00  0.00     0.211 HD
ENDBRANCH  40  46
BRANCH  42  48
ATOM     48  O   UNL     1      16.136   2.253   3.619  1.00  0.00    -0.388 OA
ATOM     49  H   UNL     1      15.673   1.901   4.420  1.00  0.00     0.211 HD
ENDBRANCH  42  48
ENDBRANCH  36  37
ENDBRANCH   9  36
TORSDOF 13
ENDMDL
MODEL 3
REMARK VINA RESULT:    -5.034      3.728      5.933
REMARK INTER + INTRA:          -7.144
REMARK INTER:                  -5.765
REMARK INTRA:                  -1.379
REMARK UNBOUND:                 0.539
REMARK SMILES C[C@H]1O[C@H](Oc2c(-c3ccc(O)cc3)oc3cc(O[C@H]4O[C@H](C)[C@@H](O)[C@@H](O)[C@@H]4O)cc(O)c3c2=O)[C@@H](O)[C@@H](O)[C@@H]1O
REMARK SMILES IDX 18 1 30 2 31 3 33 4 16 5 17 6 15 7 7 8 6 9 34 10 35 11 19 12
REMARK SMILES IDX 20 13 23 14 22 15 24 16 21 17 26 18 28 19 25 20 27 22 29 24
REMARK SMILES IDX 32 26 8 28 9 29 14 30 10 31 13 32 11 33 12 34 5 36 4 37
REMARK SMILES IDX 36 38 3 39 38 40 2 41 40 42 1 43 37 44 39 46 41 48
REMARK H PARENT 25 21 27 23 29 25 32 27 12 35 37 45 39 47 41 49
REMARK Flexibility Score: inf
ROOT
ATOM      1  C   UNL     1       9.214   8.445  -1.939  1.00  0.00     0.130 A 
ATOM      2  C   UNL     1       8.410   8.406  -0.812  1.00  0.00     0.093 A 
ATOM      3  C   UNL     1       8.558   7.399   0.147  1.00  0.00     0.134 A 
ATOM      4  C   UNL     1       9.401   6.280  -0.133  1.00  0.00     0.111 A 
ATOM      5  C   UNL     1      10.049   6.239  -1.399  1.00  0.00     0.146 A 
ATOM      6  C   UNL     1       9.971   7.322  -2.277  1.00  0.00     0.094 A 
ATOM      7  O   UNL     1      10.726   5.161  -1.780  1.00  0.00    -0.452 OA
ATOM      8  C   UNL     1      10.926   4.108  -0.996  1.00  0.00     0.180 A 
ATOM      9  C   UNL     1      10.456   4.125   0.329  1.00  0.00     0.214 A 
ATOM     10  C   UNL     1       9.627   5.190   0.738  1.00  0.00     0.239 A 
ATOM     11  O   UNL     1       9.110   5.146   1.880  1.00  0.00    -0.285 OA
ENDROOT
BRANCH   1  12
ATOM     12  O   UNL     1       9.285   9.639  -2.667  1.00  0.00    -0.462 OA
BRANCH  12  13
ATOM     13  C   UNL     1       9.270  10.929  -2.031  1.00  0.00     0.339 C 
ATOM     14  C   UNL     1      11.937  12.635  -3.910  1.00  0.00     0.042 C 
ATOM     15  C   UNL     1      10.587  11.956  -3.688  1.00  0.00     0.151 C 
ATOM     16  C   UNL     1       9.429  12.889  -4.132  1.00  0.00     0.174 C 
ATOM     17  O   UNL     1      10.469  11.641  -2.306  1.00  0.00    -0.335 OA
ATOM     18  C   UNL     1       8.073  12.228  -3.861  1.00  0.00     0.180 C 
ATOM     19  C   UNL     1       8.009  11.748  -2.406  1.00  0.00     0.214 C 
BRANCH  16  20
ATOM     20  O   UNL     1       9.514  13.233  -5.493  1.00  0.00    -0.388 OA
ATOM     21  H   UNL     1       9.198  12.458  -6.029  1.00  0.00     0.211 HD
ENDBRANCH  16  20
BRANCH  18  22
ATOM     22  O   UNL     1       7.875  11.158  -4.748  1.00  0.00    -0.387 OA
ATOM     23  H   UNL     1       8.765  10.937  -5.152  1.00  0.00     0.211 HD
ENDBRANCH  18  22
BRANCH  19  24
ATOM     24  O   UNL     1       7.884  12.847  -1.550  1.00  0.00    -0.384 OA
ATOM     25  H   UNL     1       8.721  13.383  -1.614  1.00  0.00     0.211 HD
ENDBRANCH  19  24
ENDBRANCH  12  13
ENDBRANCH   1  12
BRANCH   3  26
ATOM     26  O   UNL     1       7.885   7.580   1.364  1.00  0.00    -0.507 OA
ATOM     27  H   UNL     1       7.804   8.456   1.847  1.00  0.00     0.293 HD
ENDBRANCH   3  26
BRANCH   8  28
ATOM     28  C   UNL     1      11.602   2.943  -1.582  1.00  0.00     0.021 A 
ATOM     29  C   UNL     1      10.974   1.689  -1.613  1.00  0.00     0.016 A 
ATOM     30  C   UNL     1      12.945   3.066  -1.991  1.00  0.00     0.016 A 
ATOM     31  C   UNL     1      11.695   0.553  -2.011  1.00  0.00     0.047 A 
ATOM     32  C   UNL     1      13.646   1.938  -2.423  1.00  0.00     0.047 A 
ATOM     33  C   UNL     1      13.034   0.678  -2.407  1.00  0.00     0.115 A 
BRANCH  33  34
ATOM     34  O   UNL     1      13.759  -0.450  -2.785  1.00  0.00    -0.508 OA
ATOM     35  H   UNL     1      13.877  -0.673  -3.756  1.00  0.00     0.293 HD
ENDBRANCH  33  34
ENDBRANCH   8  28
BRANCH   9  36
ATOM     36  O   UNL     1      10.818   3.151   1.272  1.00  0.00    -0.454 OA
BRANCH  36  37
ATOM     37  C   UNL     1      12.060   3.106   1.969  1.00  0.00     0.339 C 
ATOM     38  C   UNL     1      12.792   4.453   1.717  1.00  0.00     0.214 C 
ATOM     39  O   UNL     1      12.780   2.001   1.453  1.00  0.00    -0.335 OA
ATOM     40  C   UNL     1      14.157   4.249   1.041  1.00  0.00     0.180 C 
ATOM     41  C   UNL     1      14.089   1.881   1.998  1.00  0.00     0.151 C 
ATOM     42  C   UNL     1      14.958   3.157   1.778  1.00  0.00     0.174 C 
ATOM     43  C   UNL     1      14.058   1.415   3.465  1.00  0.00     0.042 C 
BRANCH  38  44
ATOM     44  O   UNL     1      12.894   5.224   2.891  1.00  0.00    -0.384 OA
ATOM     45  H   UNL     1      12.230   5.970   2.839  1.00  0.00     0.211 HD
ENDBRANCH  38  44
BRANCH  40  46
ATOM     46  O   UNL     1      14.893   5.448   1.015  1.00  0.00    -0.387 OA
ATOM     47  H   UNL     1      14.446   6.035   0.354  1.00  0.00     0.211 HD
ENDBRANCH  40  46
BRANCH  42  48
ATOM     48  O   UNL     1      16.131   2.839   1.073  1.00  0.00    -0.388 OA
ATOM     49  H   UNL     1      16.707   3.645   1.079  1.00  0.00     0.211 HD
ENDBRANCH  42  48
ENDBRANCH  36  37
ENDBRANCH   9  36
TORSDOF 13
ENDMDL
MODEL 4
REMARK VINA RESULT:    -3.198     15.510     18.044
REMARK INTER + INTRA:          -4.341
REMARK INTER:                  -4.004
REMARK INTRA:                  -0.337
REMARK UNBOUND:                 0.539
REMARK SMILES C[C@H]1O[C@H](Oc2c(-c3ccc(O)cc3)oc3cc(O[C@H]4O[C@H](C)[C@@H](O)[C@@H](O)[C@@H]4O)cc(O)c3c2=O)[C@@H](O)[C@@H](O)[C@@H]1O
REMARK SMILES IDX 18 1 30 2 31 3 33 4 16 5 17 6 15 7 7 8 6 9 34 10 35 11 19 12
REMARK SMILES IDX 20 13 23 14 22 15 24 16 21 17 26 18 28 19 25 20 27 22 29 24
REMARK SMILES IDX 32 26 8 28 9 29 14 30 10 31 13 32 11 33 12 34 5 36 4 37
REMARK SMILES IDX 36 38 3 39 38 40 2 41 40 42 1 43 37 44 39 46 41 48
REMARK H PARENT 25 21 27 23 29 25 32 27 12 35 37 45 39 47 41 49
REMARK Flexibility Score: inf
ROOT
ATOM      1  C   UNL     1      18.916  16.861   0.957  1.00  0.00     0.130 A 
ATOM      2  C   UNL     1      20.110  16.760   0.263  1.00  0.00     0.093 A 
ATOM      3  C   UNL     1      21.332  16.672   0.936  1.00  0.00     0.134 A 
ATOM      4  C   UNL     1      21.376  16.896   2.347  1.00  0.00     0.111 A 
ATOM      5  C   UNL     1      20.155  17.215   3.004  1.00  0.00     0.146 A 
ATOM      6  C   UNL     1      18.940  17.174   2.317  1.00  0.00     0.094 A 
ATOM      7  O   UNL     1      20.149  17.579   4.283  1.00  0.00    -0.452 OA
ATOM      8  C   UNL     1      21.233  17.580   5.048  1.00  0.00     0.180 A 
ATOM      9  C   UNL     1      22.458  17.127   4.525  1.00  0.00     0.214 A 
ATOM     10  C   UNL     1      22.542  16.851   3.145  1.00  0.00     0.239 A 
ATOM     11  O   UNL     1      23.660  16.562   2.656  1.00  0.00    -0.285 OA
ENDROOT
BRANCH   1  12
ATOM     12  O   UNL     1      17.724  16.582   0.278  1.00  0.00    -0.462 OA
BRANCH  12  13
ATOM     13  C   UNL     1      17.450  17.095  -1.038  1.00  0.00     0.339 C 
ATOM     14  C   UNL     1      14.017  15.865  -1.538  1.00  0.00     0.042 C 
ATOM     15  C   UNL     1      15.136  16.690  -0.906  1.00  0.00     0.151 C 
ATOM     16  C   UNL     1      14.795  18.202  -0.960  1.00  0.00     0.174 C 
ATOM     17  O   UNL     1      16.339  16.426  -1.619  1.00  0.00    -0.335 OA
ATOM     18  C   UNL     1      15.943  19.032  -0.373  1.00  0.00     0.180 C 
ATOM     19  C   UNL     1      17.266  18.633  -1.036  1.00  0.00     0.214 C 
BRANCH  16  20
ATOM     20  O   UNL     1      13.605  18.504  -0.273  1.00  0.00    -0.388 OA
ATOM     21  H   UNL     1      13.803  18.509   0.701  1.00  0.00     0.211 HD
ENDBRANCH  16  20
BRANCH  18  22
ATOM     22  O   UNL     1      16.006  18.847   1.017  1.00  0.00    -0.387 OA
ATOM     23  H   UNL     1      15.978  17.860   1.189  1.00  0.00     0.211 HD
ENDBRANCH  18  22
BRANCH  19  24
ATOM     24  O   UNL     1      17.303  19.118  -2.348  1.00  0.00    -0.384 OA
ATOM     25  H   UNL     1      16.807  19.981  -2.370  1.00  0.00     0.211 HD
ENDBRANCH  19  24
ENDBRANCH  12  13
ENDBRANCH   1  12
BRANCH   3  26
ATOM     26  O   UNL     1      22.453  16.320   0.170  1.00  0.00    -0.507 OA
ATOM     27  H   UNL     1      22.451  16.211  -0.828  1.00  0.00     0.293 HD
ENDBRANCH   3  26
BRANCH   8  28
ATOM     28  C   UNL     1      21.101  18.104   6.414  1.00  0.00     0.021 A 
ATOM     29  C   UNL     1      22.168  18.774   7.032  1.00  0.00     0.016 A 
ATOM     30  C   UNL     1      19.936  17.810   7.150  1.00  0.00     0.016 A 
ATOM     31  C   UNL     1      22.092  19.111   8.392  1.00  0.00     0.047 A 
ATOM     32  C   UNL     1      19.850  18.184   8.493  1.00  0.00     0.047 A 
ATOM     33  C   UNL     1      20.936  18.807   9.123  1.00  0.00     0.115 A 
BRANCH  33  34
ATOM     34  O   UNL     1      20.862  19.125  10.478  1.00  0.00    -0.508 OA
ATOM     35  H   UNL     1      20.403  18.503  11.118  1.00  0.00     0.293 HD
ENDBRANCH  33  34
ENDBRANCH   8  28
BRANCH   9  36
ATOM     36  O   UNL     1      23.584  16.894   5.330  1.00  0.00    -0.454 OA
BRANCH  36  37
ATOM     37  C   UNL     1      24.758  16.200   4.916  1.00  0.00     0.339 C 
ATOM     38  C   UNL     1      24.602  14.714   5.339  1.00  0.00     0.214 C 
ATOM     39  O   UNL     1      25.852  16.827   5.559  1.00  0.00    -0.335 OA
ATOM     40  C   UNL     1      25.722  14.264   6.290  1.00  0.00     0.180 C 
ATOM     41  C   UNL     1      27.096  16.182   5.307  1.00  0.00     0.151 C 
ATOM     42  C   UNL     1      27.097  14.680   5.727  1.00  0.00     0.174 C 
ATOM     43  C   UNL     1      27.575  16.407   3.861  1.00  0.00     0.042 C 
BRANCH  38  44
ATOM     44  O   UNL     1      24.480  13.860   4.225  1.00  0.00    -0.384 OA
ATOM     45  H   UNL     1      25.349  13.858   3.731  1.00  0.00     0.211 HD
ENDBRANCH  38  44
BRANCH  40  46
ATOM     46  O   UNL     1      25.688  12.872   6.490  1.00  0.00    -0.387 OA
ATOM     47  H   UNL     1      25.444  12.470   5.619  1.00  0.00     0.211 HD
ENDBRANCH  40  46
BRANCH  42  48
ATOM     48  O   UNL     1      28.114  14.430   6.663  1.00  0.00    -0.388 OA
ATOM     49  H   UNL     1      28.700  15.229   6.682  1.00  0.00     0.211 HD
ENDBRANCH  42  48
ENDBRANCH  36  37
ENDBRANCH   9  36
TORSDOF 13
ENDMDL
