MODEL 1
REMARK VINA RESULT:    -3.876      0.000      0.000
REMARK INTER + INTRA:          -6.564
REMARK INTER:                  -5.916
REMARK INTRA:                  -0.648
REMARK UNBOUND:                -0.648
REMARK SMILES O=C([O-])CCCCCCCCC(=O)[O-]
REMARK SMILES IDX 7 1 6 2 5 3 4 4 2 5 1 6 3 7 8 8 9 9 10 10 11 11 12 12 13 13
REMARK SMILES IDX 14 14
REMARK H PARENT
REMARK Flexibility Score: inf
ROOT
ATOM      1  C   UNL     1     -10.471 -11.885  14.311  1.00  0.00     0.000 C 
ENDROOT
BRANCH   1   2
ATOM      2  C   UNL     1     -11.302 -11.293  15.457  1.00  0.00     0.000 C 
BRANCH   2   3
ATOM      3  C   UNL     1     -10.814 -11.815  16.817  1.00  0.00     0.006 C 
BRANCH   3   4
ATOM      4  C   UNL     1     -11.975 -12.173  17.754  1.00  0.00     0.053 C 
BRANCH   4   5
ATOM      5  C   UNL     1     -12.873 -11.001  18.000  1.00  0.00     0.041 C 
ATOM      6  O   UNL     1     -12.462 -10.019  18.672  1.00  0.00    -0.550 OA
ATOM      7  O   UNL     1     -14.175 -11.007  17.516  1.00  0.00    -0.550 OA
ENDBRANCH   4   5
ENDBRANCH   3   4
ENDBRANCH   2   3
ENDBRANCH   1   2
BRANCH   1   8
ATOM      8  C   UNL     1      -9.107 -12.425  14.777  1.00  0.00     0.000 C 
BRANCH   8   9
ATOM      9  C   UNL     1      -8.837 -13.903  14.429  1.00  0.00     0.000 C 
BRANCH   9  10
ATOM     10  C   UNL     1      -7.676 -14.558  15.205  1.00  0.00     0.006 C 
BRANCH  10  11
ATOM     11  C   UNL     1      -8.096 -15.244  16.514  1.00  0.00     0.053 C 
BRANCH  11  12
ATOM     12  C   UNL     1      -7.857 -14.367  17.706  1.00  0.00     0.041 C 
ATOM     13  O   UNL     1      -7.046 -13.408  17.634  1.00  0.00    -0.550 OA
ATOM     14  O   UNL     1      -8.509 -14.631  18.904  1.00  0.00    -0.550 OA
ENDBRANCH  11  12
ENDBRANCH  10  11
ENDBRANCH   9  10
ENDBRANCH   8   9
ENDBRANCH   1   8
TORSDOF 9
ENDMDL
MODEL 2
REMARK VINA RESULT:    -3.793     16.927     17.984
REMARK INTER + INTRA:          -6.438
REMARK INTER:                  -6.027
REMARK INTRA:                  -0.411
REMARK UNBOUND:                -0.648
REMARK SMILES O=C([O-])CCCCCCCCC(=O)[O-]
REMARK SMILES IDX 7 1 6 2 5 3 4 4 2 5 1 6 3 7 8 8 9 9 10 10 11 11 12 12 13 13
REMARK SMILES IDX 14 14
REMARK H PARENT
REMARK Flexibility Score: inf
ROOT
ATOM      1  C   UNL     1       0.993 -14.655  30.848  1.00  0.00     0.000 C 
ENDROOT
BRANCH   1   2
ATOM      2  C   UNL     1       0.458 -13.298  31.326  1.00  0.00     0.000 C 
BRANCH   2   3
ATOM      3  C   UNL     1       1.561 -12.230  31.295  1.00  0.00     0.006 C 
BRANCH   3   4
ATOM      4  C   UNL     1       1.013 -10.821  31.557  1.00  0.00     0.053 C 
BRANCH   4   5
ATOM      5  C   UNL     1       1.826  -9.770  30.865  1.00  0.00     0.041 C 
ATOM      6  O   UNL     1       2.732 -10.102  30.056  1.00  0.00    -0.550 OA
ATOM      7  O   UNL     1       1.605  -8.427  31.138  1.00  0.00    -0.550 OA
ENDBRANCH   4   5
ENDBRANCH   3   4
ENDBRANCH   2   3
ENDBRANCH   1   2
BRANCH   1   8
ATOM      8  C   UNL     1      -0.070 -15.767  30.892  1.00  0.00     0.000 C 
BRANCH   8   9
ATOM      9  C   UNL     1      -0.754 -16.070  29.543  1.00  0.00     0.000 C 
BRANCH   9  10
ATOM     10  C   UNL     1      -0.294 -17.370  28.852  1.00  0.00     0.006 C 
BRANCH  10  11
ATOM     11  C   UNL     1       0.843 -17.179  27.836  1.00  0.00     0.053 C 
BRANCH  11  12
ATOM     12  C   UNL     1       2.188 -17.422  28.452  1.00  0.00     0.041 C 
ATOM     13  O   UNL     1       2.486 -18.563  28.892  1.00  0.00    -0.550 OA
ATOM     14  O   UNL     1       3.098 -16.379  28.567  1.00  0.00    -0.550 OA
ENDBRANCH  11  12
ENDBRANCH  10  11
ENDBRANCH   9  10
ENDBRANCH   8   9
ENDBRANCH   1   8
TORSDOF 9
ENDMDL
MODEL 3
REMARK VINA RESULT:    -3.728     12.406     15.584
REMARK INTER + INTRA:          -6.337
REMARK INTER:                  -5.716
REMARK INTRA:                  -0.622
REMARK UNBOUND:                -0.648
REMARK SMILES O=C([O-])CCCCCCCCC(=O)[O-]
REMARK SMILES IDX 7 1 6 2 5 3 4 4 2 5 1 6 3 7 8 8 9 9 10 10 11 11 12 12 13 13
REMARK SMILES IDX 14 14
REMARK H PARENT
REMARK Flexibility Score: inf
ROOT
ATOM      1  C   UNL     1       1.159 -17.649  28.813  1.00  0.00     0.000 C 
ENDROOT
BRANCH   1   2
ATOM      2  C   UNL     1       0.968 -19.023  29.467  1.00  0.00     0.000 C 
BRANCH   2   3
ATOM      3  C   UNL     1      -0.473 -19.199  29.968  1.00  0.00     0.006 C 
BRANCH   3   4
ATOM      4  C   UNL     1      -1.125 -20.479  29.429  1.00  0.00     0.053 C 
BRANCH   4   5
ATOM      5  C   UNL     1      -2.437 -20.199  28.764  1.00  0.00     0.041 C 
ATOM      6  O   UNL     1      -3.436 -19.861  29.452  1.00  0.00    -0.550 OA
ATOM      7  O   UNL     1      -2.565 -20.342  27.389  1.00  0.00    -0.550 OA
ENDBRANCH   4   5
ENDBRANCH   3   4
ENDBRANCH   2   3
ENDBRANCH   1   2
BRANCH   1   8
ATOM      8  C   UNL     1      -0.167 -17.009  28.364  1.00  0.00     0.000 C 
BRANCH   8   9
ATOM      9  C   UNL     1      -0.490 -17.160  26.864  1.00  0.00     0.000 C 
BRANCH   9  10
ATOM     10  C   UNL     1      -1.965 -16.918  26.483  1.00  0.00     0.006 C 
BRANCH  10  11
ATOM     11  C   UNL     1      -2.435 -15.465  26.658  1.00  0.00     0.053 C 
BRANCH  11  12
ATOM     12  C   UNL     1      -3.562 -15.128  25.730  1.00  0.00     0.041 C 
ATOM     13  O   UNL     1      -3.393 -14.287  24.808  1.00  0.00    -0.550 OA
ATOM     14  O   UNL     1      -4.806 -15.719  25.905  1.00  0.00    -0.550 OA
ENDBRANCH  11  12
ENDBRANCH  10  11
ENDBRANCH   9  10
ENDBRANCH   8   9
ENDBRANCH   1   8
TORSDOF 9
ENDMDL
MODEL 4
REMARK VINA RESULT:    -3.707     10.248     12.702
REMARK INTER + INTRA:          -6.306
REMARK INTER:                  -5.785
REMARK INTRA:                  -0.521
REMARK UNBOUND:                -0.648
REMARK SMILES O=C([O-])CCCCCCCCC(=O)[O-]
REMARK SMILES IDX 7 1 6 2 5 3 4 4 2 5 1 6 3 7 8 8 9 9 10 10 11 11 12 12 13 13
REMARK SMILES IDX 14 14
REMARK H PARENT
REMARK Flexibility Score: inf
ROOT
ATOM      1  C   UNL     1     -12.336 -10.154  26.549  1.00  0.00     0.000 C 
ENDROOT
BRANCH   1   2
ATOM      2  C   UNL     1     -12.784  -9.666  27.934  1.00  0.00     0.000 C 
BRANCH   2   3
ATOM      3  C   UNL     1     -11.576  -9.262  28.793  1.00  0.00     0.006 C 
BRANCH   3   4
ATOM      4  C   UNL     1     -11.426  -7.739  28.905  1.00  0.00     0.053 C 
BRANCH   4   5
ATOM      5  C   UNL     1     -11.360  -7.290  30.332  1.00  0.00     0.041 C 
ATOM      6  O   UNL     1     -11.370  -6.062  30.610  1.00  0.00    -0.550 OA
ATOM      7  O   UNL     1     -11.255  -8.226  31.353  1.00  0.00    -0.550 OA
ENDBRANCH   4   5
ENDBRANCH   3   4
ENDBRANCH   2   3
ENDBRANCH   1   2
BRANCH   1   8
ATOM      8  C   UNL     1     -12.927  -9.318  25.399  1.00  0.00     0.000 C 
BRANCH   8   9
ATOM      9  C   UNL     1     -12.447  -7.854  25.343  1.00  0.00     0.000 C 
BRANCH   9  10
ATOM     10  C   UNL     1     -12.751  -7.114  24.024  1.00  0.00     0.006 C 
BRANCH  10  11
ATOM     11  C   UNL     1     -13.842  -6.038  24.138  1.00  0.00     0.053 C 
BRANCH  11  12
ATOM     12  C   UNL     1     -15.192  -6.637  24.394  1.00  0.00     0.041 C 
ATOM     13  O   UNL     1     -15.816  -7.213  23.466  1.00  0.00    -0.550 OA
ATOM     14  O   UNL     1     -15.771  -6.530  25.652  1.00  0.00    -0.550 OA
ENDBRANCH  11  12
ENDBRANCH  10  11
ENDBRANCH   9  10
ENDBRANCH   8   9
ENDBRANCH   1   8
TORSDOF 9
ENDMDL
MODEL 5
REMARK VINA RESULT:    -3.688     13.027     14.996
REMARK INTER + INTRA:          -6.278
REMARK INTER:                  -5.752
REMARK INTRA:                  -0.526
REMARK UNBOUND:                -0.648
REMARK SMILES O=C([O-])CCCCCCCCC(=O)[O-]
REMARK SMILES IDX 7 1 6 2 5 3 4 4 2 5 1 6 3 7 8 8 9 9 10 10 11 11 12 12 13 13
REMARK SMILES IDX 14 14
REMARK H PARENT
REMARK Flexibility Score: inf
ROOT
ATOM      1  C   UNL     1      -9.579 -20.138  30.590  1.00  0.00     0.000 C 
ENDROOT
BRANCH   1   2
ATOM      2  C   UNL     1     -10.953 -19.536  30.914  1.00  0.00     0.000 C 
BRANCH   2   3
ATOM      3  C   UNL     1     -11.682 -19.107  29.632  1.00  0.00     0.006 C 
BRANCH   3   4
ATOM      4  C   UNL     1     -10.783 -19.202  28.392  1.00  0.00     0.053 C 
BRANCH   4   5
ATOM      5  C   UNL     1     -10.749 -17.913  27.630  1.00  0.00     0.041 C 
ATOM      6  O   UNL     1     -11.049 -17.893  26.408  1.00  0.00    -0.550 OA
ATOM      7  O   UNL     1     -10.353 -16.741  28.261  1.00  0.00    -0.550 OA
ENDBRANCH   4   5
ENDBRANCH   3   4
ENDBRANCH   2   3
ENDBRANCH   1   2
BRANCH   1   8
ATOM      8  C   UNL     1      -9.315 -21.461  31.332  1.00  0.00     0.000 C 
BRANCH   8   9
ATOM      9  C   UNL     1      -8.209 -22.344  30.720  1.00  0.00     0.000 C 
BRANCH   9  10
ATOM     10  C   UNL     1      -7.422 -21.701  29.561  1.00  0.00     0.006 C 
BRANCH  10  11
ATOM     11  C   UNL     1      -5.986 -22.225  29.402  1.00  0.00     0.053 C 
BRANCH  11  12
ATOM     12  C   UNL     1      -5.722 -22.716  28.011  1.00  0.00     0.041 C 
ATOM     13  O   UNL     1      -6.250 -23.784  27.606  1.00  0.00    -0.550 OA
ATOM     14  O   UNL     1      -4.866 -22.010  27.176  1.00  0.00    -0.550 OA
ENDBRANCH  11  12
ENDBRANCH  10  11
ENDBRANCH   9  10
ENDBRANCH   8   9
ENDBRANCH   1   8
TORSDOF 9
ENDMDL
MODEL 6
REMARK VINA RESULT:    -3.673     12.554     15.911
REMARK INTER + INTRA:          -6.254
REMARK INTER:                  -5.835
REMARK INTRA:                  -0.419
REMARK UNBOUND:                -0.648
REMARK SMILES O=C([O-])CCCCCCCCC(=O)[O-]
REMARK SMILES IDX 7 1 6 2 5 3 4 4 2 5 1 6 3 7 8 8 9 9 10 10 11 11 12 12 13 13
REMARK SMILES IDX 14 14
REMARK H PARENT
REMARK Flexibility Score: inf
ROOT
ATOM      1  C   UNL     1      -1.339 -17.337  28.537  1.00  0.00     0.000 C 
ENDROOT
BRANCH   1   2
ATOM      2  C   UNL     1       0.134 -17.047  28.856  1.00  0.00     0.000 C 
BRANCH   2   3
ATOM      3  C   UNL     1       0.882 -18.337  29.225  1.00  0.00     0.006 C 
BRANCH   3   4
ATOM      4  C   UNL     1      -0.026 -19.353  29.931  1.00  0.00     0.053 C 
BRANCH   4   5
ATOM      5  C   UNL     1       0.646 -20.682  30.091  1.00  0.00     0.041 C 
ATOM      6  O   UNL     1       0.037 -21.636  30.643  1.00  0.00    -0.550 OA
ATOM      7  O   UNL     1       1.954 -20.858  29.661  1.00  0.00    -0.550 OA
ENDBRANCH   4   5
ENDBRANCH   3   4
ENDBRANCH   2   3
ENDBRANCH   1   2
BRANCH   1   8
ATOM      8  C   UNL     1      -1.577 -17.664  27.052  1.00  0.00     0.000 C 
BRANCH   8   9
ATOM      9  C   UNL     1      -1.729 -16.438  26.130  1.00  0.00     0.000 C 
BRANCH   9  10
ATOM     10  C   UNL     1      -2.778 -15.402  26.582  1.00  0.00     0.006 C 
BRANCH  10  11
ATOM     11  C   UNL     1      -4.071 -15.407  25.752  1.00  0.00     0.053 C 
BRANCH  11  12
ATOM     12  C   UNL     1      -3.822 -15.015  24.327  1.00  0.00     0.041 C 
ATOM     13  O   UNL     1      -4.272 -15.721  23.388  1.00  0.00    -0.550 OA
ATOM     14  O   UNL     1      -3.064 -13.887  24.040  1.00  0.00    -0.550 OA
ENDBRANCH  11  12
ENDBRANCH  10  11
ENDBRANCH   9  10
ENDBRANCH   8   9
ENDBRANCH   1   8
TORSDOF 9
ENDMDL
MODEL 7
REMARK VINA RESULT:    -3.653      9.887     11.293
REMARK INTER + INTRA:          -6.224
REMARK INTER:                  -5.155
REMARK INTRA:                  -1.069
REMARK UNBOUND:                -0.648
REMARK SMILES O=C([O-])CCCCCCCCC(=O)[O-]
REMARK SMILES IDX 7 1 6 2 5 3 4 4 2 5 1 6 3 7 8 8 9 9 10 10 11 11 12 12 13 13
REMARK SMILES IDX 14 14
REMARK H PARENT
REMARK Flexibility Score: inf
ROOT
ATOM      1  C   UNL     1     -14.450 -10.376  25.783  1.00  0.00     0.000 C 
ENDROOT
BRANCH   1   2
ATOM      2  C   UNL     1     -14.883  -9.347  26.837  1.00  0.00     0.000 C 
BRANCH   2   3
ATOM      3  C   UNL     1     -14.901  -7.929  26.246  1.00  0.00     0.006 C 
BRANCH   3   4
ATOM      4  C   UNL     1     -14.502  -7.912  24.764  1.00  0.00     0.053 C 
BRANCH   4   5
ATOM      5  C   UNL     1     -13.657  -6.722  24.430  1.00  0.00     0.041 C 
ATOM      6  O   UNL     1     -14.145  -5.562  24.489  1.00  0.00    -0.550 OA
ATOM      7  O   UNL     1     -12.341  -6.894  24.021  1.00  0.00    -0.550 OA
ENDBRANCH   4   5
ENDBRANCH   3   4
ENDBRANCH   2   3
ENDBRANCH   1   2
BRANCH   1   8
ATOM      8  C   UNL     1     -13.136 -11.090  26.149  1.00  0.00     0.000 C 
BRANCH   8   9
ATOM      9  C   UNL     1     -11.865 -10.473  25.532  1.00  0.00     0.000 C 
BRANCH   9  10
ATOM     10  C   UNL     1     -10.885  -9.842  26.542  1.00  0.00     0.006 C 
BRANCH  10  11
ATOM     11  C   UNL     1     -11.291  -8.442  27.028  1.00  0.00     0.053 C 
BRANCH  11  12
ATOM     12  C   UNL     1     -11.532  -8.413  28.507  1.00  0.00     0.041 C 
ATOM     13  O   UNL     1     -11.289  -7.369  29.168  1.00  0.00    -0.550 OA
ATOM     14  O   UNL     1     -11.994  -9.549  29.158  1.00  0.00    -0.550 OA
ENDBRANCH  11  12
ENDBRANCH  10  11
ENDBRANCH   9  10
ENDBRANCH   8   9
ENDBRANCH   1   8
TORSDOF 9
ENDMDL
MODEL 8
REMARK VINA RESULT:    -3.619      9.562     11.436
REMARK INTER + INTRA:          -6.171
REMARK INTER:                  -5.390
REMARK INTRA:                  -0.781
REMARK UNBOUND:                -0.648
REMARK SMILES O=C([O-])CCCCCCCCC(=O)[O-]
REMARK SMILES IDX 7 1 6 2 5 3 4 4 2 5 1 6 3 7 8 8 9 9 10 10 11 11 12 12 13 13
REMARK SMILES IDX 14 14
REMARK H PARENT
REMARK Flexibility Score: inf
ROOT
ATOM      1  C   UNL     1     -14.962  -7.917  26.665  1.00  0.00     0.000 C 
ENDROOT
BRANCH   1   2
ATOM      2  C   UNL     1     -15.533  -7.360  25.354  1.00  0.00     0.000 C 
BRANCH   2   3
ATOM      3  C   UNL     1     -14.855  -6.033  24.978  1.00  0.00     0.006 C 
BRANCH   3   4
ATOM      4  C   UNL     1     -14.312  -6.044  23.543  1.00  0.00     0.053 C 
BRANCH   4   5
ATOM      5  C   UNL     1     -13.118  -6.937  23.406  1.00  0.00     0.041 C 
ATOM      6  O   UNL     1     -12.148  -6.823  24.201  1.00  0.00    -0.550 OA
ATOM      7  O   UNL     1     -13.062  -7.873  22.382  1.00  0.00    -0.550 OA
ENDBRANCH   4   5
ENDBRANCH   3   4
ENDBRANCH   2   3
ENDBRANCH   1   2
BRANCH   1   8
ATOM      8  C   UNL     1     -14.583  -9.406  26.568  1.00  0.00     0.000 C 
BRANCH   8   9
ATOM      9  C   UNL     1     -13.306  -9.703  25.757  1.00  0.00     0.000 C 
BRANCH   9  10
ATOM     10  C   UNL     1     -12.027  -9.901  26.596  1.00  0.00     0.006 C 
BRANCH  10  11
ATOM     11  C   UNL     1     -11.444  -8.604  27.178  1.00  0.00     0.053 C 
BRANCH  11  12
ATOM     12  C   UNL     1     -11.593  -8.545  28.668  1.00  0.00     0.041 C 
ATOM     13  O   UNL     1     -11.957  -9.565  29.310  1.00  0.00    -0.550 OA
ATOM     14  O   UNL     1     -11.359  -7.353  29.343  1.00  0.00    -0.550 OA
ENDBRANCH  11  12
ENDBRANCH  10  11
ENDBRANCH   9  10
ENDBRANCH   8   9
ENDBRANCH   1   8
TORSDOF 9
ENDMDL
MODEL 9
REMARK VINA RESULT:    -3.615     13.827     16.617
REMARK INTER + INTRA:          -6.165
REMARK INTER:                  -5.720
REMARK INTRA:                  -0.445
REMARK UNBOUND:                -0.648
REMARK SMILES O=C([O-])CCCCCCCCC(=O)[O-]
REMARK SMILES IDX 7 1 6 2 5 3 4 4 2 5 1 6 3 7 8 8 9 9 10 10 11 11 12 12 13 13
REMARK SMILES IDX 14 14
REMARK H PARENT
REMARK Flexibility Score: inf
ROOT
ATOM      1  C   UNL     1      -0.689 -16.089  30.365  1.00  0.00     0.000 C 
ENDROOT
BRANCH   1   2
ATOM      2  C   UNL     1       0.744 -15.549  30.266  1.00  0.00     0.000 C 
BRANCH   2   3
ATOM      3  C   UNL     1       0.899 -14.249  31.070  1.00  0.00     0.006 C 
BRANCH   3   4
ATOM      4  C   UNL     1       2.303 -13.646  30.935  1.00  0.00     0.053 C 
BRANCH   4   5
ATOM      5  C   UNL     1       2.260 -12.153  30.821  1.00  0.00     0.041 C 
ATOM      6  O   UNL     1       1.261 -11.515  31.246  1.00  0.00    -0.550 OA
ATOM      7  O   UNL     1       3.306 -11.470  30.216  1.00  0.00    -0.550 OA
ENDBRANCH   4   5
ENDBRANCH   3   4
ENDBRANCH   2   3
ENDBRANCH   1   2
BRANCH   1   8
ATOM      8  C   UNL     1      -0.958 -17.255  29.396  1.00  0.00     0.000 C 
BRANCH   8   9
ATOM      9  C   UNL     1      -0.178 -17.193  28.067  1.00  0.00     0.000 C 
BRANCH   9  10
ATOM     10  C   UNL     1      -1.036 -16.927  26.814  1.00  0.00     0.006 C 
BRANCH  10  11
ATOM     11  C   UNL     1      -2.551 -16.943  27.069  1.00  0.00     0.053 C 
BRANCH  11  12
ATOM     12  C   UNL     1      -3.219 -15.708  26.544  1.00  0.00     0.041 C 
ATOM     13  O   UNL     1      -2.605 -14.609  26.541  1.00  0.00    -0.550 OA
ATOM     14  O   UNL     1      -4.529 -15.767  26.088  1.00  0.00    -0.550 OA
ENDBRANCH  11  12
ENDBRANCH  10  11
ENDBRANCH   9  10
ENDBRANCH   8   9
ENDBRANCH   1   8
TORSDOF 9
ENDMDL
