MODEL 1
REMARK VINA RESULT:    -4.966      0.000      0.000
REMARK INTER + INTRA:          -5.961
REMARK INTER:                  -5.836
REMARK INTRA:                  -0.125
REMARK UNBOUND:                -0.125
REMARK SMILES O=C([O-])C=Cc1ccc(O)c(O)c1
REMARK SMILES IDX 6 1 13 2 7 3 11 4 8 5 9 6 5 7 4 8 2 9 1 10 3 11 12 12 10 14
REMARK H PARENT 12 13 10 15
REMARK Flexibility Score: inf
ROOT
ATOM      1  C   UNL     1     477.791  35.840 461.486  1.00  0.00    -0.022 A 
ATOM      2  C   UNL     1     478.387  34.912 460.611  1.00  0.00     0.058 A 
ATOM      3  C   UNL     1     478.219  37.175 461.449  1.00  0.00     0.012 A 
ATOM      4  C   UNL     1     479.372  35.312 459.698  1.00  0.00     0.157 A 
ATOM      5  C   UNL     1     479.198  37.582 460.541  1.00  0.00     0.051 A 
ATOM      6  C   UNL     1     479.779  36.665 459.658  1.00  0.00     0.157 A 
ENDROOT
BRANCH   1   7
ATOM      7  C   UNL     1     476.753  35.454 462.474  1.00  0.00     0.010 C 
ATOM      8  C   UNL     1     476.212  34.229 462.547  1.00  0.00     0.025 C 
BRANCH   8   9
ATOM      9  C   UNL     1     475.175  33.886 463.533  1.00  0.00     0.064 C 
ATOM     10  O   UNL     1     474.810  32.692 463.707  1.00  0.00    -0.545 OA
ATOM     11  O   UNL     1     474.587  34.894 464.284  1.00  0.00    -0.545 OA
ENDBRANCH   8   9
ENDBRANCH   1   7
BRANCH   4  12
ATOM     12  O   UNL     1     479.920  34.336 458.861  1.00  0.00    -0.504 OA
ATOM     13  H   UNL     1     480.620  33.670 459.153  1.00  0.00     0.293 HD
ENDBRANCH   4  12
BRANCH   6  14
ATOM     14  O   UNL     1     480.748  37.137 458.771  1.00  0.00    -0.504 OA
ATOM     15  H   UNL     1     481.532  36.589 458.446  1.00  0.00     0.293 HD
ENDBRANCH   6  14
TORSDOF 4
ENDMDL
MODEL 2
REMARK VINA RESULT:    -4.762      1.686      5.933
REMARK INTER + INTRA:          -5.722
REMARK INTER:                  -5.572
REMARK INTRA:                  -0.150
REMARK UNBOUND:                -0.125
REMARK SMILES O=C([O-])C=Cc1ccc(O)c(O)c1
REMARK SMILES IDX 6 1 13 2 7 3 11 4 8 5 9 6 5 7 4 8 2 9 1 10 3 11 12 12 10 14
REMARK H PARENT 12 13 10 15
REMARK Flexibility Score: inf
ROOT
ATOM      1  C   UNL     1     478.488  36.186 460.763  1.00  0.00    -0.022 A 
ATOM      2  C   UNL     1     478.220  34.886 461.232  1.00  0.00     0.058 A 
ATOM      3  C   UNL     1     477.680  37.245 461.204  1.00  0.00     0.012 A 
ATOM      4  C   UNL     1     477.183  34.649 462.144  1.00  0.00     0.157 A 
ATOM      5  C   UNL     1     476.647  37.017 462.115  1.00  0.00     0.051 A 
ATOM      6  C   UNL     1     476.390  35.729 462.596  1.00  0.00     0.157 A 
ENDROOT
BRANCH   1   7
ATOM      7  C   UNL     1     479.570  36.478 459.788  1.00  0.00     0.010 C 
ATOM      8  C   UNL     1     479.734  37.667 459.191  1.00  0.00     0.025 C 
BRANCH   8   9
ATOM      9  C   UNL     1     480.811  37.916 458.220  1.00  0.00     0.064 C 
ATOM     10  O   UNL     1     481.776  38.678 458.497  1.00  0.00    -0.545 OA
ATOM     11  O   UNL     1     480.764  37.302 456.975  1.00  0.00    -0.545 OA
ENDBRANCH   8   9
ENDBRANCH   1   7
BRANCH   4  12
ATOM     12  O   UNL     1     476.974  33.333 462.565  1.00  0.00    -0.504 OA
ATOM     13  H   UNL     1     477.495  32.540 462.218  1.00  0.00     0.293 HD
ENDBRANCH   4  12
BRANCH   6  14
ATOM     14  O   UNL     1     475.346  35.570 463.509  1.00  0.00    -0.504 OA
ATOM     15  H   UNL     1     475.322  36.002 464.421  1.00  0.00     0.293 HD
ENDBRANCH   6  14
TORSDOF 4
ENDMDL
MODEL 3
REMARK VINA RESULT:    -4.745      1.546      6.142
REMARK INTER + INTRA:          -5.702
REMARK INTER:                  -5.578
REMARK INTRA:                  -0.123
REMARK UNBOUND:                -0.125
REMARK SMILES O=C([O-])C=Cc1ccc(O)c(O)c1
REMARK SMILES IDX 6 1 13 2 7 3 11 4 8 5 9 6 5 7 4 8 2 9 1 10 3 11 12 12 10 14
REMARK H PARENT 12 13 10 15
REMARK Flexibility Score: inf
ROOT
ATOM      1  C   UNL     1     478.279  36.042 460.951  1.00  0.00    -0.022 A 
ATOM      2  C   UNL     1     477.402  37.018 461.462  1.00  0.00     0.058 A 
ATOM      3  C   UNL     1     478.129  34.712 461.369  1.00  0.00     0.012 A 
ATOM      4  C   UNL     1     476.379  36.670 462.355  1.00  0.00     0.157 A 
ATOM      5  C   UNL     1     477.111  34.358 462.256  1.00  0.00     0.051 A 
ATOM      6  C   UNL     1     476.228  35.322 462.752  1.00  0.00     0.157 A 
ENDROOT
BRANCH   1   7
ATOM      7  C   UNL     1     479.381  36.372 460.013  1.00  0.00     0.010 C 
ATOM      8  C   UNL     1     479.726  37.624 459.679  1.00  0.00     0.025 C 
BRANCH   8   9
ATOM      9  C   UNL     1     480.818  37.912 458.735  1.00  0.00     0.064 C 
ATOM     10  O   UNL     1     481.897  38.435 459.126  1.00  0.00    -0.545 OA
ATOM     11  O   UNL     1     480.657  37.606 457.390  1.00  0.00    -0.545 OA
ENDBRANCH   8   9
ENDBRANCH   1   7
BRANCH   4  12
ATOM     12  O   UNL     1     475.548  37.691 462.822  1.00  0.00    -0.504 OA
ATOM     13  H   UNL     1     475.871  38.617 463.066  1.00  0.00     0.293 HD
ENDBRANCH   4  12
BRANCH   6  14
ATOM     14  O   UNL     1     475.228  34.901 463.631  1.00  0.00    -0.504 OA
ATOM     15  H   UNL     1     475.393  34.313 464.435  1.00  0.00     0.293 HD
ENDBRANCH   6  14
TORSDOF 4
ENDMDL
MODEL 4
REMARK VINA RESULT:    -4.532      2.543      3.661
REMARK INTER + INTRA:          -5.452
REMARK INTER:                  -5.308
REMARK INTRA:                  -0.143
REMARK UNBOUND:                -0.125
REMARK SMILES O=C([O-])C=Cc1ccc(O)c(O)c1
REMARK SMILES IDX 6 1 13 2 7 3 11 4 8 5 9 6 5 7 4 8 2 9 1 10 3 11 12 12 10 14
REMARK H PARENT 12 13 10 15
REMARK Flexibility Score: inf
ROOT
ATOM      1  C   UNL     1     478.084  37.281 461.259  1.00  0.00    -0.022 A 
ATOM      2  C   UNL     1     478.987  37.573 460.220  1.00  0.00     0.058 A 
ATOM      3  C   UNL     1     477.808  35.938 461.558  1.00  0.00     0.012 A 
ATOM      4  C   UNL     1     479.623  36.547 459.508  1.00  0.00     0.157 A 
ATOM      5  C   UNL     1     478.439  34.911 460.856  1.00  0.00     0.051 A 
ATOM      6  C   UNL     1     479.350  35.198 459.834  1.00  0.00     0.157 A 
ENDROOT
BRANCH   1   7
ATOM      7  C   UNL     1     477.381  38.338 462.028  1.00  0.00     0.010 C 
ATOM      8  C   UNL     1     476.078  38.291 462.342  1.00  0.00     0.025 C 
BRANCH   8   9
ATOM      9  C   UNL     1     475.412  39.365 463.096  1.00  0.00     0.064 C 
ATOM     10  O   UNL     1     474.421  39.124 463.837  1.00  0.00    -0.545 OA
ATOM     11  O   UNL     1     475.881  40.667 462.988  1.00  0.00    -0.545 OA
ENDBRANCH   8   9
ENDBRANCH   1   7
BRANCH   4  12
ATOM     12  O   UNL     1     480.507  36.911 458.489  1.00  0.00    -0.504 OA
ATOM     13  H   UNL     1     480.607  36.406 457.621  1.00  0.00     0.293 HD
ENDBRANCH   4  12
BRANCH   6  14
ATOM     14  O   UNL     1     479.952  34.125 459.175  1.00  0.00    -0.504 OA
ATOM     15  H   UNL     1     479.696  33.815 458.249  1.00  0.00     0.293 HD
ENDBRANCH   6  14
TORSDOF 4
ENDMDL
MODEL 5
REMARK VINA RESULT:    -4.318      6.578      9.412
REMARK INTER + INTRA:          -5.200
REMARK INTER:                  -5.072
REMARK INTRA:                  -0.127
REMARK UNBOUND:                -0.125
REMARK SMILES O=C([O-])C=Cc1ccc(O)c(O)c1
REMARK SMILES IDX 6 1 13 2 7 3 11 4 8 5 9 6 5 7 4 8 2 9 1 10 3 11 12 12 10 14
REMARK H PARENT 12 13 10 15
REMARK Flexibility Score: inf
ROOT
ATOM      1  C   UNL     1     484.502  39.420 460.964  1.00  0.00    -0.022 A 
ATOM      2  C   UNL     1     484.965  38.582 459.932  1.00  0.00     0.058 A 
ATOM      3  C   UNL     1     483.137  39.737 461.017  1.00  0.00     0.012 A 
ATOM      4  C   UNL     1     484.081  38.048 458.985  1.00  0.00     0.157 A 
ATOM      5  C   UNL     1     482.249  39.207 460.079  1.00  0.00     0.051 A 
ATOM      6  C   UNL     1     482.704  38.360 459.063  1.00  0.00     0.157 A 
ENDROOT
BRANCH   1   7
ATOM      7  C   UNL     1     485.408  40.014 461.978  1.00  0.00     0.010 C 
ATOM      8  C   UNL     1     486.329  40.948 461.699  1.00  0.00     0.025 C 
BRANCH   8   9
ATOM      9  C   UNL     1     487.220  41.506 462.730  1.00  0.00     0.064 C 
ATOM     10  O   UNL     1     486.930  41.429 463.954  1.00  0.00    -0.545 OA
ATOM     11  O   UNL     1     488.399  42.131 462.347  1.00  0.00    -0.545 OA
ENDBRANCH   8   9
ENDBRANCH   1   7
BRANCH   4  12
ATOM     12  O   UNL     1     484.611  37.225 457.989  1.00  0.00    -0.504 OA
ATOM     13  H   UNL     1     485.335  36.539 458.149  1.00  0.00     0.293 HD
ENDBRANCH   4  12
BRANCH   6  14
ATOM     14  O   UNL     1     481.763  37.859 458.161  1.00  0.00    -0.504 OA
ATOM     15  H   UNL     1     481.980  37.203 457.424  1.00  0.00     0.293 HD
ENDBRANCH   6  14
TORSDOF 4
ENDMDL
MODEL 6
REMARK VINA RESULT:    -4.144      2.981      3.874
REMARK INTER + INTRA:          -4.995
REMARK INTER:                  -4.870
REMARK INTRA:                  -0.125
REMARK UNBOUND:                -0.125
REMARK SMILES O=C([O-])C=Cc1ccc(O)c(O)c1
REMARK SMILES IDX 6 1 13 2 7 3 11 4 8 5 9 6 5 7 4 8 2 9 1 10 3 11 12 12 10 14
REMARK H PARENT 12 13 10 15
REMARK Flexibility Score: inf
ROOT
ATOM      1  C   UNL     1     477.429  37.523 461.511  1.00  0.00    -0.022 A 
ATOM      2  C   UNL     1     477.322  36.222 462.038  1.00  0.00     0.058 A 
ATOM      3  C   UNL     1     478.335  37.757 460.465  1.00  0.00     0.012 A 
ATOM      4  C   UNL     1     478.085  35.169 461.516  1.00  0.00     0.157 A 
ATOM      5  C   UNL     1     479.095  36.712 459.938  1.00  0.00     0.051 A 
ATOM      6  C   UNL     1     478.978  35.415 460.449  1.00  0.00     0.157 A 
ENDROOT
BRANCH   1   7
ATOM      7  C   UNL     1     476.648  38.668 462.043  1.00  0.00     0.010 C 
ATOM      8  C   UNL     1     475.575  38.534 462.835  1.00  0.00     0.025 C 
BRANCH   8   9
ATOM      9  C   UNL     1     474.817  39.692 463.335  1.00  0.00     0.064 C 
ATOM     10  O   UNL     1     475.237  40.868 463.166  1.00  0.00    -0.545 OA
ATOM     11  O   UNL     1     473.620  39.486 464.007  1.00  0.00    -0.545 OA
ENDBRANCH   8   9
ENDBRANCH   1   7
BRANCH   4  12
ATOM     12  O   UNL     1     477.927  33.904 462.089  1.00  0.00    -0.504 OA
ATOM     13  H   UNL     1     478.401  33.074 461.764  1.00  0.00     0.293 HD
ENDBRANCH   4  12
BRANCH   6  14
ATOM     14  O   UNL     1     479.763  34.414 459.873  1.00  0.00    -0.504 OA
ATOM     15  H   UNL     1     479.512  33.436 459.861  1.00  0.00     0.293 HD
ENDBRANCH   6  14
TORSDOF 4
ENDMDL
MODEL 7
REMARK VINA RESULT:    -4.103      3.884      5.710
REMARK INTER + INTRA:          -4.947
REMARK INTER:                  -4.804
REMARK INTRA:                  -0.143
REMARK UNBOUND:                -0.125
REMARK SMILES O=C([O-])C=Cc1ccc(O)c(O)c1
REMARK SMILES IDX 6 1 13 2 7 3 11 4 8 5 9 6 5 7 4 8 2 9 1 10 3 11 12 12 10 14
REMARK H PARENT 12 13 10 15
REMARK Flexibility Score: inf
ROOT
ATOM      1  C   UNL     1     481.810  38.597 459.029  1.00  0.00    -0.022 A 
ATOM      2  C   UNL     1     482.460  38.226 457.836  1.00  0.00     0.058 A 
ATOM      3  C   UNL     1     482.581  39.072 460.100  1.00  0.00     0.012 A 
ATOM      4  C   UNL     1     483.850  38.351 457.704  1.00  0.00     0.157 A 
ATOM      5  C   UNL     1     483.965  39.201 459.975  1.00  0.00     0.051 A 
ATOM      6  C   UNL     1     484.611  38.850 458.786  1.00  0.00     0.157 A 
ENDROOT
BRANCH   1   7
ATOM      7  C   UNL     1     480.342  38.469 459.212  1.00  0.00     0.010 C 
ATOM      8  C   UNL     1     479.768  38.031 460.342  1.00  0.00     0.025 C 
BRANCH   8   9
ATOM      9  C   UNL     1     478.308  37.906 460.484  1.00  0.00     0.064 C 
ATOM     10  O   UNL     1     477.789  36.887 461.013  1.00  0.00    -0.545 OA
ATOM     11  O   UNL     1     477.488  38.928 460.024  1.00  0.00    -0.545 OA
ENDBRANCH   8   9
ENDBRANCH   1   7
BRANCH   4  12
ATOM     12  O   UNL     1     484.426  37.963 456.493  1.00  0.00    -0.504 OA
ATOM     13  H   UNL     1     484.038  38.182 455.586  1.00  0.00     0.293 HD
ENDBRANCH   4  12
BRANCH   6  14
ATOM     14  O   UNL     1     485.997  39.009 458.724  1.00  0.00    -0.504 OA
ATOM     15  H   UNL     1     486.538  38.930 457.875  1.00  0.00     0.293 HD
ENDBRANCH   6  14
TORSDOF 4
ENDMDL
MODEL 8
REMARK VINA RESULT:    -3.959      3.902      5.582
REMARK INTER + INTRA:          -4.778
REMARK INTER:                  -4.639
REMARK INTRA:                  -0.139
REMARK UNBOUND:                -0.125
REMARK SMILES O=C([O-])C=Cc1ccc(O)c(O)c1
REMARK SMILES IDX 6 1 13 2 7 3 11 4 8 5 9 6 5 7 4 8 2 9 1 10 3 11 12 12 10 14
REMARK H PARENT 12 13 10 15
REMARK Flexibility Score: inf
ROOT
ATOM      1  C   UNL     1     481.698  38.382 459.063  1.00  0.00    -0.022 A 
ATOM      2  C   UNL     1     483.054  38.455 459.433  1.00  0.00     0.058 A 
ATOM      3  C   UNL     1     481.375  38.207 457.709  1.00  0.00     0.012 A 
ATOM      4  C   UNL     1     484.070  38.329 458.476  1.00  0.00     0.157 A 
ATOM      5  C   UNL     1     482.381  38.078 456.751  1.00  0.00     0.051 A 
ATOM      6  C   UNL     1     483.729  38.133 457.118  1.00  0.00     0.157 A 
ENDROOT
BRANCH   1   7
ATOM      7  C   UNL     1     480.593  38.522 460.045  1.00  0.00     0.010 C 
ATOM      8  C   UNL     1     479.542  37.692 460.106  1.00  0.00     0.025 C 
BRANCH   8   9
ATOM      9  C   UNL     1     478.458  37.868 461.086  1.00  0.00     0.064 C 
ATOM     10  O   UNL     1     477.289  38.166 460.719  1.00  0.00    -0.545 OA
ATOM     11  O   UNL     1     478.727  37.706 462.438  1.00  0.00    -0.545 OA
ENDBRANCH   8   9
ENDBRANCH   1   7
BRANCH   4  12
ATOM     12  O   UNL     1     485.394  38.412 458.916  1.00  0.00    -0.504 OA
ATOM     13  H   UNL     1     486.083  37.689 458.772  1.00  0.00     0.293 HD
ENDBRANCH   4  12
BRANCH   6  14
ATOM     14  O   UNL     1     484.686  37.991 456.111  1.00  0.00    -0.504 OA
ATOM     15  H   UNL     1     484.750  37.189 455.501  1.00  0.00     0.293 HD
ENDBRANCH   6  14
TORSDOF 4
ENDMDL
MODEL 9
REMARK VINA RESULT:    -3.891      8.363     10.180
REMARK INTER + INTRA:          -4.698
REMARK INTER:                  -4.561
REMARK INTRA:                  -0.136
REMARK UNBOUND:                -0.125
REMARK SMILES O=C([O-])C=Cc1ccc(O)c(O)c1
REMARK SMILES IDX 6 1 13 2 7 3 11 4 8 5 9 6 5 7 4 8 2 9 1 10 3 11 12 12 10 14
REMARK H PARENT 12 13 10 15
REMARK Flexibility Score: inf
ROOT
ATOM      1  C   UNL     1     485.260  40.254 460.355  1.00  0.00    -0.022 A 
ATOM      2  C   UNL     1     484.825  40.702 459.094  1.00  0.00     0.058 A 
ATOM      3  C   UNL     1     485.303  38.875 460.606  1.00  0.00     0.012 A 
ATOM      4  C   UNL     1     484.463  39.791 458.092  1.00  0.00     0.157 A 
ATOM      5  C   UNL     1     484.947  37.962 459.613  1.00  0.00     0.051 A 
ATOM      6  C   UNL     1     484.531  38.403 458.353  1.00  0.00     0.157 A 
ENDROOT
BRANCH   1   7
ATOM      7  C   UNL     1     485.641  41.187 461.446  1.00  0.00     0.010 C 
ATOM      8  C   UNL     1     486.817  41.141 462.089  1.00  0.00     0.025 C 
BRANCH   8   9
ATOM      9  C   UNL     1     487.155  42.075 463.175  1.00  0.00     0.064 C 
ATOM     10  O   UNL     1     487.575  43.238 462.928  1.00  0.00    -0.545 OA
ATOM     11  O   UNL     1     487.013  41.668 464.494  1.00  0.00    -0.545 OA
ENDBRANCH   8   9
ENDBRANCH   1   7
BRANCH   4  12
ATOM     12  O   UNL     1     484.040  40.307 456.864  1.00  0.00    -0.504 OA
ATOM     13  H   UNL     1     484.172  39.839 455.979  1.00  0.00     0.293 HD
ENDBRANCH   4  12
BRANCH   6  14
ATOM     14  O   UNL     1     484.194  37.438 457.401  1.00  0.00    -0.504 OA
ATOM     15  H   UNL     1     484.456  36.465 457.467  1.00  0.00     0.293 HD
ENDBRANCH   6  14
TORSDOF 4
ENDMDL
