MODEL 1
REMARK VINA RESULT:    -3.197      0.000      0.000
REMARK INTER + INTRA:          -6.170
REMARK INTER:                  -5.813
REMARK INTRA:                  -0.357
REMARK UNBOUND:                -0.357
REMARK SMILES CCCCCCCCCCCCCCCC(=O)[O-]
REMARK SMILES IDX 9 1 10 2 11 3 12 4 13 5 14 6 15 7 16 8 17 9 18 10 8 11 7 12
REMARK SMILES IDX 6 13 5 14 4 15 3 16 2 17 1 18
REMARK H PARENT
REMARK Flexibility Score: inf
ROOT
ATOM      1  C   UNL     1      33.265  36.799   2.456  1.00  0.00     0.000 C 
ENDROOT
BRANCH   1   2
ATOM      2  C   UNL     1      33.386  36.985   0.939  1.00  0.00     0.000 C 
BRANCH   2   3
ATOM      3  C   UNL     1      33.112  38.441   0.539  1.00  0.00     0.000 C 
BRANCH   3   4
ATOM      4  C   UNL     1      34.318  39.114  -0.139  1.00  0.00     0.000 C 
BRANCH   4   5
ATOM      5  C   UNL     1      34.272  39.057  -1.681  1.00  0.00     0.000 C 
BRANCH   5   6
ATOM      6  C   UNL     1      32.868  38.723  -2.207  1.00  0.00     0.006 C 
BRANCH   6   7
ATOM      7  C   UNL     1      32.932  37.654  -3.302  1.00  0.00     0.053 C 
BRANCH   7   8
ATOM      8  C   UNL     1      32.498  36.327  -2.765  1.00  0.00     0.041 C 
ATOM      9  O   UNL     1      31.575  35.685  -3.332  1.00  0.00    -0.550 OA
ATOM     10  O   UNL     1      33.078  35.822  -1.608  1.00  0.00    -0.550 OA
ENDBRANCH   7   8
ENDBRANCH   6   7
ENDBRANCH   5   6
ENDBRANCH   4   5
ENDBRANCH   3   4
ENDBRANCH   2   3
ENDBRANCH   1   2
BRANCH   1  11
ATOM     11  C   UNL     1      34.636  36.929   3.136  1.00  0.00     0.000 C 
BRANCH  11  12
ATOM     12  C   UNL     1      35.029  38.391   3.402  1.00  0.00    -0.000 C 
BRANCH  12  13
ATOM     13  C   UNL     1      34.338  38.974   4.644  1.00  0.00    -0.000 C 
BRANCH  13  14
ATOM     14  C   UNL     1      35.125  38.641   5.917  1.00  0.00    -0.000 C 
BRANCH  14  15
ATOM     15  C   UNL     1      34.181  38.445   7.112  1.00  0.00    -0.000 C 
BRANCH  15  16
ATOM     16  C   UNL     1      34.922  38.389   8.460  1.00  0.00    -0.000 C 
BRANCH  16  17
ATOM     17  C   UNL     1      34.180  39.052   9.635  1.00  0.00    -0.003 C 
ATOM     18  C   UNL     1      32.667  39.119   9.425  1.00  0.00     0.004 C 
ENDBRANCH  16  17
ENDBRANCH  15  16
ENDBRANCH  14  15
ENDBRANCH  13  14
ENDBRANCH  12  13
ENDBRANCH  11  12
ENDBRANCH   1  11
TORSDOF 14
ENDMDL
MODEL 2
REMARK VINA RESULT:    -3.067      3.524      8.655
REMARK INTER + INTRA:          -5.934
REMARK INTER:                  -5.148
REMARK INTRA:                  -0.786
REMARK UNBOUND:                -0.357
REMARK SMILES CCCCCCCCCCCCCCCC(=O)[O-]
REMARK SMILES IDX 9 1 10 2 11 3 12 4 13 5 14 6 15 7 16 8 17 9 18 10 8 11 7 12
REMARK SMILES IDX 6 13 5 14 4 15 3 16 2 17 1 18
REMARK H PARENT
REMARK Flexibility Score: inf
ROOT
ATOM      1  C   UNL     1      34.019  36.804   2.085  1.00  0.00     0.000 C 
ENDROOT
BRANCH   1   2
ATOM      2  C   UNL     1      33.576  38.012   2.919  1.00  0.00     0.000 C 
BRANCH   2   3
ATOM      3  C   UNL     1      34.618  38.351   3.994  1.00  0.00     0.000 C 
BRANCH   3   4
ATOM      4  C   UNL     1      35.051  37.126   4.817  1.00  0.00     0.000 C 
BRANCH   4   5
ATOM      5  C   UNL     1      35.125  37.397   6.336  1.00  0.00     0.000 C 
BRANCH   5   6
ATOM      6  C   UNL     1      35.004  38.892   6.665  1.00  0.00     0.006 C 
BRANCH   6   7
ATOM      7  C   UNL     1      34.228  39.108   7.968  1.00  0.00     0.053 C 
BRANCH   7   8
ATOM      8  C   UNL     1      32.755  39.044   7.717  1.00  0.00     0.041 C 
ATOM      9  O   UNL     1      32.312  39.037   6.539  1.00  0.00    -0.550 OA
ATOM     10  O   UNL     1      31.867  39.045   8.786  1.00  0.00    -0.550 OA
ENDBRANCH   7   8
ENDBRANCH   6   7
ENDBRANCH   5   6
ENDBRANCH   4   5
ENDBRANCH   3   4
ENDBRANCH   2   3
ENDBRANCH   1   2
BRANCH   1  11
ATOM     11  C   UNL     1      32.856  36.265   1.238  1.00  0.00     0.000 C 
BRANCH  11  12
ATOM     12  C   UNL     1      33.114  36.392  -0.272  1.00  0.00    -0.000 C 
BRANCH  12  13
ATOM     13  C   UNL     1      34.438  37.102  -0.589  1.00  0.00    -0.000 C 
BRANCH  13  14
ATOM     14  C   UNL     1      34.233  38.616  -0.717  1.00  0.00    -0.000 C 
BRANCH  14  15
ATOM     15  C   UNL     1      32.754  38.953  -0.957  1.00  0.00    -0.000 C 
BRANCH  15  16
ATOM     16  C   UNL     1      32.387  39.009  -2.451  1.00  0.00    -0.000 C 
BRANCH  16  17
ATOM     17  C   UNL     1      33.589  39.078  -3.411  1.00  0.00    -0.003 C 
ATOM     18  C   UNL     1      33.273  38.537  -4.805  1.00  0.00     0.004 C 
ENDBRANCH  16  17
ENDBRANCH  15  16
ENDBRANCH  14  15
ENDBRANCH  13  14
ENDBRANCH  12  13
ENDBRANCH  11  12
ENDBRANCH   1  11
TORSDOF 14
ENDMDL
MODEL 3
REMARK VINA RESULT:    -3.010      1.600      2.123
REMARK INTER + INTRA:          -5.831
REMARK INTER:                  -5.338
REMARK INTRA:                  -0.493
REMARK UNBOUND:                -0.357
REMARK SMILES CCCCCCCCCCCCCCCC(=O)[O-]
REMARK SMILES IDX 9 1 10 2 11 3 12 4 13 5 14 6 15 7 16 8 17 9 18 10 8 11 7 12
REMARK SMILES IDX 6 13 5 14 4 15 3 16 2 17 1 18
REMARK H PARENT
REMARK Flexibility Score: inf
ROOT
ATOM      1  C   UNL     1      32.502  36.784   2.043  1.00  0.00     0.000 C 
ENDROOT
BRANCH   1   2
ATOM      2  C   UNL     1      33.370  35.904   1.137  1.00  0.00     0.000 C 
BRANCH   2   3
ATOM      3  C   UNL     1      33.406  36.453  -0.296  1.00  0.00     0.000 C 
BRANCH   3   4
ATOM      4  C   UNL     1      34.571  37.429  -0.535  1.00  0.00     0.000 C 
BRANCH   4   5
ATOM      5  C   UNL     1      34.293  38.461  -1.649  1.00  0.00     0.000 C 
BRANCH   5   6
ATOM      6  C   UNL     1      32.846  38.388  -2.160  1.00  0.00     0.006 C 
BRANCH   6   7
ATOM      7  C   UNL     1      32.696  39.122  -3.496  1.00  0.00     0.053 C 
BRANCH   7   8
ATOM      8  C   UNL     1      33.255  38.296  -4.612  1.00  0.00     0.041 C 
ATOM      9  O   UNL     1      32.573  37.365  -5.114  1.00  0.00    -0.550 OA
ATOM     10  O   UNL     1      34.549  38.523  -5.063  1.00  0.00    -0.550 OA
ENDBRANCH   7   8
ENDBRANCH   6   7
ENDBRANCH   5   6
ENDBRANCH   4   5
ENDBRANCH   3   4
ENDBRANCH   2   3
ENDBRANCH   1   2
BRANCH   1  11
ATOM     11  C   UNL     1      32.703  38.272   1.719  1.00  0.00     0.000 C 
BRANCH  11  12
ATOM     12  C   UNL     1      33.814  38.918   2.564  1.00  0.00    -0.000 C 
BRANCH  12  13
ATOM     13  C   UNL     1      34.690  37.881   3.282  1.00  0.00    -0.000 C 
BRANCH  13  14
ATOM     14  C   UNL     1      35.115  38.386   4.666  1.00  0.00    -0.000 C 
BRANCH  14  15
ATOM     15  C   UNL     1      33.954  39.103   5.371  1.00  0.00    -0.000 C 
BRANCH  15  16
ATOM     16  C   UNL     1      33.606  38.484   6.736  1.00  0.00    -0.000 C 
BRANCH  16  17
ATOM     17  C   UNL     1      34.817  38.188   7.640  1.00  0.00    -0.003 C 
ATOM     18  C   UNL     1      34.661  38.752   9.052  1.00  0.00     0.004 C 
ENDBRANCH  16  17
ENDBRANCH  15  16
ENDBRANCH  14  15
ENDBRANCH  13  14
ENDBRANCH  12  13
ENDBRANCH  11  12
ENDBRANCH   1  11
TORSDOF 14
ENDMDL
