MODEL 1
REMARK VINA RESULT:    -6.108      0.000      0.000
REMARK INTER + INTRA:          -6.465
REMARK INTER:                  -6.465
REMARK INTRA:                   0.000
REMARK UNBOUND:                 0.000
REMARK SMILES O=c1ccc2cc(O)c(O)cc2o1
REMARK SMILES IDX 4 1 3 2 2 3 1 4 13 5 12 6 11 7 9 8 7 9 6 10 5 11 8 12 10 14
REMARK H PARENT 8 13 10 15
REMARK Flexibility Score: inf
ROOT
ATOM      1  C   UNL     1     -10.700 -17.963  -7.515  1.00  0.00     0.019 A 
ATOM      2  C   UNL     1      -9.388 -17.742  -7.932  1.00  0.00     0.094 A 
ATOM      3  C   UNL     1      -8.379 -18.592  -7.469  1.00  0.00     0.336 A 
ATOM      4  O   UNL     1      -7.187 -18.411  -7.835  1.00  0.00    -0.246 OA
ATOM      5  O   UNL     1      -8.668 -19.595  -6.645  1.00  0.00    -0.423 OA
ATOM      6  C   UNL     1      -9.907 -19.840  -6.222  1.00  0.00     0.142 A 
ATOM      7  C   UNL     1     -10.151 -20.907  -5.355  1.00  0.00     0.098 A 
ATOM      8  C   UNL     1     -11.449 -21.177  -4.902  1.00  0.00     0.161 A 
ATOM      9  C   UNL     1     -12.524 -20.357  -5.329  1.00  0.00     0.158 A 
ATOM     10  C   UNL     1     -12.275 -19.288  -6.199  1.00  0.00     0.062 A 
ATOM     11  C   UNL     1     -10.975 -19.024  -6.647  1.00  0.00     0.022 A 
ENDROOT
BRANCH   9  12
ATOM     12  O   UNL     1     -13.842 -20.569  -4.918  1.00  0.00    -0.504 OA
ATOM     13  H   UNL     1     -14.441 -19.845  -4.546  1.00  0.00     0.293 HD
ENDBRANCH   9  12
BRANCH   8  14
ATOM     14  O   UNL     1     -11.625 -22.260  -4.037  1.00  0.00    -0.504 OA
ATOM     15  H   UNL     1     -12.398 -22.349  -3.394  1.00  0.00     0.293 HD
ENDBRANCH   8  14
TORSDOF 2
ENDMDL
MODEL 2
REMARK VINA RESULT:    -5.994     13.834     14.337
REMARK INTER + INTRA:          -6.344
REMARK INTER:                  -6.344
REMARK INTRA:                   0.000
REMARK UNBOUND:                 0.000
REMARK SMILES O=c1ccc2cc(O)c(O)cc2o1
REMARK SMILES IDX 4 1 3 2 2 3 1 4 13 5 12 6 11 7 9 8 7 9 6 10 5 11 8 12 10 14
REMARK H PARENT 8 13 10 15
REMARK Flexibility Score: inf
ROOT
ATOM      1  C   UNL     1     -14.827  -9.337 -13.835  1.00  0.00     0.019 A 
ATOM      2  C   UNL     1     -13.517  -9.139 -14.269  1.00  0.00     0.094 A 
ATOM      3  C   UNL     1     -13.156  -9.571 -15.550  1.00  0.00     0.336 A 
ATOM      4  O   UNL     1     -11.978  -9.402 -15.962  1.00  0.00    -0.246 OA
ATOM      5  O   UNL     1     -14.050 -10.160 -16.338  1.00  0.00    -0.423 OA
ATOM      6  C   UNL     1     -15.310 -10.369 -15.962  1.00  0.00     0.142 A 
ATOM      7  C   UNL     1     -16.206 -10.993 -16.833  1.00  0.00     0.098 A 
ATOM      8  C   UNL     1     -17.535 -11.218 -16.451  1.00  0.00     0.161 A 
ATOM      9  C   UNL     1     -17.973 -10.807 -15.167  1.00  0.00     0.158 A 
ATOM     10  C   UNL     1     -17.072 -10.181 -14.297  1.00  0.00     0.062 A 
ATOM     11  C   UNL     1     -15.745  -9.959 -14.685  1.00  0.00     0.022 A 
ENDROOT
BRANCH   9  12
ATOM     12  O   UNL     1     -19.283 -10.999 -14.721  1.00  0.00    -0.504 OA
ATOM     13  H   UNL     1     -20.039 -11.319 -15.309  1.00  0.00     0.293 HD
ENDBRANCH   9  12
BRANCH   8  14
ATOM     14  O   UNL     1     -18.379 -11.847 -17.370  1.00  0.00    -0.504 OA
ATOM     15  H   UNL     1     -18.700 -11.419 -18.226  1.00  0.00     0.293 HD
ENDBRANCH   8  14
TORSDOF 2
ENDMDL
MODEL 3
REMARK VINA RESULT:    -5.948     13.732     14.393
REMARK INTER + INTRA:          -6.295
REMARK INTER:                  -6.295
REMARK INTRA:                   0.000
REMARK UNBOUND:                 0.000
REMARK SMILES O=c1ccc2cc(O)c(O)cc2o1
REMARK SMILES IDX 4 1 3 2 2 3 1 4 13 5 12 6 11 7 9 8 7 9 6 10 5 11 8 12 10 14
REMARK H PARENT 8 13 10 15
REMARK Flexibility Score: inf
ROOT
ATOM      1  C   UNL     1     -14.118 -10.229 -16.277  1.00  0.00     0.019 A 
ATOM      2  C   UNL     1     -13.293  -9.578 -15.361  1.00  0.00     0.094 A 
ATOM      3  C   UNL     1     -13.836  -9.147 -14.146  1.00  0.00     0.336 A 
ATOM      4  O   UNL     1     -13.107  -8.558 -13.305  1.00  0.00    -0.246 OA
ATOM      5  O   UNL     1     -15.120  -9.358 -13.871  1.00  0.00    -0.423 OA
ATOM      6  C   UNL     1     -15.942  -9.975 -14.717  1.00  0.00     0.142 A 
ATOM      7  C   UNL     1     -17.282 -10.167 -14.374  1.00  0.00     0.098 A 
ATOM      8  C   UNL     1     -18.159 -10.816 -15.254  1.00  0.00     0.161 A 
ATOM      9  C   UNL     1     -17.680 -11.279 -16.505  1.00  0.00     0.158 A 
ATOM     10  C   UNL     1     -16.335 -11.084 -16.845  1.00  0.00     0.062 A 
ATOM     11  C   UNL     1     -15.464 -10.436 -15.961  1.00  0.00     0.022 A 
ENDROOT
BRANCH   9  12
ATOM     12  O   UNL     1     -18.497 -11.933 -17.430  1.00  0.00    -0.504 OA
ATOM     13  H   UNL     1     -18.867 -12.863 -17.298  1.00  0.00     0.293 HD
ENDBRANCH   9  12
BRANCH   8  14
ATOM     14  O   UNL     1     -19.486 -10.976 -14.849  1.00  0.00    -0.504 OA
ATOM     15  H   UNL     1     -20.217 -10.303 -15.029  1.00  0.00     0.293 HD
ENDBRANCH   8  14
TORSDOF 2
ENDMDL
MODEL 4
REMARK VINA RESULT:    -5.844      1.142      1.400
REMARK INTER + INTRA:          -6.186
REMARK INTER:                  -6.186
REMARK INTRA:                   0.000
REMARK UNBOUND:                 0.000
REMARK SMILES O=c1ccc2cc(O)c(O)cc2o1
REMARK SMILES IDX 4 1 3 2 2 3 1 4 13 5 12 6 11 7 9 8 7 9 6 10 5 11 8 12 10 14
REMARK H PARENT 8 13 10 15
REMARK Flexibility Score: inf
ROOT
ATOM      1  C   UNL     1      -9.027 -18.338  -7.596  1.00  0.00     0.019 A 
ATOM      2  C   UNL     1      -7.667 -18.648  -7.586  1.00  0.00     0.094 A 
ATOM      3  C   UNL     1      -7.220 -19.709  -6.793  1.00  0.00     0.336 A 
ATOM      4  O   UNL     1      -5.997 -20.006  -6.771  1.00  0.00    -0.246 OA
ATOM      5  O   UNL     1      -8.080 -20.411  -6.060  1.00  0.00    -0.423 OA
ATOM      6  C   UNL     1      -9.385 -20.148  -6.039  1.00  0.00     0.142 A 
ATOM      7  C   UNL     1     -10.241 -20.918  -5.249  1.00  0.00     0.098 A 
ATOM      8  C   UNL     1     -11.617 -20.654  -5.219  1.00  0.00     0.161 A 
ATOM      9  C   UNL     1     -12.143 -19.592  -5.997  1.00  0.00     0.158 A 
ATOM     10  C   UNL     1     -11.281 -18.822  -6.788  1.00  0.00     0.062 A 
ATOM     11  C   UNL     1      -9.908 -19.092  -6.815  1.00  0.00     0.022 A 
ENDROOT
BRANCH   9  12
ATOM     12  O   UNL     1     -13.503 -19.273  -6.014  1.00  0.00    -0.504 OA
ATOM     13  H   UNL     1     -14.134 -19.533  -6.758  1.00  0.00     0.293 HD
ENDBRANCH   9  12
BRANCH   8  14
ATOM     14  O   UNL     1     -12.417 -21.462  -4.408  1.00  0.00    -0.504 OA
ATOM     15  H   UNL     1     -13.407 -21.321  -4.272  1.00  0.00     0.293 HD
ENDBRANCH   8  14
TORSDOF 2
ENDMDL
MODEL 5
REMARK VINA RESULT:    -5.764     13.911     14.758
REMARK INTER + INTRA:          -6.101
REMARK INTER:                  -6.101
REMARK INTRA:                   0.000
REMARK UNBOUND:                 0.000
REMARK SMILES O=c1ccc2cc(O)c(O)cc2o1
REMARK SMILES IDX 4 1 3 2 2 3 1 4 13 5 12 6 11 7 9 8 7 9 6 10 5 11 8 12 10 14
REMARK H PARENT 8 13 10 15
REMARK Flexibility Score: inf
ROOT
ATOM      1  C   UNL     1     -17.408 -10.361 -14.752  1.00  0.00     0.019 A 
ATOM      2  C   UNL     1     -18.064 -11.106 -15.731  1.00  0.00     0.094 A 
ATOM      3  C   UNL     1     -17.350 -11.518 -16.861  1.00  0.00     0.336 A 
ATOM      4  O   UNL     1     -17.924 -12.192 -17.756  1.00  0.00    -0.246 OA
ATOM      5  O   UNL     1     -16.065 -11.203 -16.996  1.00  0.00    -0.423 OA
ATOM      6  C   UNL     1     -15.401 -10.494 -16.086  1.00  0.00     0.142 A 
ATOM      7  C   UNL     1     -14.052 -10.193 -16.282  1.00  0.00     0.098 A 
ATOM      8  C   UNL     1     -13.340  -9.448 -15.332  1.00  0.00     0.161 A 
ATOM      9  C   UNL     1     -13.998  -8.995 -14.161  1.00  0.00     0.158 A 
ATOM     10  C   UNL     1     -15.352  -9.300 -13.968  1.00  0.00     0.062 A 
ATOM     11  C   UNL     1     -16.057 -10.044 -14.921  1.00  0.00     0.022 A 
ENDROOT
BRANCH   9  12
ATOM     12  O   UNL     1     -13.351  -8.249 -13.174  1.00  0.00    -0.504 OA
ATOM     13  H   UNL     1     -12.415  -7.881 -13.266  1.00  0.00     0.293 HD
ENDBRANCH   9  12
BRANCH   8  14
ATOM     14  O   UNL     1     -11.993  -9.182 -15.590  1.00  0.00    -0.504 OA
ATOM     15  H   UNL     1     -11.625  -8.261 -15.779  1.00  0.00     0.293 HD
ENDBRANCH   8  14
TORSDOF 2
ENDMDL
MODEL 6
REMARK VINA RESULT:    -5.755     13.931     14.806
REMARK INTER + INTRA:          -6.091
REMARK INTER:                  -6.091
REMARK INTRA:                   0.000
REMARK UNBOUND:                 0.000
REMARK SMILES O=c1ccc2cc(O)c(O)cc2o1
REMARK SMILES IDX 4 1 3 2 2 3 1 4 13 5 12 6 11 7 9 8 7 9 6 10 5 11 8 12 10 14
REMARK H PARENT 8 13 10 15
REMARK Flexibility Score: inf
ROOT
ATOM      1  C   UNL     1     -16.501 -11.198 -16.681  1.00  0.00     0.019 A 
ATOM      2  C   UNL     1     -17.832 -11.385 -16.311  1.00  0.00     0.094 A 
ATOM      3  C   UNL     1     -18.289 -10.817 -15.117  1.00  0.00     0.336 A 
ATOM      4  O   UNL     1     -19.488 -10.974 -14.765  1.00  0.00    -0.246 OA
ATOM      5  O   UNL     1     -17.465 -10.109 -14.350  1.00  0.00    -0.423 OA
ATOM      6  C   UNL     1     -16.188  -9.908 -14.666  1.00  0.00     0.142 A 
ATOM      7  C   UNL     1     -15.369  -9.156 -13.821  1.00  0.00     0.098 A 
ATOM      8  C   UNL     1     -14.023  -8.934 -14.141  1.00  0.00     0.161 A 
ATOM      9  C   UNL     1     -13.488  -9.480 -15.335  1.00  0.00     0.158 A 
ATOM     10  C   UNL     1     -14.313 -10.232 -16.181  1.00  0.00     0.062 A 
ATOM     11  C   UNL     1     -15.657 -10.450 -15.855  1.00  0.00     0.022 A 
ENDROOT
BRANCH   9  12
ATOM     12  O   UNL     1     -12.157  -9.299 -15.717  1.00  0.00    -0.504 OA
ATOM     13  H   UNL     1     -11.397  -9.890 -15.412  1.00  0.00     0.293 HD
ENDBRANCH   9  12
BRANCH   8  14
ATOM     14  O   UNL     1     -13.259  -8.174 -13.252  1.00  0.00    -0.504 OA
ATOM     15  H   UNL     1     -13.610  -7.371 -12.750  1.00  0.00     0.293 HD
ENDBRANCH   8  14
TORSDOF 2
ENDMDL
MODEL 7
REMARK VINA RESULT:    -5.565      2.142      3.038
REMARK INTER + INTRA:          -5.890
REMARK INTER:                  -5.890
REMARK INTRA:                   0.000
REMARK UNBOUND:                 0.000
REMARK SMILES O=c1ccc2cc(O)c(O)cc2o1
REMARK SMILES IDX 4 1 3 2 2 3 1 4 13 5 12 6 11 7 9 8 7 9 6 10 5 11 8 12 10 14
REMARK H PARENT 8 13 10 15
REMARK Flexibility Score: inf
ROOT
ATOM      1  C   UNL     1     -10.441 -20.089  -5.529  1.00  0.00     0.019 A 
ATOM      2  C   UNL     1      -9.151 -20.216  -6.042  1.00  0.00     0.094 A 
ATOM      3  C   UNL     1      -8.985 -20.383  -7.421  1.00  0.00     0.336 A 
ATOM      4  O   UNL     1      -7.828 -20.499  -7.905  1.00  0.00    -0.246 OA
ATOM      5  O   UNL     1     -10.042 -20.420  -8.227  1.00  0.00    -0.423 OA
ATOM      6  C   UNL     1     -11.289 -20.304  -7.778  1.00  0.00     0.142 A 
ATOM      7  C   UNL     1     -12.361 -20.350  -8.672  1.00  0.00     0.098 A 
ATOM      8  C   UNL     1     -13.680 -20.228  -8.215  1.00  0.00     0.161 A 
ATOM      9  C   UNL     1     -13.927 -20.056  -6.829  1.00  0.00     0.158 A 
ATOM     10  C   UNL     1     -12.849 -20.010  -5.936  1.00  0.00     0.062 A 
ATOM     11  C   UNL     1     -11.534 -20.132  -6.400  1.00  0.00     0.022 A 
ENDROOT
BRANCH   9  12
ATOM     12  O   UNL     1     -15.215 -19.928  -6.304  1.00  0.00    -0.504 OA
ATOM     13  H   UNL     1     -15.411 -19.704  -5.339  1.00  0.00     0.293 HD
ENDBRANCH   9  12
BRANCH   8  14
ATOM     14  O   UNL     1     -14.705 -20.283  -9.162  1.00  0.00    -0.504 OA
ATOM     15  H   UNL     1     -15.656 -19.995  -8.982  1.00  0.00     0.293 HD
ENDBRANCH   8  14
TORSDOF 2
ENDMDL
MODEL 8
REMARK VINA RESULT:    -5.529      1.145      2.379
REMARK INTER + INTRA:          -5.852
REMARK INTER:                  -5.852
REMARK INTRA:                   0.000
REMARK UNBOUND:                 0.000
REMARK SMILES O=c1ccc2cc(O)c(O)cc2o1
REMARK SMILES IDX 4 1 3 2 2 3 1 4 13 5 12 6 11 7 9 8 7 9 6 10 5 11 8 12 10 14
REMARK H PARENT 8 13 10 15
REMARK Flexibility Score: inf
ROOT
ATOM      1  C   UNL     1      -8.465 -20.547  -5.887  1.00  0.00     0.019 A 
ATOM      2  C   UNL     1      -7.541 -19.929  -6.727  1.00  0.00     0.094 A 
ATOM      3  C   UNL     1      -8.000 -19.026  -7.692  1.00  0.00     0.336 A 
ATOM      4  O   UNL     1      -7.181 -18.456  -8.460  1.00  0.00    -0.246 OA
ATOM      5  O   UNL     1      -9.299 -18.763  -7.803  1.00  0.00    -0.423 OA
ATOM      6  C   UNL     1     -10.214 -19.333  -7.022  1.00  0.00     0.142 A 
ATOM      7  C   UNL     1     -11.565 -19.019  -7.185  1.00  0.00     0.098 A 
ATOM      8  C   UNL     1     -12.540 -19.609  -6.370  1.00  0.00     0.161 A 
ATOM      9  C   UNL     1     -12.149 -20.534  -5.370  1.00  0.00     0.158 A 
ATOM     10  C   UNL     1     -10.793 -20.846  -5.209  1.00  0.00     0.062 A 
ATOM     11  C   UNL     1      -9.825 -20.253  -6.027  1.00  0.00     0.022 A 
ENDROOT
BRANCH   9  12
ATOM     12  O   UNL     1     -13.066 -21.160  -4.522  1.00  0.00    -0.504 OA
ATOM     13  H   UNL     1     -13.703 -21.886  -4.817  1.00  0.00     0.293 HD
ENDBRANCH   9  12
BRANCH   8  14
ATOM     14  O   UNL     1     -13.873 -19.251  -6.586  1.00  0.00    -0.504 OA
ATOM     15  H   UNL     1     -14.448 -19.634  -7.322  1.00  0.00     0.293 HD
ENDBRANCH   8  14
TORSDOF 2
ENDMDL
MODEL 9
REMARK VINA RESULT:    -5.482     13.341     14.122
REMARK INTER + INTRA:          -5.802
REMARK INTER:                  -5.802
REMARK INTRA:                   0.000
REMARK UNBOUND:                 0.000
REMARK SMILES O=c1ccc2cc(O)c(O)cc2o1
REMARK SMILES IDX 4 1 3 2 2 3 1 4 13 5 12 6 11 7 9 8 7 9 6 10 5 11 8 12 10 14
REMARK H PARENT 8 13 10 15
REMARK Flexibility Score: inf
ROOT
ATOM      1  C   UNL     1     -14.717 -10.300 -17.551  1.00  0.00     0.019 A 
ATOM      2  C   UNL     1     -13.409  -9.905 -17.830  1.00  0.00     0.094 A 
ATOM      3  C   UNL     1     -12.602  -9.447 -16.783  1.00  0.00     0.336 A 
ATOM      4  O   UNL     1     -11.418  -9.087 -17.013  1.00  0.00    -0.246 OA
ATOM      5  O   UNL     1     -13.077  -9.391 -15.542  1.00  0.00    -0.423 OA
ATOM      6  C   UNL     1     -14.319  -9.757 -15.233  1.00  0.00     0.142 A 
ATOM      7  C   UNL     1     -14.764  -9.676 -13.912  1.00  0.00     0.098 A 
ATOM      8  C   UNL     1     -16.068 -10.059 -13.571  1.00  0.00     0.161 A 
ATOM      9  C   UNL     1     -16.944 -10.533 -14.580  1.00  0.00     0.158 A 
ATOM     10  C   UNL     1     -16.494 -10.614 -15.904  1.00  0.00     0.062 A 
ATOM     11  C   UNL     1     -15.190 -10.230 -16.237  1.00  0.00     0.022 A 
ENDROOT
BRANCH   9  12
ATOM     12  O   UNL     1     -18.256 -10.932 -14.313  1.00  0.00    -0.504 OA
ATOM     13  H   UNL     1     -19.064 -10.341 -14.446  1.00  0.00     0.293 HD
ENDBRANCH   9  12
BRANCH   8  14
ATOM     14  O   UNL     1     -16.449  -9.953 -12.232  1.00  0.00    -0.504 OA
ATOM     15  H   UNL     1     -15.923 -10.342 -11.463  1.00  0.00     0.293 HD
ENDBRANCH   8  14
TORSDOF 2
ENDMDL
