MODEL 1
REMARK VINA RESULT:    -4.267      0.000      0.000
REMARK INTER + INTRA:          -6.717
REMARK INTER:                  -6.262
REMARK INTRA:                  -0.455
REMARK UNBOUND:                -0.455
REMARK SMILES O=C([O-])CCCCCCCC(=O)[O-]
REMARK SMILES IDX 7 1 6 2 5 3 4 4 2 5 1 6 3 7 8 8 9 9 10 10 11 11 12 12 13 13
REMARK H PARENT
REMARK Flexibility Score: inf
ROOT
ATOM      1  C   UNL     1      14.748 -21.766  20.256  1.00  0.00     0.000 C 
ENDROOT
BRANCH   1   2
ATOM      2  C   UNL     1      15.714 -21.004  21.186  1.00  0.00     0.000 C 
BRANCH   2   3
ATOM      3  C   UNL     1      16.473 -21.880  22.197  1.00  0.00     0.006 C 
BRANCH   3   4
ATOM      4  C   UNL     1      16.989 -21.086  23.404  1.00  0.00     0.053 C 
BRANCH   4   5
ATOM      5  C   UNL     1      15.921 -20.963  24.444  1.00  0.00     0.041 C 
ATOM      6  O   UNL     1      15.033 -20.078  24.337  1.00  0.00    -0.550 OA
ATOM      7  O   UNL     1      15.935 -21.792  25.557  1.00  0.00    -0.550 OA
ENDBRANCH   4   5
ENDBRANCH   3   4
ENDBRANCH   2   3
ENDBRANCH   1   2
BRANCH   1   8
ATOM      8  C   UNL     1      13.768 -22.714  20.968  1.00  0.00     0.000 C 
BRANCH   8   9
ATOM      9  C   UNL     1      13.051 -22.051  22.156  1.00  0.00     0.006 C 
BRANCH   9  10
ATOM     10  C   UNL     1      11.614 -21.639  21.809  1.00  0.00     0.053 C 
BRANCH  10  11
ATOM     11  C   UNL     1      11.479 -20.153  21.686  1.00  0.00     0.041 C 
ATOM     12  O   UNL     1      10.357 -19.634  21.446  1.00  0.00    -0.550 OA
ATOM     13  O   UNL     1      12.589 -19.337  21.869  1.00  0.00    -0.550 OA
ENDBRANCH  10  11
ENDBRANCH   9  10
ENDBRANCH   8   9
ENDBRANCH   1   8
TORSDOF 8
ENDMDL
MODEL 2
REMARK VINA RESULT:    -4.260      2.125      3.219
REMARK INTER + INTRA:          -6.707
REMARK INTER:                  -5.875
REMARK INTRA:                  -0.832
REMARK UNBOUND:                -0.455
REMARK SMILES O=C([O-])CCCCCCCC(=O)[O-]
REMARK SMILES IDX 7 1 6 2 5 3 4 4 2 5 1 6 3 7 8 8 9 9 10 10 11 11 12 12 13 13
REMARK H PARENT
REMARK Flexibility Score: inf
ROOT
ATOM      1  C   UNL     1      15.136 -21.263  24.353  1.00  0.00     0.000 C 
ENDROOT
BRANCH   1   2
ATOM      2  C   UNL     1      16.660 -21.300  24.121  1.00  0.00     0.000 C 
BRANCH   2   3
ATOM      3  C   UNL     1      17.100 -21.176  22.652  1.00  0.00     0.006 C 
BRANCH   3   4
ATOM      4  C   UNL     1      16.124 -21.850  21.679  1.00  0.00     0.053 C 
BRANCH   4   5
ATOM      5  C   UNL     1      15.629 -20.864  20.669  1.00  0.00     0.041 C 
ATOM      6  O   UNL     1      15.166 -21.263  19.569  1.00  0.00    -0.550 OA
ATOM      7  O   UNL     1      15.724 -19.501  20.922  1.00  0.00    -0.550 OA
ENDBRANCH   4   5
ENDBRANCH   3   4
ENDBRANCH   2   3
ENDBRANCH   1   2
BRANCH   1   8
ATOM      8  C   UNL     1      14.512 -19.856  24.367  1.00  0.00     0.000 C 
BRANCH   8   9
ATOM      9  C   UNL     1      13.258 -19.750  23.483  1.00  0.00     0.006 C 
BRANCH   9  10
ATOM     10  C   UNL     1      12.863 -21.102  22.873  1.00  0.00     0.053 C 
BRANCH  10  11
ATOM     11  C   UNL     1      11.902 -20.935  21.737  1.00  0.00     0.041 C 
ATOM     12  O   UNL     1      10.817 -21.574  21.723  1.00  0.00    -0.550 OA
ATOM     13  O   UNL     1      12.190 -20.047  20.708  1.00  0.00    -0.550 OA
ENDBRANCH  10  11
ENDBRANCH   9  10
ENDBRANCH   8   9
ENDBRANCH   1   8
TORSDOF 8
ENDMDL
MODEL 3
REMARK VINA RESULT:    -4.171      1.465      2.257
REMARK INTER + INTRA:          -6.576
REMARK INTER:                  -5.816
REMARK INTRA:                  -0.761
REMARK UNBOUND:                -0.455
REMARK SMILES O=C([O-])CCCCCCCC(=O)[O-]
REMARK SMILES IDX 7 1 6 2 5 3 4 4 2 5 1 6 3 7 8 8 9 9 10 10 11 11 12 12 13 13
REMARK H PARENT
REMARK Flexibility Score: inf
ROOT
ATOM      1  C   UNL     1      15.616 -19.637  20.942  1.00  0.00     0.000 C 
ENDROOT
BRANCH   1   2
ATOM      2  C   UNL     1      15.560 -21.167  20.755  1.00  0.00     0.000 C 
BRANCH   2   3
ATOM      3  C   UNL     1      15.977 -21.991  21.985  1.00  0.00     0.006 C 
BRANCH   3   4
ATOM      4  C   UNL     1      16.536 -21.124  23.120  1.00  0.00     0.053 C 
BRANCH   4   5
ATOM      5  C   UNL     1      15.610 -21.143  24.295  1.00  0.00     0.041 C 
ATOM      6  O   UNL     1      15.985 -21.640  25.389  1.00  0.00    -0.550 OA
ATOM      7  O   UNL     1      14.315 -20.656  24.169  1.00  0.00    -0.550 OA
ENDBRANCH   4   5
ENDBRANCH   3   4
ENDBRANCH   2   3
ENDBRANCH   1   2
BRANCH   1   8
ATOM      8  C   UNL     1      14.284 -18.902  20.710  1.00  0.00     0.000 C 
BRANCH   8   9
ATOM      9  C   UNL     1      13.128 -19.856  20.369  1.00  0.00     0.006 C 
BRANCH   9  10
ATOM     10  C   UNL     1      12.069 -19.903  21.479  1.00  0.00     0.053 C 
BRANCH  10  11
ATOM     11  C   UNL     1      11.574 -21.297  21.712  1.00  0.00     0.041 C 
ATOM     12  O   UNL     1      12.390 -22.240  21.889  1.00  0.00    -0.550 OA
ATOM     13  O   UNL     1      10.209 -21.550  21.768  1.00  0.00    -0.550 OA
ENDBRANCH  10  11
ENDBRANCH   9  10
ENDBRANCH   8   9
ENDBRANCH   1   8
TORSDOF 8
ENDMDL
MODEL 4
REMARK VINA RESULT:    -4.156      0.723      4.901
REMARK INTER + INTRA:          -6.555
REMARK INTER:                  -6.040
REMARK INTRA:                  -0.515
REMARK UNBOUND:                -0.455
REMARK SMILES O=C([O-])CCCCCCCC(=O)[O-]
REMARK SMILES IDX 7 1 6 2 5 3 4 4 2 5 1 6 3 7 8 8 9 9 10 10 11 11 12 12 13 13
REMARK H PARENT
REMARK Flexibility Score: inf
ROOT
ATOM      1  C   UNL     1      14.237 -22.240  20.741  1.00  0.00     0.000 C 
ENDROOT
BRANCH   1   2
ATOM      2  C   UNL     1      13.267 -22.588  21.889  1.00  0.00     0.000 C 
BRANCH   2   3
ATOM      3  C   UNL     1      11.943 -21.806  21.886  1.00  0.00     0.006 C 
BRANCH   3   4
ATOM      4  C   UNL     1      12.125 -20.326  22.243  1.00  0.00     0.053 C 
BRANCH   4   5
ATOM      5  C   UNL     1      11.037 -19.503  21.628  1.00  0.00     0.041 C 
ATOM      6  O   UNL     1       9.875 -19.974  21.514  1.00  0.00    -0.550 OA
ATOM      7  O   UNL     1      11.317 -18.235  21.137  1.00  0.00    -0.550 OA
ENDBRANCH   4   5
ENDBRANCH   3   4
ENDBRANCH   2   3
ENDBRANCH   1   2
BRANCH   1   8
ATOM      8  C   UNL     1      15.457 -21.397  21.151  1.00  0.00     0.000 C 
BRANCH   8   9
ATOM      9  C   UNL     1      16.299 -22.062  22.252  1.00  0.00     0.006 C 
BRANCH   9  10
ATOM     10  C   UNL     1      16.744 -21.060  23.326  1.00  0.00     0.053 C 
BRANCH  10  11
ATOM     11  C   UNL     1      15.831 -21.081  24.513  1.00  0.00     0.041 C 
ATOM     12  O   UNL     1      14.744 -20.446  24.489  1.00  0.00    -0.550 OA
ATOM     13  O   UNL     1      16.165 -21.831  25.634  1.00  0.00    -0.550 OA
ENDBRANCH  10  11
ENDBRANCH   9  10
ENDBRANCH   8   9
ENDBRANCH   1   8
TORSDOF 8
ENDMDL
MODEL 5
REMARK VINA RESULT:    -4.153      1.191      1.777
REMARK INTER + INTRA:          -6.550
REMARK INTER:                  -5.787
REMARK INTRA:                  -0.762
REMARK UNBOUND:                -0.455
REMARK SMILES O=C([O-])CCCCCCCC(=O)[O-]
REMARK SMILES IDX 7 1 6 2 5 3 4 4 2 5 1 6 3 7 8 8 9 9 10 10 11 11 12 12 13 13
REMARK H PARENT
REMARK Flexibility Score: inf
ROOT
ATOM      1  C   UNL     1      14.042 -22.405  21.110  1.00  0.00     0.000 C 
ENDROOT
BRANCH   1   2
ATOM      2  C   UNL     1      15.450 -22.549  21.722  1.00  0.00     0.000 C 
BRANCH   2   3
ATOM      3  C   UNL     1      16.192 -21.224  21.972  1.00  0.00     0.006 C 
BRANCH   3   4
ATOM      4  C   UNL     1      16.877 -21.174  23.343  1.00  0.00     0.053 C 
BRANCH   4   5
ATOM      5  C   UNL     1      15.861 -21.005  24.428  1.00  0.00     0.041 C 
ATOM      6  O   UNL     1      15.908 -21.727  25.458  1.00  0.00    -0.550 OA
ATOM      7  O   UNL     1      14.832 -20.083  24.281  1.00  0.00    -0.550 OA
ENDBRANCH   4   5
ENDBRANCH   3   4
ENDBRANCH   2   3
ENDBRANCH   1   2
BRANCH   1   8
ATOM      8  C   UNL     1      12.908 -22.187  22.127  1.00  0.00     0.000 C 
BRANCH   8   9
ATOM      9  C   UNL     1      12.155 -20.864  21.908  1.00  0.00     0.006 C 
BRANCH   9  10
ATOM     10  C   UNL     1      12.708 -20.074  20.714  1.00  0.00     0.053 C 
BRANCH  10  11
ATOM     11  C   UNL     1      13.052 -18.667  21.094  1.00  0.00     0.041 C 
ATOM     12  O   UNL     1      12.157 -17.781  21.129  1.00  0.00    -0.550 OA
ATOM     13  O   UNL     1      14.356 -18.341  21.445  1.00  0.00    -0.550 OA
ENDBRANCH  10  11
ENDBRANCH   9  10
ENDBRANCH   8   9
ENDBRANCH   1   8
TORSDOF 8
ENDMDL
MODEL 6
REMARK VINA RESULT:    -4.124      1.465      4.512
REMARK INTER + INTRA:          -6.507
REMARK INTER:                  -5.742
REMARK INTRA:                  -0.765
REMARK UNBOUND:                -0.455
REMARK SMILES O=C([O-])CCCCCCCC(=O)[O-]
REMARK SMILES IDX 7 1 6 2 5 3 4 4 2 5 1 6 3 7 8 8 9 9 10 10 11 11 12 12 13 13
REMARK H PARENT
REMARK Flexibility Score: inf
ROOT
ATOM      1  C   UNL     1      15.642 -19.548  20.910  1.00  0.00     0.000 C 
ENDROOT
BRANCH   1   2
ATOM      2  C   UNL     1      14.298 -18.817  21.103  1.00  0.00     0.000 C 
BRANCH   2   3
ATOM      3  C   UNL     1      13.054 -19.614  20.672  1.00  0.00     0.006 C 
BRANCH   3   4
ATOM      4  C   UNL     1      12.045 -19.804  21.811  1.00  0.00     0.053 C 
BRANCH   4   5
ATOM      5  C   UNL     1      11.543 -21.213  21.833  1.00  0.00     0.041 C 
ATOM      6  O   UNL     1      10.305 -21.443  21.872  1.00  0.00    -0.550 OA
ATOM      7  O   UNL     1      12.440 -22.272  21.860  1.00  0.00    -0.550 OA
ENDBRANCH   4   5
ENDBRANCH   3   4
ENDBRANCH   2   3
ENDBRANCH   1   2
BRANCH   1   8
ATOM      8  C   UNL     1      15.530 -21.054  20.616  1.00  0.00     0.000 C 
BRANCH   8   9
ATOM      9  C   UNL     1      15.878 -21.927  21.833  1.00  0.00     0.006 C 
BRANCH   9  10
ATOM     10  C   UNL     1      16.549 -21.120  22.952  1.00  0.00     0.053 C 
BRANCH  10  11
ATOM     11  C   UNL     1      15.712 -21.095  24.194  1.00  0.00     0.041 C 
ATOM     12  O   UNL     1      14.502 -20.753  24.138  1.00  0.00    -0.550 OA
ATOM     13  O   UNL     1      16.261 -21.485  25.410  1.00  0.00    -0.550 OA
ENDBRANCH  10  11
ENDBRANCH   9  10
ENDBRANCH   8   9
ENDBRANCH   1   8
TORSDOF 8
ENDMDL
MODEL 7
REMARK VINA RESULT:    -3.975      1.965      4.053
REMARK INTER + INTRA:          -6.288
REMARK INTER:                  -5.610
REMARK INTRA:                  -0.679
REMARK UNBOUND:                -0.455
REMARK SMILES O=C([O-])CCCCCCCC(=O)[O-]
REMARK SMILES IDX 7 1 6 2 5 3 4 4 2 5 1 6 3 7 8 8 9 9 10 10 11 11 12 12 13 13
REMARK H PARENT
REMARK Flexibility Score: inf
ROOT
ATOM      1  C   UNL     1      14.015 -22.669  20.664  1.00  0.00     0.000 C 
ENDROOT
BRANCH   1   2
ATOM      2  C   UNL     1      14.302 -22.120  19.251  1.00  0.00     0.000 C 
BRANCH   2   3
ATOM      3  C   UNL     1      15.304 -20.954  19.196  1.00  0.00     0.006 C 
BRANCH   3   4
ATOM      4  C   UNL     1      14.627 -19.582  19.301  1.00  0.00     0.053 C 
BRANCH   4   5
ATOM      5  C   UNL     1      15.338 -18.724  20.300  1.00  0.00     0.041 C 
ATOM      6  O   UNL     1      16.535 -18.387  20.106  1.00  0.00    -0.550 OA
ATOM      7  O   UNL     1      14.694 -18.338  21.468  1.00  0.00    -0.550 OA
ENDBRANCH   4   5
ENDBRANCH   3   4
ENDBRANCH   2   3
ENDBRANCH   1   2
BRANCH   1   8
ATOM      8  C   UNL     1      12.840 -22.000  21.398  1.00  0.00     0.000 C 
BRANCH   8   9
ATOM      9  C   UNL     1      13.281 -21.237  22.658  1.00  0.00     0.006 C 
BRANCH   9  10
ATOM     10  C   UNL     1      14.642 -21.717  23.180  1.00  0.00     0.053 C 
BRANCH  10  11
ATOM     11  C   UNL     1      15.196 -20.786  24.214  1.00  0.00     0.041 C 
ATOM     12  O   UNL     1      16.287 -21.047  24.785  1.00  0.00    -0.550 OA
ATOM     13  O   UNL     1      14.523 -19.610  24.522  1.00  0.00    -0.550 OA
ENDBRANCH  10  11
ENDBRANCH   9  10
ENDBRANCH   8   9
ENDBRANCH   1   8
TORSDOF 8
ENDMDL
MODEL 8
REMARK VINA RESULT:    -3.801      1.520      4.336
REMARK INTER + INTRA:          -6.033
REMARK INTER:                  -5.277
REMARK INTRA:                  -0.756
REMARK UNBOUND:                -0.455
REMARK SMILES O=C([O-])CCCCCCCC(=O)[O-]
REMARK SMILES IDX 7 1 6 2 5 3 4 4 2 5 1 6 3 7 8 8 9 9 10 10 11 11 12 12 13 13
REMARK H PARENT
REMARK Flexibility Score: inf
ROOT
ATOM      1  C   UNL     1      14.988 -21.076  19.948  1.00  0.00     0.000 C 
ENDROOT
BRANCH   1   2
ATOM      2  C   UNL     1      14.124 -19.909  19.429  1.00  0.00     0.000 C 
BRANCH   2   3
ATOM      3  C   UNL     1      13.695 -18.889  20.498  1.00  0.00     0.006 C 
BRANCH   3   4
ATOM      4  C   UNL     1      12.190 -18.596  20.472  1.00  0.00     0.053 C 
BRANCH   4   5
ATOM      5  C   UNL     1      11.515 -19.229  21.647  1.00  0.00     0.041 C 
ATOM      6  O   UNL     1      11.376 -20.479  21.701  1.00  0.00    -0.550 OA
ATOM      7  O   UNL     1      10.995 -18.435  22.661  1.00  0.00    -0.550 OA
ENDBRANCH   4   5
ENDBRANCH   3   4
ENDBRANCH   2   3
ENDBRANCH   1   2
BRANCH   1   8
ATOM      8  C   UNL     1      14.199 -22.284  20.483  1.00  0.00     0.000 C 
BRANCH   8   9
ATOM      9  C   UNL     1      14.373 -22.487  21.998  1.00  0.00     0.006 C 
BRANCH   9  10
ATOM     10  C   UNL     1      15.390 -21.509  22.600  1.00  0.00     0.053 C 
BRANCH  10  11
ATOM     11  C   UNL     1      14.953 -21.017  23.946  1.00  0.00     0.041 C 
ATOM     12  O   UNL     1      15.481 -21.476  24.993  1.00  0.00    -0.550 OA
ATOM     13  O   UNL     1      13.985 -20.025  24.042  1.00  0.00    -0.550 OA
ENDBRANCH  10  11
ENDBRANCH   9  10
ENDBRANCH   8   9
ENDBRANCH   1   8
TORSDOF 8
ENDMDL
MODEL 9
REMARK VINA RESULT:    -3.720      2.387      3.365
REMARK INTER + INTRA:          -5.915
REMARK INTER:                  -5.221
REMARK INTRA:                  -0.694
REMARK UNBOUND:                -0.455
REMARK SMILES O=C([O-])CCCCCCCC(=O)[O-]
REMARK SMILES IDX 7 1 6 2 5 3 4 4 2 5 1 6 3 7 8 8 9 9 10 10 11 11 12 12 13 13
REMARK H PARENT
REMARK Flexibility Score: inf
ROOT
ATOM      1  C   UNL     1      14.130 -21.207  19.660  1.00  0.00     0.000 C 
ENDROOT
BRANCH   1   2
ATOM      2  C   UNL     1      14.093 -22.707  20.017  1.00  0.00     0.000 C 
BRANCH   2   3
ATOM      3  C   UNL     1      14.428 -23.037  21.482  1.00  0.00     0.006 C 
BRANCH   3   4
ATOM      4  C   UNL     1      14.120 -21.878  22.439  1.00  0.00     0.053 C 
BRANCH   4   5
ATOM      5  C   UNL     1      15.344 -21.500  23.212  1.00  0.00     0.041 C 
ATOM      6  O   UNL     1      16.444 -21.347  22.620  1.00  0.00    -0.550 OA
ATOM      7  O   UNL     1      15.281 -21.366  24.592  1.00  0.00    -0.550 OA
ENDBRANCH   4   5
ENDBRANCH   3   4
ENDBRANCH   2   3
ENDBRANCH   1   2
BRANCH   1   8
ATOM      8  C   UNL     1      15.483 -20.693  19.136  1.00  0.00     0.000 C 
BRANCH   8   9
ATOM      9  C   UNL     1      15.702 -19.197  19.415  1.00  0.00     0.006 C 
BRANCH   9  10
ATOM     10  C   UNL     1      14.984 -18.734  20.690  1.00  0.00     0.053 C 
BRANCH  10  11
ATOM     11  C   UNL     1      14.731 -17.258  20.676  1.00  0.00     0.041 C 
ATOM     12  O   UNL     1      13.554 -16.816  20.614  1.00  0.00    -0.550 OA
ATOM     13  O   UNL     1      15.795 -16.370  20.766  1.00  0.00    -0.550 OA
ENDBRANCH  10  11
ENDBRANCH   9  10
ENDBRANCH   8   9
ENDBRANCH   1   8
TORSDOF 8
ENDMDL
