MODEL 1
REMARK VINA RESULT:    -3.938      0.000      0.000
REMARK INTER + INTRA:          -4.283
REMARK INTER:                  -4.283
REMARK INTRA:                   0.000
REMARK UNBOUND:                 0.000
REMARK SMILES [NH3+]CC(=O)[O-]
REMARK SMILES IDX 2 1 1 2 3 6 4 7 5 8
REMARK H PARENT 1 3 1 4 1 5
REMARK Flexibility Score: inf
ROOT
ATOM      1  C   UNL     1      15.606  -9.939 -19.996  1.00  0.00     0.312 C 
ENDROOT
BRANCH   1   2
ATOM      2  N   UNL     1      16.348 -10.986 -20.695  1.00  0.00    -0.353 N 
ATOM      3  H   UNL     1      15.720 -11.442 -21.395  1.00  0.00     0.344 HD
ATOM      4  H   UNL     1      17.168 -10.572 -21.195  1.00  0.00     0.344 HD
ATOM      5  H   UNL     1      16.676 -11.709 -20.013  1.00  0.00     0.344 HD
ENDBRANCH   1   2
BRANCH   1   6
ATOM      6  C   UNL     1      14.155 -10.295 -19.897  1.00  0.00     0.096 C 
ATOM      7  O   UNL     1      13.367 -10.008 -20.837  1.00  0.00    -0.544 OA
ATOM      8  O   UNL     1      13.664 -10.897 -18.746  1.00  0.00    -0.544 OA
ENDBRANCH   1   6
TORSDOF 2
ENDMDL
MODEL 2
REMARK VINA RESULT:    -3.917      2.320      2.496
REMARK INTER + INTRA:          -4.261
REMARK INTER:                  -4.261
REMARK INTRA:                   0.000
REMARK UNBOUND:                 0.000
REMARK SMILES [NH3+]CC(=O)[O-]
REMARK SMILES IDX 2 1 1 2 3 6 4 7 5 8
REMARK H PARENT 1 3 1 4 1 5
REMARK Flexibility Score: inf
ROOT
ATOM      1  C   UNL     1      13.844 -10.310 -20.068  1.00  0.00     0.312 C 
ENDROOT
BRANCH   1   2
ATOM      2  N   UNL     1      13.181  -9.055 -20.417  1.00  0.00    -0.353 N 
ATOM      3  H   UNL     1      13.906  -8.323 -20.593  1.00  0.00     0.344 HD
ATOM      4  H   UNL     1      12.609  -9.181 -21.283  1.00  0.00     0.344 HD
ATOM      5  H   UNL     1      12.568  -8.742 -19.629  1.00  0.00     0.344 HD
ENDBRANCH   1   2
BRANCH   1   6
ATOM      6  C   UNL     1      15.277 -10.069 -19.708  1.00  0.00     0.096 C 
ATOM      7  O   UNL     1      16.151  -9.981 -20.611  1.00  0.00    -0.544 OA
ATOM      8  O   UNL     1      15.656  -9.992 -18.374  1.00  0.00    -0.544 OA
ENDBRANCH   1   6
TORSDOF 2
ENDMDL
MODEL 3
REMARK VINA RESULT:    -3.844      3.633      4.095
REMARK INTER + INTRA:          -4.181
REMARK INTER:                  -4.181
REMARK INTRA:                   0.000
REMARK UNBOUND:                 0.000
REMARK SMILES [NH3+]CC(=O)[O-]
REMARK SMILES IDX 2 1 1 2 3 6 4 7 5 8
REMARK H PARENT 1 3 1 4 1 5
REMARK Flexibility Score: inf
ROOT
ATOM      1  C   UNL     1      13.654  -9.368 -17.416  1.00  0.00     0.312 C 
ENDROOT
BRANCH   1   2
ATOM      2  N   UNL     1      12.409  -8.604 -17.357  1.00  0.00    -0.353 N 
ATOM      3  H   UNL     1      12.344  -8.127 -16.429  1.00  0.00     0.344 HD
ATOM      4  H   UNL     1      12.396  -7.880 -18.112  1.00  0.00     0.344 HD
ATOM      5  H   UNL     1      11.589  -9.246 -17.467  1.00  0.00     0.344 HD
ENDBRANCH   1   2
BRANCH   1   6
ATOM      6  C   UNL     1      13.465 -10.733 -16.831  1.00  0.00     0.096 C 
ATOM      7  O   UNL     1      13.558 -10.907 -15.586  1.00  0.00    -0.544 OA
ATOM      8  O   UNL     1      13.235 -11.821 -17.663  1.00  0.00    -0.544 OA
ENDBRANCH   1   6
TORSDOF 2
ENDMDL
MODEL 4
REMARK VINA RESULT:    -3.807      3.013      3.454
REMARK INTER + INTRA:          -4.141
REMARK INTER:                  -4.141
REMARK INTRA:                   0.000
REMARK UNBOUND:                 0.000
REMARK SMILES [NH3+]CC(=O)[O-]
REMARK SMILES IDX 2 1 1 2 3 6 4 7 5 8
REMARK H PARENT 1 3 1 4 1 5
REMARK Flexibility Score: inf
ROOT
ATOM      1  C   UNL     1      13.667  -9.447 -17.329  1.00  0.00     0.312 C 
ENDROOT
BRANCH   1   2
ATOM      2  N   UNL     1      12.442  -8.657 -17.433  1.00  0.00    -0.353 N 
ATOM      3  H   UNL     1      12.033  -8.533 -16.480  1.00  0.00     0.344 HD
ATOM      4  H   UNL     1      12.655  -7.716 -17.836  1.00  0.00     0.344 HD
ATOM      5  H   UNL     1      11.746  -9.152 -18.038  1.00  0.00     0.344 HD
ENDBRANCH   1   2
BRANCH   1   6
ATOM      6  C   UNL     1      13.589 -10.661 -18.202  1.00  0.00     0.096 C 
ATOM      7  O   UNL     1      13.372 -11.794 -17.694  1.00  0.00    -0.544 OA
ATOM      8  O   UNL     1      13.805 -10.550 -19.569  1.00  0.00    -0.544 OA
ENDBRANCH   1   6
TORSDOF 2
ENDMDL
MODEL 5
REMARK VINA RESULT:    -3.786      2.326      2.508
REMARK INTER + INTRA:          -4.118
REMARK INTER:                  -4.118
REMARK INTRA:                   0.000
REMARK UNBOUND:                 0.000
REMARK SMILES [NH3+]CC(=O)[O-]
REMARK SMILES IDX 2 1 1 2 3 6 4 7 5 8
REMARK H PARENT 1 3 1 4 1 5
REMARK Flexibility Score: inf
ROOT
ATOM      1  C   UNL     1      13.913 -10.226 -20.297  1.00  0.00     0.312 C 
ENDROOT
BRANCH   1   2
ATOM      2  N   UNL     1      13.029  -9.067 -20.417  1.00  0.00    -0.353 N 
ATOM      3  H   UNL     1      12.037  -9.383 -20.331  1.00  0.00     0.344 HD
ATOM      4  H   UNL     1      13.234  -8.380 -19.656  1.00  0.00     0.344 HD
ATOM      5  H   UNL     1      13.161  -8.613 -21.351  1.00  0.00     0.344 HD
ENDBRANCH   1   2
BRANCH   1   6
ATOM      6  C   UNL     1      14.223 -10.507 -18.860  1.00  0.00     0.096 C 
ATOM      7  O   UNL     1      13.411 -11.161 -18.152  1.00  0.00    -0.544 OA
ATOM      8  O   UNL     1      15.384 -10.005 -18.287  1.00  0.00    -0.544 OA
ENDBRANCH   1   6
TORSDOF 2
ENDMDL
MODEL 6
REMARK VINA RESULT:    -3.786      4.830      5.181
REMARK INTER + INTRA:          -4.118
REMARK INTER:                  -4.118
REMARK INTRA:                   0.000
REMARK UNBOUND:                 0.000
REMARK SMILES [NH3+]CC(=O)[O-]
REMARK SMILES IDX 2 1 1 2 3 6 4 7 5 8
REMARK H PARENT 1 3 1 4 1 5
REMARK Flexibility Score: inf
ROOT
ATOM      1  C   UNL     1      15.038 -11.233 -14.308  1.00  0.00     0.312 C 
ENDROOT
BRANCH   1   2
ATOM      2  N   UNL     1      15.843 -10.179 -13.693  1.00  0.00    -0.353 N 
ATOM      3  H   UNL     1      15.844 -10.310 -12.657  1.00  0.00     0.344 HD
ATOM      4  H   UNL     1      16.827 -10.229 -14.043  1.00  0.00     0.344 HD
ATOM      5  H   UNL     1      15.435  -9.241 -13.916  1.00  0.00     0.344 HD
ENDBRANCH   1   2
BRANCH   1   6
ATOM      6  C   UNL     1      14.862 -10.978 -15.773  1.00  0.00     0.096 C 
ATOM      7  O   UNL     1      15.831 -11.130 -16.563  1.00  0.00    -0.544 OA
ATOM      8  O   UNL     1      13.643 -10.524 -16.258  1.00  0.00    -0.544 OA
ENDBRANCH   1   6
TORSDOF 2
ENDMDL
MODEL 7
REMARK VINA RESULT:    -3.767      2.235      2.464
REMARK INTER + INTRA:          -4.098
REMARK INTER:                  -4.098
REMARK INTRA:                   0.000
REMARK UNBOUND:                 0.000
REMARK SMILES [NH3+]CC(=O)[O-]
REMARK SMILES IDX 2 1 1 2 3 6 4 7 5 8
REMARK H PARENT 1 3 1 4 1 5
REMARK Flexibility Score: inf
ROOT
ATOM      1  C   UNL     1      15.736 -11.440 -17.560  1.00  0.00     0.312 C 
ENDROOT
BRANCH   1   2
ATOM      2  N   UNL     1      16.572 -12.494 -18.131  1.00  0.00    -0.353 N 
ATOM      3  H   UNL     1      16.611 -13.299 -17.465  1.00  0.00     0.344 HD
ATOM      4  H   UNL     1      16.166 -12.823 -19.037  1.00  0.00     0.344 HD
ATOM      5  H   UNL     1      17.543 -12.136 -18.287  1.00  0.00     0.344 HD
ENDBRANCH   1   2
BRANCH   1   6
ATOM      6  C   UNL     1      14.964 -10.738 -18.633  1.00  0.00     0.096 C 
ATOM      7  O   UNL     1      13.717 -10.894 -18.724  1.00  0.00    -0.544 OA
ATOM      8  O   UNL     1      15.628  -9.951 -19.565  1.00  0.00    -0.544 OA
ENDBRANCH   1   6
TORSDOF 2
ENDMDL
MODEL 8
REMARK VINA RESULT:    -3.752      2.341      2.361
REMARK INTER + INTRA:          -4.081
REMARK INTER:                  -4.081
REMARK INTRA:                   0.000
REMARK UNBOUND:                 0.000
REMARK SMILES [NH3+]CC(=O)[O-]
REMARK SMILES IDX 2 1 1 2 3 6 4 7 5 8
REMARK H PARENT 1 3 1 4 1 5
REMARK Flexibility Score: inf
ROOT
ATOM      1  C   UNL     1      15.718  -9.927 -17.559  1.00  0.00     0.312 C 
ENDROOT
BRANCH   1   2
ATOM      2  N   UNL     1      16.388 -11.123 -17.050  1.00  0.00    -0.353 N 
ATOM      3  H   UNL     1      15.998 -11.964 -17.532  1.00  0.00     0.344 HD
ATOM      4  H   UNL     1      17.414 -11.067 -17.241  1.00  0.00     0.344 HD
ATOM      5  H   UNL     1      16.222 -11.215 -16.021  1.00  0.00     0.344 HD
ENDBRANCH   1   2
BRANCH   1   6
ATOM      6  C   UNL     1      15.133 -10.184 -18.913  1.00  0.00     0.096 C 
ATOM      7  O   UNL     1      15.759  -9.836 -19.950  1.00  0.00    -0.544 OA
ATOM      8  O   UNL     1      13.876 -10.763 -19.029  1.00  0.00    -0.544 OA
ENDBRANCH   1   6
TORSDOF 2
ENDMDL
MODEL 9
REMARK VINA RESULT:    -3.750      4.948      5.341
REMARK INTER + INTRA:          -4.079
REMARK INTER:                  -4.079
REMARK INTRA:                   0.000
REMARK UNBOUND:                 0.000
REMARK SMILES [NH3+]CC(=O)[O-]
REMARK SMILES IDX 2 1 1 2 3 6 4 7 5 8
REMARK H PARENT 1 3 1 4 1 5
REMARK Flexibility Score: inf
ROOT
ATOM      1  C   UNL     1      14.766 -10.964 -16.054  1.00  0.00     0.312 C 
ENDROOT
BRANCH   1   2
ATOM      2  N   UNL     1      16.153 -11.034 -16.511  1.00  0.00    -0.353 N 
ATOM      3  H   UNL     1      16.195 -10.759 -17.518  1.00  0.00     0.344 HD
ATOM      4  H   UNL     1      16.747 -10.377 -15.955  1.00  0.00     0.344 HD
ATOM      5  H   UNL     1      16.514 -12.011 -16.411  1.00  0.00     0.344 HD
ENDBRANCH   1   2
BRANCH   1   6
ATOM      6  C   UNL     1      14.680 -11.233 -14.584  1.00  0.00     0.096 C 
ATOM      7  O   UNL     1      15.721 -11.221 -13.875  1.00  0.00    -0.544 OA
ATOM      8  O   UNL     1      13.457 -11.547 -14.005  1.00  0.00    -0.544 OA
ENDBRANCH   1   6
TORSDOF 2
ENDMDL
