MODEL 1
REMARK VINA RESULT:    -6.010      0.000      0.000
REMARK INTER + INTRA:          -7.201
REMARK INTER:                  -7.064
REMARK INTRA:                  -0.137
REMARK UNBOUND:                -0.137
REMARK SMILES O=C([O-])C=Cc1ccc(O)c(O)c1
REMARK SMILES IDX 6 1 13 2 7 3 11 4 8 5 9 6 5 7 4 8 2 9 1 10 3 11 12 12 10 14
REMARK H PARENT 12 13 10 15
REMARK Flexibility Score: inf
ROOT
ATOM      1  C   UNL     1      10.304  -4.553  19.722  1.00  0.00    -0.022 A 
ATOM      2  C   UNL     1      10.472  -5.953  19.740  1.00  0.00     0.058 A 
ATOM      3  C   UNL     1       9.003  -4.027  19.760  1.00  0.00     0.012 A 
ATOM      4  C   UNL     1       9.358  -6.804  19.769  1.00  0.00     0.157 A 
ATOM      5  C   UNL     1       7.893  -4.875  19.787  1.00  0.00     0.051 A 
ATOM      6  C   UNL     1       8.066  -6.264  19.789  1.00  0.00     0.157 A 
ENDROOT
BRANCH   1   7
ATOM      7  C   UNL     1      11.451  -3.612  19.704  1.00  0.00     0.010 C 
ATOM      8  C   UNL     1      11.598  -2.634  18.799  1.00  0.00     0.025 C 
BRANCH   8   9
ATOM      9  C   UNL     1      12.746  -1.715  18.827  1.00  0.00     0.064 C 
ATOM     10  O   UNL     1      12.605  -0.533  18.418  1.00  0.00    -0.545 OA
ATOM     11  O   UNL     1      13.987  -2.131  19.295  1.00  0.00    -0.545 OA
ENDBRANCH   8   9
ENDBRANCH   1   7
BRANCH   4  12
ATOM     12  O   UNL     1       9.526  -8.187  19.781  1.00  0.00    -0.504 OA
ATOM     13  H   UNL     1       8.847  -8.808  19.358  1.00  0.00     0.293 HD
ENDBRANCH   4  12
BRANCH   6  14
ATOM     14  O   UNL     1       6.962  -7.113  19.814  1.00  0.00    -0.504 OA
ATOM     15  H   UNL     1       6.883  -7.861  20.494  1.00  0.00     0.293 HD
ENDBRANCH   6  14
TORSDOF 4
ENDMDL
MODEL 2
REMARK VINA RESULT:    -5.833      1.296      2.420
REMARK INTER + INTRA:          -6.993
REMARK INTER:                  -6.856
REMARK INTRA:                  -0.137
REMARK UNBOUND:                -0.137
REMARK SMILES O=C([O-])C=Cc1ccc(O)c(O)c1
REMARK SMILES IDX 6 1 13 2 7 3 11 4 8 5 9 6 5 7 4 8 2 9 1 10 3 11 12 12 10 14
REMARK H PARENT 12 13 10 15
REMARK Flexibility Score: inf
ROOT
ATOM      1  C   UNL     1       9.907  -3.930  19.722  1.00  0.00    -0.022 A 
ATOM      2  C   UNL     1       8.634  -4.526  19.834  1.00  0.00     0.058 A 
ATOM      3  C   UNL     1      11.038  -4.758  19.652  1.00  0.00     0.012 A 
ATOM      4  C   UNL     1       8.504  -5.921  19.899  1.00  0.00     0.157 A 
ATOM      5  C   UNL     1      10.909  -6.148  19.718  1.00  0.00     0.051 A 
ATOM      6  C   UNL     1       9.644  -6.733  19.844  1.00  0.00     0.157 A 
ENDROOT
BRANCH   1   7
ATOM      7  C   UNL     1      10.095  -2.461  19.638  1.00  0.00     0.010 C 
ATOM      8  C   UNL     1      10.755  -1.850  18.645  1.00  0.00     0.025 C 
BRANCH   8   9
ATOM      9  C   UNL     1      10.907  -0.387  18.596  1.00  0.00     0.064 C 
ATOM     10  O   UNL     1      12.053   0.114  18.458  1.00  0.00    -0.545 OA
ATOM     11  O   UNL     1       9.805   0.453  18.705  1.00  0.00    -0.545 OA
ENDBRANCH   8   9
ENDBRANCH   1   7
BRANCH   4  12
ATOM     12  O   UNL     1       7.245  -6.508  20.013  1.00  0.00    -0.504 OA
ATOM     13  H   UNL     1       6.451  -6.168  19.485  1.00  0.00     0.293 HD
ENDBRANCH   4  12
BRANCH   6  14
ATOM     14  O   UNL     1       9.510  -8.118  19.913  1.00  0.00    -0.504 OA
ATOM     15  H   UNL     1       9.183  -8.578  20.756  1.00  0.00     0.293 HD
ENDBRANCH   6  14
TORSDOF 4
ENDMDL
MODEL 3
REMARK VINA RESULT:    -5.729      0.969      1.996
REMARK INTER + INTRA:          -6.871
REMARK INTER:                  -6.737
REMARK INTRA:                  -0.133
REMARK UNBOUND:                -0.137
REMARK SMILES O=C([O-])C=Cc1ccc(O)c(O)c1
REMARK SMILES IDX 6 1 13 2 7 3 11 4 8 5 9 6 5 7 4 8 2 9 1 10 3 11 12 12 10 14
REMARK H PARENT 12 13 10 15
REMARK Flexibility Score: inf
ROOT
ATOM      1  C   UNL     1      10.518  -4.029  19.800  1.00  0.00    -0.022 A 
ATOM      2  C   UNL     1       9.143  -4.343  19.778  1.00  0.00     0.058 A 
ATOM      3  C   UNL     1      11.452  -5.077  19.813  1.00  0.00     0.012 A 
ATOM      4  C   UNL     1       8.718  -5.679  19.795  1.00  0.00     0.157 A 
ATOM      5  C   UNL     1      11.027  -6.409  19.831  1.00  0.00     0.051 A 
ATOM      6  C   UNL     1       9.661  -6.713  19.825  1.00  0.00     0.157 A 
ENDROOT
BRANCH   1   7
ATOM      7  C   UNL     1      11.018  -2.633  19.771  1.00  0.00     0.010 C 
ATOM      8  C   UNL     1      11.747  -2.123  18.769  1.00  0.00     0.025 C 
BRANCH   8   9
ATOM      9  C   UNL     1      12.212  -0.727  18.778  1.00  0.00     0.064 C 
ATOM     10  O   UNL     1      11.505   0.166  18.242  1.00  0.00    -0.545 OA
ATOM     11  O   UNL     1      13.422  -0.377  19.365  1.00  0.00    -0.545 OA
ENDBRANCH   8   9
ENDBRANCH   1   7
BRANCH   4  12
ATOM     12  O   UNL     1       7.358  -5.987  19.778  1.00  0.00    -0.504 OA
ATOM     13  H   UNL     1       7.026  -6.906  19.511  1.00  0.00     0.293 HD
ENDBRANCH   4  12
BRANCH   6  14
ATOM     14  O   UNL     1       9.233  -8.039  19.846  1.00  0.00    -0.504 OA
ATOM     15  H   UNL     1       8.527  -8.378  19.202  1.00  0.00     0.293 HD
ENDBRANCH   6  14
TORSDOF 4
ENDMDL
MODEL 4
REMARK VINA RESULT:    -5.665      1.752      2.366
REMARK INTER + INTRA:          -6.796
REMARK INTER:                  -6.672
REMARK INTRA:                  -0.123
REMARK UNBOUND:                -0.137
REMARK SMILES O=C([O-])C=Cc1ccc(O)c(O)c1
REMARK SMILES IDX 6 1 13 2 7 3 11 4 8 5 9 6 5 7 4 8 2 9 1 10 3 11 12 12 10 14
REMARK H PARENT 12 13 10 15
REMARK Flexibility Score: inf
ROOT
ATOM      1  C   UNL     1       9.622  -3.688  19.661  1.00  0.00    -0.022 A 
ATOM      2  C   UNL     1      10.776  -4.496  19.727  1.00  0.00     0.058 A 
ATOM      3  C   UNL     1       8.361  -4.306  19.681  1.00  0.00     0.012 A 
ATOM      4  C   UNL     1      10.666  -5.892  19.787  1.00  0.00     0.157 A 
ATOM      5  C   UNL     1       8.252  -5.698  19.739  1.00  0.00     0.051 A 
ATOM      6  C   UNL     1       9.401  -6.494  19.789  1.00  0.00     0.157 A 
ENDROOT
BRANCH   1   7
ATOM      7  C   UNL     1       9.686  -2.207  19.608  1.00  0.00     0.010 C 
ATOM      8  C   UNL     1      10.339  -1.522  18.658  1.00  0.00     0.025 C 
BRANCH   8   9
ATOM      9  C   UNL     1      10.365  -0.051  18.639  1.00  0.00     0.064 C 
ATOM     10  O   UNL     1      11.467   0.548  18.535  1.00  0.00    -0.545 OA
ATOM     11  O   UNL     1       9.192   0.689  18.738  1.00  0.00    -0.545 OA
ENDBRANCH   8   9
ENDBRANCH   1   7
BRANCH   4  12
ATOM     12  O   UNL     1      11.808  -6.689  19.848  1.00  0.00    -0.504 OA
ATOM     13  H   UNL     1      12.202  -6.983  20.733  1.00  0.00     0.293 HD
ENDBRANCH   4  12
BRANCH   6  14
ATOM     14  O   UNL     1       9.297  -7.883  19.845  1.00  0.00    -0.504 OA
ATOM     15  H   UNL     1       9.007  -8.359  20.692  1.00  0.00     0.293 HD
ENDBRANCH   6  14
TORSDOF 4
ENDMDL
MODEL 5
REMARK VINA RESULT:    -5.575      0.758      2.066
REMARK INTER + INTRA:          -6.690
REMARK INTER:                  -6.563
REMARK INTRA:                  -0.126
REMARK UNBOUND:                -0.137
REMARK SMILES O=C([O-])C=Cc1ccc(O)c(O)c1
REMARK SMILES IDX 6 1 13 2 7 3 11 4 8 5 9 6 5 7 4 8 2 9 1 10 3 11 12 12 10 14
REMARK H PARENT 12 13 10 15
REMARK Flexibility Score: inf
ROOT
ATOM      1  C   UNL     1      10.447  -4.431  19.766  1.00  0.00    -0.022 A 
ATOM      2  C   UNL     1       9.095  -4.030  19.768  1.00  0.00     0.058 A 
ATOM      3  C   UNL     1      10.746  -5.802  19.728  1.00  0.00     0.012 A 
ATOM      4  C   UNL     1       8.069  -4.985  19.759  1.00  0.00     0.157 A 
ATOM      5  C   UNL     1       9.723  -6.754  19.721  1.00  0.00     0.051 A 
ATOM      6  C   UNL     1       8.384  -6.350  19.739  1.00  0.00     0.157 A 
ENDROOT
BRANCH   1   7
ATOM      7  C   UNL     1      11.568  -3.459  19.763  1.00  0.00     0.010 C 
ATOM      8  C   UNL     1      11.676  -2.448  18.890  1.00  0.00     0.025 C 
BRANCH   8   9
ATOM      9  C   UNL     1      12.800  -1.500  18.933  1.00  0.00     0.064 C 
ATOM     10  O   UNL     1      13.948  -1.912  19.242  1.00  0.00    -0.545 OA
ATOM     11  O   UNL     1      12.615  -0.153  18.642  1.00  0.00    -0.545 OA
ENDBRANCH   8   9
ENDBRANCH   1   7
BRANCH   4  12
ATOM     12  O   UNL     1       6.733  -4.587  19.766  1.00  0.00    -0.504 OA
ATOM     13  H   UNL     1       6.301  -4.166  18.952  1.00  0.00     0.293 HD
ENDBRANCH   4  12
BRANCH   6  14
ATOM     14  O   UNL     1       7.360  -7.295  19.734  1.00  0.00    -0.504 OA
ATOM     15  H   UNL     1       7.537  -8.266  19.503  1.00  0.00     0.293 HD
ENDBRANCH   6  14
TORSDOF 4
ENDMDL
MODEL 6
REMARK VINA RESULT:    -5.472      1.902      6.117
REMARK INTER + INTRA:          -6.569
REMARK INTER:                  -6.442
REMARK INTRA:                  -0.127
REMARK UNBOUND:                -0.137
REMARK SMILES O=C([O-])C=Cc1ccc(O)c(O)c1
REMARK SMILES IDX 6 1 13 2 7 3 11 4 8 5 9 6 5 7 4 8 2 9 1 10 3 11 12 12 10 14
REMARK H PARENT 12 13 10 15
REMARK Flexibility Score: inf
ROOT
ATOM      1  C   UNL     1      11.540  -2.627  18.879  1.00  0.00    -0.022 A 
ATOM      2  C   UNL     1      10.398  -1.836  18.638  1.00  0.00     0.058 A 
ATOM      3  C   UNL     1      12.795  -2.000  18.952  1.00  0.00     0.012 A 
ATOM      4  C   UNL     1      10.517  -0.451  18.451  1.00  0.00     0.157 A 
ATOM      5  C   UNL     1      12.913  -0.621  18.763  1.00  0.00     0.051 A 
ATOM      6  C   UNL     1      11.777   0.157  18.510  1.00  0.00     0.157 A 
ENDROOT
BRANCH   1   7
ATOM      7  C   UNL     1      11.465  -4.092  19.095  1.00  0.00     0.010 C 
ATOM      8  C   UNL     1      10.421  -4.709  19.667  1.00  0.00     0.025 C 
BRANCH   8   9
ATOM      9  C   UNL     1      10.385  -6.168  19.850  1.00  0.00     0.064 C 
ATOM     10  O   UNL     1      11.451  -6.790  20.096  1.00  0.00    -0.545 OA
ATOM     11  O   UNL     1       9.191  -6.874  19.752  1.00  0.00    -0.545 OA
ENDBRANCH   8   9
ENDBRANCH   1   7
BRANCH   4  12
ATOM     12  O   UNL     1       9.387   0.329  18.209  1.00  0.00    -0.504 OA
ATOM     13  H   UNL     1       9.455   1.327  18.055  1.00  0.00     0.293 HD
ENDBRANCH   4  12
BRANCH   6  14
ATOM     14  O   UNL     1      11.891   1.532  18.319  1.00  0.00    -0.504 OA
ATOM     15  H   UNL     1      12.405   1.918  17.535  1.00  0.00     0.293 HD
ENDBRANCH   6  14
TORSDOF 4
ENDMDL
MODEL 7
REMARK VINA RESULT:    -5.394     12.752     15.102
REMARK INTER + INTRA:          -6.478
REMARK INTER:                  -6.350
REMARK INTRA:                  -0.128
REMARK UNBOUND:                -0.137
REMARK SMILES O=C([O-])C=Cc1ccc(O)c(O)c1
REMARK SMILES IDX 6 1 13 2 7 3 11 4 8 5 9 6 5 7 4 8 2 9 1 10 3 11 12 12 10 14
REMARK H PARENT 12 13 10 15
REMARK Flexibility Score: inf
ROOT
ATOM      1  C   UNL     1       6.622   5.720  10.380  1.00  0.00    -0.022 A 
ATOM      2  C   UNL     1       7.337   6.668  11.139  1.00  0.00     0.058 A 
ATOM      3  C   UNL     1       5.904   6.156   9.255  1.00  0.00     0.012 A 
ATOM      4  C   UNL     1       7.311   8.026  10.791  1.00  0.00     0.157 A 
ATOM      5  C   UNL     1       5.876   7.510   8.910  1.00  0.00     0.051 A 
ATOM      6  C   UNL     1       6.576   8.448   9.677  1.00  0.00     0.157 A 
ENDROOT
BRANCH   1   7
ATOM      7  C   UNL     1       6.629   4.271  10.700  1.00  0.00     0.010 C 
ATOM      8  C   UNL     1       7.394   3.371  10.067  1.00  0.00     0.025 C 
BRANCH   8   9
ATOM      9  C   UNL     1       7.377   1.945  10.427  1.00  0.00     0.064 C 
ATOM     10  O   UNL     1       6.651   1.149   9.776  1.00  0.00    -0.545 OA
ATOM     11  O   UNL     1       8.147   1.461  11.479  1.00  0.00    -0.545 OA
ENDBRANCH   8   9
ENDBRANCH   1   7
BRANCH   4  12
ATOM     12  O   UNL     1       8.015   8.962  11.546  1.00  0.00    -0.504 OA
ATOM     13  H   UNL     1       9.017   9.077  11.449  1.00  0.00     0.293 HD
ENDBRANCH   4  12
BRANCH   6  14
ATOM     14  O   UNL     1       6.549   9.799   9.338  1.00  0.00    -0.504 OA
ATOM     15  H   UNL     1       7.223  10.198   8.694  1.00  0.00     0.293 HD
ENDBRANCH   6  14
TORSDOF 4
ENDMDL
MODEL 8
REMARK VINA RESULT:    -5.076     11.646     13.203
REMARK INTER + INTRA:          -6.104
REMARK INTER:                  -5.950
REMARK INTRA:                  -0.154
REMARK UNBOUND:                -0.137
REMARK SMILES O=C([O-])C=Cc1ccc(O)c(O)c1
REMARK SMILES IDX 6 1 13 2 7 3 11 4 8 5 9 6 5 7 4 8 2 9 1 10 3 11 12 12 10 14
REMARK H PARENT 12 13 10 15
REMARK Flexibility Score: inf
ROOT
ATOM      1  C   UNL     1       7.465   4.513  10.887  1.00  0.00    -0.022 A 
ATOM      2  C   UNL     1       8.261   3.620  11.633  1.00  0.00     0.058 A 
ATOM      3  C   UNL     1       6.570   3.992   9.939  1.00  0.00     0.012 A 
ATOM      4  C   UNL     1       8.177   2.237  11.414  1.00  0.00     0.157 A 
ATOM      5  C   UNL     1       6.488   2.614   9.720  1.00  0.00     0.051 A 
ATOM      6  C   UNL     1       7.292   1.734  10.453  1.00  0.00     0.157 A 
ENDROOT
BRANCH   1   7
ATOM      7  C   UNL     1       7.508   5.982  11.091  1.00  0.00     0.010 C 
ATOM      8  C   UNL     1       6.866   6.862  10.310  1.00  0.00     0.025 C 
BRANCH   8   9
ATOM      9  C   UNL     1       6.928   8.311  10.557  1.00  0.00     0.064 C 
ATOM     10  O   UNL     1       7.595   8.746  11.532  1.00  0.00    -0.545 OA
ATOM     11  O   UNL     1       6.258   9.209   9.734  1.00  0.00    -0.545 OA
ENDBRANCH   8   9
ENDBRANCH   1   7
BRANCH   4  12
ATOM     12  O   UNL     1       8.968   1.357  12.150  1.00  0.00    -0.504 OA
ATOM     13  H   UNL     1       9.507   1.668  12.949  1.00  0.00     0.293 HD
ENDBRANCH   4  12
BRANCH   6  14
ATOM     14  O   UNL     1       7.215   0.360  10.236  1.00  0.00    -0.504 OA
ATOM     15  H   UNL     1       6.649  -0.239  10.827  1.00  0.00     0.293 HD
ENDBRANCH   6  14
TORSDOF 4
ENDMDL
