MODEL 1
REMARK VINA RESULT:    -5.854      0.000      0.000
REMARK INTER + INTRA:          -6.454
REMARK INTER:                  -6.367
REMARK INTRA:                  -0.087
REMARK UNBOUND:                -0.087
REMARK SMILES C=C(C)[C@H]1CC=C(C)[C@H](O)C1
REMARK SMILES IDX 8 1 7 2 6 3 5 4 4 5 11 6 9 7 10 8 2 10 1 11 3 12
REMARK H PARENT 10 9
REMARK Flexibility Score: inf
ROOT
ATOM      1  C   UNL     1     136.531 124.792 134.689  1.00  0.00     0.042 C 
ATOM      2  C   UNL     1     136.131 126.224 134.922  1.00  0.00    -0.049 C 
ATOM      3  C   UNL     1     135.881 127.012 133.854  1.00  0.00    -0.025 C 
ATOM      4  C   UNL     1     135.540 128.477 133.972  1.00  0.00     0.035 C 
ATOM      5  C   UNL     1     134.978 128.835 135.359  1.00  0.00     0.021 C 
ATOM      6  C   UNL     1     135.875 128.236 136.455  1.00  0.00     0.044 C 
ATOM      7  C   UNL     1     135.907 126.701 136.346  1.00  0.00     0.140 C 
ENDROOT
BRANCH   7   8
ATOM      8  O   UNL     1     134.700 126.159 136.815  1.00  0.00    -0.389 OA
ATOM      9  H   UNL     1     134.409 125.483 136.148  1.00  0.00     0.211 HD
ENDBRANCH   7   8
BRANCH   5  10
ATOM     10  C   UNL     1     134.811 130.340 135.525  1.00  0.00    -0.077 C 
ATOM     11  C   UNL     1     133.603 130.893 135.733  1.00  0.00     0.008 C 
ATOM     12  C   UNL     1     136.013 131.245 135.453  1.00  0.00     0.039 C 
ENDBRANCH   5  10
TORSDOF 2
ENDMDL
MODEL 2
REMARK VINA RESULT:    -5.423      1.493      2.212
REMARK INTER + INTRA:          -5.986
REMARK INTER:                  -5.899
REMARK INTRA:                  -0.087
REMARK UNBOUND:                -0.087
REMARK SMILES C=C(C)[C@H]1CC=C(C)[C@H](O)C1
REMARK SMILES IDX 8 1 7 2 6 3 5 4 4 5 11 6 9 7 10 8 2 10 1 11 3 12
REMARK H PARENT 10 9
REMARK Flexibility Score: inf
ROOT
ATOM      1  C   UNL     1     136.798 125.119 134.822  1.00  0.00     0.042 C 
ATOM      2  C   UNL     1     136.371 126.546 135.032  1.00  0.00    -0.049 C 
ATOM      3  C   UNL     1     137.065 127.313 135.901  1.00  0.00    -0.025 C 
ATOM      4  C   UNL     1     136.682 128.733 136.237  1.00  0.00     0.035 C 
ATOM      5  C   UNL     1     135.821 129.379 135.137  1.00  0.00     0.021 C 
ATOM      6  C   UNL     1     134.683 128.425 134.738  1.00  0.00     0.044 C 
ATOM      7  C   UNL     1     135.254 127.111 134.172  1.00  0.00     0.140 C 
ENDROOT
BRANCH   7   8
ATOM      8  O   UNL     1     135.749 127.320 132.875  1.00  0.00    -0.389 OA
ATOM      9  H   UNL     1     134.998 127.146 132.249  1.00  0.00     0.211 HD
ENDBRANCH   7   8
BRANCH   5  10
ATOM     10  C   UNL     1     135.291 130.740 135.568  1.00  0.00    -0.077 C 
ATOM     11  C   UNL     1     136.094 131.817 135.630  1.00  0.00     0.008 C 
ATOM     12  C   UNL     1     133.840 130.902 135.941  1.00  0.00     0.039 C 
ENDBRANCH   5  10
TORSDOF 2
ENDMDL
MODEL 3
REMARK VINA RESULT:    -5.379      8.352      9.704
REMARK INTER + INTRA:          -5.938
REMARK INTER:                  -5.848
REMARK INTRA:                  -0.090
REMARK UNBOUND:                -0.087
REMARK SMILES C=C(C)[C@H]1CC=C(C)[C@H](O)C1
REMARK SMILES IDX 8 1 7 2 6 3 5 4 4 5 11 6 9 7 10 8 2 10 1 11 3 12
REMARK H PARENT 10 9
REMARK Flexibility Score: inf
ROOT
ATOM      1  C   UNL     1     134.595 130.349 141.397  1.00  0.00     0.042 C 
ATOM      2  C   UNL     1     134.396 131.615 142.186  1.00  0.00    -0.049 C 
ATOM      3  C   UNL     1     134.393 132.797 141.533  1.00  0.00    -0.025 C 
ATOM      4  C   UNL     1     134.270 134.126 142.235  1.00  0.00     0.035 C 
ATOM      5  C   UNL     1     133.614 133.995 143.621  1.00  0.00     0.021 C 
ATOM      6  C   UNL     1     134.278 132.851 144.405  1.00  0.00     0.044 C 
ATOM      7  C   UNL     1     134.086 131.512 143.670  1.00  0.00     0.140 C 
ENDROOT
BRANCH   7   8
ATOM      8  O   UNL     1     132.764 131.063 143.821  1.00  0.00    -0.389 OA
ATOM      9  H   UNL     1     132.284 131.291 142.982  1.00  0.00     0.211 HD
ENDBRANCH   7   8
BRANCH   5  10
ATOM     10  C   UNL     1     133.663 135.309 144.391  1.00  0.00    -0.077 C 
ATOM     11  C   UNL     1     134.810 135.766 144.925  1.00  0.00     0.008 C 
ATOM     12  C   UNL     1     132.410 136.125 144.573  1.00  0.00     0.039 C 
ENDBRANCH   5  10
TORSDOF 2
ENDMDL
MODEL 4
REMARK VINA RESULT:    -5.357      1.940      3.270
REMARK INTER + INTRA:          -5.914
REMARK INTER:                  -5.827
REMARK INTRA:                  -0.087
REMARK UNBOUND:                -0.087
REMARK SMILES C=C(C)[C@H]1CC=C(C)[C@H](O)C1
REMARK SMILES IDX 8 1 7 2 6 3 5 4 4 5 11 6 9 7 10 8 2 10 1 11 3 12
REMARK H PARENT 10 9
REMARK Flexibility Score: inf
ROOT
ATOM      1  C   UNL     1     134.625 125.367 139.701  1.00  0.00     0.042 C 
ATOM      2  C   UNL     1     134.861 126.083 138.399  1.00  0.00    -0.049 C 
ATOM      3  C   UNL     1     135.824 125.626 137.569  1.00  0.00    -0.025 C 
ATOM      4  C   UNL     1     136.188 126.307 136.273  1.00  0.00     0.035 C 
ATOM      5  C   UNL     1     135.045 127.189 135.738  1.00  0.00     0.021 C 
ATOM      6  C   UNL     1     134.503 128.080 136.867  1.00  0.00     0.044 C 
ATOM      7  C   UNL     1     133.931 127.218 138.007  1.00  0.00     0.140 C 
ENDROOT
BRANCH   7   8
ATOM      8  O   UNL     1     132.695 126.672 137.626  1.00  0.00    -0.389 OA
ATOM      9  H   UNL     1     131.992 127.297 137.948  1.00  0.00     0.211 HD
ENDBRANCH   7   8
BRANCH   5  10
ATOM     10  C   UNL     1     135.489 128.010 134.534  1.00  0.00    -0.077 C 
ATOM     11  C   UNL     1     135.513 127.483 133.297  1.00  0.00     0.008 C 
ATOM     12  C   UNL     1     135.918 129.443 134.714  1.00  0.00     0.039 C 
ENDBRANCH   5  10
TORSDOF 2
ENDMDL
MODEL 5
REMARK VINA RESULT:    -5.321      1.643      4.207
REMARK INTER + INTRA:          -5.875
REMARK INTER:                  -5.783
REMARK INTRA:                  -0.092
REMARK UNBOUND:                -0.087
REMARK SMILES C=C(C)[C@H]1CC=C(C)[C@H](O)C1
REMARK SMILES IDX 8 1 7 2 6 3 5 4 4 5 11 6 9 7 10 8 2 10 1 11 3 12
REMARK H PARENT 10 9
REMARK Flexibility Score: inf
ROOT
ATOM      1  C   UNL     1     134.710 131.716 138.048  1.00  0.00     0.042 C 
ATOM      2  C   UNL     1     134.978 130.570 137.110  1.00  0.00    -0.049 C 
ATOM      3  C   UNL     1     135.859 130.745 136.102  1.00  0.00    -0.025 C 
ATOM      4  C   UNL     1     136.149 129.687 135.066  1.00  0.00     0.035 C 
ATOM      5  C   UNL     1     135.801 128.274 135.565  1.00  0.00     0.021 C 
ATOM      6  C   UNL     1     134.395 128.273 136.188  1.00  0.00     0.044 C 
ATOM      7  C   UNL     1     134.342 129.221 137.400  1.00  0.00     0.140 C 
ENDROOT
BRANCH   7   8
ATOM      8  O   UNL     1     135.002 128.642 138.495  1.00  0.00    -0.389 OA
ATOM      9  H   UNL     1     134.306 128.422 139.168  1.00  0.00     0.211 HD
ENDBRANCH   7   8
BRANCH   5  10
ATOM     10  C   UNL     1     135.925 127.241 134.452  1.00  0.00    -0.077 C 
ATOM     11  C   UNL     1     135.477 127.493 133.209  1.00  0.00     0.008 C 
ATOM     12  C   UNL     1     136.554 125.901 134.732  1.00  0.00     0.039 C 
ENDBRANCH   5  10
TORSDOF 2
ENDMDL
MODEL 6
REMARK VINA RESULT:    -5.162      2.178      4.509
REMARK INTER + INTRA:          -5.702
REMARK INTER:                  -5.615
REMARK INTRA:                  -0.087
REMARK UNBOUND:                -0.087
REMARK SMILES C=C(C)[C@H]1CC=C(C)[C@H](O)C1
REMARK SMILES IDX 8 1 7 2 6 3 5 4 4 5 11 6 9 7 10 8 2 10 1 11 3 12
REMARK H PARENT 10 9
REMARK Flexibility Score: inf
ROOT
ATOM      1  C   UNL     1     130.774 130.304 138.403  1.00  0.00     0.042 C 
ATOM      2  C   UNL     1     131.983 130.107 137.530  1.00  0.00    -0.049 C 
ATOM      3  C   UNL     1     132.374 131.114 136.720  1.00  0.00    -0.025 C 
ATOM      4  C   UNL     1     133.528 130.998 135.756  1.00  0.00     0.035 C 
ATOM      5  C   UNL     1     134.518 129.893 136.164  1.00  0.00     0.021 C 
ATOM      6  C   UNL     1     133.751 128.602 136.493  1.00  0.00     0.044 C 
ATOM      7  C   UNL     1     132.793 128.830 137.677  1.00  0.00     0.140 C 
ENDROOT
BRANCH   7   8
ATOM      8  O   UNL     1     133.518 128.895 138.878  1.00  0.00    -0.389 OA
ATOM      9  H   UNL     1     132.937 129.354 139.540  1.00  0.00     0.211 HD
ENDBRANCH   7   8
BRANCH   5  10
ATOM     10  C   UNL     1     135.576 129.663 135.092  1.00  0.00    -0.077 C 
ATOM     11  C   UNL     1     136.588 130.530 134.909  1.00  0.00     0.008 C 
ATOM     12  C   UNL     1     135.499 128.449 134.204  1.00  0.00     0.039 C 
ENDBRANCH   5  10
TORSDOF 2
ENDMDL
MODEL 7
REMARK VINA RESULT:    -5.123      2.976      5.048
REMARK INTER + INTRA:          -5.660
REMARK INTER:                  -5.568
REMARK INTRA:                  -0.092
REMARK UNBOUND:                -0.087
REMARK SMILES C=C(C)[C@H]1CC=C(C)[C@H](O)C1
REMARK SMILES IDX 8 1 7 2 6 3 5 4 4 5 11 6 9 7 10 8 2 10 1 11 3 12
REMARK H PARENT 10 9
REMARK Flexibility Score: inf
ROOT
ATOM      1  C   UNL     1     130.497 129.768 139.133  1.00  0.00     0.042 C 
ATOM      2  C   UNL     1     131.697 129.933 138.240  1.00  0.00    -0.049 C 
ATOM      3  C   UNL     1     132.618 128.946 138.196  1.00  0.00    -0.025 C 
ATOM      4  C   UNL     1     133.889 129.038 137.389  1.00  0.00     0.035 C 
ATOM      5  C   UNL     1     133.776 130.055 136.240  1.00  0.00     0.021 C 
ATOM      6  C   UNL     1     133.187 131.374 136.767  1.00  0.00     0.044 C 
ATOM      7  C   UNL     1     131.772 131.146 137.328  1.00  0.00     0.140 C 
ENDROOT
BRANCH   7   8
ATOM      8  O   UNL     1     130.858 130.972 136.277  1.00  0.00    -0.389 OA
ATOM      9  H   UNL     1     130.787 131.845 135.809  1.00  0.00     0.211 HD
ENDBRANCH   7   8
BRANCH   5  10
ATOM     10  C   UNL     1     135.117 130.273 135.550  1.00  0.00    -0.077 C 
ATOM     11  C   UNL     1     135.781 131.438 135.660  1.00  0.00     0.008 C 
ATOM     12  C   UNL     1     135.726 129.173 134.719  1.00  0.00     0.039 C 
ENDBRANCH   5  10
TORSDOF 2
ENDMDL
MODEL 8
REMARK VINA RESULT:    -5.096      6.193      7.863
REMARK INTER + INTRA:          -5.630
REMARK INTER:                  -5.540
REMARK INTRA:                  -0.090
REMARK UNBOUND:                -0.087
REMARK SMILES C=C(C)[C@H]1CC=C(C)[C@H](O)C1
REMARK SMILES IDX 8 1 7 2 6 3 5 4 4 5 11 6 9 7 10 8 2 10 1 11 3 12
REMARK H PARENT 10 9
REMARK Flexibility Score: inf
ROOT
ATOM      1  C   UNL     1     132.174 131.279 137.934  1.00  0.00     0.042 C 
ATOM      2  C   UNL     1     132.689 131.522 139.327  1.00  0.00    -0.049 C 
ATOM      3  C   UNL     1     133.198 132.735 139.631  1.00  0.00    -0.025 C 
ATOM      4  C   UNL     1     133.802 133.063 140.974  1.00  0.00     0.035 C 
ATOM      5  C   UNL     1     133.296 132.125 142.084  1.00  0.00     0.021 C 
ATOM      6  C   UNL     1     133.391 130.664 141.615  1.00  0.00     0.044 C 
ATOM      7  C   UNL     1     132.507 130.438 140.375  1.00  0.00     0.140 C 
ENDROOT
BRANCH   7   8
ATOM      8  O   UNL     1     131.154 130.398 140.748  1.00  0.00    -0.389 OA
ATOM      9  H   UNL     1     130.799 129.519 140.452  1.00  0.00     0.211 HD
ENDBRANCH   7   8
BRANCH   5  10
ATOM     10  C   UNL     1     134.047 132.348 143.391  1.00  0.00    -0.077 C 
ATOM     11  C   UNL     1     134.115 133.564 143.962  1.00  0.00     0.008 C 
ATOM     12  C   UNL     1     134.740 131.195 144.070  1.00  0.00     0.039 C 
ENDBRANCH   5  10
TORSDOF 2
ENDMDL
MODEL 9
REMARK VINA RESULT:    -5.063      4.935      5.953
REMARK INTER + INTRA:          -5.595
REMARK INTER:                  -5.503
REMARK INTRA:                  -0.091
REMARK UNBOUND:                -0.087
REMARK SMILES C=C(C)[C@H]1CC=C(C)[C@H](O)C1
REMARK SMILES IDX 8 1 7 2 6 3 5 4 4 5 11 6 9 7 10 8 2 10 1 11 3 12
REMARK H PARENT 10 9
REMARK Flexibility Score: inf
ROOT
ATOM      1  C   UNL     1     129.601 126.754 138.118  1.00  0.00     0.042 C 
ATOM      2  C   UNL     1     130.340 128.032 138.412  1.00  0.00    -0.049 C 
ATOM      3  C   UNL     1     130.190 128.607 139.625  1.00  0.00    -0.025 C 
ATOM      4  C   UNL     1     130.830 129.921 139.999  1.00  0.00     0.035 C 
ATOM      5  C   UNL     1     132.056 130.241 139.126  1.00  0.00     0.021 C 
ATOM      6  C   UNL     1     131.709 130.032 137.643  1.00  0.00     0.044 C 
ATOM      7  C   UNL     1     131.321 128.564 137.382  1.00  0.00     0.140 C 
ENDROOT
BRANCH   7   8
ATOM      8  O   UNL     1     132.467 127.753 137.394  1.00  0.00    -0.389 OA
ATOM      9  H   UNL     1     132.466 127.265 138.258  1.00  0.00     0.211 HD
ENDBRANCH   7   8
BRANCH   5  10
ATOM     10  C   UNL     1     132.579 131.647 139.390  1.00  0.00    -0.077 C 
ATOM     11  C   UNL     1     132.324 132.660 138.543  1.00  0.00     0.008 C 
ATOM     12  C   UNL     1     133.408 131.928 140.616  1.00  0.00     0.039 C 
ENDBRANCH   5  10
TORSDOF 2
ENDMDL
