MODEL 1
REMARK VINA RESULT:    -3.906      0.000      0.000
REMARK INTER + INTRA:          -4.057
REMARK INTER:                  -4.820
REMARK INTRA:                   0.763
REMARK UNBOUND:                 0.763
REMARK SMILES CC1=CC=CC(C)(C)CC1=O
REMARK SMILES IDX 1 1 2 2 3 3 10 4 11 5 9 6 4 8 5 9 6 10 7 11 8 12
REMARK H PARENT
REMARK Flexibility Score: 80.00
ROOT
ATOM      1  C   UNL     1     -29.509  13.457 -30.827  1.00  0.00     0.048 C 
ATOM      2  C   UNL     1     -28.149  13.092 -30.280  1.00  0.00    -0.008 C 
ATOM      3  C   UNL     1     -27.071  13.682 -30.841  1.00  0.00     0.007 C 
ENDROOT
BRANCH   2   4
ATOM      4  C   UNL     1     -28.103  12.056 -29.219  1.00  0.00     0.159 C 
ATOM      5  O   UNL     1     -29.151  11.401 -28.962  1.00  0.00    -0.295 OA
BRANCH   4   6
ATOM      6  C   UNL     1     -26.877  11.750 -28.416  1.00  0.00     0.091 CG0
ATOM      7  G   UNL     1     -25.675  11.312 -29.283  1.00  0.00     0.000 G0
ENDBRANCH   4   6
ENDBRANCH   2   4
BRANCH   3   8
ATOM      8  C   UNL     1     -25.631  13.509 -30.543  1.00  0.00    -0.003 C 
ATOM      9  C   UNL     1     -25.015  12.508 -29.900  1.00  0.00    -0.020 C 
BRANCH   9  10
ATOM     10  C   UNL     1     -25.675  11.297 -29.286  1.00  0.00    -0.010 CG0
ATOM     11  C   UNL     1     -24.648  10.601 -28.363  1.00  0.00     0.016 C 
ATOM     12  C   UNL     1     -26.076  10.294 -30.394  1.00  0.00     0.016 C 
ATOM     13  G   UNL     1     -26.877  11.740 -28.421  1.00  0.00     0.000 G0
ENDBRANCH   9  10
ENDBRANCH   3   8
TORSDOF 0
ENDMDL
MODEL 2
REMARK VINA RESULT:    -3.850      9.800     11.206
REMARK INTER + INTRA:          -3.987
REMARK INTER:                  -4.739
REMARK INTRA:                   0.752
REMARK UNBOUND:                 0.763
REMARK SMILES CC1=CC=CC(C)(C)CC1=O
REMARK SMILES IDX 1 1 2 2 3 3 10 4 11 5 9 6 4 8 5 9 6 10 7 11 8 12
REMARK H PARENT
REMARK Flexibility Score: 80.00
ROOT
ATOM      1  C   UNL     1     -18.262  11.058 -30.028  1.00  0.00     0.048 C 
ATOM      2  C   UNL     1     -17.377  12.132 -30.617  1.00  0.00    -0.008 C 
ATOM      3  C   UNL     1     -17.099  12.058 -31.936  1.00  0.00     0.007 C 
ENDROOT
BRANCH   2   4
ATOM      4  C   UNL     1     -16.822  13.139 -29.679  1.00  0.00     0.159 C 
ATOM      5  O   UNL     1     -16.966  12.960 -28.438  1.00  0.00    -0.295 OA
BRANCH   4   6
ATOM      6  C   UNL     1     -16.106  14.376 -30.125  1.00  0.00     0.091 CG0
ATOM      7  G   UNL     1     -14.861  14.080 -30.992  1.00  0.00     0.000 G0
ENDBRANCH   4   6
ENDBRANCH   2   4
BRANCH   3   8
ATOM      8  C   UNL     1     -16.253  12.935 -32.779  1.00  0.00    -0.003 C 
ATOM      9  C   UNL     1     -15.294  13.793 -32.409  1.00  0.00    -0.020 C 
BRANCH   9  10
ATOM     10  C   UNL     1     -14.858  14.096 -30.996  1.00  0.00    -0.010 CG0
ATOM     11  C   UNL     1     -13.999  15.381 -31.017  1.00  0.00     0.016 C 
ATOM     12  C   UNL     1     -13.978  12.944 -30.456  1.00  0.00     0.016 C 
ATOM     13  G   UNL     1     -16.098  14.361 -30.113  1.00  0.00     0.000 G0
ENDBRANCH   9  10
ENDBRANCH   3   8
TORSDOF 0
ENDMDL
MODEL 3
REMARK VINA RESULT:    -3.843      9.670     11.181
REMARK INTER + INTRA:          -3.980
REMARK INTER:                  -4.733
REMARK INTRA:                   0.753
REMARK UNBOUND:                 0.763
REMARK SMILES CC1=CC=CC(C)(C)CC1=O
REMARK SMILES IDX 1 1 2 2 3 3 10 4 11 5 9 6 4 8 5 9 6 10 7 11 8 12
REMARK H PARENT
REMARK Flexibility Score: 80.00
ROOT
ATOM      1  C   UNL     1     -13.752  14.746 -32.627  1.00  0.00     0.048 C 
ATOM      2  C   UNL     1     -14.979  14.182 -31.950  1.00  0.00    -0.008 C 
ATOM      3  C   UNL     1     -15.203  14.534 -30.666  1.00  0.00     0.007 C 
ENDROOT
BRANCH   2   4
ATOM      4  C   UNL     1     -15.799  13.222 -32.730  1.00  0.00     0.159 C 
ATOM      5  O   UNL     1     -15.347  12.783 -33.824  1.00  0.00    -0.295 OA
BRANCH   4   6
ATOM      6  C   UNL     1     -17.154  12.752 -32.299  1.00  0.00     0.091 CG0
ATOM      7  G   UNL     1     -17.143  12.041 -30.927  1.00  0.00     0.000 G0
ENDBRANCH   4   6
ENDBRANCH   2   4
BRANCH   3   8
ATOM      8  C   UNL     1     -16.290  14.128 -29.745  1.00  0.00    -0.003 C 
ATOM      9  C   UNL     1     -17.116  13.078 -29.824  1.00  0.00    -0.020 C 
BRANCH   9  10
ATOM     10  C   UNL     1     -17.150  12.045 -30.925  1.00  0.00    -0.010 CG0
ATOM     11  C   UNL     1     -18.468  11.246 -30.800  1.00  0.00     0.016 C 
ATOM     12  C   UNL     1     -15.974  11.053 -30.756  1.00  0.00     0.016 C 
ATOM     13  G   UNL     1     -17.142  12.748 -32.301  1.00  0.00     0.000 G0
ENDBRANCH   9  10
ENDBRANCH   3   8
TORSDOF 0
ENDMDL
MODEL 4
REMARK VINA RESULT:    -3.703      1.691      3.320
REMARK INTER + INTRA:          -3.806
REMARK INTER:                  -4.560
REMARK INTRA:                   0.754
REMARK UNBOUND:                 0.763
REMARK SMILES CC1=CC=CC(C)(C)CC1=O
REMARK SMILES IDX 1 1 2 2 3 3 10 4 11 5 9 6 4 8 5 9 6 10 7 11 8 12
REMARK H PARENT
REMARK Flexibility Score: 80.00
ROOT
ATOM      1  C   UNL     1     -23.773  13.281 -30.140  1.00  0.00     0.048 C 
ATOM      2  C   UNL     1     -25.213  12.876 -30.354  1.00  0.00    -0.008 C 
ATOM      3  C   UNL     1     -26.080  13.834 -30.745  1.00  0.00     0.007 C 
ENDROOT
BRANCH   2   4
ATOM      4  C   UNL     1     -25.573  11.470 -30.044  1.00  0.00     0.159 C 
ATOM      5  O   UNL     1     -24.738  10.749 -29.431  1.00  0.00    -0.295 OA
BRANCH   4   6
ATOM      6  C   UNL     1     -26.877  10.846 -30.433  1.00  0.00     0.091 CG0
ATOM      7  G   UNL     1     -28.102  11.563 -29.823  1.00  0.00     0.000 G0
ENDBRANCH   4   6
ENDBRANCH   2   4
BRANCH   3   8
ATOM      8  C   UNL     1     -27.536  13.749 -31.006  1.00  0.00    -0.003 C 
ATOM      9  C   UNL     1     -28.410  12.813 -30.617  1.00  0.00    -0.020 C 
BRANCH   9  10
ATOM     10  C   UNL     1     -28.098  11.569 -29.820  1.00  0.00    -0.010 CG0
ATOM     11  C   UNL     1     -29.312  10.616 -29.912  1.00  0.00     0.016 C 
ATOM     12  C   UNL     1     -27.892  11.934 -28.330  1.00  0.00     0.016 C 
ATOM     13  G   UNL     1     -26.874  10.851 -30.431  1.00  0.00     0.000 G0
ENDBRANCH   9  10
ENDBRANCH   3   8
TORSDOF 0
ENDMDL
MODEL 5
REMARK VINA RESULT:    -3.501     10.504     12.055
REMARK INTER + INTRA:          -3.557
REMARK INTER:                  -4.321
REMARK INTRA:                   0.764
REMARK UNBOUND:                 0.763
REMARK SMILES CC1=CC=CC(C)(C)CC1=O
REMARK SMILES IDX 1 1 2 2 3 3 10 4 11 5 9 6 4 8 5 9 6 10 7 11 8 12
REMARK H PARENT
REMARK Flexibility Score: 80.00
ROOT
ATOM      1  C   UNL     1     -12.612  14.422 -32.285  1.00  0.00     0.048 C 
ATOM      2  C   UNL     1     -13.692  13.556 -31.680  1.00  0.00    -0.008 C 
ATOM      3  C   UNL     1     -13.749  12.264 -32.070  1.00  0.00     0.007 C 
ENDROOT
BRANCH   2   4
ATOM      4  C   UNL     1     -14.652  14.216 -30.761  1.00  0.00     0.159 C 
ATOM      5  O   UNL     1     -14.649  15.475 -30.680  1.00  0.00    -0.295 OA
BRANCH   4   6
ATOM      6  C   UNL     1     -15.623  13.466 -29.903  1.00  0.00     0.091 CG0
ATOM      7  G   UNL     1     -16.595  12.580 -30.715  1.00  0.00     0.000 G0
ENDBRANCH   4   6
ENDBRANCH   2   4
BRANCH   3   8
ATOM      8  C   UNL     1     -14.696  11.194 -31.679  1.00  0.00    -0.003 C 
ATOM      9  C   UNL     1     -15.907  11.302 -31.120  1.00  0.00    -0.020 C 
BRANCH   9  10
ATOM     10  C   UNL     1     -16.601  12.582 -30.721  1.00  0.00    -0.010 CG0
ATOM     11  C   UNL     1     -17.800  12.222 -29.813  1.00  0.00     0.016 C 
ATOM     12  C   UNL     1     -17.152  13.299 -31.976  1.00  0.00     0.016 C 
ATOM     13  G   UNL     1     -15.631  13.468 -29.907  1.00  0.00     0.000 G0
ENDBRANCH   9  10
ENDBRANCH   3   8
TORSDOF 0
ENDMDL
MODEL 6
REMARK VINA RESULT:    -3.482      9.821     11.311
REMARK INTER + INTRA:          -3.534
REMARK INTER:                  -4.282
REMARK INTRA:                   0.748
REMARK UNBOUND:                 0.763
REMARK SMILES CC1=CC=CC(C)(C)CC1=O
REMARK SMILES IDX 1 1 2 2 3 3 10 4 11 5 9 6 4 8 5 9 6 10 7 11 8 12
REMARK H PARENT
REMARK Flexibility Score: 80.00
ROOT
ATOM      1  C   UNL     1     -13.746  14.315 -32.262  1.00  0.00     0.048 C 
ATOM      2  C   UNL     1     -14.895  13.430 -31.840  1.00  0.00    -0.008 C 
ATOM      3  C   UNL     1     -16.081  13.606 -32.462  1.00  0.00     0.007 C 
ENDROOT
BRANCH   2   4
ATOM      4  C   UNL     1     -14.647  12.489 -30.720  1.00  0.00     0.159 C 
ATOM      5  O   UNL     1     -13.575  12.594 -30.063  1.00  0.00    -0.295 OA
BRANCH   4   6
ATOM      6  C   UNL     1     -15.597  11.399 -30.330  1.00  0.00     0.091 CG0
ATOM      7  G   UNL     1     -17.000  11.923 -29.950  1.00  0.00     0.000 G0
ENDBRANCH   4   6
ENDBRANCH   2   4
BRANCH   3   8
ATOM      8  C   UNL     1     -17.376  12.919 -32.250  1.00  0.00    -0.003 C 
ATOM      9  C   UNL     1     -17.793  12.208 -31.195  1.00  0.00    -0.020 C 
BRANCH   9  10
ATOM     10  C   UNL     1     -17.000  11.910 -29.945  1.00  0.00    -0.010 CG0
ATOM     11  C   UNL     1     -17.716  10.777 -29.174  1.00  0.00     0.016 C 
ATOM     12  C   UNL     1     -16.964  13.158 -29.031  1.00  0.00     0.016 C 
ATOM     13  G   UNL     1     -15.588  11.413 -30.329  1.00  0.00     0.000 G0
ENDBRANCH   9  10
ENDBRANCH   3   8
TORSDOF 0
ENDMDL
MODEL 7
REMARK VINA RESULT:    -3.453     11.058     12.256
REMARK INTER + INTRA:          -3.498
REMARK INTER:                  -4.259
REMARK INTRA:                   0.761
REMARK UNBOUND:                 0.763
REMARK SMILES CC1=CC=CC(C)(C)CC1=O
REMARK SMILES IDX 1 1 2 2 3 3 10 4 11 5 9 6 4 8 5 9 6 10 7 11 8 12
REMARK H PARENT
REMARK Flexibility Score: 80.00
ROOT
ATOM      1  C   UNL     1     -13.610  15.337 -31.988  1.00  0.00     0.048 C 
ATOM      2  C   UNL     1     -14.492  14.233 -31.453  1.00  0.00    -0.008 C 
ATOM      3  C   UNL     1     -15.515  14.586 -30.645  1.00  0.00     0.007 C 
ENDROOT
BRANCH   2   4
ATOM      4  C   UNL     1     -14.115  12.840 -31.798  1.00  0.00     0.159 C 
ATOM      5  O   UNL     1     -12.986  12.627 -32.319  1.00  0.00    -0.295 OA
BRANCH   4   6
ATOM      6  C   UNL     1     -15.012  11.662 -31.575  1.00  0.00     0.091 CG0
ATOM      7  G   UNL     1     -15.387  11.454 -30.091  1.00  0.00     0.000 G0
ENDBRANCH   4   6
ENDBRANCH   2   4
BRANCH   3   8
ATOM      8  C   UNL     1     -16.518  13.741 -29.957  1.00  0.00    -0.003 C 
ATOM      9  C   UNL     1     -16.484  12.427 -29.703  1.00  0.00    -0.020 C 
BRANCH   9  10
ATOM     10  C   UNL     1     -15.388  11.466 -30.097  1.00  0.00    -0.010 CG0
ATOM     11  C   UNL     1     -15.926  10.025 -29.937  1.00  0.00     0.016 C 
ATOM     12  C   UNL     1     -14.175  11.628 -29.151  1.00  0.00     0.016 C 
ATOM     13  G   UNL     1     -15.017  11.679 -31.582  1.00  0.00     0.000 G0
ENDBRANCH   9  10
ENDBRANCH   3   8
TORSDOF 0
ENDMDL
MODEL 8
REMARK VINA RESULT:    -3.447      1.671      2.547
REMARK INTER + INTRA:          -3.491
REMARK INTER:                  -4.548
REMARK INTRA:                   1.057
REMARK UNBOUND:                 0.763
REMARK SMILES CC1=CC=CC(C)(C)CC1=O
REMARK SMILES IDX 1 1 2 2 3 3 10 4 11 5 9 6 4 8 5 9 6 10 7 11 8 12
REMARK H PARENT
REMARK Flexibility Score: 80.00
ROOT
ATOM      1  C   UNL     1     -28.404  14.663 -31.624  1.00  0.00     0.048 C 
ATOM      2  C   UNL     1     -28.089  13.561 -30.640  1.00  0.00    -0.008 C 
ATOM      3  C   UNL     1     -29.119  12.818 -30.182  1.00  0.00     0.007 C 
ENDROOT
BRANCH   2   4
ATOM      4  C   UNL     1     -26.678  13.433 -30.198  1.00  0.00     0.159 C 
ATOM      5  O   UNL     1     -25.778  14.024 -30.856  1.00  0.00    -0.295 OA
BRANCH   4   6
ATOM      6  C   UNL     1     -26.254  12.622 -29.013  1.00  0.00     0.091 CG0
ATOM      7  G   UNL     1     -26.646  11.131 -29.124  1.00  0.00     0.000 G0
ENDBRANCH   4   6
ENDBRANCH   2   4
BRANCH   3   8
ATOM      8  C   UNL     1     -29.128  11.703 -29.207  1.00  0.00    -0.003 C 
ATOM      9  C   UNL     1     -28.100  10.991 -28.730  1.00  0.00    -0.020 C 
BRANCH   9  10
ATOM     10  C   UNL     1     -26.647  11.147 -29.111  1.00  0.00    -0.010 CG0
ATOM     11  C   UNL     1     -26.479  10.696 -30.580  1.00  0.00     0.016 C 
ATOM     12  C   UNL     1     -25.767  10.229 -28.228  1.00  0.00     0.016 C 
ATOM     13  G   UNL     1     -26.239  12.634 -29.013  1.00  0.00     0.000 G0
ENDBRANCH   9  10
ENDBRANCH   3   8
TORSDOF 0
ENDMDL
MODEL 9
REMARK VINA RESULT:    -3.334      9.349     10.997
REMARK INTER + INTRA:          -3.351
REMARK INTER:                  -4.092
REMARK INTRA:                   0.740
REMARK UNBOUND:                 0.763
REMARK SMILES CC1=CC=CC(C)(C)CC1=O
REMARK SMILES IDX 1 1 2 2 3 3 10 4 11 5 9 6 4 8 5 9 6 10 7 11 8 12
REMARK H PARENT
REMARK Flexibility Score: 80.00
ROOT
ATOM      1  C   UNL     1     -13.987  14.136 -30.686  1.00  0.00     0.048 C 
ATOM      2  C   UNL     1     -14.769  12.919 -30.253  1.00  0.00    -0.008 C 
ATOM      3  C   UNL     1     -14.272  11.707 -30.581  1.00  0.00     0.007 C 
ENDROOT
BRANCH   2   4
ATOM      4  C   UNL     1     -16.064  13.156 -29.568  1.00  0.00     0.159 C 
ATOM      5  O   UNL     1     -16.544  14.323 -29.562  1.00  0.00    -0.295 OA
BRANCH   4   6
ATOM      6  C   UNL     1     -16.834  12.083 -28.863  1.00  0.00     0.091 CG0
ATOM      7  G   UNL     1     -17.243  10.917 -29.791  1.00  0.00     0.000 G0
ENDBRANCH   4   6
ENDBRANCH   2   4
BRANCH   3   8
ATOM      8  C   UNL     1     -14.817  10.354 -30.322  1.00  0.00    -0.003 C 
ATOM      9  C   UNL     1     -16.066   9.994 -30.002  1.00  0.00    -0.020 C 
BRANCH   9  10
ATOM     10  C   UNL     1     -17.241  10.919 -29.795  1.00  0.00    -0.010 CG0
ATOM     11  C   UNL     1     -18.364  10.127 -29.085  1.00  0.00     0.016 C 
ATOM     12  C   UNL     1     -17.786  11.395 -31.163  1.00  0.00     0.016 C 
ATOM     13  G   UNL     1     -16.826  12.092 -28.879  1.00  0.00     0.000 G0
ENDBRANCH   9  10
ENDBRANCH   3   8
TORSDOF 0
ENDMDL
