MODEL 1
REMARK VINA RESULT:    -6.277      0.000      0.000
REMARK INTER + INTRA:          -7.528
REMARK INTER:                  -7.378
REMARK INTRA:                  -0.150
REMARK UNBOUND:                -0.150
REMARK SMILES O=C([O-])C=Cc1ccc(O)c(O)c1
REMARK SMILES IDX 6 1 13 2 7 3 11 4 8 5 9 6 5 7 4 8 2 9 1 10 3 11 12 12 10 14
REMARK H PARENT 12 13 10 15
REMARK Flexibility Score: inf
ROOT
ATOM      1  C   UNL     1     -13.772 -29.936 -12.849  1.00  0.00    -0.022 A 
ATOM      2  C   UNL     1     -14.680 -30.347 -13.846  1.00  0.00     0.058 A 
ATOM      3  C   UNL     1     -12.621 -30.708 -12.622  1.00  0.00     0.012 A 
ATOM      4  C   UNL     1     -14.452 -31.517 -14.581  1.00  0.00     0.157 A 
ATOM      5  C   UNL     1     -12.393 -31.878 -13.352  1.00  0.00     0.051 A 
ATOM      6  C   UNL     1     -13.306 -32.289 -14.331  1.00  0.00     0.157 A 
ENDROOT
BRANCH   1   7
ATOM      7  C   UNL     1     -13.964 -28.698 -12.055  1.00  0.00     0.010 C 
ATOM      8  C   UNL     1     -13.473 -28.522 -10.820  1.00  0.00     0.025 C 
BRANCH   8   9
ATOM      9  C   UNL     1     -13.678 -27.271 -10.073  1.00  0.00     0.064 C 
ATOM     10  O   UNL     1     -14.570 -26.464 -10.446  1.00  0.00    -0.545 OA
ATOM     11  O   UNL     1     -12.903 -26.964  -8.960  1.00  0.00    -0.545 OA
ENDBRANCH   8   9
ENDBRANCH   1   7
BRANCH   4  12
ATOM     12  O   UNL     1     -15.375 -31.894 -15.557  1.00  0.00    -0.504 OA
ATOM     13  H   UNL     1     -15.462 -31.399 -16.436  1.00  0.00     0.293 HD
ENDBRANCH   4  12
BRANCH   6  14
ATOM     14  O   UNL     1     -13.077 -33.458 -15.055  1.00  0.00    -0.504 OA
ATOM     15  H   UNL     1     -13.809 -33.898 -15.598  1.00  0.00     0.293 HD
ENDBRANCH   6  14
TORSDOF 4
ENDMDL
MODEL 2
REMARK VINA RESULT:    -6.254      1.863      2.786
REMARK INTER + INTRA:          -7.502
REMARK INTER:                  -7.366
REMARK INTRA:                  -0.135
REMARK UNBOUND:                -0.150
REMARK SMILES O=C([O-])C=Cc1ccc(O)c(O)c1
REMARK SMILES IDX 6 1 13 2 7 3 11 4 8 5 9 6 5 7 4 8 2 9 1 10 3 11 12 12 10 14
REMARK H PARENT 12 13 10 15
REMARK Flexibility Score: inf
ROOT
ATOM      1  C   UNL     1     -13.869 -28.188 -11.425  1.00  0.00    -0.022 A 
ATOM      2  C   UNL     1     -14.551 -27.628 -12.525  1.00  0.00     0.058 A 
ATOM      3  C   UNL     1     -13.475 -29.535 -11.486  1.00  0.00     0.012 A 
ATOM      4  C   UNL     1     -14.853 -28.407 -13.648  1.00  0.00     0.157 A 
ATOM      5  C   UNL     1     -13.779 -30.314 -12.606  1.00  0.00     0.051 A 
ATOM      6  C   UNL     1     -14.470 -29.758 -13.689  1.00  0.00     0.157 A 
ENDROOT
BRANCH   1   7
ATOM      7  C   UNL     1     -13.514 -27.399 -10.220  1.00  0.00     0.010 C 
ATOM      8  C   UNL     1     -12.259 -27.059  -9.895  1.00  0.00     0.025 C 
BRANCH   8   9
ATOM      9  C   UNL     1     -11.955 -26.265  -8.695  1.00  0.00     0.064 C 
ATOM     10  O   UNL     1     -12.869 -25.595  -8.145  1.00  0.00    -0.545 OA
ATOM     11  O   UNL     1     -10.673 -26.241  -8.155  1.00  0.00    -0.545 OA
ENDBRANCH   8   9
ENDBRANCH   1   7
BRANCH   4  12
ATOM     12  O   UNL     1     -15.533 -27.821 -14.716  1.00  0.00    -0.504 OA
ATOM     13  H   UNL     1     -16.305 -27.179 -14.577  1.00  0.00     0.293 HD
ENDBRANCH   4  12
BRANCH   6  14
ATOM     14  O   UNL     1     -14.773 -30.539 -14.802  1.00  0.00    -0.504 OA
ATOM     15  H   UNL     1     -15.433 -30.229 -15.505  1.00  0.00     0.293 HD
ENDBRANCH   6  14
TORSDOF 4
ENDMDL
MODEL 3
REMARK VINA RESULT:    -6.203      1.196      5.995
REMARK INTER + INTRA:          -7.441
REMARK INTER:                  -7.316
REMARK INTRA:                  -0.125
REMARK UNBOUND:                -0.150
REMARK SMILES O=C([O-])C=Cc1ccc(O)c(O)c1
REMARK SMILES IDX 6 1 13 2 7 3 11 4 8 5 9 6 5 7 4 8 2 9 1 10 3 11 12 12 10 14
REMARK H PARENT 12 13 10 15
REMARK Flexibility Score: inf
ROOT
ATOM      1  C   UNL     1     -12.914 -28.960 -11.122  1.00  0.00    -0.022 A 
ATOM      2  C   UNL     1     -14.023 -28.110 -10.936  1.00  0.00     0.058 A 
ATOM      3  C   UNL     1     -11.826 -28.857 -10.240  1.00  0.00     0.012 A 
ATOM      4  C   UNL     1     -14.031 -27.162  -9.907  1.00  0.00     0.157 A 
ATOM      5  C   UNL     1     -11.831 -27.910  -9.213  1.00  0.00     0.051 A 
ATOM      6  C   UNL     1     -12.929 -27.057  -9.042  1.00  0.00     0.157 A 
ENDROOT
BRANCH   1   7
ATOM      7  C   UNL     1     -12.867 -29.989 -12.191  1.00  0.00     0.010 C 
ATOM      8  C   UNL     1     -13.946 -30.419 -12.858  1.00  0.00     0.025 C 
BRANCH   8   9
ATOM      9  C   UNL     1     -13.850 -31.433 -13.919  1.00  0.00     0.064 C 
ATOM     10  O   UNL     1     -14.738 -31.486 -14.810  1.00  0.00    -0.545 OA
ATOM     11  O   UNL     1     -12.794 -32.337 -13.956  1.00  0.00    -0.545 OA
ENDBRANCH   8   9
ENDBRANCH   1   7
BRANCH   4  12
ATOM     12  O   UNL     1     -15.144 -26.334  -9.755  1.00  0.00    -0.504 OA
ATOM     13  H   UNL     1     -15.069 -25.392  -9.390  1.00  0.00     0.293 HD
ENDBRANCH   4  12
BRANCH   6  14
ATOM     14  O   UNL     1     -12.928 -26.112  -8.018  1.00  0.00    -0.504 OA
ATOM     15  H   UNL     1     -12.455 -25.222  -8.117  1.00  0.00     0.293 HD
ENDBRANCH   6  14
TORSDOF 4
ENDMDL
MODEL 4
REMARK VINA RESULT:    -6.065      1.258      6.287
REMARK INTER + INTRA:          -7.279
REMARK INTER:                  -7.130
REMARK INTRA:                  -0.148
REMARK UNBOUND:                -0.150
REMARK SMILES O=C([O-])C=Cc1ccc(O)c(O)c1
REMARK SMILES IDX 6 1 13 2 7 3 11 4 8 5 9 6 5 7 4 8 2 9 1 10 3 11 12 12 10 14
REMARK H PARENT 12 13 10 15
REMARK Flexibility Score: inf
ROOT
ATOM      1  C   UNL     1     -12.961 -28.928 -11.214  1.00  0.00    -0.022 A 
ATOM      2  C   UNL     1     -11.968 -28.744 -10.231  1.00  0.00     0.058 A 
ATOM      3  C   UNL     1     -14.063 -28.058 -11.234  1.00  0.00     0.012 A 
ATOM      4  C   UNL     1     -12.089 -27.729  -9.275  1.00  0.00     0.157 A 
ATOM      5  C   UNL     1     -14.187 -27.045 -10.279  1.00  0.00     0.051 A 
ATOM      6  C   UNL     1     -13.205 -26.877  -9.295  1.00  0.00     0.157 A 
ENDROOT
BRANCH   1   7
ATOM      7  C   UNL     1     -12.870 -29.981 -12.255  1.00  0.00     0.010 C 
ATOM      8  C   UNL     1     -13.933 -30.500 -12.884  1.00  0.00     0.025 C 
BRANCH   8   9
ATOM      9  C   UNL     1     -13.795 -31.535 -13.920  1.00  0.00     0.064 C 
ATOM     10  O   UNL     1     -14.668 -31.633 -14.821  1.00  0.00    -0.545 OA
ATOM     11  O   UNL     1     -12.714 -32.411 -13.920  1.00  0.00    -0.545 OA
ENDBRANCH   8   9
ENDBRANCH   1   7
BRANCH   4  12
ATOM     12  O   UNL     1     -11.088 -27.579  -8.314  1.00  0.00    -0.504 OA
ATOM     13  H   UNL     1     -10.126 -27.838  -8.494  1.00  0.00     0.293 HD
ENDBRANCH   4  12
BRANCH   6  14
ATOM     14  O   UNL     1     -13.334 -25.867  -8.343  1.00  0.00    -0.504 OA
ATOM     15  H   UNL     1     -13.215 -24.891  -8.585  1.00  0.00     0.293 HD
ENDBRANCH   6  14
TORSDOF 4
ENDMDL
MODEL 5
REMARK VINA RESULT:    -5.994      2.063      3.201
REMARK INTER + INTRA:          -7.196
REMARK INTER:                  -7.056
REMARK INTRA:                  -0.140
REMARK UNBOUND:                -0.150
REMARK SMILES O=C([O-])C=Cc1ccc(O)c(O)c1
REMARK SMILES IDX 6 1 13 2 7 3 11 4 8 5 9 6 5 7 4 8 2 9 1 10 3 11 12 12 10 14
REMARK H PARENT 12 13 10 15
REMARK Flexibility Score: inf
ROOT
ATOM      1  C   UNL     1     -13.590 -28.093 -12.213  1.00  0.00    -0.022 A 
ATOM      2  C   UNL     1     -13.842 -29.297 -12.902  1.00  0.00     0.058 A 
ATOM      3  C   UNL     1     -13.610 -26.886 -12.930  1.00  0.00     0.012 A 
ATOM      4  C   UNL     1     -14.083 -29.294 -14.281  1.00  0.00     0.157 A 
ATOM      5  C   UNL     1     -13.849 -26.880 -14.307  1.00  0.00     0.051 A 
ATOM      6  C   UNL     1     -14.082 -28.081 -14.989  1.00  0.00     0.157 A 
ENDROOT
BRANCH   1   7
ATOM      7  C   UNL     1     -13.343 -28.046 -10.751  1.00  0.00     0.010 C 
ATOM      8  C   UNL     1     -12.387 -27.299 -10.181  1.00  0.00     0.025 C 
BRANCH   8   9
ATOM      9  C   UNL     1     -12.185 -27.273  -8.725  1.00  0.00     0.064 C 
ATOM     10  O   UNL     1     -12.756 -26.389  -8.033  1.00  0.00    -0.545 OA
ATOM     11  O   UNL     1     -11.374 -28.211  -8.096  1.00  0.00    -0.545 OA
ENDBRANCH   8   9
ENDBRANCH   1   7
BRANCH   4  12
ATOM     12  O   UNL     1     -14.324 -30.505 -14.930  1.00  0.00    -0.504 OA
ATOM     13  H   UNL     1     -15.066 -31.131 -14.644  1.00  0.00     0.293 HD
ENDBRANCH   4  12
BRANCH   6  14
ATOM     14  O   UNL     1     -14.317 -28.071 -16.363  1.00  0.00    -0.504 OA
ATOM     15  H   UNL     1     -13.556 -28.088 -17.032  1.00  0.00     0.293 HD
ENDBRANCH   6  14
TORSDOF 4
ENDMDL
MODEL 6
REMARK VINA RESULT:    -5.975      0.804      1.928
REMARK INTER + INTRA:          -7.174
REMARK INTER:                  -7.045
REMARK INTRA:                  -0.129
REMARK UNBOUND:                -0.150
REMARK SMILES O=C([O-])C=Cc1ccc(O)c(O)c1
REMARK SMILES IDX 6 1 13 2 7 3 11 4 8 5 9 6 5 7 4 8 2 9 1 10 3 11 12 12 10 14
REMARK H PARENT 12 13 10 15
REMARK Flexibility Score: inf
ROOT
ATOM      1  C   UNL     1     -13.586 -29.938 -12.822  1.00  0.00    -0.022 A 
ATOM      2  C   UNL     1     -12.447 -30.744 -12.616  1.00  0.00     0.058 A 
ATOM      3  C   UNL     1     -14.544 -30.347 -13.764  1.00  0.00     0.012 A 
ATOM      4  C   UNL     1     -12.262 -31.919 -13.354  1.00  0.00     0.157 A 
ATOM      5  C   UNL     1     -14.359 -31.519 -14.504  1.00  0.00     0.051 A 
ATOM      6  C   UNL     1     -13.219 -32.308 -14.306  1.00  0.00     0.157 A 
ENDROOT
BRANCH   1   7
ATOM      7  C   UNL     1     -13.832 -28.693 -12.055  1.00  0.00     0.010 C 
ATOM      8  C   UNL     1     -13.384 -28.485 -10.809  1.00  0.00     0.025 C 
BRANCH   8   9
ATOM      9  C   UNL     1     -13.643 -27.228 -10.090  1.00  0.00     0.064 C 
ATOM     10  O   UNL     1     -14.493 -26.417 -10.542  1.00  0.00    -0.545 OA
ATOM     11  O   UNL     1     -12.963 -26.919  -8.916  1.00  0.00    -0.545 OA
ENDBRANCH   8   9
ENDBRANCH   1   7
BRANCH   4  12
ATOM     12  O   UNL     1     -11.121 -32.690 -13.126  1.00  0.00    -0.504 OA
ATOM     13  H   UNL     1     -10.344 -32.351 -12.572  1.00  0.00     0.293 HD
ENDBRANCH   4  12
BRANCH   6  14
ATOM     14  O   UNL     1     -13.037 -33.474 -15.047  1.00  0.00    -0.504 OA
ATOM     15  H   UNL     1     -12.212 -34.050 -14.936  1.00  0.00     0.293 HD
ENDBRANCH   6  14
TORSDOF 4
ENDMDL
MODEL 7
REMARK VINA RESULT:    -5.884      2.268      3.472
REMARK INTER + INTRA:          -7.067
REMARK INTER:                  -6.932
REMARK INTRA:                  -0.135
REMARK UNBOUND:                -0.150
REMARK SMILES O=C([O-])C=Cc1ccc(O)c(O)c1
REMARK SMILES IDX 6 1 13 2 7 3 11 4 8 5 9 6 5 7 4 8 2 9 1 10 3 11 12 12 10 14
REMARK H PARENT 12 13 10 15
REMARK Flexibility Score: inf
ROOT
ATOM      1  C   UNL     1     -13.055 -27.761 -11.333  1.00  0.00    -0.022 A 
ATOM      2  C   UNL     1     -12.682 -29.075 -11.681  1.00  0.00     0.058 A 
ATOM      3  C   UNL     1     -14.166 -27.181 -11.968  1.00  0.00     0.012 A 
ATOM      4  C   UNL     1     -13.390 -29.782 -12.660  1.00  0.00     0.157 A 
ATOM      5  C   UNL     1     -14.872 -27.885 -12.947  1.00  0.00     0.051 A 
ATOM      6  C   UNL     1     -14.488 -29.184 -13.300  1.00  0.00     0.157 A 
ENDROOT
BRANCH   1   7
ATOM      7  C   UNL     1     -12.344 -26.977 -10.293  1.00  0.00     0.010 C 
ATOM      8  C   UNL     1     -12.888 -26.634  -9.117  1.00  0.00     0.025 C 
BRANCH   8   9
ATOM      9  C   UNL     1     -12.141 -25.866  -8.110  1.00  0.00     0.064 C 
ATOM     10  O   UNL     1     -10.931 -26.139  -7.891  1.00  0.00    -0.545 OA
ATOM     11  O   UNL     1     -12.748 -24.841  -7.392  1.00  0.00    -0.545 OA
ENDBRANCH   8   9
ENDBRANCH   1   7
BRANCH   4  12
ATOM     12  O   UNL     1     -12.990 -31.079 -12.981  1.00  0.00    -0.504 OA
ATOM     13  H   UNL     1     -12.627 -31.719 -12.285  1.00  0.00     0.293 HD
ENDBRANCH   4  12
BRANCH   6  14
ATOM     14  O   UNL     1     -15.194 -29.881 -14.279  1.00  0.00    -0.504 OA
ATOM     15  H   UNL     1     -14.791 -30.075 -15.187  1.00  0.00     0.293 HD
ENDBRANCH   6  14
TORSDOF 4
ENDMDL
MODEL 8
REMARK VINA RESULT:    -5.849      1.812      5.852
REMARK INTER + INTRA:          -7.025
REMARK INTER:                  -6.897
REMARK INTRA:                  -0.129
REMARK UNBOUND:                -0.150
REMARK SMILES O=C([O-])C=Cc1ccc(O)c(O)c1
REMARK SMILES IDX 6 1 13 2 7 3 11 4 8 5 9 6 5 7 4 8 2 9 1 10 3 11 12 12 10 14
REMARK H PARENT 12 13 10 15
REMARK Flexibility Score: inf
ROOT
ATOM      1  C   UNL     1     -13.500 -30.883 -13.449  1.00  0.00    -0.022 A 
ATOM      2  C   UNL     1     -14.531 -30.132 -14.051  1.00  0.00     0.058 A 
ATOM      3  C   UNL     1     -12.817 -30.337 -12.351  1.00  0.00     0.012 A 
ATOM      4  C   UNL     1     -14.851 -28.854 -13.579  1.00  0.00     0.157 A 
ATOM      5  C   UNL     1     -13.133 -29.060 -11.879  1.00  0.00     0.051 A 
ATOM      6  C   UNL     1     -14.147 -28.312 -12.490  1.00  0.00     0.157 A 
ENDROOT
BRANCH   1   7
ATOM      7  C   UNL     1     -13.135 -32.246 -13.906  1.00  0.00     0.010 C 
ATOM      8  C   UNL     1     -13.976 -33.067 -14.550  1.00  0.00     0.025 C 
BRANCH   8   9
ATOM      9  C   UNL     1     -13.567 -34.407 -14.995  1.00  0.00     0.064 C 
ATOM     10  O   UNL     1     -12.518 -34.923 -14.528  1.00  0.00    -0.545 OA
ATOM     11  O   UNL     1     -14.319 -35.116 -15.926  1.00  0.00    -0.545 OA
ENDBRANCH   8   9
ENDBRANCH   1   7
BRANCH   4  12
ATOM     12  O   UNL     1     -15.874 -28.137 -14.201  1.00  0.00    -0.504 OA
ATOM     13  H   UNL     1     -16.295 -28.444 -15.069  1.00  0.00     0.293 HD
ENDBRANCH   4  12
BRANCH   6  14
ATOM     14  O   UNL     1     -14.458 -27.037 -12.019  1.00  0.00    -0.504 OA
ATOM     15  H   UNL     1     -14.415 -26.811 -11.033  1.00  0.00     0.293 HD
ENDBRANCH   6  14
TORSDOF 4
ENDMDL
MODEL 9
REMARK VINA RESULT:    -5.728      1.639      5.943
REMARK INTER + INTRA:          -6.882
REMARK INTER:                  -6.732
REMARK INTRA:                  -0.151
REMARK UNBOUND:                -0.150
REMARK SMILES O=C([O-])C=Cc1ccc(O)c(O)c1
REMARK SMILES IDX 6 1 13 2 7 3 11 4 8 5 9 6 5 7 4 8 2 9 1 10 3 11 12 12 10 14
REMARK H PARENT 12 13 10 15
REMARK Flexibility Score: inf
ROOT
ATOM      1  C   UNL     1     -13.900 -29.646 -13.398  1.00  0.00    -0.022 A 
ATOM      2  C   UNL     1     -14.027 -28.954 -12.176  1.00  0.00     0.058 A 
ATOM      3  C   UNL     1     -14.051 -28.934 -14.599  1.00  0.00     0.012 A 
ATOM      4  C   UNL     1     -14.322 -27.586 -12.158  1.00  0.00     0.157 A 
ATOM      5  C   UNL     1     -14.348 -27.568 -14.583  1.00  0.00     0.051 A 
ATOM      6  C   UNL     1     -14.488 -26.888 -13.367  1.00  0.00     0.157 A 
ENDROOT
BRANCH   1   7
ATOM      7  C   UNL     1     -13.576 -31.092 -13.467  1.00  0.00     0.010 C 
ATOM      8  C   UNL     1     -13.901 -31.880 -14.501  1.00  0.00     0.025 C 
BRANCH   8   9
ATOM      9  C   UNL     1     -13.548 -33.307 -14.532  1.00  0.00     0.064 C 
ATOM     10  O   UNL     1     -12.622 -33.734 -13.794  1.00  0.00    -0.545 OA
ATOM     11  O   UNL     1     -14.220 -34.195 -15.365  1.00  0.00    -0.545 OA
ENDBRANCH   8   9
ENDBRANCH   1   7
BRANCH   4  12
ATOM     12  O   UNL     1     -14.444 -26.934 -10.931  1.00  0.00    -0.504 OA
ATOM     13  H   UNL     1     -13.791 -26.220 -10.632  1.00  0.00     0.293 HD
ENDBRANCH   4  12
BRANCH   6  14
ATOM     14  O   UNL     1     -14.786 -25.527 -13.355  1.00  0.00    -0.504 OA
ATOM     15  H   UNL     1     -14.765 -24.972 -14.202  1.00  0.00     0.293 HD
ENDBRANCH   6  14
TORSDOF 4
ENDMDL
