MODEL 1
REMARK VINA RESULT:    -3.443      0.000      0.000
REMARK INTER + INTRA:          -3.443
REMARK INTER:                  -3.443
REMARK INTRA:                   0.000
REMARK UNBOUND:                 0.000
REMARK SMILES CC1=CC[C@@H]2C[C@H]1C2(C)C
REMARK SMILES IDX 1 1 2 2 3 3 4 4 5 5 6 6 7 7 8 8 9 9 10 10
REMARK H PARENT
REMARK Flexibility Score: inf
ROOT
ATOM      1  C   UNL     1       8.150   6.682  11.113  1.00  0.00     0.039 C 
ATOM      2  C   UNL     1       7.009   6.316  12.013  1.00  0.00    -0.074 C 
ATOM      3  C   UNL     1       7.054   5.203  12.802  1.00  0.00    -0.027 C 
ATOM      4  C   UNL     1       5.858   4.899  13.727  1.00  0.00     0.031 C 
ATOM      5  C   UNL     1       4.739   5.979  13.530  1.00  0.00    -0.000 C 
ATOM      6  C   UNL     1       4.574   6.137  12.004  1.00  0.00     0.013 C 
ATOM      7  C   UNL     1       5.727   7.158  12.080  1.00  0.00     0.021 C 
ATOM      8  C   UNL     1       5.352   7.407  13.565  1.00  0.00    -0.026 C 
ATOM      9  C   UNL     1       4.272   8.505  13.723  1.00  0.00     0.012 C 
ATOM     10  C   UNL     1       6.497   7.700  14.576  1.00  0.00     0.012 C 
ENDROOT
TORSDOF 0
ENDMDL
MODEL 2
REMARK VINA RESULT:    -3.406      1.502      2.972
REMARK INTER + INTRA:          -3.406
REMARK INTER:                  -3.406
REMARK INTRA:                   0.000
REMARK UNBOUND:                 0.000
REMARK SMILES CC1=CC[C@@H]2C[C@H]1C2(C)C
REMARK SMILES IDX 1 1 2 2 3 3 4 4 5 5 6 6 7 7 8 8 9 9 10 10
REMARK H PARENT
REMARK Flexibility Score: inf
ROOT
ATOM      1  C   UNL     1       3.653   4.875  12.375  1.00  0.00     0.039 C 
ATOM      2  C   UNL     1       4.382   6.113  12.800  1.00  0.00    -0.074 C 
ATOM      3  C   UNL     1       5.745   6.145  12.879  1.00  0.00    -0.027 C 
ATOM      4  C   UNL     1       6.435   7.460  13.295  1.00  0.00     0.031 C 
ATOM      5  C   UNL     1       5.357   8.556  13.605  1.00  0.00    -0.000 C 
ATOM      6  C   UNL     1       4.304   7.867  14.497  1.00  0.00     0.013 C 
ATOM      7  C   UNL     1       3.638   7.400  13.187  1.00  0.00     0.021 C 
ATOM      8  C   UNL     1       4.296   8.609  12.471  1.00  0.00    -0.026 C 
ATOM      9  C   UNL     1       3.421   9.885  12.547  1.00  0.00     0.012 C 
ATOM     10  C   UNL     1       4.769   8.429  11.001  1.00  0.00     0.012 C 
ENDROOT
TORSDOF 0
ENDMDL
MODEL 3
REMARK VINA RESULT:    -3.309      0.956      3.278
REMARK INTER + INTRA:          -3.309
REMARK INTER:                  -3.309
REMARK INTRA:                   0.000
REMARK UNBOUND:                 0.000
REMARK SMILES CC1=CC[C@@H]2C[C@H]1C2(C)C
REMARK SMILES IDX 1 1 2 2 3 3 4 4 5 5 6 6 7 7 8 8 9 9 10 10
REMARK H PARENT
REMARK Flexibility Score: inf
ROOT
ATOM      1  C   UNL     1       6.636   8.607  15.015  1.00  0.00     0.039 C 
ATOM      2  C   UNL     1       6.162   7.497  14.126  1.00  0.00    -0.074 C 
ATOM      3  C   UNL     1       4.947   7.553  13.504  1.00  0.00    -0.027 C 
ATOM      4  C   UNL     1       4.532   6.390  12.581  1.00  0.00     0.031 C 
ATOM      5  C   UNL     1       5.644   5.285  12.575  1.00  0.00    -0.000 C 
ATOM      6  C   UNL     1       6.018   5.061  14.054  1.00  0.00     0.013 C 
ATOM      7  C   UNL     1       7.003   6.235  13.885  1.00  0.00     0.021 C 
ATOM      8  C   UNL     1       7.044   5.927  12.365  1.00  0.00    -0.026 C 
ATOM      9  C   UNL     1       8.123   4.875  12.007  1.00  0.00     0.012 C 
ATOM     10  C   UNL     1       7.175   7.117  11.374  1.00  0.00     0.012 C 
ENDROOT
TORSDOF 0
ENDMDL
MODEL 4
REMARK VINA RESULT:    -3.276      1.275      2.845
REMARK INTER + INTRA:          -3.276
REMARK INTER:                  -3.276
REMARK INTRA:                   0.000
REMARK UNBOUND:                 0.000
REMARK SMILES CC1=CC[C@@H]2C[C@H]1C2(C)C
REMARK SMILES IDX 1 1 2 2 3 3 4 4 5 5 6 6 7 7 8 8 9 9 10 10
REMARK H PARENT
REMARK Flexibility Score: inf
ROOT
ATOM      1  C   UNL     1       4.295   8.264  11.348  1.00  0.00     0.039 C 
ATOM      2  C   UNL     1       5.054   7.364  12.275  1.00  0.00    -0.074 C 
ATOM      3  C   UNL     1       4.772   6.031  12.362  1.00  0.00    -0.027 C 
ATOM      4  C   UNL     1       5.609   5.155  13.315  1.00  0.00     0.031 C 
ATOM      5  C   UNL     1       6.659   6.039  14.074  1.00  0.00    -0.000 C 
ATOM      6  C   UNL     1       5.883   7.277  14.570  1.00  0.00     0.013 C 
ATOM      7  C   UNL     1       6.170   7.894  13.186  1.00  0.00     0.021 C 
ATOM      8  C   UNL     1       7.408   6.966  13.076  1.00  0.00    -0.026 C 
ATOM      9  C   UNL     1       8.676   7.599  13.703  1.00  0.00     0.012 C 
ATOM     10  C   UNL     1       7.786   6.402  11.677  1.00  0.00     0.012 C 
ENDROOT
TORSDOF 0
ENDMDL
MODEL 5
REMARK VINA RESULT:    -3.276      1.262      3.262
REMARK INTER + INTRA:          -3.276
REMARK INTER:                  -3.276
REMARK INTRA:                   0.000
REMARK UNBOUND:                 0.000
REMARK SMILES CC1=CC[C@@H]2C[C@H]1C2(C)C
REMARK SMILES IDX 1 1 2 2 3 3 4 4 5 5 6 6 7 7 8 8 9 9 10 10
REMARK H PARENT
REMARK Flexibility Score: inf
ROOT
ATOM      1  C   UNL     1       4.351   8.992  10.875  1.00  0.00     0.039 C 
ATOM      2  C   UNL     1       4.838   8.331  12.129  1.00  0.00    -0.074 C 
ATOM      3  C   UNL     1       4.288   8.617  13.345  1.00  0.00    -0.027 C 
ATOM      4  C   UNL     1       4.817   7.880  14.592  1.00  0.00     0.031 C 
ATOM      5  C   UNL     1       5.986   6.916  14.190  1.00  0.00    -0.000 C 
ATOM      6  C   UNL     1       6.913   7.742  13.274  1.00  0.00     0.013 C 
ATOM      7  C   UNL     1       5.990   7.315  12.115  1.00  0.00     0.021 C 
ATOM      8  C   UNL     1       5.588   6.070  12.949  1.00  0.00    -0.026 C 
ATOM      9  C   UNL     1       6.548   4.876  12.722  1.00  0.00     0.012 C 
ATOM     10  C   UNL     1       4.127   5.550  12.840  1.00  0.00     0.012 C 
ENDROOT
TORSDOF 0
ENDMDL
MODEL 6
REMARK VINA RESULT:    -3.132      1.213      3.414
REMARK INTER + INTRA:          -3.132
REMARK INTER:                  -3.132
REMARK INTRA:                   0.000
REMARK UNBOUND:                 0.000
REMARK SMILES CC1=CC[C@@H]2C[C@H]1C2(C)C
REMARK SMILES IDX 1 1 2 2 3 3 4 4 5 5 6 6 7 7 8 8 9 9 10 10
REMARK H PARENT
REMARK Flexibility Score: inf
ROOT
ATOM      1  C   UNL     1       3.956   8.625  14.999  1.00  0.00     0.039 C 
ATOM      2  C   UNL     1       4.375   7.948  13.730  1.00  0.00    -0.074 C 
ATOM      3  C   UNL     1       4.424   8.625  12.545  1.00  0.00    -0.027 C 
ATOM      4  C   UNL     1       4.891   7.876  11.280  1.00  0.00     0.031 C 
ATOM      5  C   UNL     1       5.197   6.378  11.626  1.00  0.00    -0.000 C 
ATOM      6  C   UNL     1       4.001   5.890  12.469  1.00  0.00     0.013 C 
ATOM      7  C   UNL     1       4.751   6.459  13.690  1.00  0.00     0.021 C 
ATOM      8  C   UNL     1       6.077   6.285  12.903  1.00  0.00    -0.026 C 
ATOM      9  C   UNL     1       6.691   4.875  13.091  1.00  0.00     0.012 C 
ATOM     10  C   UNL     1       7.202   7.338  13.110  1.00  0.00     0.012 C 
ENDROOT
TORSDOF 0
ENDMDL
MODEL 7
REMARK VINA RESULT:    -3.079      2.878      5.063
REMARK INTER + INTRA:          -3.079
REMARK INTER:                  -3.079
REMARK INTRA:                   0.000
REMARK UNBOUND:                 0.000
REMARK SMILES CC1=CC[C@@H]2C[C@H]1C2(C)C
REMARK SMILES IDX 1 1 2 2 3 3 4 4 5 5 6 6 7 7 8 8 9 9 10 10
REMARK H PARENT
REMARK Flexibility Score: inf
ROOT
ATOM      1  C   UNL     1       3.964  11.998  10.875  1.00  0.00     0.039 C 
ATOM      2  C   UNL     1       3.369  11.061  11.882  1.00  0.00    -0.074 C 
ATOM      3  C   UNL     1       2.090  10.600  11.757  1.00  0.00    -0.027 C 
ATOM      4  C   UNL     1       1.549   9.615  12.813  1.00  0.00     0.031 C 
ATOM      5  C   UNL     1       2.636   9.357  13.913  1.00  0.00    -0.000 C 
ATOM      6  C   UNL     1       3.182  10.747  14.296  1.00  0.00     0.013 C 
ATOM      7  C   UNL     1       4.157  10.586  13.112  1.00  0.00     0.021 C 
ATOM      8  C   UNL     1       4.010   9.048  13.255  1.00  0.00    -0.026 C 
ATOM      9  C   UNL     1       5.022   8.452  14.264  1.00  0.00     0.012 C 
ATOM     10  C   UNL     1       4.039   8.181  11.965  1.00  0.00     0.012 C 
ENDROOT
TORSDOF 0
ENDMDL
MODEL 8
REMARK VINA RESULT:    -2.662      1.429      1.905
REMARK INTER + INTRA:          -2.662
REMARK INTER:                  -2.662
REMARK INTRA:                   0.000
REMARK UNBOUND:                 0.000
REMARK SMILES CC1=CC[C@@H]2C[C@H]1C2(C)C
REMARK SMILES IDX 1 1 2 2 3 3 4 4 5 5 6 6 7 7 8 8 9 9 10 10
REMARK H PARENT
REMARK Flexibility Score: inf
ROOT
ATOM      1  C   UNL     1       7.847   7.211  13.884  1.00  0.00     0.039 C 
ATOM      2  C   UNL     1       6.469   7.055  13.316  1.00  0.00    -0.074 C 
ATOM      3  C   UNL     1       5.771   5.889  13.451  1.00  0.00    -0.027 C 
ATOM      4  C   UNL     1       4.347   5.803  12.867  1.00  0.00     0.031 C 
ATOM      5  C   UNL     1       3.978   7.149  12.153  1.00  0.00    -0.000 C 
ATOM      6  C   UNL     1       5.198   7.508  11.281  1.00  0.00     0.013 C 
ATOM      7  C   UNL     1       5.779   8.185  12.538  1.00  0.00     0.021 C 
ATOM      8  C   UNL     1       4.329   8.359  13.062  1.00  0.00    -0.026 C 
ATOM      9  C   UNL     1       3.678   9.674  12.565  1.00  0.00     0.012 C 
ATOM     10  C   UNL     1       4.078   8.238  14.591  1.00  0.00     0.012 C 
ENDROOT
TORSDOF 0
ENDMDL
