MODEL 1
REMARK VINA RESULT:    -5.427      0.000      0.000
REMARK INTER + INTRA:          -8.036
REMARK INTER:                  -7.330
REMARK INTRA:                  -0.706
REMARK UNBOUND:                -0.706
REMARK SMILES CC(=O)CCC=C(C)CCC=C(C)C
REMARK SMILES IDX 7 1 6 2 8 3 9 4 10 5 11 6 13 7 12 8 14 9 5 10 4 11 2 12 3 13
REMARK SMILES IDX 1 14
REMARK H PARENT
REMARK Flexibility Score: inf
ROOT
ATOM      1  C   UNL     1       3.802   3.019  13.516  1.00  0.00    -0.077 C 
ATOM      2  C   UNL     1       4.005   4.318  13.206  1.00  0.00    -0.028 C 
ATOM      3  C   UNL     1       4.192   1.913  12.565  1.00  0.00     0.039 C 
ENDROOT
BRANCH   1   4
ATOM      4  C   UNL     1       3.157   2.671  14.839  1.00  0.00     0.034 C 
BRANCH   4   5
ATOM      5  C   UNL     1       3.195   3.866  15.797  1.00  0.00     0.032 C 
BRANCH   5   6
ATOM      6  C   UNL     1       2.348   3.601  17.017  1.00  0.00    -0.028 C 
ATOM      7  C   UNL     1       1.165   4.125  19.107  1.00  0.00     0.039 C 
ATOM      8  C   UNL     1       2.057   4.524  17.960  1.00  0.00    -0.080 C 
ATOM      9  C   UNL     1       2.616   5.928  17.904  1.00  0.00     0.039 C 
ENDBRANCH   5   6
ENDBRANCH   4   5
ENDBRANCH   1   4
BRANCH   2  10
ATOM     10  C   UNL     1       4.635   4.771  11.909  1.00  0.00     0.035 C 
BRANCH  10  11
ATOM     11  C   UNL     1       3.634   5.508  11.009  1.00  0.00     0.079 C 
BRANCH  11  12
ATOM     12  C   UNL     1       2.579   4.576  10.469  1.00  0.00     0.130 C 
ATOM     13  O   UNL     1       2.893   3.717   9.657  1.00  0.00    -0.300 OA
ATOM     14  C   UNL     1       1.146   4.685  10.899  1.00  0.00     0.087 C 
ENDBRANCH  11  12
ENDBRANCH  10  11
ENDBRANCH   2  10
TORSDOF 6
ENDMDL
MODEL 2
REMARK VINA RESULT:    -5.186      2.732      6.088
REMARK INTER + INTRA:          -7.711
REMARK INTER:                  -6.910
REMARK INTRA:                  -0.801
REMARK UNBOUND:                -0.706
REMARK SMILES CC(=O)CCC=C(C)CCC=C(C)C
REMARK SMILES IDX 7 1 6 2 8 3 9 4 10 5 11 6 13 7 12 8 14 9 5 10 4 11 2 12 3 13
REMARK SMILES IDX 1 14
REMARK H PARENT
REMARK Flexibility Score: inf
ROOT
ATOM      1  C   UNL     1       3.610   2.255  14.441  1.00  0.00    -0.077 C 
ATOM      2  C   UNL     1       2.897   3.337  14.824  1.00  0.00    -0.028 C 
ATOM      3  C   UNL     1       4.687   1.671  15.323  1.00  0.00     0.039 C 
ENDROOT
BRANCH   1   4
ATOM      4  C   UNL     1       3.330   1.629  13.093  1.00  0.00     0.034 C 
BRANCH   4   5
ATOM      5  C   UNL     1       4.234   2.231  12.012  1.00  0.00     0.032 C 
BRANCH   5   6
ATOM      6  C   UNL     1       3.460   3.185  11.137  1.00  0.00    -0.028 C 
ATOM      7  C   UNL     1       2.869   5.337  10.108  1.00  0.00     0.039 C 
ATOM      8  C   UNL     1       3.700   4.512  11.057  1.00  0.00    -0.080 C 
ATOM      9  C   UNL     1       4.759   5.187  11.900  1.00  0.00     0.039 C 
ENDBRANCH   5   6
ENDBRANCH   4   5
ENDBRANCH   1   4
BRANCH   2  10
ATOM     10  C   UNL     1       3.105   4.040  16.146  1.00  0.00     0.035 C 
BRANCH  10  11
ATOM     11  C   UNL     1       2.058   3.626  17.188  1.00  0.00     0.079 C 
BRANCH  11  12
ATOM     12  C   UNL     1       1.701   4.769  18.104  1.00  0.00     0.130 C 
ATOM     13  O   UNL     1       0.788   4.636  18.906  1.00  0.00    -0.300 OA
ATOM     14  C   UNL     1       2.436   6.075  18.046  1.00  0.00     0.087 C 
ENDBRANCH  11  12
ENDBRANCH  10  11
ENDBRANCH   2  10
TORSDOF 6
ENDMDL
MODEL 3
REMARK VINA RESULT:    -5.159     15.367     17.613
REMARK INTER + INTRA:          -7.674
REMARK INTER:                  -7.177
REMARK INTRA:                  -0.497
REMARK UNBOUND:                -0.706
REMARK SMILES CC(=O)CCC=C(C)CCC=C(C)C
REMARK SMILES IDX 7 1 6 2 8 3 9 4 10 5 11 6 13 7 12 8 14 9 5 10 4 11 2 12 3 13
REMARK SMILES IDX 1 14
REMARK H PARENT
REMARK Flexibility Score: inf
ROOT
ATOM      1  C   UNL     1      -4.350  -8.352   2.713  1.00  0.00    -0.077 C 
ATOM      2  C   UNL     1      -5.166  -7.430   2.158  1.00  0.00    -0.028 C 
ATOM      3  C   UNL     1      -4.896  -9.479   3.558  1.00  0.00     0.039 C 
ENDROOT
BRANCH   1   4
ATOM      4  C   UNL     1      -2.857  -8.241   2.494  1.00  0.00     0.034 C 
BRANCH   4   5
ATOM      5  C   UNL     1      -2.320  -6.918   3.049  1.00  0.00     0.032 C 
BRANCH   5   6
ATOM      6  C   UNL     1      -1.596  -7.140   4.353  1.00  0.00    -0.028 C 
ATOM      7  C   UNL     1      -0.171  -6.573   6.274  1.00  0.00     0.039 C 
ATOM      8  C   UNL     1      -0.800  -6.225   4.949  1.00  0.00    -0.080 C 
ATOM      9  C   UNL     1      -0.513  -4.881   4.318  1.00  0.00     0.039 C 
ENDBRANCH   5   6
ENDBRANCH   4   5
ENDBRANCH   1   4
BRANCH   2  10
ATOM     10  C   UNL     1      -6.668  -7.447   2.323  1.00  0.00     0.035 C 
BRANCH  10  11
ATOM     11  C   UNL     1      -7.394  -7.040   1.034  1.00  0.00     0.079 C 
BRANCH  11  12
ATOM     12  C   UNL     1      -7.982  -5.656   1.140  1.00  0.00     0.130 C 
ATOM     13  O   UNL     1      -9.197  -5.517   1.159  1.00  0.00    -0.300 OA
ATOM     14  C   UNL     1      -7.108  -4.439   1.213  1.00  0.00     0.087 C 
ENDBRANCH  11  12
ENDBRANCH  10  11
ENDBRANCH   2  10
TORSDOF 6
ENDMDL
MODEL 4
REMARK VINA RESULT:    -5.155      3.038      6.315
REMARK INTER + INTRA:          -7.669
REMARK INTER:                  -7.202
REMARK INTRA:                  -0.467
REMARK UNBOUND:                -0.706
REMARK SMILES CC(=O)CCC=C(C)CCC=C(C)C
REMARK SMILES IDX 7 1 6 2 8 3 9 4 10 5 11 6 13 7 12 8 14 9 5 10 4 11 2 12 3 13
REMARK SMILES IDX 1 14
REMARK H PARENT
REMARK Flexibility Score: inf
ROOT
ATOM      1  C   UNL     1       2.613   2.831  15.880  1.00  0.00    -0.077 C 
ATOM      2  C   UNL     1       2.773   4.017  16.507  1.00  0.00    -0.028 C 
ATOM      3  C   UNL     1       1.643   1.794  16.395  1.00  0.00     0.039 C 
ENDROOT
BRANCH   1   4
ATOM      4  C   UNL     1       3.435   2.533  14.646  1.00  0.00     0.034 C 
BRANCH   4   5
ATOM      5  C   UNL     1       3.854   3.828  13.943  1.00  0.00     0.032 C 
BRANCH   5   6
ATOM      6  C   UNL     1       3.326   3.864  12.530  1.00  0.00    -0.028 C 
ATOM      7  C   UNL     1       3.221   4.548  10.171  1.00  0.00     0.039 C 
ATOM      8  C   UNL     1       3.827   4.646  11.548  1.00  0.00    -0.080 C 
ATOM      9  C   UNL     1       4.957   5.619  11.797  1.00  0.00     0.039 C 
ENDBRANCH   5   6
ENDBRANCH   4   5
ENDBRANCH   1   4
BRANCH   2  10
ATOM     10  C   UNL     1       2.006   4.407  17.749  1.00  0.00     0.035 C 
BRANCH  10  11
ATOM     11  C   UNL     1       1.947   5.929  17.934  1.00  0.00     0.079 C 
BRANCH  11  12
ATOM     12  C   UNL     1       0.567   6.388  18.331  1.00  0.00     0.130 C 
ATOM     13  O   UNL     1      -0.050   5.773  19.188  1.00  0.00    -0.300 OA
ATOM     14  C   UNL     1      -0.074   7.582  17.687  1.00  0.00     0.087 C 
ENDBRANCH  11  12
ENDBRANCH  10  11
ENDBRANCH   2  10
TORSDOF 6
ENDMDL
MODEL 5
REMARK VINA RESULT:    -5.114      1.804      2.813
REMARK INTER + INTRA:          -7.613
REMARK INTER:                  -7.118
REMARK INTRA:                  -0.495
REMARK UNBOUND:                -0.706
REMARK SMILES CC(=O)CCC=C(C)CCC=C(C)C
REMARK SMILES IDX 7 1 6 2 8 3 9 4 10 5 11 6 13 7 12 8 14 9 5 10 4 11 2 12 3 13
REMARK SMILES IDX 1 14
REMARK H PARENT
REMARK Flexibility Score: inf
ROOT
ATOM      1  C   UNL     1       2.576   2.961  16.174  1.00  0.00    -0.077 C 
ATOM      2  C   UNL     1       3.344   3.857  15.517  1.00  0.00    -0.028 C 
ATOM      3  C   UNL     1       2.254   1.612  15.576  1.00  0.00     0.039 C 
ENDROOT
BRANCH   1   4
ATOM      4  C   UNL     1       2.015   3.326  17.531  1.00  0.00     0.034 C 
BRANCH   4   5
ATOM      5  C   UNL     1       1.927   4.848  17.694  1.00  0.00     0.032 C 
BRANCH   5   6
ATOM      6  C   UNL     1       0.808   5.221  18.635  1.00  0.00    -0.028 C 
ATOM      7  C   UNL     1      -1.076   6.543  19.496  1.00  0.00     0.039 C 
ATOM      8  C   UNL     1       0.031   6.319  18.500  1.00  0.00    -0.080 C 
ATOM      9  C   UNL     1       0.256   7.326  17.395  1.00  0.00     0.039 C 
ENDBRANCH   5   6
ENDBRANCH   4   5
ENDBRANCH   1   4
BRANCH   2  10
ATOM     10  C   UNL     1       3.945   3.592  14.157  1.00  0.00     0.035 C 
BRANCH  10  11
ATOM     11  C   UNL     1       3.077   4.157  13.024  1.00  0.00     0.079 C 
BRANCH  11  12
ATOM     12  C   UNL     1       3.916   4.767  11.930  1.00  0.00     0.130 C 
ATOM     13  O   UNL     1       5.132   4.800  12.052  1.00  0.00    -0.300 OA
ATOM     14  C   UNL     1       3.290   5.346  10.696  1.00  0.00     0.087 C 
ENDBRANCH  11  12
ENDBRANCH  10  11
ENDBRANCH   2  10
TORSDOF 6
ENDMDL
MODEL 6
REMARK VINA RESULT:    -5.112      3.126      6.272
REMARK INTER + INTRA:          -7.611
REMARK INTER:                  -6.782
REMARK INTRA:                  -0.829
REMARK UNBOUND:                -0.706
REMARK SMILES CC(=O)CCC=C(C)CCC=C(C)C
REMARK SMILES IDX 7 1 6 2 8 3 9 4 10 5 11 6 13 7 12 8 14 9 5 10 4 11 2 12 3 13
REMARK SMILES IDX 1 14
REMARK H PARENT
REMARK Flexibility Score: inf
ROOT
ATOM      1  C   UNL     1       3.375   2.551  13.658  1.00  0.00    -0.077 C 
ATOM      2  C   UNL     1       2.592   2.221  14.708  1.00  0.00    -0.028 C 
ATOM      3  C   UNL     1       3.711   1.546  12.581  1.00  0.00     0.039 C 
ENDROOT
BRANCH   1   4
ATOM      4  C   UNL     1       3.938   3.953  13.570  1.00  0.00     0.034 C 
BRANCH   4   5
ATOM      5  C   UNL     1       4.651   4.172  12.231  1.00  0.00     0.032 C 
BRANCH   5   6
ATOM      6  C   UNL     1       3.999   5.290  11.456  1.00  0.00    -0.028 C 
ATOM      7  C   UNL     1       2.555   6.321   9.755  1.00  0.00     0.039 C 
ATOM      8  C   UNL     1       3.162   5.107  10.411  1.00  0.00    -0.080 C 
ATOM      9  C   UNL     1       2.837   3.731   9.877  1.00  0.00     0.039 C 
ENDBRANCH   5   6
ENDBRANCH   4   5
ENDBRANCH   1   4
BRANCH   2  10
ATOM     10  C   UNL     1       1.988   0.849  14.892  1.00  0.00     0.035 C 
BRANCH  10  11
ATOM     11  C   UNL     1       2.788  -0.004  15.886  1.00  0.00     0.079 C 
BRANCH  11  12
ATOM     12  C   UNL     1       3.507  -1.135  15.197  1.00  0.00     0.130 C 
ATOM     13  O   UNL     1       4.677  -0.995  14.870  1.00  0.00    -0.300 OA
ATOM     14  C   UNL     1       2.816  -2.431  14.892  1.00  0.00     0.087 C 
ENDBRANCH  11  12
ENDBRANCH  10  11
ENDBRANCH   2  10
TORSDOF 6
ENDMDL
MODEL 7
REMARK VINA RESULT:    -5.016     14.999     15.986
REMARK INTER + INTRA:          -7.481
REMARK INTER:                  -6.332
REMARK INTRA:                  -1.150
REMARK UNBOUND:                -0.706
REMARK SMILES CC(=O)CCC=C(C)CCC=C(C)C
REMARK SMILES IDX 7 1 6 2 8 3 9 4 10 5 11 6 13 7 12 8 14 9 5 10 4 11 2 12 3 13
REMARK SMILES IDX 1 14
REMARK H PARENT
REMARK Flexibility Score: inf
ROOT
ATOM      1  C   UNL     1      -6.780  -8.054  11.230  1.00  0.00    -0.077 C 
ATOM      2  C   UNL     1      -7.590  -7.001  10.983  1.00  0.00    -0.028 C 
ATOM      3  C   UNL     1      -5.343  -7.859  11.651  1.00  0.00     0.039 C 
ENDROOT
BRANCH   1   4
ATOM      4  C   UNL     1      -7.324  -9.456  11.065  1.00  0.00     0.034 C 
BRANCH   4   5
ATOM      5  C   UNL     1      -7.641 -10.083  12.427  1.00  0.00     0.032 C 
BRANCH   5   6
ATOM      6  C   UNL     1      -9.110  -9.958  12.745  1.00  0.00    -0.028 C 
ATOM      7  C   UNL     1     -11.125  -9.025  13.799  1.00  0.00     0.039 C 
ATOM      8  C   UNL     1      -9.630  -9.059  13.610  1.00  0.00    -0.080 C 
ATOM      9  C   UNL     1      -8.758  -8.109  14.398  1.00  0.00     0.039 C 
ENDBRANCH   5   6
ENDBRANCH   4   5
ENDBRANCH   1   4
BRANCH   2  10
ATOM     10  C   UNL     1      -7.141  -5.564  11.111  1.00  0.00     0.035 C 
BRANCH  10  11
ATOM     11  C   UNL     1      -7.513  -4.964  12.473  1.00  0.00     0.079 C 
BRANCH  11  12
ATOM     12  C   UNL     1      -6.383  -4.149  13.050  1.00  0.00     0.130 C 
ATOM     13  O   UNL     1      -6.605  -3.384  13.978  1.00  0.00    -0.300 OA
ATOM     14  C   UNL     1      -4.990  -4.248  12.504  1.00  0.00     0.087 C 
ENDBRANCH  11  12
ENDBRANCH  10  11
ENDBRANCH   2  10
TORSDOF 6
ENDMDL
MODEL 8
REMARK VINA RESULT:    -4.987     15.417     16.329
REMARK INTER + INTRA:          -7.443
REMARK INTER:                  -6.451
REMARK INTRA:                  -0.992
REMARK UNBOUND:                -0.706
REMARK SMILES CC(=O)CCC=C(C)CCC=C(C)C
REMARK SMILES IDX 7 1 6 2 8 3 9 4 10 5 11 6 13 7 12 8 14 9 5 10 4 11 2 12 3 13
REMARK SMILES IDX 1 14
REMARK H PARENT
REMARK Flexibility Score: inf
ROOT
ATOM      1  C   UNL     1      -6.347  -9.008  11.487  1.00  0.00    -0.077 C 
ATOM      2  C   UNL     1      -5.508  -8.141  12.095  1.00  0.00    -0.028 C 
ATOM      3  C   UNL     1      -6.689  -8.876  10.022  1.00  0.00     0.039 C 
ENDROOT
BRANCH   1   4
ATOM      4  C   UNL     1      -6.966 -10.125  12.299  1.00  0.00     0.034 C 
BRANCH   4   5
ATOM      5  C   UNL     1      -8.495 -10.028  12.284  1.00  0.00     0.032 C 
BRANCH   5   6
ATOM      6  C   UNL     1      -8.965  -8.863  13.120  1.00  0.00    -0.028 C 
ATOM      7  C   UNL     1     -10.435  -7.628  14.656  1.00  0.00     0.039 C 
ATOM      8  C   UNL     1     -10.113  -8.850  13.834  1.00  0.00    -0.080 C 
ATOM      9  C   UNL     1     -11.080 -10.012  13.816  1.00  0.00     0.039 C 
ENDBRANCH   5   6
ENDBRANCH   4   5
ENDBRANCH   1   4
BRANCH   2  10
ATOM     10  C   UNL     1      -4.845  -6.990  11.376  1.00  0.00     0.035 C 
BRANCH  10  11
ATOM     11  C   UNL     1      -5.326  -5.630  11.899  1.00  0.00     0.079 C 
BRANCH  11  12
ATOM     12  C   UNL     1      -6.773  -5.382  11.556  1.00  0.00     0.130 C 
ATOM     13  O   UNL     1      -7.102  -5.250  10.386  1.00  0.00    -0.300 OA
ATOM     14  C   UNL     1      -7.823  -5.283  12.624  1.00  0.00     0.087 C 
ENDBRANCH  11  12
ENDBRANCH  10  11
ENDBRANCH   2  10
TORSDOF 6
ENDMDL
