MODEL 1
REMARK VINA RESULT:    19.088      0.000      0.000
REMARK INTER + INTRA:          33.709
REMARK INTER:                  34.711
REMARK INTRA:                  -1.002
REMARK UNBOUND:                -1.002
REMARK SMILES CCCCCC=CCC=CCCCCCCCC(=O)[O-]
REMARK SMILES IDX 11 1 12 2 13 3 14 4 15 5 16 6 17 7 18 8 19 9 20 10 10 11
REMARK SMILES IDX 9 12 8 13 7 14 6 15 5 16 4 17 3 18 2 19 1 20
REMARK H PARENT
REMARK Flexibility Score: inf
ROOT
ATOM      1  C   UNL     1      -6.556  13.874 -19.869  1.00  0.00     0.027 C 
ENDROOT
BRANCH   1   2
ATOM      2  C   UNL     1      -6.809  14.352 -18.432  1.00  0.00     0.004 C 
BRANCH   2   3
ATOM      3  C   UNL     1      -7.741  13.403 -17.660  1.00  0.00     0.000 C 
BRANCH   3   4
ATOM      4  C   UNL     1      -8.365  14.059 -16.416  1.00  0.00     0.000 C 
BRANCH   4   5
ATOM      5  C   UNL     1      -9.707  13.426 -15.991  1.00  0.00     0.000 C 
BRANCH   5   6
ATOM      6  C   UNL     1     -10.079  12.213 -16.861  1.00  0.00     0.006 C 
BRANCH   6   7
ATOM      7  C   UNL     1     -11.448  11.629 -16.490  1.00  0.00     0.053 C 
BRANCH   7   8
ATOM      8  C   UNL     1     -11.390  10.141 -16.324  1.00  0.00     0.041 C 
ATOM      9  O   UNL     1     -11.047   9.640 -15.221  1.00  0.00    -0.550 OA
ATOM     10  O   UNL     1     -11.682   9.309 -17.397  1.00  0.00    -0.550 OA
ENDBRANCH   7   8
ENDBRANCH   6   7
ENDBRANCH   5   6
ENDBRANCH   4   5
ENDBRANCH   3   4
ENDBRANCH   2   3
ENDBRANCH   1   2
BRANCH   1  11
ATOM     11  C   UNL     1      -6.586  12.369 -19.980  1.00  0.00    -0.031 C 
ATOM     12  C   UNL     1      -5.775  11.643 -20.774  1.00  0.00    -0.027 C 
BRANCH  12  13
ATOM     13  C   UNL     1      -4.674  12.218 -21.631  1.00  0.00     0.054 C 
BRANCH  13  14
ATOM     14  C   UNL     1      -3.335  12.088 -20.962  1.00  0.00    -0.027 C 
ATOM     15  C   UNL     1      -3.019  11.018 -20.218  1.00  0.00    -0.031 C 
BRANCH  15  16
ATOM     16  C   UNL     1      -1.676  10.890 -19.556  1.00  0.00     0.027 C 
BRANCH  16  17
ATOM     17  C   UNL     1      -1.566  11.831 -18.347  1.00  0.00     0.004 C 
BRANCH  17  18
ATOM     18  C   UNL     1      -1.831  11.118 -17.009  1.00  0.00     0.000 C 
BRANCH  18  19
ATOM     19  C   UNL     1      -1.555  12.001 -15.775  1.00  0.00    -0.003 C 
ATOM     20  C   UNL     1      -0.099  11.917 -15.312  1.00  0.00     0.004 C 
ENDBRANCH  18  19
ENDBRANCH  17  18
ENDBRANCH  16  17
ENDBRANCH  15  16
ENDBRANCH  13  14
ENDBRANCH  12  13
ENDBRANCH   1  11
TORSDOF 14
ENDMDL
MODEL 2
REMARK VINA RESULT:    19.871      3.921      8.173
REMARK INTER + INTRA:          35.133
REMARK INTER:                  36.147
REMARK INTRA:                  -1.014
REMARK UNBOUND:                -1.002
REMARK SMILES CCCCCC=CCC=CCCCCCCCC(=O)[O-]
REMARK SMILES IDX 11 1 12 2 13 3 14 4 15 5 16 6 17 7 18 8 19 9 20 10 10 11
REMARK SMILES IDX 9 12 8 13 7 14 6 15 5 16 4 17 3 18 2 19 1 20
REMARK H PARENT
REMARK Flexibility Score: inf
ROOT
ATOM      1  C   UNL     1      -4.359  12.239 -21.527  1.00  0.00     0.027 C 
ENDROOT
BRANCH   1   2
ATOM      2  C   UNL     1      -3.090  12.356 -20.671  1.00  0.00     0.004 C 
BRANCH   2   3
ATOM      3  C   UNL     1      -2.411  10.994 -20.452  1.00  0.00     0.000 C 
BRANCH   3   4
ATOM      4  C   UNL     1      -2.357  10.583 -18.971  1.00  0.00     0.000 C 
BRANCH   4   5
ATOM      5  C   UNL     1      -1.712  11.646 -18.057  1.00  0.00     0.000 C 
BRANCH   5   6
ATOM      6  C   UNL     1      -1.610  11.173 -16.597  1.00  0.00     0.006 C 
BRANCH   6   7
ATOM      7  C   UNL     1      -1.268  12.319 -15.636  1.00  0.00     0.053 C 
BRANCH   7   8
ATOM      8  C   UNL     1       0.150  12.239 -15.161  1.00  0.00     0.041 C 
ATOM      9  O   UNL     1       0.400  12.059 -13.940  1.00  0.00    -0.550 OA
ATOM     10  O   UNL     1       1.196  12.398 -16.060  1.00  0.00    -0.550 OA
ENDBRANCH   7   8
ENDBRANCH   6   7
ENDBRANCH   5   6
ENDBRANCH   4   5
ENDBRANCH   3   4
ENDBRANCH   2   3
ENDBRANCH   1   2
BRANCH   1  11
ATOM     11  C   UNL     1      -5.488  11.570 -20.782  1.00  0.00    -0.031 C 
ATOM     12  C   UNL     1      -6.421  12.220 -20.059  1.00  0.00    -0.027 C 
BRANCH  12  13
ATOM     13  C   UNL     1      -6.515  13.720 -19.930  1.00  0.00     0.054 C 
BRANCH  13  14
ATOM     14  C   UNL     1      -6.955  14.125 -18.551  1.00  0.00    -0.027 C 
ATOM     15  C   UNL     1      -7.785  13.363 -17.824  1.00  0.00    -0.031 C 
BRANCH  15  16
ATOM     16  C   UNL     1      -8.217  13.769 -16.443  1.00  0.00     0.027 C 
BRANCH  16  17
ATOM     17  C   UNL     1      -9.713  13.495 -16.230  1.00  0.00     0.004 C 
BRANCH  17  18
ATOM     18  C   UNL     1     -10.214  12.272 -17.016  1.00  0.00     0.000 C 
BRANCH  18  19
ATOM     19  C   UNL     1     -11.144  11.351 -16.198  1.00  0.00    -0.003 C 
ATOM     20  C   UNL     1     -11.438  10.033 -16.916  1.00  0.00     0.004 C 
ENDBRANCH  18  19
ENDBRANCH  17  18
ENDBRANCH  16  17
ENDBRANCH  15  16
ENDBRANCH  13  14
ENDBRANCH  12  13
ENDBRANCH   1  11
TORSDOF 14
ENDMDL
MODEL 3
REMARK VINA RESULT:    20.031      2.010      3.333
REMARK INTER + INTRA:          35.424
REMARK INTER:                  36.345
REMARK INTRA:                  -0.920
REMARK UNBOUND:                -1.002
REMARK SMILES CCCCCC=CCC=CCCCCCCCC(=O)[O-]
REMARK SMILES IDX 11 1 12 2 13 3 14 4 15 5 16 6 17 7 18 8 19 9 20 10 10 11
REMARK SMILES IDX 9 12 8 13 7 14 6 15 5 16 4 17 3 18 2 19 1 20
REMARK H PARENT
REMARK Flexibility Score: inf
ROOT
ATOM      1  C   UNL     1      -7.959  13.394 -16.966  1.00  0.00     0.027 C 
ENDROOT
BRANCH   1   2
ATOM      2  C   UNL     1      -8.595  14.114 -15.768  1.00  0.00     0.004 C 
BRANCH   2   3
ATOM      3  C   UNL     1     -10.119  13.918 -15.716  1.00  0.00     0.000 C 
BRANCH   3   4
ATOM      4  C   UNL     1     -10.571  12.575 -16.314  1.00  0.00     0.000 C 
BRANCH   4   5
ATOM      5  C   UNL     1     -11.138  11.592 -15.268  1.00  0.00     0.000 C 
BRANCH   5   6
ATOM      6  C   UNL     1     -11.295  10.169 -15.833  1.00  0.00     0.006 C 
BRANCH   6   7
ATOM      7  C   UNL     1     -11.374  10.157 -17.364  1.00  0.00     0.053 C 
BRANCH   7   8
ATOM      8  C   UNL     1     -12.112   8.956 -17.872  1.00  0.00     0.041 C 
ATOM      9  O   UNL     1     -12.521   8.920 -19.062  1.00  0.00    -0.550 OA
ATOM     10  O   UNL     1     -12.376   7.891 -17.022  1.00  0.00    -0.550 OA
ENDBRANCH   7   8
ENDBRANCH   6   7
ENDBRANCH   5   6
ENDBRANCH   4   5
ENDBRANCH   3   4
ENDBRANCH   2   3
ENDBRANCH   1   2
BRANCH   1  11
ATOM     11  C   UNL     1      -7.047  14.301 -17.755  1.00  0.00    -0.031 C 
ATOM     12  C   UNL     1      -6.709  14.113 -19.046  1.00  0.00    -0.027 C 
BRANCH  12  13
ATOM     13  C   UNL     1      -7.234  12.999 -19.917  1.00  0.00     0.054 C 
BRANCH  13  14
ATOM     14  C   UNL     1      -6.122  12.115 -20.407  1.00  0.00    -0.027 C 
ATOM     15  C   UNL     1      -4.958  12.621 -20.838  1.00  0.00    -0.031 C 
BRANCH  15  16
ATOM     16  C   UNL     1      -3.846  11.733 -21.321  1.00  0.00     0.027 C 
BRANCH  16  17
ATOM     17  C   UNL     1      -2.495  12.175 -20.739  1.00  0.00     0.004 C 
BRANCH  17  18
ATOM     18  C   UNL     1      -1.692  11.007 -20.139  1.00  0.00     0.000 C 
BRANCH  18  19
ATOM     19  C   UNL     1      -1.356   9.901 -21.161  1.00  0.00    -0.003 C 
ATOM     20  C   UNL     1       0.143   9.813 -21.452  1.00  0.00     0.004 C 
ENDBRANCH  18  19
ENDBRANCH  17  18
ENDBRANCH  16  17
ENDBRANCH  15  16
ENDBRANCH  13  14
ENDBRANCH  12  13
ENDBRANCH   1  11
TORSDOF 14
ENDMDL
MODEL 4
REMARK VINA RESULT:    20.325      3.260      8.216
REMARK INTER + INTRA:          35.959
REMARK INTER:                  36.847
REMARK INTRA:                  -0.889
REMARK UNBOUND:                -1.002
REMARK SMILES CCCCCC=CCC=CCCCCCCCC(=O)[O-]
REMARK SMILES IDX 11 1 12 2 13 3 14 4 15 5 16 6 17 7 18 8 19 9 20 10 10 11
REMARK SMILES IDX 9 12 8 13 7 14 6 15 5 16 4 17 3 18 2 19 1 20
REMARK H PARENT
REMARK Flexibility Score: inf
ROOT
ATOM      1  C   UNL     1      -5.973  12.151 -20.220  1.00  0.00     0.027 C 
ENDROOT
BRANCH   1   2
ATOM      2  C   UNL     1      -5.085  11.777 -21.415  1.00  0.00     0.004 C 
BRANCH   2   3
ATOM      3  C   UNL     1      -3.612  12.155 -21.185  1.00  0.00     0.000 C 
BRANCH   3   4
ATOM      4  C   UNL     1      -2.744  10.955 -20.772  1.00  0.00     0.000 C 
BRANCH   4   5
ATOM      5  C   UNL     1      -1.584  11.326 -19.824  1.00  0.00     0.000 C 
BRANCH   5   6
ATOM      6  C   UNL     1      -2.011  11.303 -18.346  1.00  0.00     0.006 C 
BRANCH   6   7
ATOM      7  C   UNL     1      -1.144  12.220 -17.476  1.00  0.00     0.053 C 
BRANCH   7   8
ATOM      8  C   UNL     1      -1.275  11.890 -16.020  1.00  0.00     0.041 C 
ATOM      9  O   UNL     1      -2.357  11.430 -15.570  1.00  0.00    -0.550 OA
ATOM     10  O   UNL     1      -0.213  12.121 -15.156  1.00  0.00    -0.550 OA
ENDBRANCH   7   8
ENDBRANCH   6   7
ENDBRANCH   5   6
ENDBRANCH   4   5
ENDBRANCH   3   4
ENDBRANCH   2   3
ENDBRANCH   1   2
BRANCH   1  11
ATOM     11  C   UNL     1      -6.418  13.592 -20.272  1.00  0.00    -0.031 C 
ATOM     12  C   UNL     1      -6.841  14.302 -19.208  1.00  0.00    -0.027 C 
BRANCH  12  13
ATOM     13  C   UNL     1      -6.881  13.784 -17.791  1.00  0.00     0.054 C 
BRANCH  13  14
ATOM     14  C   UNL     1      -8.275  13.393 -17.390  1.00  0.00    -0.027 C 
ATOM     15  C   UNL     1      -8.786  13.732 -16.197  1.00  0.00    -0.031 C 
BRANCH  15  16
ATOM     16  C   UNL     1     -10.183  13.345 -15.803  1.00  0.00     0.027 C 
BRANCH  16  17
ATOM     17  C   UNL     1     -10.608  12.039 -16.490  1.00  0.00     0.004 C 
BRANCH  17  18
ATOM     18  C   UNL     1     -11.190  11.008 -15.507  1.00  0.00     0.000 C 
BRANCH  18  19
ATOM     19  C   UNL     1     -11.430   9.621 -16.139  1.00  0.00    -0.003 C 
ATOM     20  C   UNL     1     -11.772   9.710 -17.627  1.00  0.00     0.004 C 
ENDBRANCH  18  19
ENDBRANCH  17  18
ENDBRANCH  16  17
ENDBRANCH  15  16
ENDBRANCH  13  14
ENDBRANCH  12  13
ENDBRANCH   1  11
TORSDOF 14
ENDMDL
MODEL 5
REMARK VINA RESULT:    20.453      4.430      7.817
REMARK INTER + INTRA:          36.190
REMARK INTER:                  36.818
REMARK INTRA:                  -0.628
REMARK UNBOUND:                -1.002
REMARK SMILES CCCCCC=CCC=CCCCCCCCC(=O)[O-]
REMARK SMILES IDX 11 1 12 2 13 3 14 4 15 5 16 6 17 7 18 8 19 9 20 10 10 11
REMARK SMILES IDX 9 12 8 13 7 14 6 15 5 16 4 17 3 18 2 19 1 20
REMARK H PARENT
REMARK Flexibility Score: inf
ROOT
ATOM      1  C   UNL     1     -11.779  10.930 -14.438  1.00  0.00     0.027 C 
ENDROOT
BRANCH   1   2
ATOM      2  C   UNL     1     -11.931  10.456 -12.985  1.00  0.00     0.004 C 
BRANCH   2   3
ATOM      3  C   UNL     1     -12.427  11.578 -12.058  1.00  0.00     0.000 C 
BRANCH   3   4
ATOM      4  C   UNL     1     -12.396  11.183 -10.571  1.00  0.00     0.000 C 
BRANCH   4   5
ATOM      5  C   UNL     1     -12.399  12.390  -9.610  1.00  0.00     0.000 C 
BRANCH   5   6
ATOM      6  C   UNL     1     -11.356  13.450 -10.005  1.00  0.00     0.006 C 
BRANCH   6   7
ATOM      7  C   UNL     1     -10.486  13.881  -8.818  1.00  0.00     0.053 C 
BRANCH   7   8
ATOM      8  C   UNL     1      -9.306  12.976  -8.637  1.00  0.00     0.041 C 
ATOM      9  O   UNL     1      -9.030  12.515  -7.497  1.00  0.00    -0.550 OA
ATOM     10  O   UNL     1      -8.492  12.668  -9.718  1.00  0.00    -0.550 OA
ENDBRANCH   7   8
ENDBRANCH   6   7
ENDBRANCH   5   6
ENDBRANCH   4   5
ENDBRANCH   3   4
ENDBRANCH   2   3
ENDBRANCH   1   2
BRANCH   1  11
ATOM     11  C   UNL     1     -11.338   9.816 -15.356  1.00  0.00    -0.031 C 
ATOM     12  C   UNL     1     -11.125   9.952 -16.679  1.00  0.00    -0.027 C 
BRANCH  12  13
ATOM     13  C   UNL     1     -11.238  11.252 -17.437  1.00  0.00     0.054 C 
BRANCH  13  14
ATOM     14  C   UNL     1     -10.161  12.218 -17.033  1.00  0.00    -0.027 C 
ATOM     15  C   UNL     1     -10.439  13.339 -16.352  1.00  0.00    -0.031 C 
BRANCH  15  16
ATOM     16  C   UNL     1      -9.357  14.299 -15.945  1.00  0.00     0.027 C 
BRANCH  16  17
ATOM     17  C   UNL     1      -7.965  13.704 -16.205  1.00  0.00     0.004 C 
BRANCH  17  18
ATOM     18  C   UNL     1      -7.332  14.214 -17.511  1.00  0.00     0.000 C 
BRANCH  18  19
ATOM     19  C   UNL     1      -7.295  13.156 -18.634  1.00  0.00    -0.003 C 
ATOM     20  C   UNL     1      -6.760  13.722 -19.950  1.00  0.00     0.004 C 
ENDBRANCH  18  19
ENDBRANCH  17  18
ENDBRANCH  16  17
ENDBRANCH  15  16
ENDBRANCH  13  14
ENDBRANCH  12  13
ENDBRANCH   1  11
TORSDOF 14
ENDMDL
MODEL 6
REMARK VINA RESULT:    20.578      3.560      8.672
REMARK INTER + INTRA:          36.418
REMARK INTER:                  37.439
REMARK INTRA:                  -1.021
REMARK UNBOUND:                -1.002
REMARK SMILES CCCCCC=CCC=CCCCCCCCC(=O)[O-]
REMARK SMILES IDX 11 1 12 2 13 3 14 4 15 5 16 6 17 7 18 8 19 9 20 10 10 11
REMARK SMILES IDX 9 12 8 13 7 14 6 15 5 16 4 17 3 18 2 19 1 20
REMARK H PARENT
REMARK Flexibility Score: inf
ROOT
ATOM      1  C   UNL     1      -7.647  13.260 -18.241  1.00  0.00     0.027 C 
ENDROOT
BRANCH   1   2
ATOM      2  C   UNL     1      -6.717  13.964 -19.239  1.00  0.00     0.004 C 
BRANCH   2   3
ATOM      3  C   UNL     1      -6.556  13.166 -20.544  1.00  0.00     0.000 C 
BRANCH   3   4
ATOM      4  C   UNL     1      -5.631  11.947 -20.390  1.00  0.00     0.000 C 
BRANCH   4   5
ATOM      5  C   UNL     1      -4.730  11.696 -21.618  1.00  0.00     0.000 C 
BRANCH   5   6
ATOM      6  C   UNL     1      -3.370  12.405 -21.496  1.00  0.00     0.006 C 
BRANCH   6   7
ATOM      7  C   UNL     1      -2.621  12.011 -20.218  1.00  0.00     0.053 C 
BRANCH   7   8
ATOM      8  C   UNL     1      -2.019  10.643 -20.327  1.00  0.00     0.041 C 
ATOM      9  O   UNL     1      -0.936  10.475 -20.946  1.00  0.00    -0.550 OA
ATOM     10  O   UNL     1      -2.672   9.549 -19.774  1.00  0.00    -0.550 OA
ENDBRANCH   7   8
ENDBRANCH   6   7
ENDBRANCH   5   6
ENDBRANCH   4   5
ENDBRANCH   3   4
ENDBRANCH   2   3
ENDBRANCH   1   2
BRANCH   1  11
ATOM     11  C   UNL     1      -7.435  13.746 -16.827  1.00  0.00    -0.031 C 
ATOM     12  C   UNL     1      -8.423  14.099 -15.983  1.00  0.00    -0.027 C 
BRANCH  12  13
ATOM     13  C   UNL     1      -9.896  14.009 -16.298  1.00  0.00     0.054 C 
BRANCH  13  14
ATOM     14  C   UNL     1     -10.541  12.860 -15.577  1.00  0.00    -0.027 C 
ATOM     15  C   UNL     1     -10.838  11.712 -16.203  1.00  0.00    -0.031 C 
BRANCH  15  16
ATOM     16  C   UNL     1     -11.478  10.563 -15.476  1.00  0.00     0.027 C 
BRANCH  16  17
ATOM     17  C   UNL     1     -11.430   9.281 -16.321  1.00  0.00     0.004 C 
BRANCH  17  18
ATOM     18  C   UNL     1     -11.547   9.555 -17.830  1.00  0.00     0.000 C 
BRANCH  18  19
ATOM     19  C   UNL     1     -12.769   8.880 -18.487  1.00  0.00    -0.003 C 
ATOM     20  C   UNL     1     -12.637   8.788 -20.008  1.00  0.00     0.004 C 
ENDBRANCH  18  19
ENDBRANCH  17  18
ENDBRANCH  16  17
ENDBRANCH  15  16
ENDBRANCH  13  14
ENDBRANCH  12  13
ENDBRANCH   1  11
TORSDOF 14
ENDMDL
MODEL 7
REMARK VINA RESULT:    20.642      2.109      3.254
REMARK INTER + INTRA:          36.534
REMARK INTER:                  37.482
REMARK INTRA:                  -0.948
REMARK UNBOUND:                -1.002
REMARK SMILES CCCCCC=CCC=CCCCCCCCC(=O)[O-]
REMARK SMILES IDX 11 1 12 2 13 3 14 4 15 5 16 6 17 7 18 8 19 9 20 10 10 11
REMARK SMILES IDX 9 12 8 13 7 14 6 15 5 16 4 17 3 18 2 19 1 20
REMARK H PARENT
REMARK Flexibility Score: inf
ROOT
ATOM      1  C   UNL     1      -7.130  13.238 -18.436  1.00  0.00     0.027 C 
ENDROOT
BRANCH   1   2
ATOM      2  C   UNL     1      -7.265  14.313 -17.347  1.00  0.00     0.004 C 
BRANCH   2   3
ATOM      3  C   UNL     1      -7.850  13.747 -16.043  1.00  0.00     0.000 C 
BRANCH   3   4
ATOM      4  C   UNL     1      -9.237  14.322 -15.710  1.00  0.00     0.000 C 
BRANCH   4   5
ATOM      5  C   UNL     1     -10.406  13.469 -16.246  1.00  0.00     0.000 C 
BRANCH   5   6
ATOM      6  C   UNL     1      -9.947  12.071 -16.695  1.00  0.00     0.006 C 
BRANCH   6   7
ATOM      7  C   UNL     1     -11.068  11.284 -17.385  1.00  0.00     0.053 C 
BRANCH   7   8
ATOM      8  C   UNL     1     -11.471  10.080 -16.590  1.00  0.00     0.041 C 
ATOM      9  O   UNL     1     -11.361  10.083 -15.335  1.00  0.00    -0.550 OA
ATOM     10  O   UNL     1     -11.936   8.942 -17.236  1.00  0.00    -0.550 OA
ENDBRANCH   7   8
ENDBRANCH   6   7
ENDBRANCH   5   6
ENDBRANCH   4   5
ENDBRANCH   3   4
ENDBRANCH   2   3
ENDBRANCH   1   2
BRANCH   1  11
ATOM     11  C   UNL     1      -6.871  13.838 -19.797  1.00  0.00    -0.031 C 
ATOM     12  C   UNL     1      -6.251  13.201 -20.809  1.00  0.00    -0.027 C 
BRANCH  12  13
ATOM     13  C   UNL     1      -5.772  11.771 -20.758  1.00  0.00     0.054 C 
BRANCH  13  14
ATOM     14  C   UNL     1      -4.352  11.652 -21.236  1.00  0.00    -0.027 C 
ATOM     15  C   UNL     1      -3.319  11.651 -20.380  1.00  0.00    -0.031 C 
BRANCH  15  16
ATOM     16  C   UNL     1      -1.901  11.524 -20.862  1.00  0.00     0.027 C 
BRANCH  16  17
ATOM     17  C   UNL     1      -1.381  10.091 -20.677  1.00  0.00     0.004 C 
BRANCH  17  18
ATOM     18  C   UNL     1      -0.770   9.506 -21.961  1.00  0.00     0.000 C 
BRANCH  18  19
ATOM     19  C   UNL     1      -1.823   9.034 -22.986  1.00  0.00    -0.003 C 
ATOM     20  C   UNL     1      -1.205   8.217 -24.122  1.00  0.00     0.004 C 
ENDBRANCH  18  19
ENDBRANCH  17  18
ENDBRANCH  16  17
ENDBRANCH  15  16
ENDBRANCH  13  14
ENDBRANCH  12  13
ENDBRANCH   1  11
TORSDOF 14
ENDMDL
MODEL 8
REMARK VINA RESULT:    20.681      1.857      3.337
REMARK INTER + INTRA:          36.605
REMARK INTER:                  37.746
REMARK INTRA:                  -1.141
REMARK UNBOUND:                -1.002
REMARK SMILES CCCCCC=CCC=CCCCCCCCC(=O)[O-]
REMARK SMILES IDX 11 1 12 2 13 3 14 4 15 5 16 6 17 7 18 8 19 9 20 10 10 11
REMARK SMILES IDX 9 12 8 13 7 14 6 15 5 16 4 17 3 18 2 19 1 20
REMARK H PARENT
REMARK Flexibility Score: inf
ROOT
ATOM      1  C   UNL     1      -8.071  16.887 -18.825  1.00  0.00     0.027 C 
ENDROOT
BRANCH   1   2
ATOM      2  C   UNL     1      -8.472  16.912 -17.343  1.00  0.00     0.004 C 
BRANCH   2   3
ATOM      3  C   UNL     1      -9.690  16.018 -17.057  1.00  0.00     0.000 C 
BRANCH   3   4
ATOM      4  C   UNL     1      -9.457  15.046 -15.887  1.00  0.00     0.000 C 
BRANCH   4   5
ATOM      5  C   UNL     1      -9.223  13.587 -16.332  1.00  0.00     0.000 C 
BRANCH   5   6
ATOM      6  C   UNL     1     -10.436  12.688 -16.039  1.00  0.00     0.006 C 
BRANCH   6   7
ATOM      7  C   UNL     1     -10.572  11.545 -17.053  1.00  0.00     0.053 C 
BRANCH   7   8
ATOM      8  C   UNL     1     -11.282  10.364 -16.465  1.00  0.00     0.041 C 
ATOM      9  O   UNL     1     -11.366  10.233 -15.215  1.00  0.00    -0.550 OA
ATOM     10  O   UNL     1     -11.820   9.391 -17.296  1.00  0.00    -0.550 OA
ENDBRANCH   7   8
ENDBRANCH   6   7
ENDBRANCH   5   6
ENDBRANCH   4   5
ENDBRANCH   3   4
ENDBRANCH   2   3
ENDBRANCH   1   2
BRANCH   1  11
ATOM     11  C   UNL     1      -6.634  16.463 -19.017  1.00  0.00    -0.031 C 
ATOM     12  C   UNL     1      -6.201  15.189 -18.983  1.00  0.00    -0.027 C 
BRANCH  12  13
ATOM     13  C   UNL     1      -7.091  13.983 -18.804  1.00  0.00     0.054 C 
BRANCH  13  14
ATOM     14  C   UNL     1      -6.869  12.972 -19.893  1.00  0.00    -0.027 C 
ATOM     15  C   UNL     1      -5.686  12.853 -20.514  1.00  0.00    -0.031 C 
BRANCH  15  16
ATOM     16  C   UNL     1      -5.467  11.835 -21.598  1.00  0.00     0.027 C 
BRANCH  16  17
ATOM     17  C   UNL     1      -3.969  11.569 -21.809  1.00  0.00     0.004 C 
BRANCH  17  18
ATOM     18  C   UNL     1      -3.093  12.169 -20.696  1.00  0.00     0.000 C 
BRANCH  18  19
ATOM     19  C   UNL     1      -2.194  11.131 -19.992  1.00  0.00    -0.003 C 
ATOM     20  C   UNL     1      -1.215  10.458 -20.955  1.00  0.00     0.004 C 
ENDBRANCH  18  19
ENDBRANCH  17  18
ENDBRANCH  16  17
ENDBRANCH  15  16
ENDBRANCH  13  14
ENDBRANCH  12  13
ENDBRANCH   1  11
TORSDOF 14
ENDMDL
