MODEL 1
REMARK VINA RESULT:    -3.929      0.000      0.000
REMARK INTER + INTRA:          -5.318
REMARK INTER:                  -5.192
REMARK INTRA:                  -0.126
REMARK UNBOUND:                -0.126
REMARK SMILES CCCCCCCO
REMARK SMILES IDX 5 1 4 2 3 3 2 4 1 5 6 6 7 7 8 8
REMARK H PARENT 8 9
REMARK Flexibility Score: inf
ROOT
ATOM      1  C   UNL     1       5.754  23.566  20.117  1.00  0.00     0.002 C 
ENDROOT
BRANCH   1   2
ATOM      2  C   UNL     1       6.103  22.514  21.176  1.00  0.00     0.000 C 
BRANCH   2   3
ATOM      3  C   UNL     1       5.189  21.285  21.053  1.00  0.00    -0.000 C 
BRANCH   3   4
ATOM      4  C   UNL     1       3.872  21.448  21.828  1.00  0.00    -0.003 C 
ATOM      5  C   UNL     1       2.935  20.252  21.660  1.00  0.00     0.004 C 
ENDBRANCH   3   4
ENDBRANCH   2   3
ENDBRANCH   1   2
BRANCH   1   6
ATOM      6  C   UNL     1       6.850  24.637  20.023  1.00  0.00     0.028 C 
BRANCH   6   7
ATOM      7  C   UNL     1       7.897  24.475  21.127  1.00  0.00     0.156 C 
BRANCH   7   8
ATOM      8  O   UNL     1       9.146  24.178  20.567  1.00  0.00    -0.396 OA
ATOM      9  H   UNL     1       9.412  23.298  20.939  1.00  0.00     0.210 HD
ENDBRANCH   7   8
ENDBRANCH   6   7
ENDBRANCH   1   6
TORSDOF 6
ENDMDL
MODEL 2
REMARK VINA RESULT:    -3.909      3.980      6.131
REMARK INTER + INTRA:          -5.292
REMARK INTER:                  -5.107
REMARK INTRA:                  -0.185
REMARK UNBOUND:                -0.126
REMARK SMILES CCCCCCCO
REMARK SMILES IDX 5 1 4 2 3 3 2 4 1 5 6 6 7 7 8 8
REMARK H PARENT 8 9
REMARK Flexibility Score: inf
ROOT
ATOM      1  C   UNL     1       3.391  19.378  20.606  1.00  0.00     0.002 C 
ENDROOT
BRANCH   1   2
ATOM      2  C   UNL     1       3.044  20.240  21.825  1.00  0.00     0.000 C 
BRANCH   2   3
ATOM      3  C   UNL     1       3.894  21.519  21.854  1.00  0.00    -0.000 C 
BRANCH   3   4
ATOM      4  C   UNL     1       5.285  21.319  21.232  1.00  0.00    -0.003 C 
ATOM      5  C   UNL     1       5.967  22.639  20.872  1.00  0.00     0.004 C 
ENDBRANCH   3   4
ENDBRANCH   2   3
ENDBRANCH   1   2
BRANCH   1   6
ATOM      6  C   UNL     1       2.121  18.853  19.923  1.00  0.00     0.028 C 
BRANCH   6   7
ATOM      7  C   UNL     1       0.869  19.575  20.423  1.00  0.00     0.156 C 
BRANCH   7   8
ATOM      8  O   UNL     1      -0.215  19.303  19.578  1.00  0.00    -0.396 OA
ATOM      9  H   UNL     1      -0.918  18.902  20.153  1.00  0.00     0.210 HD
ENDBRANCH   7   8
ENDBRANCH   6   7
ENDBRANCH   1   6
TORSDOF 6
ENDMDL
MODEL 3
REMARK VINA RESULT:    -3.796      0.698      1.450
REMARK INTER + INTRA:          -5.142
REMARK INTER:                  -5.017
REMARK INTRA:                  -0.125
REMARK UNBOUND:                -0.126
REMARK SMILES CCCCCCCO
REMARK SMILES IDX 5 1 4 2 3 3 2 4 1 5 6 6 7 7 8 8
REMARK H PARENT 8 9
REMARK Flexibility Score: inf
ROOT
ATOM      1  C   UNL     1       6.117  22.612  21.168  1.00  0.00     0.002 C 
ENDROOT
BRANCH   1   2
ATOM      2  C   UNL     1       5.273  21.341  21.022  1.00  0.00     0.000 C 
BRANCH   2   3
ATOM      3  C   UNL     1       3.964  21.455  21.819  1.00  0.00    -0.000 C 
BRANCH   3   4
ATOM      4  C   UNL     1       3.181  20.135  21.861  1.00  0.00    -0.003 C 
ATOM      5  C   UNL     1       3.525  19.205  20.698  1.00  0.00     0.004 C 
ENDBRANCH   3   4
ENDBRANCH   2   3
ENDBRANCH   1   2
BRANCH   1   6
ATOM      6  C   UNL     1       5.789  23.621  20.059  1.00  0.00     0.028 C 
BRANCH   6   7
ATOM      7  C   UNL     1       6.862  24.705  19.943  1.00  0.00     0.156 C 
BRANCH   7   8
ATOM      8  O   UNL     1       8.134  24.147  20.132  1.00  0.00    -0.396 OA
ATOM      9  H   UNL     1       8.642  24.800  20.679  1.00  0.00     0.210 HD
ENDBRANCH   7   8
ENDBRANCH   6   7
ENDBRANCH   1   6
TORSDOF 6
ENDMDL
MODEL 4
REMARK VINA RESULT:    -3.771      3.806      5.958
REMARK INTER + INTRA:          -5.108
REMARK INTER:                  -4.960
REMARK INTRA:                  -0.148
REMARK UNBOUND:                -0.126
REMARK SMILES CCCCCCCO
REMARK SMILES IDX 5 1 4 2 3 3 2 4 1 5 6 6 7 7 8 8
REMARK H PARENT 8 9
REMARK Flexibility Score: inf
ROOT
ATOM      1  C   UNL     1       3.633  19.452  20.501  1.00  0.00     0.002 C 
ENDROOT
BRANCH   1   2
ATOM      2  C   UNL     1       3.183  20.194  21.764  1.00  0.00     0.000 C 
BRANCH   2   3
ATOM      3  C   UNL     1       3.964  21.506  21.939  1.00  0.00    -0.000 C 
BRANCH   3   4
ATOM      4  C   UNL     1       5.366  21.447  21.312  1.00  0.00    -0.003 C 
ATOM      5  C   UNL     1       5.775  22.764  20.654  1.00  0.00     0.004 C 
ENDBRANCH   3   4
ENDBRANCH   2   3
ENDBRANCH   1   2
BRANCH   1   6
ATOM      6  C   UNL     1       2.500  18.578  19.944  1.00  0.00     0.028 C 
BRANCH   6   7
ATOM      7  C   UNL     1       3.007  17.201  19.512  1.00  0.00     0.156 C 
BRANCH   7   8
ATOM      8  O   UNL     1       3.058  17.122  18.114  1.00  0.00    -0.396 OA
ATOM      9  H   UNL     1       2.436  16.394  17.857  1.00  0.00     0.210 HD
ENDBRANCH   7   8
ENDBRANCH   6   7
ENDBRANCH   1   6
TORSDOF 6
ENDMDL
MODEL 5
REMARK VINA RESULT:    -3.692      4.126      4.852
REMARK INTER + INTRA:          -5.004
REMARK INTER:                  -4.735
REMARK INTRA:                  -0.269
REMARK UNBOUND:                -0.126
REMARK SMILES CCCCCCCO
REMARK SMILES IDX 5 1 4 2 3 3 2 4 1 5 6 6 7 7 8 8
REMARK H PARENT 8 9
REMARK Flexibility Score: inf
ROOT
ATOM      1  C   UNL     1       3.329  20.536  22.177  1.00  0.00     0.002 C 
ENDROOT
BRANCH   1   2
ATOM      2  C   UNL     1       3.856  19.852  20.910  1.00  0.00     0.000 C 
BRANCH   2   3
ATOM      3  C   UNL     1       2.756  19.018  20.237  1.00  0.00    -0.000 C 
BRANCH   3   4
ATOM      4  C   UNL     1       1.404  19.131  20.957  1.00  0.00    -0.003 C 
ATOM      5  C   UNL     1       0.323  19.774  20.089  1.00  0.00     0.004 C 
ENDBRANCH   3   4
ENDBRANCH   2   3
ENDBRANCH   1   2
BRANCH   1   6
ATOM      6  C   UNL     1       3.318  22.062  22.014  1.00  0.00     0.028 C 
BRANCH   6   7
ATOM      7  C   UNL     1       1.898  22.628  22.072  1.00  0.00     0.156 C 
BRANCH   7   8
ATOM      8  O   UNL     1       1.822  23.645  23.032  1.00  0.00    -0.396 OA
ATOM      9  H   UNL     1       0.925  24.056  22.927  1.00  0.00     0.210 HD
ENDBRANCH   7   8
ENDBRANCH   6   7
ENDBRANCH   1   6
TORSDOF 6
ENDMDL
MODEL 6
REMARK VINA RESULT:    -3.628      2.801      5.039
REMARK INTER + INTRA:          -4.920
REMARK INTER:                  -4.779
REMARK INTRA:                  -0.141
REMARK UNBOUND:                -0.126
REMARK SMILES CCCCCCCO
REMARK SMILES IDX 5 1 4 2 3 3 2 4 1 5 6 6 7 7 8 8
REMARK H PARENT 8 9
REMARK Flexibility Score: inf
ROOT
ATOM      1  C   UNL     1       5.751  22.073  21.155  1.00  0.00     0.002 C 
ENDROOT
BRANCH   1   2
ATOM      2  C   UNL     1       5.367  23.249  20.251  1.00  0.00     0.000 C 
BRANCH   2   3
ATOM      3  C   UNL     1       6.534  24.236  20.106  1.00  0.00    -0.000 C 
BRANCH   3   4
ATOM      4  C   UNL     1       7.614  24.036  21.181  1.00  0.00    -0.003 C 
ATOM      5  C   UNL     1       8.728  25.079  21.101  1.00  0.00     0.004 C 
ENDBRANCH   3   4
ENDBRANCH   2   3
ENDBRANCH   1   2
BRANCH   1   6
ATOM      6  C   UNL     1       4.645  21.009  21.175  1.00  0.00     0.028 C 
BRANCH   6   7
ATOM      7  C   UNL     1       3.695  21.201  22.358  1.00  0.00     0.156 C 
BRANCH   7   8
ATOM      8  O   UNL     1       2.394  20.821  22.000  1.00  0.00    -0.396 OA
ATOM      9  H   UNL     1       1.882  21.664  21.893  1.00  0.00     0.210 HD
ENDBRANCH   7   8
ENDBRANCH   6   7
ENDBRANCH   1   6
TORSDOF 6
ENDMDL
MODEL 7
REMARK VINA RESULT:    -3.547      1.999      3.178
REMARK INTER + INTRA:          -4.814
REMARK INTER:                  -4.624
REMARK INTRA:                  -0.190
REMARK UNBOUND:                -0.126
REMARK SMILES CCCCCCCO
REMARK SMILES IDX 5 1 4 2 3 3 2 4 1 5 6 6 7 7 8 8
REMARK H PARENT 8 9
REMARK Flexibility Score: inf
ROOT
ATOM      1  C   UNL     1       3.981  21.759  21.658  1.00  0.00     0.002 C 
ENDROOT
BRANCH   1   2
ATOM      2  C   UNL     1       3.444  20.338  21.869  1.00  0.00     0.000 C 
BRANCH   2   3
ATOM      3  C   UNL     1       3.724  19.456  20.644  1.00  0.00    -0.000 C 
BRANCH   3   4
ATOM      4  C   UNL     1       2.442  18.875  20.029  1.00  0.00    -0.003 C 
ATOM      5  C   UNL     1       1.173  19.519  20.586  1.00  0.00     0.004 C 
ENDBRANCH   3   4
ENDBRANCH   2   3
ENDBRANCH   1   2
BRANCH   1   6
ATOM      6  C   UNL     1       5.452  21.732  21.221  1.00  0.00     0.028 C 
BRANCH   6   7
ATOM      7  C   UNL     1       5.855  23.024  20.508  1.00  0.00     0.156 C 
BRANCH   7   8
ATOM      8  O   UNL     1       4.807  23.952  20.562  1.00  0.00    -0.396 OA
ATOM      9  H   UNL     1       4.432  23.997  19.645  1.00  0.00     0.210 HD
ENDBRANCH   7   8
ENDBRANCH   6   7
ENDBRANCH   1   6
TORSDOF 6
ENDMDL
MODEL 8
REMARK VINA RESULT:    -3.544      1.517      1.927
REMARK INTER + INTRA:          -4.809
REMARK INTER:                  -4.606
REMARK INTRA:                  -0.203
REMARK UNBOUND:                -0.126
REMARK SMILES CCCCCCCO
REMARK SMILES IDX 5 1 4 2 3 3 2 4 1 5 6 6 7 7 8 8
REMARK H PARENT 8 9
REMARK Flexibility Score: inf
ROOT
ATOM      1  C   UNL     1       5.995  24.412  19.290  1.00  0.00     0.002 C 
ENDROOT
BRANCH   1   2
ATOM      2  C   UNL     1       5.304  23.339  20.139  1.00  0.00     0.000 C 
BRANCH   2   3
ATOM      3  C   UNL     1       6.263  22.770  21.195  1.00  0.00    -0.000 C 
BRANCH   3   4
ATOM      4  C   UNL     1       5.626  21.648  22.029  1.00  0.00    -0.003 C 
ATOM      5  C   UNL     1       4.291  21.171  21.458  1.00  0.00     0.004 C 
ENDBRANCH   3   4
ENDBRANCH   2   3
ENDBRANCH   1   2
BRANCH   1   6
ATOM      6  C   UNL     1       7.383  24.749  19.852  1.00  0.00     0.028 C 
BRANCH   6   7
ATOM      7  C   UNL     1       7.628  26.259  19.889  1.00  0.00     0.156 C 
BRANCH   7   8
ATOM      8  O   UNL     1       7.062  26.811  21.046  1.00  0.00    -0.396 OA
ATOM      9  H   UNL     1       7.025  26.077  21.711  1.00  0.00     0.210 HD
ENDBRANCH   7   8
ENDBRANCH   6   7
ENDBRANCH   1   6
TORSDOF 6
ENDMDL
MODEL 9
REMARK VINA RESULT:    -3.496      3.129      5.254
REMARK INTER + INTRA:          -4.745
REMARK INTER:                  -4.635
REMARK INTRA:                  -0.110
REMARK UNBOUND:                -0.126
REMARK SMILES CCCCCCCO
REMARK SMILES IDX 5 1 4 2 3 3 2 4 1 5 6 6 7 7 8 8
REMARK H PARENT 8 9
REMARK Flexibility Score: inf
ROOT
ATOM      1  C   UNL     1       4.480  21.648  21.643  1.00  0.00     0.002 C 
ENDROOT
BRANCH   1   2
ATOM      2  C   UNL     1       5.724  22.182  20.924  1.00  0.00     0.000 C 
BRANCH   2   3
ATOM      3  C   UNL     1       5.404  23.471  20.154  1.00  0.00    -0.000 C 
BRANCH   3   4
ATOM      4  C   UNL     1       6.585  24.454  20.130  1.00  0.00    -0.003 C 
ATOM      5  C   UNL     1       7.638  24.139  21.192  1.00  0.00     0.004 C 
ENDBRANCH   3   4
ENDBRANCH   2   3
ENDBRANCH   1   2
BRANCH   1   6
ATOM      6  C   UNL     1       4.019  20.317  21.033  1.00  0.00     0.028 C 
BRANCH   6   7
ATOM      7  C   UNL     1       3.135  19.527  21.998  1.00  0.00     0.156 C 
BRANCH   7   8
ATOM      8  O   UNL     1       1.783  19.783  21.735  1.00  0.00    -0.396 OA
ATOM      9  H   UNL     1       1.616  19.455  20.814  1.00  0.00     0.210 HD
ENDBRANCH   7   8
ENDBRANCH   6   7
ENDBRANCH   1   6
TORSDOF 6
ENDMDL
