MODEL 1
REMARK VINA RESULT:    -4.670      0.000      0.000
REMARK INTER + INTRA:          -9.308
REMARK INTER:                  -8.492
REMARK INTRA:                  -0.816
REMARK UNBOUND:                -0.816
REMARK SMILES CCCCCCCCCCCCCCCC(=O)[O-]
REMARK SMILES IDX 9 1 10 2 11 3 12 4 13 5 14 6 15 7 16 8 17 9 18 10 8 11 7 12
REMARK SMILES IDX 6 13 5 14 4 15 3 16 2 17 1 18
REMARK H PARENT
REMARK Flexibility Score: inf
ROOT
ATOM      1  C   UNL     1       4.710  10.387  82.650  1.00  0.00     0.000 C 
ENDROOT
BRANCH   1   2
ATOM      2  C   UNL     1       5.048   8.952  82.216  1.00  0.00     0.000 C 
BRANCH   2   3
ATOM      3  C   UNL     1       6.544   8.757  81.906  1.00  0.00     0.000 C 
BRANCH   3   4
ATOM      4  C   UNL     1       6.863   8.218  80.496  1.00  0.00     0.000 C 
BRANCH   4   5
ATOM      5  C   UNL     1       8.102   8.838  79.824  1.00  0.00     0.000 C 
BRANCH   5   6
ATOM      6  C   UNL     1       9.303   7.878  79.786  1.00  0.00     0.006 C 
BRANCH   6   7
ATOM      7  C   UNL     1       9.069   6.695  78.838  1.00  0.00     0.053 C 
BRANCH   7   8
ATOM      8  C   UNL     1       8.918   5.405  79.585  1.00  0.00     0.041 C 
ATOM      9  O   UNL     1       9.926   4.692  79.829  1.00  0.00    -0.550 OA
ATOM     10  O   UNL     1       7.667   5.005  80.036  1.00  0.00    -0.550 OA
ENDBRANCH   7   8
ENDBRANCH   6   7
ENDBRANCH   5   6
ENDBRANCH   4   5
ENDBRANCH   3   4
ENDBRANCH   2   3
ENDBRANCH   1   2
BRANCH   1  11
ATOM     11  C   UNL     1       3.271  10.532  83.177  1.00  0.00     0.000 C 
BRANCH  11  12
ATOM     12  C   UNL     1       2.441   9.235  83.184  1.00  0.00    -0.000 C 
BRANCH  12  13
ATOM     13  C   UNL     1       1.703   9.001  84.511  1.00  0.00    -0.000 C 
BRANCH  13  14
ATOM     14  C   UNL     1       2.590   8.247  85.509  1.00  0.00    -0.000 C 
BRANCH  14  15
ATOM     15  C   UNL     1       3.011   6.883  84.951  1.00  0.00    -0.000 C 
BRANCH  15  16
ATOM     16  C   UNL     1       2.343   5.739  85.730  1.00  0.00    -0.000 C 
BRANCH  16  17
ATOM     17  C   UNL     1       1.323   6.244  86.761  1.00  0.00    -0.003 C 
ATOM     18  C   UNL     1       0.545   5.108  87.427  1.00  0.00     0.004 C 
ENDBRANCH  16  17
ENDBRANCH  15  16
ENDBRANCH  14  15
ENDBRANCH  13  14
ENDBRANCH  12  13
ENDBRANCH  11  12
ENDBRANCH   1  11
TORSDOF 14
ENDMDL
MODEL 2
REMARK VINA RESULT:    -4.663      3.502      7.554
REMARK INTER + INTRA:          -9.296
REMARK INTER:                  -8.113
REMARK INTRA:                  -1.183
REMARK UNBOUND:                -0.816
REMARK SMILES CCCCCCCCCCCCCCCC(=O)[O-]
REMARK SMILES IDX 9 1 10 2 11 3 12 4 13 5 14 6 15 7 16 8 17 9 18 10 8 11 7 12
REMARK SMILES IDX 6 13 5 14 4 15 3 16 2 17 1 18
REMARK H PARENT
REMARK Flexibility Score: inf
ROOT
ATOM      1  C   UNL     1       2.986   9.948  86.651  1.00  0.00     0.000 C 
ENDROOT
BRANCH   1   2
ATOM      2  C   UNL     1       2.022   8.839  87.105  1.00  0.00     0.000 C 
BRANCH   2   3
ATOM      3  C   UNL     1       1.277   8.176  85.932  1.00  0.00     0.000 C 
BRANCH   3   4
ATOM      4  C   UNL     1       1.365   6.638  85.876  1.00  0.00     0.000 C 
BRANCH   4   5
ATOM      5  C   UNL     1       2.729   6.076  85.433  1.00  0.00     0.000 C 
BRANCH   5   6
ATOM      6  C   UNL     1       2.884   4.576  85.738  1.00  0.00     0.006 C 
BRANCH   6   7
ATOM      7  C   UNL     1       1.981   4.124  86.892  1.00  0.00     0.053 C 
BRANCH   7   8
ATOM      8  C   UNL     1       2.566   2.961  87.633  1.00  0.00     0.041 C 
ATOM      9  O   UNL     1       1.816   2.153  88.241  1.00  0.00    -0.550 OA
ATOM     10  O   UNL     1       3.940   2.755  87.630  1.00  0.00    -0.550 OA
ENDBRANCH   7   8
ENDBRANCH   6   7
ENDBRANCH   5   6
ENDBRANCH   4   5
ENDBRANCH   3   4
ENDBRANCH   2   3
ENDBRANCH   1   2
BRANCH   1  11
ATOM     11  C   UNL     1       2.763  10.374  85.188  1.00  0.00     0.000 C 
BRANCH  11  12
ATOM     12  C   UNL     1       3.979  11.021  84.501  1.00  0.00    -0.000 C 
BRANCH  12  13
ATOM     13  C   UNL     1       4.044  10.731  82.994  1.00  0.00    -0.000 C 
BRANCH  13  14
ATOM     14  C   UNL     1       3.461   9.349  82.674  1.00  0.00    -0.000 C 
BRANCH  14  15
ATOM     15  C   UNL     1       4.574   8.318  82.458  1.00  0.00    -0.000 C 
BRANCH  15  16
ATOM     16  C   UNL     1       5.817   8.970  81.836  1.00  0.00    -0.000 C 
BRANCH  16  17
ATOM     17  C   UNL     1       6.604   8.006  80.937  1.00  0.00    -0.003 C 
ATOM     18  C   UNL     1       7.931   8.595  80.457  1.00  0.00     0.004 C 
ENDBRANCH  16  17
ENDBRANCH  15  16
ENDBRANCH  14  15
ENDBRANCH  13  14
ENDBRANCH  12  13
ENDBRANCH  11  12
ENDBRANCH   1  11
TORSDOF 14
ENDMDL
MODEL 3
REMARK VINA RESULT:    -4.602      1.641      2.326
REMARK INTER + INTRA:          -9.184
REMARK INTER:                  -8.153
REMARK INTRA:                  -1.031
REMARK UNBOUND:                -0.816
REMARK SMILES CCCCCCCCCCCCCCCC(=O)[O-]
REMARK SMILES IDX 9 1 10 2 11 3 12 4 13 5 14 6 15 7 16 8 17 9 18 10 8 11 7 12
REMARK SMILES IDX 6 13 5 14 4 15 3 16 2 17 1 18
REMARK H PARENT
REMARK Flexibility Score: inf
ROOT
ATOM      1  C   UNL     1       3.917  11.284  82.051  1.00  0.00     0.000 C 
ENDROOT
BRANCH   1   2
ATOM      2  C   UNL     1       5.232  10.733  81.475  1.00  0.00     0.000 C 
BRANCH   2   3
ATOM      3  C   UNL     1       5.507   9.278  81.896  1.00  0.00     0.000 C 
BRANCH   3   4
ATOM      4  C   UNL     1       6.920   8.751  81.574  1.00  0.00     0.000 C 
BRANCH   4   5
ATOM      5  C   UNL     1       7.464   9.140  80.188  1.00  0.00     0.000 C 
BRANCH   5   6
ATOM      6  C   UNL     1       7.492   7.957  79.205  1.00  0.00     0.006 C 
BRANCH   6   7
ATOM      7  C   UNL     1       7.553   6.605  79.927  1.00  0.00     0.053 C 
BRANCH   7   8
ATOM      8  C   UNL     1       8.824   5.871  79.627  1.00  0.00     0.041 C 
ATOM      9  O   UNL     1       8.963   4.671  79.983  1.00  0.00    -0.550 OA
ATOM     10  O   UNL     1       9.844   6.504  78.928  1.00  0.00    -0.550 OA
ENDBRANCH   7   8
ENDBRANCH   6   7
ENDBRANCH   5   6
ENDBRANCH   4   5
ENDBRANCH   3   4
ENDBRANCH   2   3
ENDBRANCH   1   2
BRANCH   1  11
ATOM     11  C   UNL     1       3.239  10.312  83.034  1.00  0.00     0.000 C 
BRANCH  11  12
ATOM     12  C   UNL     1       1.723  10.510  83.213  1.00  0.00    -0.000 C 
BRANCH  12  13
ATOM     13  C   UNL     1       1.082   9.456  84.126  1.00  0.00    -0.000 C 
BRANCH  13  14
ATOM     14  C   UNL     1       2.137   8.489  84.677  1.00  0.00    -0.000 C 
BRANCH  14  15
ATOM     15  C   UNL     1       2.104   8.451  86.209  1.00  0.00    -0.000 C 
BRANCH  15  16
ATOM     16  C   UNL     1       3.032   9.519  86.806  1.00  0.00    -0.000 C 
BRANCH  16  17
ATOM     17  C   UNL     1       2.283  10.523  87.696  1.00  0.00    -0.003 C 
ATOM     18  C   UNL     1       1.811   9.906  89.014  1.00  0.00     0.004 C 
ENDBRANCH  16  17
ENDBRANCH  15  16
ENDBRANCH  14  15
ENDBRANCH  13  14
ENDBRANCH  12  13
ENDBRANCH  11  12
ENDBRANCH   1  11
TORSDOF 14
ENDMDL
MODEL 4
REMARK VINA RESULT:    -4.549      3.007      7.897
REMARK INTER + INTRA:          -9.089
REMARK INTER:                  -8.124
REMARK INTRA:                  -0.965
REMARK UNBOUND:                -0.816
REMARK SMILES CCCCCCCCCCCCCCCC(=O)[O-]
REMARK SMILES IDX 9 1 10 2 11 3 12 4 13 5 14 6 15 7 16 8 17 9 18 10 8 11 7 12
REMARK SMILES IDX 6 13 5 14 4 15 3 16 2 17 1 18
REMARK H PARENT
REMARK Flexibility Score: inf
ROOT
ATOM      1  C   UNL     1       4.061  10.152  82.557  1.00  0.00     0.000 C 
ENDROOT
BRANCH   1   2
ATOM      2  C   UNL     1       2.653  10.749  82.722  1.00  0.00     0.000 C 
BRANCH   2   3
ATOM      3  C   UNL     1       1.747   9.901  83.633  1.00  0.00     0.000 C 
BRANCH   3   4
ATOM      4  C   UNL     1       2.433   8.702  84.319  1.00  0.00     0.000 C 
BRANCH   4   5
ATOM      5  C   UNL     1       2.165   8.571  85.829  1.00  0.00     0.000 C 
BRANCH   5   6
ATOM      6  C   UNL     1       1.754   7.146  86.240  1.00  0.00     0.006 C 
BRANCH   6   7
ATOM      7  C   UNL     1       2.631   6.077  85.576  1.00  0.00     0.053 C 
BRANCH   7   8
ATOM      8  C   UNL     1       2.410   4.723  86.179  1.00  0.00     0.041 C 
ATOM      9  O   UNL     1       3.120   3.747  85.824  1.00  0.00    -0.550 OA
ATOM     10  O   UNL     1       1.437   4.547  87.154  1.00  0.00    -0.550 OA
ENDBRANCH   7   8
ENDBRANCH   6   7
ENDBRANCH   5   6
ENDBRANCH   4   5
ENDBRANCH   3   4
ENDBRANCH   2   3
ENDBRANCH   1   2
BRANCH   1  11
ATOM     11  C   UNL     1       4.917  10.911  81.527  1.00  0.00     0.000 C 
BRANCH  11  12
ATOM     12  C   UNL     1       6.104  10.119  80.949  1.00  0.00    -0.000 C 
BRANCH  12  13
ATOM     13  C   UNL     1       6.338   8.779  81.662  1.00  0.00    -0.000 C 
BRANCH  13  14
ATOM     14  C   UNL     1       6.806   7.704  80.674  1.00  0.00    -0.000 C 
BRANCH  14  15
ATOM     15  C   UNL     1       7.506   8.334  79.464  1.00  0.00    -0.000 C 
BRANCH  15  16
ATOM     16  C   UNL     1       8.884   7.696  79.232  1.00  0.00    -0.000 C 
BRANCH  16  17
ATOM     17  C   UNL     1      10.033   8.556  79.778  1.00  0.00    -0.003 C 
ATOM     18  C   UNL     1       9.710  10.050  79.768  1.00  0.00     0.004 C 
ENDBRANCH  16  17
ENDBRANCH  15  16
ENDBRANCH  14  15
ENDBRANCH  13  14
ENDBRANCH  12  13
ENDBRANCH  11  12
ENDBRANCH   1  11
TORSDOF 14
ENDMDL
MODEL 5
REMARK VINA RESULT:    -4.546      2.438      3.688
REMARK INTER + INTRA:          -9.083
REMARK INTER:                  -7.414
REMARK INTRA:                  -1.670
REMARK UNBOUND:                -0.816
REMARK SMILES CCCCCCCCCCCCCCCC(=O)[O-]
REMARK SMILES IDX 9 1 10 2 11 3 12 4 13 5 14 6 15 7 16 8 17 9 18 10 8 11 7 12
REMARK SMILES IDX 6 13 5 14 4 15 3 16 2 17 1 18
REMARK H PARENT
REMARK Flexibility Score: inf
ROOT
ATOM      1  C   UNL     1       4.841  12.186  81.998  1.00  0.00     0.000 C 
ENDROOT
BRANCH   1   2
ATOM      2  C   UNL     1       4.731  10.999  82.969  1.00  0.00     0.000 C 
BRANCH   2   3
ATOM      3  C   UNL     1       4.038   9.776  82.343  1.00  0.00     0.000 C 
BRANCH   3   4
ATOM      4  C   UNL     1       4.905   8.505  82.238  1.00  0.00     0.000 C 
BRANCH   4   5
ATOM      5  C   UNL     1       6.352   8.737  81.767  1.00  0.00     0.000 C 
BRANCH   5   6
ATOM      6  C   UNL     1       6.716   7.907  80.523  1.00  0.00     0.006 C 
BRANCH   6   7
ATOM      7  C   UNL     1       8.179   8.101  80.105  1.00  0.00     0.053 C 
BRANCH   7   8
ATOM      8  C   UNL     1       8.770   6.843  79.549  1.00  0.00     0.041 C 
ATOM      9  O   UNL     1       9.808   6.889  78.837  1.00  0.00    -0.550 OA
ATOM     10  O   UNL     1       8.190   5.615  79.839  1.00  0.00    -0.550 OA
ENDBRANCH   7   8
ENDBRANCH   6   7
ENDBRANCH   5   6
ENDBRANCH   4   5
ENDBRANCH   3   4
ENDBRANCH   2   3
ENDBRANCH   1   2
BRANCH   1  11
ATOM     11  C   UNL     1       4.114  11.939  80.663  1.00  0.00     0.000 C 
BRANCH  11  12
ATOM     12  C   UNL     1       2.795  12.711  80.481  1.00  0.00    -0.000 C 
BRANCH  12  13
ATOM     13  C   UNL     1       1.568  11.792  80.386  1.00  0.00    -0.000 C 
BRANCH  13  14
ATOM     14  C   UNL     1       0.925  11.587  81.763  1.00  0.00    -0.000 C 
BRANCH  14  15
ATOM     15  C   UNL     1       0.323  10.183  81.886  1.00  0.00    -0.000 C 
BRANCH  15  16
ATOM     16  C   UNL     1       0.237   9.749  83.357  1.00  0.00    -0.000 C 
BRANCH  16  17
ATOM     17  C   UNL     1       0.796  10.807  84.320  1.00  0.00    -0.003 C 
ATOM     18  C   UNL     1       1.855  10.243  85.268  1.00  0.00     0.004 C 
ENDBRANCH  16  17
ENDBRANCH  15  16
ENDBRANCH  14  15
ENDBRANCH  13  14
ENDBRANCH  12  13
ENDBRANCH  11  12
ENDBRANCH   1  11
TORSDOF 14
ENDMDL
MODEL 6
REMARK VINA RESULT:    -4.520      4.303      7.323
REMARK INTER + INTRA:          -9.035
REMARK INTER:                  -7.973
REMARK INTRA:                  -1.062
REMARK UNBOUND:                -0.816
REMARK SMILES CCCCCCCCCCCCCCCC(=O)[O-]
REMARK SMILES IDX 9 1 10 2 11 3 12 4 13 5 14 6 15 7 16 8 17 9 18 10 8 11 7 12
REMARK SMILES IDX 6 13 5 14 4 15 3 16 2 17 1 18
REMARK H PARENT
REMARK Flexibility Score: inf
ROOT
ATOM      1  C   UNL     1       4.376  10.165  82.960  1.00  0.00     0.000 C 
ENDROOT
BRANCH   1   2
ATOM      2  C   UNL     1       3.256  10.916  82.221  1.00  0.00     0.000 C 
BRANCH   2   3
ATOM      3  C   UNL     1       3.769  11.707  81.004  1.00  0.00     0.000 C 
BRANCH   3   4
ATOM      4  C   UNL     1       4.874  12.740  81.303  1.00  0.00     0.000 C 
BRANCH   4   5
ATOM      5  C   UNL     1       6.156  12.588  80.465  1.00  0.00     0.000 C 
BRANCH   5   6
ATOM      6  C   UNL     1       5.882  12.071  79.043  1.00  0.00     0.006 C 
BRANCH   6   7
ATOM      7  C   UNL     1       5.344  13.171  78.120  1.00  0.00     0.053 C 
BRANCH   7   8
ATOM      8  C   UNL     1       6.358  13.587  77.099  1.00  0.00     0.041 C 
ATOM      9  O   UNL     1       6.029  14.346  76.150  1.00  0.00    -0.550 OA
ATOM     10  O   UNL     1       7.674  13.157  77.212  1.00  0.00    -0.550 OA
ENDBRANCH   7   8
ENDBRANCH   6   7
ENDBRANCH   5   6
ENDBRANCH   4   5
ENDBRANCH   3   4
ENDBRANCH   2   3
ENDBRANCH   1   2
BRANCH   1  11
ATOM     11  C   UNL     1       4.881   8.932  82.190  1.00  0.00     0.000 C 
BRANCH  11  12
ATOM     12  C   UNL     1       6.351   8.997  81.738  1.00  0.00    -0.000 C 
BRANCH  12  13
ATOM     13  C   UNL     1       6.742   7.852  80.793  1.00  0.00    -0.000 C 
BRANCH  13  14
ATOM     14  C   UNL     1       7.537   8.376  79.592  1.00  0.00    -0.000 C 
BRANCH  14  15
ATOM     15  C   UNL     1       9.036   8.104  79.761  1.00  0.00    -0.000 C 
BRANCH  15  16
ATOM     16  C   UNL     1       9.462   6.857  78.972  1.00  0.00    -0.000 C 
BRANCH  16  17
ATOM     17  C   UNL     1       8.713   5.591  79.416  1.00  0.00    -0.003 C 
ATOM     18  C   UNL     1       9.655   4.479  79.878  1.00  0.00     0.004 C 
ENDBRANCH  16  17
ENDBRANCH  15  16
ENDBRANCH  14  15
ENDBRANCH  13  14
ENDBRANCH  12  13
ENDBRANCH  11  12
ENDBRANCH   1  11
TORSDOF 14
ENDMDL
MODEL 7
REMARK VINA RESULT:    -4.476      4.491      8.652
REMARK INTER + INTRA:          -8.956
REMARK INTER:                  -7.986
REMARK INTRA:                  -0.970
REMARK UNBOUND:                -0.816
REMARK SMILES CCCCCCCCCCCCCCCC(=O)[O-]
REMARK SMILES IDX 9 1 10 2 11 3 12 4 13 5 14 6 15 7 16 8 17 9 18 10 8 11 7 12
REMARK SMILES IDX 6 13 5 14 4 15 3 16 2 17 1 18
REMARK H PARENT
REMARK Flexibility Score: inf
ROOT
ATOM      1  C   UNL     1       2.727  10.882  82.232  1.00  0.00     0.000 C 
ENDROOT
BRANCH   1   2
ATOM      2  C   UNL     1       2.623  10.760  83.762  1.00  0.00     0.000 C 
BRANCH   2   3
ATOM      3  C   UNL     1       1.783   9.549  84.209  1.00  0.00     0.000 C 
BRANCH   3   4
ATOM      4  C   UNL     1       2.586   8.357  84.769  1.00  0.00     0.000 C 
BRANCH   4   5
ATOM      5  C   UNL     1       2.479   8.153  86.291  1.00  0.00     0.000 C 
BRANCH   5   6
ATOM      6  C   UNL     1       3.071   9.324  87.093  1.00  0.00     0.006 C 
BRANCH   6   7
ATOM      7  C   UNL     1       2.472   9.422  88.502  1.00  0.00     0.053 C 
BRANCH   7   8
ATOM      8  C   UNL     1       1.524  10.574  88.626  1.00  0.00     0.041 C 
ATOM      9  O   UNL     1       0.662  10.786  87.733  1.00  0.00    -0.550 OA
ATOM     10  O   UNL     1       1.573  11.399  89.742  1.00  0.00    -0.550 OA
ENDBRANCH   7   8
ENDBRANCH   6   7
ENDBRANCH   5   6
ENDBRANCH   4   5
ENDBRANCH   3   4
ENDBRANCH   2   3
ENDBRANCH   1   2
BRANCH   1  11
ATOM     11  C   UNL     1       4.181  10.989  81.737  1.00  0.00     0.000 C 
BRANCH  11  12
ATOM     12  C   UNL     1       5.220  10.229  82.581  1.00  0.00    -0.000 C 
BRANCH  12  13
ATOM     13  C   UNL     1       5.399   8.768  82.142  1.00  0.00    -0.000 C 
BRANCH  13  14
ATOM     14  C   UNL     1       6.765   8.556  81.480  1.00  0.00    -0.000 C 
BRANCH  14  15
ATOM     15  C   UNL     1       6.679   7.512  80.361  1.00  0.00    -0.000 C 
BRANCH  15  16
ATOM     16  C   UNL     1       7.577   7.899  79.176  1.00  0.00    -0.000 C 
BRANCH  16  17
ATOM     17  C   UNL     1       9.042   7.487  79.385  1.00  0.00    -0.003 C 
ATOM     18  C   UNL     1       9.246   5.973  79.312  1.00  0.00     0.004 C 
ENDBRANCH  16  17
ENDBRANCH  15  16
ENDBRANCH  14  15
ENDBRANCH  13  14
ENDBRANCH  12  13
ENDBRANCH  11  12
ENDBRANCH   1  11
TORSDOF 14
ENDMDL
MODEL 8
REMARK VINA RESULT:    -4.454      1.570      2.567
REMARK INTER + INTRA:          -8.917
REMARK INTER:                  -7.320
REMARK INTRA:                  -1.597
REMARK UNBOUND:                -0.816
REMARK SMILES CCCCCCCCCCCCCCCC(=O)[O-]
REMARK SMILES IDX 9 1 10 2 11 3 12 4 13 5 14 6 15 7 16 8 17 9 18 10 8 11 7 12
REMARK SMILES IDX 6 13 5 14 4 15 3 16 2 17 1 18
REMARK H PARENT
REMARK Flexibility Score: inf
ROOT
ATOM      1  C   UNL     1       1.645   9.766  83.105  1.00  0.00     0.000 C 
ENDROOT
BRANCH   1   2
ATOM      2  C   UNL     1       3.063   9.183  82.983  1.00  0.00     0.000 C 
BRANCH   2   3
ATOM      3  C   UNL     1       4.164  10.249  83.141  1.00  0.00     0.000 C 
BRANCH   3   4
ATOM      4  C   UNL     1       5.183  10.325  81.986  1.00  0.00     0.000 C 
BRANCH   4   5
ATOM      5  C   UNL     1       6.158   9.138  81.894  1.00  0.00     0.000 C 
BRANCH   5   6
ATOM      6  C   UNL     1       6.752   8.961  80.485  1.00  0.00     0.006 C 
BRANCH   6   7
ATOM      7  C   UNL     1       8.067   8.173  80.506  1.00  0.00     0.053 C 
BRANCH   7   8
ATOM      8  C   UNL     1       7.921   6.829  79.862  1.00  0.00     0.041 C 
ATOM      9  O   UNL     1       8.935   6.210  79.447  1.00  0.00    -0.550 OA
ATOM     10  O   UNL     1       6.665   6.246  79.747  1.00  0.00    -0.550 OA
ENDBRANCH   7   8
ENDBRANCH   6   7
ENDBRANCH   5   6
ENDBRANCH   4   5
ENDBRANCH   3   4
ENDBRANCH   2   3
ENDBRANCH   1   2
BRANCH   1  11
ATOM     11  C   UNL     1       1.638  11.296  83.277  1.00  0.00     0.000 C 
BRANCH  11  12
ATOM     12  C   UNL     1       1.153  11.800  84.648  1.00  0.00    -0.000 C 
BRANCH  12  13
ATOM     13  C   UNL     1       1.109  10.695  85.715  1.00  0.00    -0.000 C 
BRANCH  13  14
ATOM     14  C   UNL     1       2.272  10.838  86.703  1.00  0.00    -0.000 C 
BRANCH  14  15
ATOM     15  C   UNL     1       3.021   9.511  86.869  1.00  0.00    -0.000 C 
BRANCH  15  16
ATOM     16  C   UNL     1       2.061   8.319  86.755  1.00  0.00    -0.000 C 
BRANCH  16  17
ATOM     17  C   UNL     1       2.612   7.198  85.861  1.00  0.00    -0.003 C 
ATOM     18  C   UNL     1       1.588   6.093  85.599  1.00  0.00     0.004 C 
ENDBRANCH  16  17
ENDBRANCH  15  16
ENDBRANCH  14  15
ENDBRANCH  13  14
ENDBRANCH  12  13
ENDBRANCH  11  12
ENDBRANCH   1  11
TORSDOF 14
ENDMDL
MODEL 9
REMARK VINA RESULT:    -4.326      2.058      3.587
REMARK INTER + INTRA:          -8.682
REMARK INTER:                  -7.310
REMARK INTRA:                  -1.372
REMARK UNBOUND:                -0.816
REMARK SMILES CCCCCCCCCCCCCCCC(=O)[O-]
REMARK SMILES IDX 9 1 10 2 11 3 12 4 13 5 14 6 15 7 16 8 17 9 18 10 8 11 7 12
REMARK SMILES IDX 6 13 5 14 4 15 3 16 2 17 1 18
REMARK H PARENT
REMARK Flexibility Score: inf
ROOT
ATOM      1  C   UNL     1       0.973  10.672  82.989  1.00  0.00     0.000 C 
ENDROOT
BRANCH   1   2
ATOM      2  C   UNL     1       2.341  10.159  82.511  1.00  0.00     0.000 C 
BRANCH   2   3
ATOM      3  C   UNL     1       3.442  11.233  82.585  1.00  0.00     0.000 C 
BRANCH   3   4
ATOM      4  C   UNL     1       4.884  10.717  82.402  1.00  0.00     0.000 C 
BRANCH   4   5
ATOM      5  C   UNL     1       5.014   9.198  82.193  1.00  0.00     0.000 C 
BRANCH   5   6
ATOM      6  C   UNL     1       6.441   8.767  81.814  1.00  0.00     0.006 C 
BRANCH   6   7
ATOM      7  C   UNL     1       6.450   7.682  80.730  1.00  0.00     0.053 C 
BRANCH   7   8
ATOM      8  C   UNL     1       7.791   7.564  80.073  1.00  0.00     0.041 C 
ATOM      9  O   UNL     1       8.479   8.593  79.845  1.00  0.00    -0.550 OA
ATOM     10  O   UNL     1       8.292   6.313  79.737  1.00  0.00    -0.550 OA
ENDBRANCH   7   8
ENDBRANCH   6   7
ENDBRANCH   5   6
ENDBRANCH   4   5
ENDBRANCH   3   4
ENDBRANCH   2   3
ENDBRANCH   1   2
BRANCH   1  11
ATOM     11  C   UNL     1       0.097   9.564  83.602  1.00  0.00     0.000 C 
BRANCH  11  12
ATOM     12  C   UNL     1       0.217   9.402  85.128  1.00  0.00    -0.000 C 
BRANCH  12  13
ATOM     13  C   UNL     1       0.921   8.101  85.542  1.00  0.00    -0.000 C 
BRANCH  13  14
ATOM     14  C   UNL     1       2.436   8.307  85.653  1.00  0.00    -0.000 C 
BRANCH  14  15
ATOM     15  C   UNL     1       2.764   9.558  86.475  1.00  0.00    -0.000 C 
BRANCH  15  16
ATOM     16  C   UNL     1       2.684   9.264  87.980  1.00  0.00    -0.000 C 
BRANCH  16  17
ATOM     17  C   UNL     1       1.866  10.315  88.745  1.00  0.00    -0.003 C 
ATOM     18  C   UNL     1       1.538  11.542  87.895  1.00  0.00     0.004 C 
ENDBRANCH  16  17
ENDBRANCH  15  16
ENDBRANCH  14  15
ENDBRANCH  13  14
ENDBRANCH  12  13
ENDBRANCH  11  12
ENDBRANCH   1  11
TORSDOF 14
ENDMDL
