MODEL 1
REMARK VINA RESULT:    -3.950      0.000      0.000
REMARK INTER + INTRA:          -5.047
REMARK INTER:                  -4.874
REMARK INTRA:                  -0.173
REMARK UNBOUND:                -0.173
REMARK SMILES CCCCCC(=O)[O-]
REMARK SMILES IDX 4 1 5 2 6 3 7 4 8 5 3 6 2 7 1 8
REMARK H PARENT
REMARK Flexibility Score: inf
ROOT
ATOM      1  C   UNL     1     -47.730 -50.685  16.099  1.00  0.00     0.006 C 
ENDROOT
BRANCH   1   2
ATOM      2  C   UNL     1     -49.085 -51.391  15.984  1.00  0.00     0.053 C 
BRANCH   2   3
ATOM      3  C   UNL     1     -49.799 -50.954  14.745  1.00  0.00     0.041 C 
ATOM      4  O   UNL     1     -49.535 -49.840  14.221  1.00  0.00    -0.550 OA
ATOM      5  O   UNL     1     -50.722 -51.797  14.139  1.00  0.00    -0.550 OA
ENDBRANCH   2   3
ENDBRANCH   1   2
BRANCH   1   6
ATOM      6  C   UNL     1     -47.604 -49.951  17.439  1.00  0.00     0.000 C 
BRANCH   6   7
ATOM      7  C   UNL     1     -47.449 -48.442  17.227  1.00  0.00    -0.003 C 
ATOM      8  C   UNL     1     -47.078 -48.123  15.782  1.00  0.00     0.004 C 
ENDBRANCH   6   7
ENDBRANCH   1   6
TORSDOF 4
ENDMDL
MODEL 2
REMARK VINA RESULT:    -3.718      1.507      2.029
REMARK INTER + INTRA:          -4.760
REMARK INTER:                  -4.572
REMARK INTRA:                  -0.188
REMARK UNBOUND:                -0.173
REMARK SMILES CCCCCC(=O)[O-]
REMARK SMILES IDX 4 1 5 2 6 3 7 4 8 5 3 6 2 7 1 8
REMARK H PARENT
REMARK Flexibility Score: inf
ROOT
ATOM      1  C   UNL     1     -47.388 -49.456  16.570  1.00  0.00     0.006 C 
ENDROOT
BRANCH   1   2
ATOM      2  C   UNL     1     -47.955 -50.621  15.753  1.00  0.00     0.053 C 
BRANCH   2   3
ATOM      3  C   UNL     1     -49.396 -50.843  16.087  1.00  0.00     0.041 C 
ATOM      4  O   UNL     1     -49.794 -50.731  17.276  1.00  0.00    -0.550 OA
ATOM      5  O   UNL     1     -50.309 -51.127  15.079  1.00  0.00    -0.550 OA
ENDBRANCH   2   3
ENDBRANCH   1   2
BRANCH   1   6
ATOM      6  C   UNL     1     -47.381 -48.161  15.751  1.00  0.00     0.000 C 
BRANCH   6   7
ATOM      7  C   UNL     1     -47.770 -46.960  16.618  1.00  0.00    -0.003 C 
ATOM      8  C   UNL     1     -48.143 -47.396  18.031  1.00  0.00     0.004 C 
ENDBRANCH   6   7
ENDBRANCH   1   6
TORSDOF 4
ENDMDL
MODEL 3
REMARK VINA RESULT:    -3.660     16.791     17.452
REMARK INTER + INTRA:          -4.689
REMARK INTER:                  -4.441
REMARK INTRA:                  -0.249
REMARK UNBOUND:                -0.173
REMARK SMILES CCCCCC(=O)[O-]
REMARK SMILES IDX 4 1 5 2 6 3 7 4 8 5 3 6 2 7 1 8
REMARK H PARENT
REMARK Flexibility Score: inf
ROOT
ATOM      1  C   UNL     1     -46.568 -51.118  32.365  1.00  0.00     0.006 C 
ENDROOT
BRANCH   1   2
ATOM      2  C   UNL     1     -45.390 -52.073  32.151  1.00  0.00     0.053 C 
BRANCH   2   3
ATOM      3  C   UNL     1     -44.097 -51.321  32.163  1.00  0.00     0.041 C 
ATOM      4  O   UNL     1     -43.249 -51.535  33.069  1.00  0.00    -0.550 OA
ATOM      5  O   UNL     1     -43.806 -50.419  31.147  1.00  0.00    -0.550 OA
ENDBRANCH   2   3
ENDBRANCH   1   2
BRANCH   1   6
ATOM      6  C   UNL     1     -46.571 -50.559  33.793  1.00  0.00     0.000 C 
BRANCH   6   7
ATOM      7  C   UNL     1     -46.917 -49.067  33.798  1.00  0.00    -0.003 C 
ATOM      8  C   UNL     1     -46.599 -48.421  32.453  1.00  0.00     0.004 C 
ENDBRANCH   6   7
ENDBRANCH   1   6
TORSDOF 4
ENDMDL
MODEL 4
REMARK VINA RESULT:    -3.634      2.608      3.743
REMARK INTER + INTRA:          -4.657
REMARK INTER:                  -4.412
REMARK INTRA:                  -0.245
REMARK UNBOUND:                -0.173
REMARK SMILES CCCCCC(=O)[O-]
REMARK SMILES IDX 4 1 5 2 6 3 7 4 8 5 3 6 2 7 1 8
REMARK H PARENT
REMARK Flexibility Score: inf
ROOT
ATOM      1  C   UNL     1     -47.463 -49.278  16.567  1.00  0.00     0.006 C 
ENDROOT
BRANCH   1   2
ATOM      2  C   UNL     1     -47.351 -49.623  18.055  1.00  0.00     0.053 C 
BRANCH   2   3
ATOM      3  C   UNL     1     -48.708 -49.843  18.645  1.00  0.00     0.041 C 
ATOM      4  O   UNL     1     -49.463 -48.863  18.879  1.00  0.00    -0.550 OA
ATOM      5  O   UNL     1     -49.159 -51.133  18.893  1.00  0.00    -0.550 OA
ENDBRANCH   2   3
ENDBRANCH   1   2
BRANCH   1   6
ATOM      6  C   UNL     1     -47.778 -50.526  15.735  1.00  0.00     0.000 C 
BRANCH   6   7
ATOM      7  C   UNL     1     -49.028 -50.313  14.875  1.00  0.00    -0.003 C 
ATOM      8  C   UNL     1     -50.214 -51.100  15.422  1.00  0.00     0.004 C 
ENDBRANCH   6   7
ENDBRANCH   1   6
TORSDOF 4
ENDMDL
MODEL 5
REMARK VINA RESULT:    -3.630     16.440     17.482
REMARK INTER + INTRA:          -4.652
REMARK INTER:                  -4.427
REMARK INTRA:                  -0.225
REMARK UNBOUND:                -0.173
REMARK SMILES CCCCCC(=O)[O-]
REMARK SMILES IDX 4 1 5 2 6 3 7 4 8 5 3 6 2 7 1 8
REMARK H PARENT
REMARK Flexibility Score: inf
ROOT
ATOM      1  C   UNL     1     -45.820 -51.072  31.621  1.00  0.00     0.006 C 
ENDROOT
BRANCH   1   2
ATOM      2  C   UNL     1     -46.981 -50.073  31.597  1.00  0.00     0.053 C 
BRANCH   2   3
ATOM      3  C   UNL     1     -46.777 -49.009  32.629  1.00  0.00     0.041 C 
ATOM      4  O   UNL     1     -46.219 -47.924  32.318  1.00  0.00    -0.550 OA
ATOM      5  O   UNL     1     -47.247 -49.195  33.924  1.00  0.00    -0.550 OA
ENDBRANCH   2   3
ENDBRANCH   1   2
BRANCH   1   6
ATOM      6  C   UNL     1     -46.155 -52.283  32.500  1.00  0.00     0.000 C 
BRANCH   6   7
ATOM      7  C   UNL     1     -45.309 -52.286  33.777  1.00  0.00    -0.003 C 
ATOM      8  C   UNL     1     -43.927 -51.691  33.526  1.00  0.00     0.004 C 
ENDBRANCH   6   7
ENDBRANCH   1   6
TORSDOF 4
ENDMDL
MODEL 6
REMARK VINA RESULT:    -3.620      1.226      2.054
REMARK INTER + INTRA:          -4.639
REMARK INTER:                  -4.495
REMARK INTRA:                  -0.145
REMARK UNBOUND:                -0.173
REMARK SMILES CCCCCC(=O)[O-]
REMARK SMILES IDX 4 1 5 2 6 3 7 4 8 5 3 6 2 7 1 8
REMARK H PARENT
REMARK Flexibility Score: inf
ROOT
ATOM      1  C   UNL     1     -47.698 -50.492  16.284  1.00  0.00     0.006 C 
ENDROOT
BRANCH   1   2
ATOM      2  C   UNL     1     -48.870 -51.405  15.913  1.00  0.00     0.053 C 
BRANCH   2   3
ATOM      3  C   UNL     1     -49.655 -50.817  14.783  1.00  0.00     0.041 C 
ATOM      4  O   UNL     1     -49.305 -49.720  14.273  1.00  0.00    -0.550 OA
ATOM      5  O   UNL     1     -50.744 -51.503  14.260  1.00  0.00    -0.550 OA
ENDBRANCH   2   3
ENDBRANCH   1   2
BRANCH   1   6
ATOM      6  C   UNL     1     -47.650 -50.244  17.796  1.00  0.00     0.000 C 
BRANCH   6   7
ATOM      7  C   UNL     1     -48.857 -50.876  18.495  1.00  0.00    -0.003 C 
ATOM      8  C   UNL     1     -49.340 -50.011  19.655  1.00  0.00     0.004 C 
ENDBRANCH   6   7
ENDBRANCH   1   6
TORSDOF 4
ENDMDL
MODEL 7
REMARK VINA RESULT:    -3.570     16.419     17.253
REMARK INTER + INTRA:          -4.578
REMARK INTER:                  -4.334
REMARK INTRA:                  -0.244
REMARK UNBOUND:                -0.173
REMARK SMILES CCCCCC(=O)[O-]
REMARK SMILES IDX 4 1 5 2 6 3 7 4 8 5 3 6 2 7 1 8
REMARK H PARENT
REMARK Flexibility Score: inf
ROOT
ATOM      1  C   UNL     1     -45.275 -50.012  31.027  1.00  0.00     0.006 C 
ENDROOT
BRANCH   1   2
ATOM      2  C   UNL     1     -45.006 -51.513  31.166  1.00  0.00     0.053 C 
BRANCH   2   3
ATOM      3  C   UNL     1     -44.821 -51.881  32.604  1.00  0.00     0.041 C 
ATOM      4  O   UNL     1     -45.668 -52.608  33.186  1.00  0.00    -0.550 OA
ATOM      5  O   UNL     1     -43.688 -51.461  33.290  1.00  0.00    -0.550 OA
ENDBRANCH   2   3
ENDBRANCH   1   2
BRANCH   1   6
ATOM      6  C   UNL     1     -46.711 -49.669  31.439  1.00  0.00     0.000 C 
BRANCH   6   7
ATOM      7  C   UNL     1     -46.728 -48.603  32.539  1.00  0.00    -0.003 C 
ATOM      8  C   UNL     1     -46.987 -49.226  33.907  1.00  0.00     0.004 C 
ENDBRANCH   6   7
ENDBRANCH   1   6
TORSDOF 4
ENDMDL
MODEL 8
REMARK VINA RESULT:    -3.512      2.394      3.766
REMARK INTER + INTRA:          -4.506
REMARK INTER:                  -4.287
REMARK INTRA:                  -0.219
REMARK UNBOUND:                -0.173
REMARK SMILES CCCCCC(=O)[O-]
REMARK SMILES IDX 4 1 5 2 6 3 7 4 8 5 3 6 2 7 1 8
REMARK H PARENT
REMARK Flexibility Score: inf
ROOT
ATOM      1  C   UNL     1     -47.445 -50.310  16.834  1.00  0.00     0.006 C 
ENDROOT
BRANCH   1   2
ATOM      2  C   UNL     1     -47.555 -48.973  17.574  1.00  0.00     0.053 C 
BRANCH   2   3
ATOM      3  C   UNL     1     -47.508 -47.833  16.607  1.00  0.00     0.041 C 
ATOM      4  O   UNL     1     -46.974 -47.984  15.476  1.00  0.00    -0.550 OA
ATOM      5  O   UNL     1     -48.098 -46.618  16.933  1.00  0.00    -0.550 OA
ENDBRANCH   2   3
ENDBRANCH   1   2
BRANCH   1   6
ATOM      6  C   UNL     1     -48.814 -50.990  16.722  1.00  0.00     0.000 C 
BRANCH   6   7
ATOM      7  C   UNL     1     -49.099 -51.420  15.280  1.00  0.00    -0.003 C 
ATOM      8  C   UNL     1     -49.471 -50.223  14.410  1.00  0.00     0.004 C 
ENDBRANCH   6   7
ENDBRANCH   1   6
TORSDOF 4
ENDMDL
MODEL 9
REMARK VINA RESULT:    -3.482      2.721      2.944
REMARK INTER + INTRA:          -4.470
REMARK INTER:                  -4.345
REMARK INTRA:                  -0.124
REMARK UNBOUND:                -0.173
REMARK SMILES CCCCCC(=O)[O-]
REMARK SMILES IDX 4 1 5 2 6 3 7 4 8 5 3 6 2 7 1 8
REMARK H PARENT
REMARK Flexibility Score: inf
ROOT
ATOM      1  C   UNL     1     -49.129 -51.012  16.666  1.00  0.00     0.006 C 
ENDROOT
BRANCH   1   2
ATOM      2  C   UNL     1     -49.283 -50.772  18.171  1.00  0.00     0.053 C 
BRANCH   2   3
ATOM      3  C   UNL     1     -50.644 -50.232  18.479  1.00  0.00     0.041 C 
ATOM      4  O   UNL     1     -50.791 -49.360  19.375  1.00  0.00    -0.550 OA
ATOM      5  O   UNL     1     -51.744 -50.655  17.743  1.00  0.00    -0.550 OA
ENDBRANCH   2   3
ENDBRANCH   1   2
BRANCH   1   6
ATOM      6  C   UNL     1     -47.744 -50.572  16.177  1.00  0.00     0.000 C 
BRANCH   6   7
ATOM      7  C   UNL     1     -47.331 -49.244  16.819  1.00  0.00    -0.003 C 
ATOM      8  C   UNL     1     -47.274 -48.125  15.783  1.00  0.00     0.004 C 
ENDBRANCH   6   7
ENDBRANCH   1   6
TORSDOF 4
ENDMDL
