MODEL 1
REMARK VINA RESULT:    -4.786      0.000      0.000
REMARK INTER + INTRA:          -7.746
REMARK INTER:                  -7.305
REMARK INTRA:                  -0.441
REMARK UNBOUND:                -0.441
REMARK SMILES CCCCCCCCCCC(=O)[O-]
REMARK SMILES IDX 7 1 8 2 9 3 10 4 11 5 12 6 13 7 6 8 5 9 4 10 3 11 2 12 1 13
REMARK H PARENT
REMARK Flexibility Score: inf
ROOT
ATOM      1  C   UNL     1       5.515 -13.269  -3.844  1.00  0.00     0.000 C 
ENDROOT
BRANCH   1   2
ATOM      2  C   UNL     1       4.976 -13.013  -5.258  1.00  0.00     0.000 C 
BRANCH   2   3
ATOM      3  C   UNL     1       4.392 -11.602  -5.423  1.00  0.00     0.006 C 
BRANCH   3   4
ATOM      4  C   UNL     1       5.000 -10.845  -6.610  1.00  0.00     0.053 C 
BRANCH   4   5
ATOM      5  C   UNL     1       4.286  -9.548  -6.825  1.00  0.00     0.041 C 
ATOM      6  O   UNL     1       3.503  -9.409  -7.801  1.00  0.00    -0.550 OA
ATOM      7  O   UNL     1       4.446  -8.508  -5.917  1.00  0.00    -0.550 OA
ENDBRANCH   4   5
ENDBRANCH   3   4
ENDBRANCH   2   3
ENDBRANCH   1   2
BRANCH   1   8
ATOM      8  C   UNL     1       7.047 -13.342  -3.845  1.00  0.00     0.000 C 
BRANCH   8   9
ATOM      9  C   UNL     1       7.587 -13.594  -2.431  1.00  0.00    -0.000 C 
BRANCH   9  10
ATOM     10  C   UNL     1       7.051 -12.548  -1.441  1.00  0.00    -0.000 C 
BRANCH  10  11
ATOM     11  C   UNL     1       7.626 -11.142  -1.709  1.00  0.00    -0.000 C 
BRANCH  11  12
ATOM     12  C   UNL     1       7.971 -10.363  -0.429  1.00  0.00    -0.003 C 
ATOM     13  C   UNL     1       9.210 -10.901   0.283  1.00  0.00     0.004 C 
ENDBRANCH  11  12
ENDBRANCH  10  11
ENDBRANCH   9  10
ENDBRANCH   8   9
ENDBRANCH   1   8
TORSDOF 9
ENDMDL
MODEL 2
REMARK VINA RESULT:    -4.771      0.914      1.100
REMARK INTER + INTRA:          -7.722
REMARK INTER:                  -7.343
REMARK INTRA:                  -0.379
REMARK UNBOUND:                -0.441
REMARK SMILES CCCCCCCCCCC(=O)[O-]
REMARK SMILES IDX 7 1 8 2 9 3 10 4 11 5 12 6 13 7 6 8 5 9 4 10 3 11 2 12 1 13
REMARK H PARENT
REMARK Flexibility Score: inf
ROOT
ATOM      1  C   UNL     1       4.969 -12.889  -4.242  1.00  0.00     0.000 C 
ENDROOT
BRANCH   1   2
ATOM      2  C   UNL     1       4.360 -12.645  -5.630  1.00  0.00     0.000 C 
BRANCH   2   3
ATOM      3  C   UNL     1       4.928 -11.393  -6.315  1.00  0.00     0.006 C 
BRANCH   3   4
ATOM      4  C   UNL     1       3.865 -10.311  -6.544  1.00  0.00     0.053 C 
BRANCH   4   5
ATOM      5  C   UNL     1       4.431  -9.185  -7.350  1.00  0.00     0.041 C 
ATOM      6  O   UNL     1       4.321  -9.186  -8.605  1.00  0.00    -0.550 OA
ATOM      7  O   UNL     1       5.035  -8.109  -6.713  1.00  0.00    -0.550 OA
ENDBRANCH   4   5
ENDBRANCH   3   4
ENDBRANCH   2   3
ENDBRANCH   1   2
BRANCH   1   8
ATOM      8  C   UNL     1       6.436 -12.445  -4.202  1.00  0.00     0.000 C 
BRANCH   8   9
ATOM      9  C   UNL     1       7.289 -13.435  -3.397  1.00  0.00    -0.000 C 
BRANCH   9  10
ATOM     10  C   UNL     1       6.923 -13.393  -1.905  1.00  0.00    -0.000 C 
BRANCH  10  11
ATOM     11  C   UNL     1       7.422 -12.105  -1.218  1.00  0.00    -0.000 C 
BRANCH  11  12
ATOM     12  C   UNL     1       8.619 -12.331  -0.280  1.00  0.00    -0.003 C 
ATOM     13  C   UNL     1       9.194 -11.032   0.281  1.00  0.00     0.004 C 
ENDBRANCH  11  12
ENDBRANCH  10  11
ENDBRANCH   9  10
ENDBRANCH   8   9
ENDBRANCH   1   8
TORSDOF 9
ENDMDL
MODEL 3
REMARK VINA RESULT:    -4.751      3.437      5.874
REMARK INTER + INTRA:          -7.691
REMARK INTER:                  -6.855
REMARK INTRA:                  -0.837
REMARK UNBOUND:                -0.441
REMARK SMILES CCCCCCCCCCC(=O)[O-]
REMARK SMILES IDX 7 1 8 2 9 3 10 4 11 5 12 6 13 7 6 8 5 9 4 10 3 11 2 12 1 13
REMARK H PARENT
REMARK Flexibility Score: inf
ROOT
ATOM      1  C   UNL     1       5.606 -12.980  -3.935  1.00  0.00     0.000 C 
ENDROOT
BRANCH   1   2
ATOM      2  C   UNL     1       7.094 -13.355  -3.987  1.00  0.00     0.000 C 
BRANCH   2   3
ATOM      3  C   UNL     1       7.656 -13.742  -2.610  1.00  0.00     0.006 C 
BRANCH   3   4
ATOM      4  C   UNL     1       6.968 -12.995  -1.460  1.00  0.00     0.053 C 
BRANCH   4   5
ATOM      5  C   UNL     1       7.832 -11.874  -0.975  1.00  0.00     0.041 C 
ATOM      6  O   UNL     1       7.721 -10.725  -1.478  1.00  0.00    -0.550 OA
ATOM      7  O   UNL     1       8.724 -12.086   0.069  1.00  0.00    -0.550 OA
ENDBRANCH   4   5
ENDBRANCH   3   4
ENDBRANCH   2   3
ENDBRANCH   1   2
BRANCH   1   8
ATOM      8  C   UNL     1       4.980 -13.023  -5.334  1.00  0.00     0.000 C 
BRANCH   8   9
ATOM      9  C   UNL     1       3.549 -13.573  -5.280  1.00  0.00    -0.000 C 
BRANCH   9  10
ATOM     10  C   UNL     1       3.057 -13.692  -3.829  1.00  0.00    -0.000 C 
BRANCH  10  11
ATOM     11  C   UNL     1       2.448 -15.079  -3.532  1.00  0.00    -0.000 C 
BRANCH  11  12
ATOM     12  C   UNL     1       2.699 -15.566  -2.096  1.00  0.00    -0.003 C 
ATOM     13  C   UNL     1       3.552 -14.600  -1.276  1.00  0.00     0.004 C 
ENDBRANCH  11  12
ENDBRANCH  10  11
ENDBRANCH   9  10
ENDBRANCH   8   9
ENDBRANCH   1   8
TORSDOF 9
ENDMDL
MODEL 4
REMARK VINA RESULT:    -4.750      2.878      5.489
REMARK INTER + INTRA:          -7.690
REMARK INTER:                  -6.894
REMARK INTRA:                  -0.796
REMARK UNBOUND:                -0.441
REMARK SMILES CCCCCCCCCCC(=O)[O-]
REMARK SMILES IDX 7 1 8 2 9 3 10 4 11 5 12 6 13 7 6 8 5 9 4 10 3 11 2 12 1 13
REMARK H PARENT
REMARK Flexibility Score: inf
ROOT
ATOM      1  C   UNL     1       7.195 -12.784  -1.335  1.00  0.00     0.000 C 
ENDROOT
BRANCH   1   2
ATOM      2  C   UNL     1       8.360 -12.336  -0.441  1.00  0.00     0.000 C 
BRANCH   2   3
ATOM      3  C   UNL     1       8.424 -10.810  -0.272  1.00  0.00     0.006 C 
BRANCH   3   4
ATOM      4  C   UNL     1       7.604 -10.064  -1.332  1.00  0.00     0.053 C 
BRANCH   4   5
ATOM      5  C   UNL     1       6.734  -9.032  -0.688  1.00  0.00     0.041 C 
ATOM      6  O   UNL     1       5.488  -9.050  -0.869  1.00  0.00    -0.550 OA
ATOM      7  O   UNL     1       7.293  -8.080   0.156  1.00  0.00    -0.550 OA
ENDBRANCH   4   5
ENDBRANCH   3   4
ENDBRANCH   2   3
ENDBRANCH   1   2
BRANCH   1   8
ATOM      8  C   UNL     1       7.661 -13.823  -2.363  1.00  0.00     0.000 C 
BRANCH   8   9
ATOM      9  C   UNL     1       7.355 -13.358  -3.793  1.00  0.00    -0.000 C 
BRANCH   9  10
ATOM     10  C   UNL     1       6.052 -12.544  -3.842  1.00  0.00    -0.000 C 
BRANCH  10  11
ATOM     11  C   UNL     1       5.161 -12.941  -5.037  1.00  0.00    -0.000 C 
BRANCH  11  12
ATOM     12  C   UNL     1       3.812 -13.552  -4.622  1.00  0.00    -0.003 C 
ATOM     13  C   UNL     1       3.724 -13.849  -3.127  1.00  0.00     0.004 C 
ENDBRANCH  11  12
ENDBRANCH  10  11
ENDBRANCH   9  10
ENDBRANCH   8   9
ENDBRANCH   1   8
TORSDOF 9
ENDMDL
MODEL 5
REMARK VINA RESULT:    -4.725      3.543      4.156
REMARK INTER + INTRA:          -7.651
REMARK INTER:                  -6.791
REMARK INTRA:                  -0.861
REMARK UNBOUND:                -0.441
REMARK SMILES CCCCCCCCCCC(=O)[O-]
REMARK SMILES IDX 7 1 8 2 9 3 10 4 11 5 12 6 13 7 6 8 5 9 4 10 3 11 2 12 1 13
REMARK H PARENT
REMARK Flexibility Score: inf
ROOT
ATOM      1  C   UNL     1       6.155 -12.334  -3.852  1.00  0.00     0.000 C 
ENDROOT
BRANCH   1   2
ATOM      2  C   UNL     1       4.979 -12.829  -4.706  1.00  0.00     0.000 C 
BRANCH   2   3
ATOM      3  C   UNL     1       3.969 -13.658  -3.898  1.00  0.00     0.006 C 
BRANCH   3   4
ATOM      4  C   UNL     1       3.702 -13.073  -2.506  1.00  0.00     0.053 C 
BRANCH   4   5
ATOM      5  C   UNL     1       3.442 -14.167  -1.520  1.00  0.00     0.041 C 
ATOM      6  O   UNL     1       3.151 -15.325  -1.919  1.00  0.00    -0.550 OA
ATOM      7  O   UNL     1       3.571 -13.920  -0.159  1.00  0.00    -0.550 OA
ENDBRANCH   4   5
ENDBRANCH   3   4
ENDBRANCH   2   3
ENDBRANCH   1   2
BRANCH   1   8
ATOM      8  C   UNL     1       7.299 -13.355  -3.848  1.00  0.00     0.000 C 
BRANCH   8   9
ATOM      9  C   UNL     1       7.646 -13.789  -2.418  1.00  0.00    -0.000 C 
BRANCH   9  10
ATOM     10  C   UNL     1       7.266 -12.699  -1.403  1.00  0.00    -0.000 C 
BRANCH  10  11
ATOM     11  C   UNL     1       8.396 -12.427  -0.388  1.00  0.00    -0.000 C 
BRANCH  11  12
ATOM     12  C   UNL     1       8.681 -10.932  -0.170  1.00  0.00    -0.003 C 
ATOM     13  C   UNL     1       7.669 -10.022  -0.863  1.00  0.00     0.004 C 
ENDBRANCH  11  12
ENDBRANCH  10  11
ENDBRANCH   9  10
ENDBRANCH   8   9
ENDBRANCH   1   8
TORSDOF 9
ENDMDL
MODEL 6
REMARK VINA RESULT:    -4.692      1.263      2.113
REMARK INTER + INTRA:          -7.602
REMARK INTER:                  -6.985
REMARK INTRA:                  -0.617
REMARK UNBOUND:                -0.441
REMARK SMILES CCCCCCCCCCC(=O)[O-]
REMARK SMILES IDX 7 1 8 2 9 3 10 4 11 5 12 6 13 7 6 8 5 9 4 10 3 11 2 12 1 13
REMARK H PARENT
REMARK Flexibility Score: inf
ROOT
ATOM      1  C   UNL     1       7.199 -12.559  -3.336  1.00  0.00     0.000 C 
ENDROOT
BRANCH   1   2
ATOM      2  C   UNL     1       6.679 -13.318  -4.565  1.00  0.00     0.000 C 
BRANCH   2   3
ATOM      3  C   UNL     1       5.222 -12.968  -4.904  1.00  0.00     0.006 C 
BRANCH   3   4
ATOM      4  C   UNL     1       4.776 -11.634  -4.292  1.00  0.00     0.053 C 
BRANCH   4   5
ATOM      5  C   UNL     1       4.646 -10.589  -5.354  1.00  0.00     0.041 C 
ATOM      6  O   UNL     1       4.342  -9.406  -5.046  1.00  0.00    -0.550 OA
ATOM      7  O   UNL     1       4.909 -10.909  -6.680  1.00  0.00    -0.550 OA
ENDBRANCH   4   5
ENDBRANCH   3   4
ENDBRANCH   2   3
ENDBRANCH   1   2
BRANCH   1   8
ATOM      8  C   UNL     1       7.608 -13.531  -2.223  1.00  0.00     0.000 C 
BRANCH   8   9
ATOM      9  C   UNL     1       7.511 -12.864  -0.845  1.00  0.00    -0.000 C 
BRANCH   9  10
ATOM     10  C   UNL     1       8.898 -12.436  -0.340  1.00  0.00    -0.000 C 
BRANCH  10  11
ATOM     11  C   UNL     1       8.920 -10.966   0.130  1.00  0.00    -0.000 C 
BRANCH  11  12
ATOM     12  C   UNL     1       7.520 -10.357   0.312  1.00  0.00    -0.003 C 
ATOM     13  C   UNL     1       7.424  -8.917  -0.186  1.00  0.00     0.004 C 
ENDBRANCH  11  12
ENDBRANCH  10  11
ENDBRANCH   9  10
ENDBRANCH   8   9
ENDBRANCH   1   8
TORSDOF 9
ENDMDL
MODEL 7
REMARK VINA RESULT:    -4.657      2.903      6.151
REMARK INTER + INTRA:          -7.549
REMARK INTER:                  -7.003
REMARK INTRA:                  -0.545
REMARK UNBOUND:                -0.441
REMARK SMILES CCCCCCCCCCC(=O)[O-]
REMARK SMILES IDX 7 1 8 2 9 3 10 4 11 5 12 6 13 7 6 8 5 9 4 10 3 11 2 12 1 13
REMARK H PARENT
REMARK Flexibility Score: inf
ROOT
ATOM      1  C   UNL     1       7.254 -13.039  -4.149  1.00  0.00     0.000 C 
ENDROOT
BRANCH   1   2
ATOM      2  C   UNL     1       7.626 -13.760  -2.845  1.00  0.00     0.000 C 
BRANCH   2   3
ATOM      3  C   UNL     1       7.126 -13.019  -1.596  1.00  0.00     0.006 C 
BRANCH   3   4
ATOM      4  C   UNL     1       8.255 -12.697  -0.608  1.00  0.00     0.053 C 
BRANCH   4   5
ATOM      5  C   UNL     1       8.462 -11.218  -0.515  1.00  0.00     0.041 C 
ATOM      6  O   UNL     1       9.138 -10.731   0.429  1.00  0.00    -0.550 OA
ATOM      7  O   UNL     1       7.950 -10.382  -1.499  1.00  0.00    -0.550 OA
ENDBRANCH   4   5
ENDBRANCH   3   4
ENDBRANCH   2   3
ENDBRANCH   1   2
BRANCH   1   8
ATOM      8  C   UNL     1       5.898 -12.335  -4.019  1.00  0.00     0.000 C 
BRANCH   8   9
ATOM      9  C   UNL     1       4.820 -13.061  -4.834  1.00  0.00    -0.000 C 
BRANCH   9  10
ATOM     10  C   UNL     1       4.032 -12.074  -5.710  1.00  0.00    -0.000 C 
BRANCH  10  11
ATOM     11  C   UNL     1       4.956 -11.078  -6.443  1.00  0.00    -0.000 C 
BRANCH  11  12
ATOM     12  C   UNL     1       4.206  -9.902  -7.087  1.00  0.00    -0.003 C 
ATOM     13  C   UNL     1       4.566  -8.552  -6.469  1.00  0.00     0.004 C 
ENDBRANCH  11  12
ENDBRANCH  10  11
ENDBRANCH   9  10
ENDBRANCH   8   9
ENDBRANCH   1   8
TORSDOF 9
ENDMDL
MODEL 8
REMARK VINA RESULT:    -4.647      2.731      3.513
REMARK INTER + INTRA:          -7.533
REMARK INTER:                  -6.763
REMARK INTRA:                  -0.770
REMARK UNBOUND:                -0.441
REMARK SMILES CCCCCCCCCCC(=O)[O-]
REMARK SMILES IDX 7 1 8 2 9 3 10 4 11 5 12 6 13 7 6 8 5 9 4 10 3 11 2 12 1 13
REMARK H PARENT
REMARK Flexibility Score: inf
ROOT
ATOM      1  C   UNL     1       7.257 -12.685  -3.735  1.00  0.00     0.000 C 
ENDROOT
BRANCH   1   2
ATOM      2  C   UNL     1       6.221 -13.331  -4.666  1.00  0.00     0.000 C 
BRANCH   2   3
ATOM      3  C   UNL     1       4.951 -12.480  -4.820  1.00  0.00     0.006 C 
BRANCH   3   4
ATOM      4  C   UNL     1       3.704 -13.173  -4.255  1.00  0.00     0.053 C 
BRANCH   4   5
ATOM      5  C   UNL     1       3.782 -13.253  -2.763  1.00  0.00     0.041 C 
ATOM      6  O   UNL     1       3.767 -12.202  -2.070  1.00  0.00    -0.550 OA
ATOM      7  O   UNL     1       3.820 -14.491  -2.134  1.00  0.00    -0.550 OA
ENDBRANCH   4   5
ENDBRANCH   3   4
ENDBRANCH   2   3
ENDBRANCH   1   2
BRANCH   1   8
ATOM      8  C   UNL     1       7.563 -13.595  -2.540  1.00  0.00     0.000 C 
BRANCH   8   9
ATOM      9  C   UNL     1       7.256 -12.886  -1.214  1.00  0.00    -0.000 C 
BRANCH   9  10
ATOM     10  C   UNL     1       8.543 -12.631  -0.414  1.00  0.00    -0.000 C 
BRANCH  10  11
ATOM     11  C   UNL     1       8.866 -11.127  -0.291  1.00  0.00    -0.000 C 
BRANCH  11  12
ATOM     12  C   UNL     1       7.734 -10.304   0.343  1.00  0.00    -0.003 C 
ATOM     13  C   UNL     1       7.218  -9.193  -0.570  1.00  0.00     0.004 C 
ENDBRANCH  11  12
ENDBRANCH  10  11
ENDBRANCH   9  10
ENDBRANCH   8   9
ENDBRANCH   1   8
TORSDOF 9
ENDMDL
MODEL 9
REMARK VINA RESULT:    -4.559      2.936      6.437
REMARK INTER + INTRA:          -7.398
REMARK INTER:                  -6.919
REMARK INTRA:                  -0.479
REMARK UNBOUND:                -0.441
REMARK SMILES CCCCCCCCCCC(=O)[O-]
REMARK SMILES IDX 7 1 8 2 9 3 10 4 11 5 12 6 13 7 6 8 5 9 4 10 3 11 2 12 1 13
REMARK H PARENT
REMARK Flexibility Score: inf
ROOT
ATOM      1  C   UNL     1       5.588 -12.902  -4.068  1.00  0.00     0.000 C 
ENDROOT
BRANCH   1   2
ATOM      2  C   UNL     1       7.077 -13.270  -4.146  1.00  0.00     0.000 C 
BRANCH   2   3
ATOM      3  C   UNL     1       7.648 -13.719  -2.793  1.00  0.00     0.006 C 
BRANCH   3   4
ATOM      4  C   UNL     1       6.960 -13.036  -1.605  1.00  0.00     0.053 C 
BRANCH   4   5
ATOM      5  C   UNL     1       7.848 -11.981  -1.023  1.00  0.00     0.041 C 
ATOM      6  O   UNL     1       8.602 -12.253  -0.052  1.00  0.00    -0.550 OA
ATOM      7  O   UNL     1       7.880 -10.712  -1.586  1.00  0.00    -0.550 OA
ENDBRANCH   4   5
ENDBRANCH   3   4
ENDBRANCH   2   3
ENDBRANCH   1   2
BRANCH   1   8
ATOM      8  C   UNL     1       4.888 -13.156  -5.408  1.00  0.00     0.000 C 
BRANCH   8   9
ATOM      9  C   UNL     1       3.941 -12.002  -5.763  1.00  0.00    -0.000 C 
BRANCH   9  10
ATOM     10  C   UNL     1       4.636 -10.643  -5.581  1.00  0.00    -0.000 C 
BRANCH  10  11
ATOM     11  C   UNL     1       4.511  -9.752  -6.835  1.00  0.00    -0.000 C 
BRANCH  11  12
ATOM     12  C   UNL     1       3.067  -9.593  -7.336  1.00  0.00    -0.003 C 
ATOM     13  C   UNL     1       2.984  -9.175  -8.803  1.00  0.00     0.004 C 
ENDBRANCH  11  12
ENDBRANCH  10  11
ENDBRANCH   9  10
ENDBRANCH   8   9
ENDBRANCH   1   8
TORSDOF 9
ENDMDL
