MODEL 1
REMARK VINA RESULT:    -5.568      0.000      0.000
REMARK INTER + INTRA:          -6.459
REMARK INTER:                  -6.708
REMARK INTRA:                   0.249
REMARK UNBOUND:                 0.249
REMARK SMILES O=c1c(O)c(-c2ccc(O)c(O)c2)oc2cc(O)cc(O)c12
REMARK SMILES IDX 5 1 3 2 2 3 1 4 22 5 20 6 19 7 17 8 16 9 15 10 14 11 6 12
REMARK SMILES IDX 7 13 8 14 9 15 13 16 11 17 10 18 12 20 4 22 21 24 18 26
REMARK H PARENT 10 19 12 21 4 23 21 25 18 27
REMARK Flexibility Score: inf
ROOT
ATOM      1  C   UNL     1      -6.795 -28.918   5.395  1.00  0.00     0.180 A 
ATOM      2  C   UNL     1      -6.849 -29.780   6.504  1.00  0.00     0.208 A 
ATOM      3  C   UNL     1      -8.077 -29.970   7.159  1.00  0.00     0.238 A 
ATOM      4  O   UNL     1      -8.109 -30.701   8.184  1.00  0.00    -0.285 OA
ATOM      5  C   UNL     1      -9.236 -29.309   6.688  1.00  0.00     0.111 A 
ATOM      6  C   UNL     1     -10.540 -29.460   7.249  1.00  0.00     0.134 A 
ATOM      7  C   UNL     1     -11.589 -28.658   6.784  1.00  0.00     0.093 A 
ATOM      8  C   UNL     1     -11.398 -27.758   5.736  1.00  0.00     0.123 A 
ATOM      9  C   UNL     1     -10.142 -27.645   5.140  1.00  0.00     0.094 A 
ATOM     10  C   UNL     1      -9.067 -28.407   5.605  1.00  0.00     0.146 A 
ATOM     11  O   UNL     1      -7.885 -28.261   5.017  1.00  0.00    -0.452 OA
ENDROOT
BRANCH   1  12
ATOM     12  C   UNL     1      -5.543 -28.686   4.639  1.00  0.00     0.025 A 
ATOM     13  C   UNL     1      -4.289 -28.709   5.274  1.00  0.00     0.016 A 
ATOM     14  C   UNL     1      -3.119 -28.513   4.536  1.00  0.00     0.051 A 
ATOM     15  C   UNL     1      -3.182 -28.304   3.153  1.00  0.00     0.157 A 
ATOM     16  C   UNL     1      -5.600 -28.498   3.248  1.00  0.00     0.062 A 
ATOM     17  C   UNL     1      -4.430 -28.300   2.506  1.00  0.00     0.158 A 
BRANCH  15  18
ATOM     18  O   UNL     1      -2.013 -28.107   2.419  1.00  0.00    -0.504 OA
ATOM     19  H   UNL     1      -1.917 -28.452   1.472  1.00  0.00     0.293 HD
ENDBRANCH  15  18
BRANCH  17  20
ATOM     20  O   UNL     1      -4.526 -28.102   1.128  1.00  0.00    -0.504 OA
ATOM     21  H   UNL     1      -5.411 -28.149   0.638  1.00  0.00     0.293 HD
ENDBRANCH  17  20
ENDBRANCH   1  12
BRANCH   2  22
ATOM     22  O   UNL     1      -5.688 -30.406   6.966  1.00  0.00    -0.502 OA
ATOM     23  H   UNL     1      -5.594 -30.744   7.916  1.00  0.00     0.293 HD
ENDBRANCH   2  22
BRANCH   6  24
ATOM     24  O   UNL     1     -10.860 -30.395   8.238  1.00  0.00    -0.507 OA
ATOM     25  H   UNL     1     -10.481 -31.328   8.291  1.00  0.00     0.293 HD
ENDBRANCH   6  24
BRANCH   8  26
ATOM     26  O   UNL     1     -12.469 -26.987   5.289  1.00  0.00    -0.508 OA
ATOM     27  H   UNL     1     -12.354 -26.009   5.050  1.00  0.00     0.293 HD
ENDBRANCH   8  26
TORSDOF 6
ENDMDL
MODEL 2
REMARK VINA RESULT:    -5.502      8.486     11.267
REMARK INTER + INTRA:          -6.379
REMARK INTER:                  -6.092
REMARK INTRA:                  -0.286
REMARK UNBOUND:                 0.249
REMARK SMILES O=c1c(O)c(-c2ccc(O)c(O)c2)oc2cc(O)cc(O)c12
REMARK SMILES IDX 5 1 3 2 2 3 1 4 22 5 20 6 19 7 17 8 16 9 15 10 14 11 6 12
REMARK SMILES IDX 7 13 8 14 9 15 13 16 11 17 10 18 12 20 4 22 21 24 18 26
REMARK H PARENT 10 19 12 21 4 23 21 25 18 27
REMARK Flexibility Score: inf
ROOT
ATOM      1  C   UNL     1       1.206 -26.173   3.247  1.00  0.00     0.180 A 
ATOM      2  C   UNL     1       0.131 -26.989   2.854  1.00  0.00     0.208 A 
ATOM      3  C   UNL     1       0.080 -27.456   1.530  1.00  0.00     0.238 A 
ATOM      4  O   UNL     1      -0.912 -28.142   1.169  1.00  0.00    -0.285 OA
ATOM      5  C   UNL     1       1.112 -27.115   0.623  1.00  0.00     0.111 A 
ATOM      6  C   UNL     1       1.183 -27.566  -0.729  1.00  0.00     0.134 A 
ATOM      7  C   UNL     1       2.180 -27.061  -1.574  1.00  0.00     0.093 A 
ATOM      8  C   UNL     1       3.145 -26.174  -1.099  1.00  0.00     0.123 A 
ATOM      9  C   UNL     1       3.120 -25.773   0.237  1.00  0.00     0.094 A 
ATOM     10  C   UNL     1       2.117 -26.232   1.095  1.00  0.00     0.146 A 
ATOM     11  O   UNL     1       2.123 -25.817   2.356  1.00  0.00    -0.452 OA
ENDROOT
BRANCH   1  12
ATOM     12  C   UNL     1       1.341 -25.663   4.631  1.00  0.00     0.025 A 
ATOM     13  C   UNL     1       0.593 -24.560   5.081  1.00  0.00     0.016 A 
ATOM     14  C   UNL     1       0.718 -24.111   6.398  1.00  0.00     0.051 A 
ATOM     15  C   UNL     1       1.579 -24.763   7.289  1.00  0.00     0.157 A 
ATOM     16  C   UNL     1       2.188 -26.326   5.534  1.00  0.00     0.062 A 
ATOM     17  C   UNL     1       2.316 -25.878   6.854  1.00  0.00     0.158 A 
BRANCH  15  18
ATOM     18  O   UNL     1       1.704 -24.312   8.602  1.00  0.00    -0.504 OA
ATOM     19  H   UNL     1       0.898 -24.213   9.207  1.00  0.00     0.293 HD
ENDBRANCH  15  18
BRANCH  17  20
ATOM     20  O   UNL     1       3.177 -26.554   7.718  1.00  0.00    -0.504 OA
ATOM     21  H   UNL     1       3.887 -26.073   8.256  1.00  0.00     0.293 HD
ENDBRANCH  17  20
ENDBRANCH   1  12
BRANCH   2  22
ATOM     22  O   UNL     1      -0.889 -27.296   3.760  1.00  0.00    -0.502 OA
ATOM     23  H   UNL     1      -1.262 -28.231   3.861  1.00  0.00     0.293 HD
ENDBRANCH   2  22
BRANCH   6  24
ATOM     24  O   UNL     1       0.324 -28.521  -1.280  1.00  0.00    -0.507 OA
ATOM     25  H   UNL     1       0.314 -28.792  -2.251  1.00  0.00     0.293 HD
ENDBRANCH   6  24
BRANCH   8  26
ATOM     26  O   UNL     1       4.131 -25.704  -1.964  1.00  0.00    -0.508 OA
ATOM     27  H   UNL     1       4.595 -26.318  -2.622  1.00  0.00     0.293 HD
ENDBRANCH   8  26
TORSDOF 6
ENDMDL
MODEL 3
REMARK VINA RESULT:    -5.476      6.840      8.748
REMARK INTER + INTRA:          -6.348
REMARK INTER:                  -6.027
REMARK INTRA:                  -0.321
REMARK UNBOUND:                 0.249
REMARK SMILES O=c1c(O)c(-c2ccc(O)c(O)c2)oc2cc(O)cc(O)c12
REMARK SMILES IDX 5 1 3 2 2 3 1 4 22 5 20 6 19 7 17 8 16 9 15 10 14 11 6 12
REMARK SMILES IDX 7 13 8 14 9 15 13 16 11 17 10 18 12 20 4 22 21 24 18 26
REMARK H PARENT 10 19 12 21 4 23 21 25 18 27
REMARK Flexibility Score: inf
ROOT
ATOM      1  C   UNL     1       0.693 -26.064   4.825  1.00  0.00     0.180 A 
ATOM      2  C   UNL     1       0.900 -24.943   5.648  1.00  0.00     0.208 A 
ATOM      3  C   UNL     1       0.412 -24.967   6.965  1.00  0.00     0.238 A 
ATOM      4  O   UNL     1       0.553 -23.940   7.681  1.00  0.00    -0.285 OA
ATOM      5  C   UNL     1      -0.261 -26.115   7.446  1.00  0.00     0.111 A 
ATOM      6  C   UNL     1      -0.761 -26.264   8.775  1.00  0.00     0.134 A 
ATOM      7  C   UNL     1      -1.526 -27.390   9.103  1.00  0.00     0.093 A 
ATOM      8  C   UNL     1      -1.753 -28.403   8.172  1.00  0.00     0.123 A 
ATOM      9  C   UNL     1      -1.219 -28.295   6.887  1.00  0.00     0.094 A 
ATOM     10  C   UNL     1      -0.481 -27.167   6.519  1.00  0.00     0.146 A 
ATOM     11  O   UNL     1       0.000 -27.099   5.284  1.00  0.00    -0.452 OA
ENDROOT
BRANCH   1  12
ATOM     12  C   UNL     1       1.199 -26.122   3.434  1.00  0.00     0.025 A 
ATOM     13  C   UNL     1       2.434 -26.720   3.129  1.00  0.00     0.016 A 
ATOM     14  C   UNL     1       2.880 -26.787   1.806  1.00  0.00     0.051 A 
ATOM     15  C   UNL     1       2.093 -26.271   0.769  1.00  0.00     0.157 A 
ATOM     16  C   UNL     1       0.404 -25.626   2.388  1.00  0.00     0.062 A 
ATOM     17  C   UNL     1       0.848 -25.690   1.062  1.00  0.00     0.158 A 
BRANCH  15  18
ATOM     18  O   UNL     1       2.541 -26.337  -0.550  1.00  0.00    -0.504 OA
ATOM     19  H   UNL     1       3.258 -26.993  -0.834  1.00  0.00     0.293 HD
ENDBRANCH  15  18
BRANCH  17  20
ATOM     20  O   UNL     1       0.038 -25.174   0.051  1.00  0.00    -0.504 OA
ATOM     21  H   UNL     1      -0.876 -24.781   0.240  1.00  0.00     0.293 HD
ENDBRANCH  17  20
ENDBRANCH   1  12
BRANCH   2  22
ATOM     22  O   UNL     1       1.549 -23.811   5.147  1.00  0.00    -0.502 OA
ATOM     23  H   UNL     1       1.306 -22.872   5.436  1.00  0.00     0.293 HD
ENDBRANCH   2  22
BRANCH   6  24
ATOM     24  O   UNL     1      -0.514 -25.356   9.808  1.00  0.00    -0.507 OA
ATOM     25  H   UNL     1      -0.967 -24.460   9.906  1.00  0.00     0.293 HD
ENDBRANCH   6  24
BRANCH   8  26
ATOM     26  O   UNL     1      -2.505 -29.517   8.537  1.00  0.00    -0.508 OA
ATOM     27  H   UNL     1      -3.356 -29.765   8.048  1.00  0.00     0.293 HD
ENDBRANCH   8  26
TORSDOF 6
ENDMDL
MODEL 4
REMARK VINA RESULT:    -5.455      7.645      9.796
REMARK INTER + INTRA:          -6.323
REMARK INTER:                  -6.145
REMARK INTRA:                  -0.178
REMARK UNBOUND:                 0.249
REMARK SMILES O=c1c(O)c(-c2ccc(O)c(O)c2)oc2cc(O)cc(O)c12
REMARK SMILES IDX 5 1 3 2 2 3 1 4 22 5 20 6 19 7 17 8 16 9 15 10 14 11 6 12
REMARK SMILES IDX 7 13 8 14 9 15 13 16 11 17 10 18 12 20 4 22 21 24 18 26
REMARK H PARENT 10 19 12 21 4 23 21 25 18 27
REMARK Flexibility Score: inf
ROOT
ATOM      1  C   UNL     1       0.536 -26.233   5.242  1.00  0.00     0.180 A 
ATOM      2  C   UNL     1      -0.589 -26.206   6.084  1.00  0.00     0.208 A 
ATOM      3  C   UNL     1      -0.398 -26.182   7.476  1.00  0.00     0.238 A 
ATOM      4  O   UNL     1      -1.409 -26.212   8.225  1.00  0.00    -0.285 OA
ATOM      5  C   UNL     1       0.914 -26.168   8.006  1.00  0.00     0.111 A 
ATOM      6  C   UNL     1       1.225 -26.102   9.397  1.00  0.00     0.134 A 
ATOM      7  C   UNL     1       2.556 -26.227   9.814  1.00  0.00     0.093 A 
ATOM      8  C   UNL     1       3.592 -26.348   8.889  1.00  0.00     0.123 A 
ATOM      9  C   UNL     1       3.305 -26.354   7.524  1.00  0.00     0.094 A 
ATOM     10  C   UNL     1       1.984 -26.267   7.078  1.00  0.00     0.146 A 
ATOM     11  O   UNL     1       1.753 -26.287   5.771  1.00  0.00    -0.452 OA
ENDROOT
BRANCH   1  12
ATOM     12  C   UNL     1       0.415 -26.236   3.766  1.00  0.00     0.025 A 
ATOM     13  C   UNL     1       0.871 -25.154   2.992  1.00  0.00     0.016 A 
ATOM     14  C   UNL     1       0.769 -25.189   1.599  1.00  0.00     0.051 A 
ATOM     15  C   UNL     1       0.225 -26.309   0.958  1.00  0.00     0.157 A 
ATOM     16  C   UNL     1      -0.110 -27.365   3.118  1.00  0.00     0.062 A 
ATOM     17  C   UNL     1      -0.214 -27.404   1.723  1.00  0.00     0.158 A 
BRANCH  15  18
ATOM     18  O   UNL     1       0.122 -26.341  -0.432  1.00  0.00    -0.504 OA
ATOM     19  H   UNL     1       0.938 -26.256  -1.025  1.00  0.00     0.293 HD
ENDBRANCH  15  18
BRANCH  17  20
ATOM     20  O   UNL     1      -0.754 -28.537   1.114  1.00  0.00    -0.504 OA
ATOM     21  H   UNL     1      -1.499 -29.074   1.541  1.00  0.00     0.293 HD
ENDBRANCH  17  20
ENDBRANCH   1  12
BRANCH   2  22
ATOM     22  O   UNL     1      -1.876 -26.242   5.540  1.00  0.00    -0.502 OA
ATOM     23  H   UNL     1      -2.161 -26.937   4.861  1.00  0.00     0.293 HD
ENDBRANCH   2  22
BRANCH   6  24
ATOM     24  O   UNL     1       0.275 -25.891  10.400  1.00  0.00    -0.507 OA
ATOM     25  H   UNL     1      -0.721 -25.845  10.247  1.00  0.00     0.293 HD
ENDBRANCH   6  24
BRANCH   8  26
ATOM     26  O   UNL     1       4.907 -26.454   9.339  1.00  0.00    -0.508 OA
ATOM     27  H   UNL     1       5.570 -25.697   9.220  1.00  0.00     0.293 HD
ENDBRANCH   8  26
TORSDOF 6
ENDMDL
MODEL 5
REMARK VINA RESULT:    -5.444      5.175      8.317
REMARK INTER + INTRA:          -6.310
REMARK INTER:                  -6.167
REMARK INTRA:                  -0.143
REMARK UNBOUND:                 0.249
REMARK SMILES O=c1c(O)c(-c2ccc(O)c(O)c2)oc2cc(O)cc(O)c12
REMARK SMILES IDX 5 1 3 2 2 3 1 4 22 5 20 6 19 7 17 8 16 9 15 10 14 11 6 12
REMARK SMILES IDX 7 13 8 14 9 15 13 16 11 17 10 18 12 20 4 22 21 24 18 26
REMARK H PARENT 10 19 12 21 4 23 21 25 18 27
REMARK Flexibility Score: inf
ROOT
ATOM      1  C   UNL     1      -1.297 -27.035   5.139  1.00  0.00     0.180 A 
ATOM      2  C   UNL     1      -0.201 -26.192   4.887  1.00  0.00     0.208 A 
ATOM      3  C   UNL     1       0.508 -25.653   5.973  1.00  0.00     0.238 A 
ATOM      4  O   UNL     1       1.455 -24.857   5.742  1.00  0.00    -0.285 OA
ATOM      5  C   UNL     1       0.121 -25.977   7.296  1.00  0.00     0.111 A 
ATOM      6  C   UNL     1       0.792 -25.522   8.470  1.00  0.00     0.134 A 
ATOM      7  C   UNL     1       0.246 -25.798   9.729  1.00  0.00     0.093 A 
ATOM      8  C   UNL     1      -0.910 -26.568   9.859  1.00  0.00     0.123 A 
ATOM      9  C   UNL     1      -1.541 -27.068   8.720  1.00  0.00     0.094 A 
ATOM     10  C   UNL     1      -1.039 -26.780   7.449  1.00  0.00     0.146 A 
ATOM     11  O   UNL     1      -1.676 -27.267   6.390  1.00  0.00    -0.452 OA
ENDROOT
BRANCH   1  12
ATOM     12  C   UNL     1      -2.078 -27.659   4.046  1.00  0.00     0.025 A 
ATOM     13  C   UNL     1      -1.473 -28.519   3.113  1.00  0.00     0.016 A 
ATOM     14  C   UNL     1      -2.234 -29.117   2.105  1.00  0.00     0.051 A 
ATOM     15  C   UNL     1      -3.611 -28.876   2.022  1.00  0.00     0.157 A 
ATOM     16  C   UNL     1      -3.463 -27.437   3.972  1.00  0.00     0.062 A 
ATOM     17  C   UNL     1      -4.228 -28.034   2.963  1.00  0.00     0.158 A 
BRANCH  15  18
ATOM     18  O   UNL     1      -4.369 -29.472   1.014  1.00  0.00    -0.504 OA
ATOM     19  H   UNL     1      -3.984 -30.196   0.421  1.00  0.00     0.293 HD
ENDBRANCH  15  18
BRANCH  17  20
ATOM     20  O   UNL     1      -5.599 -27.779   2.912  1.00  0.00    -0.504 OA
ATOM     21  H   UNL     1      -6.073 -27.551   2.047  1.00  0.00     0.293 HD
ENDBRANCH  17  20
ENDBRANCH   1  12
BRANCH   2  22
ATOM     22  O   UNL     1       0.150 -25.868   3.573  1.00  0.00    -0.502 OA
ATOM     23  H   UNL     1       0.846 -26.387   3.052  1.00  0.00     0.293 HD
ENDBRANCH   2  22
BRANCH   6  24
ATOM     24  O   UNL     1       2.003 -24.823   8.456  1.00  0.00    -0.507 OA
ATOM     25  H   UNL     1       2.098 -23.843   8.240  1.00  0.00     0.293 HD
ENDBRANCH   6  24
BRANCH   8  26
ATOM     26  O   UNL     1      -1.417 -26.836  11.129  1.00  0.00    -0.508 OA
ATOM     27  H   UNL     1      -2.121 -26.245  11.554  1.00  0.00     0.293 HD
ENDBRANCH   8  26
TORSDOF 6
ENDMDL
MODEL 6
REMARK VINA RESULT:    -5.423      1.437      6.558
REMARK INTER + INTRA:          -6.284
REMARK INTER:                  -5.966
REMARK INTRA:                  -0.318
REMARK UNBOUND:                 0.249
REMARK SMILES O=c1c(O)c(-c2ccc(O)c(O)c2)oc2cc(O)cc(O)c12
REMARK SMILES IDX 5 1 3 2 2 3 1 4 22 5 20 6 19 7 17 8 16 9 15 10 14 11 6 12
REMARK SMILES IDX 7 13 8 14 9 15 13 16 11 17 10 18 12 20 4 22 21 24 18 26
REMARK H PARENT 10 19 12 21 4 23 21 25 18 27
REMARK Flexibility Score: inf
ROOT
ATOM      1  C   UNL     1      -7.509 -28.729   5.210  1.00  0.00     0.180 A 
ATOM      2  C   UNL     1      -6.900 -29.261   6.359  1.00  0.00     0.208 A 
ATOM      3  C   UNL     1      -5.512 -29.476   6.357  1.00  0.00     0.238 A 
ATOM      4  O   UNL     1      -4.980 -30.002   7.370  1.00  0.00    -0.285 OA
ATOM      5  C   UNL     1      -4.750 -29.142   5.212  1.00  0.00     0.111 A 
ATOM      6  C   UNL     1      -3.333 -29.279   5.114  1.00  0.00     0.134 A 
ATOM      7  C   UNL     1      -2.699 -29.041   3.888  1.00  0.00     0.093 A 
ATOM      8  C   UNL     1      -3.421 -28.607   2.777  1.00  0.00     0.123 A 
ATOM      9  C   UNL     1      -4.799 -28.413   2.878  1.00  0.00     0.094 A 
ATOM     10  C   UNL     1      -5.464 -28.676   4.078  1.00  0.00     0.146 A 
ATOM     11  O   UNL     1      -6.778 -28.488   4.129  1.00  0.00    -0.452 OA
ENDROOT
BRANCH   1  12
ATOM     12  C   UNL     1      -8.963 -28.453   5.146  1.00  0.00     0.025 A 
ATOM     13  C   UNL     1      -9.508 -27.275   5.685  1.00  0.00     0.016 A 
ATOM     14  C   UNL     1     -10.879 -27.023   5.591  1.00  0.00     0.051 A 
ATOM     15  C   UNL     1     -11.723 -27.936   4.945  1.00  0.00     0.157 A 
ATOM     16  C   UNL     1      -9.809 -29.355   4.481  1.00  0.00     0.062 A 
ATOM     17  C   UNL     1     -11.184 -29.106   4.385  1.00  0.00     0.158 A 
BRANCH  15  18
ATOM     18  O   UNL     1     -13.091 -27.683   4.854  1.00  0.00    -0.504 OA
ATOM     19  H   UNL     1     -13.713 -28.307   4.355  1.00  0.00     0.293 HD
ENDBRANCH  15  18
BRANCH  17  20
ATOM     20  O   UNL     1     -11.996 -30.032   3.730  1.00  0.00    -0.504 OA
ATOM     21  H   UNL     1     -12.994 -30.081   3.891  1.00  0.00     0.293 HD
ENDBRANCH  17  20
ENDBRANCH   1  12
BRANCH   2  22
ATOM     22  O   UNL     1      -7.674 -29.604   7.472  1.00  0.00    -0.502 OA
ATOM     23  H   UNL     1      -8.321 -28.957   7.905  1.00  0.00     0.293 HD
ENDBRANCH   2  22
BRANCH   6  24
ATOM     24  O   UNL     1      -2.505 -29.618   6.188  1.00  0.00    -0.507 OA
ATOM     25  H   UNL     1      -1.532 -29.871   6.106  1.00  0.00     0.293 HD
ENDBRANCH   6  24
BRANCH   8  26
ATOM     26  O   UNL     1      -2.755 -28.365   1.577  1.00  0.00    -0.508 OA
ATOM     27  H   UNL     1      -3.246 -28.024   0.759  1.00  0.00     0.293 HD
ENDBRANCH   8  26
TORSDOF 6
ENDMDL
MODEL 7
REMARK VINA RESULT:    -5.416      7.815      9.387
REMARK INTER + INTRA:          -6.276
REMARK INTER:                  -5.950
REMARK INTRA:                  -0.326
REMARK UNBOUND:                 0.249
REMARK SMILES O=c1c(O)c(-c2ccc(O)c(O)c2)oc2cc(O)cc(O)c12
REMARK SMILES IDX 5 1 3 2 2 3 1 4 22 5 20 6 19 7 17 8 16 9 15 10 14 11 6 12
REMARK SMILES IDX 7 13 8 14 9 15 13 16 11 17 10 18 12 20 4 22 21 24 18 26
REMARK H PARENT 10 19 12 21 4 23 21 25 18 27
REMARK Flexibility Score: inf
ROOT
ATOM      1  C   UNL     1       1.185 -26.715   5.263  1.00  0.00     0.180 A 
ATOM      2  C   UNL     1       2.459 -26.693   5.856  1.00  0.00     0.208 A 
ATOM      3  C   UNL     1       2.558 -26.555   7.250  1.00  0.00     0.238 A 
ATOM      4  O   UNL     1       3.702 -26.482   7.771  1.00  0.00    -0.285 OA
ATOM      5  C   UNL     1       1.383 -26.459   8.033  1.00  0.00     0.111 A 
ATOM      6  C   UNL     1       1.365 -26.358   9.457  1.00  0.00     0.134 A 
ATOM      7  C   UNL     1       0.150 -26.136  10.118  1.00  0.00     0.093 A 
ATOM      8  C   UNL     1      -1.052 -26.078   9.415  1.00  0.00     0.123 A 
ATOM      9  C   UNL     1      -1.052 -26.234   8.028  1.00  0.00     0.094 A 
ATOM     10  C   UNL     1       0.147 -26.421   7.337  1.00  0.00     0.146 A 
ATOM     11  O   UNL     1       0.104 -26.556   6.017  1.00  0.00    -0.452 OA
ENDROOT
BRANCH   1  12
ATOM     12  C   UNL     1       0.999 -26.880   3.803  1.00  0.00     0.025 A 
ATOM     13  C   UNL     1       0.990 -28.153   3.205  1.00  0.00     0.016 A 
ATOM     14  C   UNL     1       0.789 -28.287   1.829  1.00  0.00     0.051 A 
ATOM     15  C   UNL     1       0.579 -27.155   1.032  1.00  0.00     0.157 A 
ATOM     16  C   UNL     1       0.768 -25.750   3.003  1.00  0.00     0.062 A 
ATOM     17  C   UNL     1       0.566 -25.880   1.624  1.00  0.00     0.158 A 
BRANCH  15  18
ATOM     18  O   UNL     1       0.380 -27.291  -0.341  1.00  0.00    -0.504 OA
ATOM     19  H   UNL     1       1.156 -27.428  -0.978  1.00  0.00     0.293 HD
ENDBRANCH  15  18
BRANCH  17  20
ATOM     20  O   UNL     1       0.354 -24.733   0.858  1.00  0.00    -0.504 OA
ATOM     21  H   UNL     1       1.117 -24.212   0.445  1.00  0.00     0.293 HD
ENDBRANCH  17  20
ENDBRANCH   1  12
BRANCH   2  22
ATOM     22  O   UNL     1       3.607 -26.768   5.062  1.00  0.00    -0.502 OA
ATOM     23  H   UNL     1       4.440 -26.227   5.258  1.00  0.00     0.293 HD
ENDBRANCH   2  22
BRANCH   6  24
ATOM     24  O   UNL     1       2.498 -26.494  10.264  1.00  0.00    -0.507 OA
ATOM     25  H   UNL     1       2.991 -27.360  10.421  1.00  0.00     0.293 HD
ENDBRANCH   6  24
BRANCH   8  26
ATOM     26  O   UNL     1      -2.244 -25.871  10.107  1.00  0.00    -0.508 OA
ATOM     27  H   UNL     1      -2.250 -25.547  11.066  1.00  0.00     0.293 HD
ENDBRANCH   8  26
TORSDOF 6
ENDMDL
MODEL 8
REMARK VINA RESULT:    -5.392      9.092     10.818
REMARK INTER + INTRA:          -6.247
REMARK INTER:                  -5.938
REMARK INTRA:                  -0.309
REMARK UNBOUND:                 0.249
REMARK SMILES O=c1c(O)c(-c2ccc(O)c(O)c2)oc2cc(O)cc(O)c12
REMARK SMILES IDX 5 1 3 2 2 3 1 4 22 5 20 6 19 7 17 8 16 9 15 10 14 11 6 12
REMARK SMILES IDX 7 13 8 14 9 15 13 16 11 17 10 18 12 20 4 22 21 24 18 26
REMARK H PARENT 10 19 12 21 4 23 21 25 18 27
REMARK Flexibility Score: inf
ROOT
ATOM      1  C   UNL     1       1.497 -26.071   4.196  1.00  0.00     0.180 A 
ATOM      2  C   UNL     1       0.952 -24.955   4.855  1.00  0.00     0.208 A 
ATOM      3  C   UNL     1       1.291 -24.725   6.199  1.00  0.00     0.238 A 
ATOM      4  O   UNL     1       0.758 -23.755   6.799  1.00  0.00    -0.285 OA
ATOM      5  C   UNL     1       2.182 -25.604   6.860  1.00  0.00     0.111 A 
ATOM      6  C   UNL     1       2.626 -25.444   8.206  1.00  0.00     0.134 A 
ATOM      7  C   UNL     1       3.405 -26.446   8.800  1.00  0.00     0.093 A 
ATOM      8  C   UNL     1       3.810 -27.567   8.077  1.00  0.00     0.123 A 
ATOM      9  C   UNL     1       3.431 -27.704   6.741  1.00  0.00     0.094 A 
ATOM     10  C   UNL     1       2.624 -26.739   6.132  1.00  0.00     0.146 A 
ATOM     11  O   UNL     1       2.277 -26.913   4.862  1.00  0.00    -0.452 OA
ENDROOT
BRANCH   1  12
ATOM     12  C   UNL     1       1.205 -26.365   2.774  1.00  0.00     0.025 A 
ATOM     13  C   UNL     1       0.040 -27.052   2.393  1.00  0.00     0.016 A 
ATOM     14  C   UNL     1      -0.227 -27.297   1.043  1.00  0.00     0.051 A 
ATOM     15  C   UNL     1       0.657 -26.847   0.055  1.00  0.00     0.157 A 
ATOM     16  C   UNL     1       2.079 -25.898   1.778  1.00  0.00     0.062 A 
ATOM     17  C   UNL     1       1.814 -26.142   0.425  1.00  0.00     0.158 A 
BRANCH  15  18
ATOM     18  O   UNL     1       0.389 -27.094  -1.291  1.00  0.00    -0.504 OA
ATOM     19  H   UNL     1       1.133 -27.162  -1.975  1.00  0.00     0.293 HD
ENDBRANCH  15  18
BRANCH  17  20
ATOM     20  O   UNL     1       2.712 -25.674  -0.535  1.00  0.00    -0.504 OA
ATOM     21  H   UNL     1       3.710 -25.640  -0.369  1.00  0.00     0.293 HD
ENDBRANCH  17  20
ENDBRANCH   1  12
BRANCH   2  22
ATOM     22  O   UNL     1       0.057 -24.112   4.189  1.00  0.00    -0.502 OA
ATOM     23  H   UNL     1      -0.861 -24.418   3.894  1.00  0.00     0.293 HD
ENDBRANCH   2  22
BRANCH   6  24
ATOM     24  O   UNL     1       2.356 -24.319   8.990  1.00  0.00    -0.507 OA
ATOM     25  H   UNL     1       3.020 -23.588   9.194  1.00  0.00     0.293 HD
ENDBRANCH   6  24
BRANCH   8  26
ATOM     26  O   UNL     1       4.598 -28.536   8.695  1.00  0.00    -0.508 OA
ATOM     27  H   UNL     1       5.600 -28.421   8.791  1.00  0.00     0.293 HD
ENDBRANCH   8  26
TORSDOF 6
ENDMDL
MODEL 9
REMARK VINA RESULT:    -5.369      7.058      9.262
REMARK INTER + INTRA:          -6.219
REMARK INTER:                  -5.889
REMARK INTRA:                  -0.330
REMARK UNBOUND:                 0.249
REMARK SMILES O=c1c(O)c(-c2ccc(O)c(O)c2)oc2cc(O)cc(O)c12
REMARK SMILES IDX 5 1 3 2 2 3 1 4 22 5 20 6 19 7 17 8 16 9 15 10 14 11 6 12
REMARK SMILES IDX 7 13 8 14 9 15 13 16 11 17 10 18 12 20 4 22 21 24 18 26
REMARK H PARENT 10 19 12 21 4 23 21 25 18 27
REMARK Flexibility Score: inf
ROOT
ATOM      1  C   UNL     1       0.418 -26.593   3.915  1.00  0.00     0.180 A 
ATOM      2  C   UNL     1      -0.816 -27.046   4.412  1.00  0.00     0.208 A 
ATOM      3  C   UNL     1      -1.103 -26.878   5.777  1.00  0.00     0.238 A 
ATOM      4  O   UNL     1      -2.186 -27.334   6.227  1.00  0.00    -0.285 OA
ATOM      5  C   UNL     1      -0.160 -26.245   6.621  1.00  0.00     0.111 A 
ATOM      6  C   UNL     1      -0.363 -25.986   8.010  1.00  0.00     0.134 A 
ATOM      7  C   UNL     1       0.690 -25.471   8.778  1.00  0.00     0.093 A 
ATOM      8  C   UNL     1       1.914 -25.145   8.195  1.00  0.00     0.123 A 
ATOM      9  C   UNL     1       2.103 -25.340   6.826  1.00  0.00     0.094 A 
ATOM     10  C   UNL     1       1.083 -25.884   6.041  1.00  0.00     0.146 A 
ATOM     11  O   UNL     1       1.308 -26.063   4.745  1.00  0.00    -0.452 OA
ENDROOT
BRANCH   1  12
ATOM     12  C   UNL     1       0.782 -26.713   2.484  1.00  0.00     0.025 A 
ATOM     13  C   UNL     1       0.396 -25.739   1.546  1.00  0.00     0.016 A 
ATOM     14  C   UNL     1       0.772 -25.861   0.206  1.00  0.00     0.051 A 
ATOM     15  C   UNL     1       1.549 -26.947  -0.215  1.00  0.00     0.157 A 
ATOM     16  C   UNL     1       1.579 -27.789   2.062  1.00  0.00     0.062 A 
ATOM     17  C   UNL     1       1.957 -27.914   0.720  1.00  0.00     0.158 A 
BRANCH  15  18
ATOM     18  O   UNL     1       1.921 -27.067  -1.553  1.00  0.00    -0.504 OA
ATOM     19  H   UNL     1       1.727 -27.907  -2.084  1.00  0.00     0.293 HD
ENDBRANCH  15  18
BRANCH  17  20
ATOM     20  O   UNL     1       2.737 -29.004   0.334  1.00  0.00    -0.504 OA
ATOM     21  H   UNL     1       3.741 -29.022   0.469  1.00  0.00     0.293 HD
ENDBRANCH  17  20
ENDBRANCH   1  12
BRANCH   2  22
ATOM     22  O   UNL     1      -1.724 -27.689   3.565  1.00  0.00    -0.502 OA
ATOM     23  H   UNL     1      -1.852 -28.693   3.566  1.00  0.00     0.293 HD
ENDBRANCH   2  22
BRANCH   6  24
ATOM     24  O   UNL     1      -1.576 -26.189   8.673  1.00  0.00    -0.507 OA
ATOM     25  H   UNL     1      -2.316 -25.506   8.739  1.00  0.00     0.293 HD
ENDBRANCH   6  24
BRANCH   8  26
ATOM     26  O   UNL     1       2.934 -24.620   8.985  1.00  0.00    -0.508 OA
ATOM     27  H   UNL     1       2.743 -24.205   9.889  1.00  0.00     0.293 HD
ENDBRANCH   8  26
TORSDOF 6
ENDMDL
