MODEL 1
REMARK VINA RESULT:    -3.973      0.000      0.000
REMARK INTER + INTRA:          -6.748
REMARK INTER:                  -6.064
REMARK INTRA:                  -0.684
REMARK UNBOUND:                -0.684
REMARK SMILES O=C([O-])CCCCCCCCC(=O)[O-]
REMARK SMILES IDX 7 1 6 2 5 3 4 4 2 5 1 6 3 7 8 8 9 9 10 10 11 11 12 12 13 13
REMARK SMILES IDX 14 14
REMARK H PARENT
REMARK Flexibility Score: inf
ROOT
ATOM      1  C   UNL     1       4.138   5.660   1.521  1.00  0.00     0.000 C 
ENDROOT
BRANCH   1   2
ATOM      2  C   UNL     1       4.190   7.128   1.079  1.00  0.00     0.000 C 
BRANCH   2   3
ATOM      3  C   UNL     1       3.985   8.070   2.274  1.00  0.00     0.006 C 
BRANCH   3   4
ATOM      4  C   UNL     1       2.528   8.089   2.755  1.00  0.00     0.053 C 
BRANCH   4   5
ATOM      5  C   UNL     1       2.410   7.679   4.191  1.00  0.00     0.041 C 
ATOM      6  O   UNL     1       1.422   8.050   4.876  1.00  0.00    -0.550 OA
ATOM      7  O   UNL     1       3.375   6.860   4.762  1.00  0.00    -0.550 OA
ENDBRANCH   4   5
ENDBRANCH   3   4
ENDBRANCH   2   3
ENDBRANCH   1   2
BRANCH   1   8
ATOM      8  C   UNL     1       4.712   4.737   0.439  1.00  0.00     0.000 C 
BRANCH   8   9
ATOM      9  C   UNL     1       5.862   3.885   0.996  1.00  0.00     0.000 C 
BRANCH   9  10
ATOM     10  C   UNL     1       7.072   4.731   1.422  1.00  0.00     0.006 C 
BRANCH  10  11
ATOM     11  C   UNL     1       7.936   5.168   0.234  1.00  0.00     0.053 C 
BRANCH  11  12
ATOM     12  C   UNL     1       7.838   6.648   0.033  1.00  0.00     0.041 C 
ATOM     13  O   UNL     1       7.711   7.415   1.024  1.00  0.00    -0.550 OA
ATOM     14  O   UNL     1       7.937   7.185  -1.244  1.00  0.00    -0.550 OA
ENDBRANCH  11  12
ENDBRANCH  10  11
ENDBRANCH   9  10
ENDBRANCH   8   9
ENDBRANCH   1   8
TORSDOF 9
ENDMDL
MODEL 2
REMARK VINA RESULT:    -3.836      0.455      5.833
REMARK INTER + INTRA:          -6.538
REMARK INTER:                  -5.778
REMARK INTRA:                  -0.760
REMARK UNBOUND:                -0.684
REMARK SMILES O=C([O-])CCCCCCCCC(=O)[O-]
REMARK SMILES IDX 7 1 6 2 5 3 4 4 2 5 1 6 3 7 8 8 9 9 10 10 11 11 12 12 13 13
REMARK SMILES IDX 14 14
REMARK H PARENT
REMARK Flexibility Score: inf
ROOT
ATOM      1  C   UNL     1       4.699   4.754   1.762  1.00  0.00     0.000 C 
ENDROOT
BRANCH   1   2
ATOM      2  C   UNL     1       5.747   4.181   0.800  1.00  0.00     0.000 C 
BRANCH   2   3
ATOM      3  C   UNL     1       7.167   4.378   1.352  1.00  0.00     0.006 C 
BRANCH   3   4
ATOM      4  C   UNL     1       8.120   4.969   0.306  1.00  0.00     0.053 C 
BRANCH   4   5
ATOM      5  C   UNL     1       7.929   6.448   0.152  1.00  0.00     0.041 C 
ATOM      6  O   UNL     1       7.697   6.941  -0.983  1.00  0.00    -0.550 OA
ATOM      7  O   UNL     1       7.975   7.276   1.266  1.00  0.00    -0.550 OA
ENDBRANCH   4   5
ENDBRANCH   3   4
ENDBRANCH   2   3
ENDBRANCH   1   2
BRANCH   1   8
ATOM      8  C   UNL     1       3.777   5.747   1.045  1.00  0.00     0.000 C 
BRANCH   8   9
ATOM      9  C   UNL     1       4.375   7.162   1.058  1.00  0.00     0.000 C 
BRANCH   9  10
ATOM     10  C   UNL     1       4.197   7.866   2.412  1.00  0.00     0.006 C 
BRANCH  10  11
ATOM     11  C   UNL     1       2.724   8.105   2.765  1.00  0.00     0.053 C 
BRANCH  11  12
ATOM     12  C   UNL     1       2.427   7.594   4.140  1.00  0.00     0.041 C 
ATOM     13  O   UNL     1       1.335   7.877   4.699  1.00  0.00    -0.550 OA
ATOM     14  O   UNL     1       3.335   6.764   4.785  1.00  0.00    -0.550 OA
ENDBRANCH  11  12
ENDBRANCH  10  11
ENDBRANCH   9  10
ENDBRANCH   8   9
ENDBRANCH   1   8
TORSDOF 9
ENDMDL
MODEL 3
REMARK VINA RESULT:    -3.423      2.126      5.360
REMARK INTER + INTRA:          -5.907
REMARK INTER:                  -5.134
REMARK INTRA:                  -0.773
REMARK UNBOUND:                -0.684
REMARK SMILES O=C([O-])CCCCCCCCC(=O)[O-]
REMARK SMILES IDX 7 1 6 2 5 3 4 4 2 5 1 6 3 7 8 8 9 9 10 10 11 11 12 12 13 13
REMARK SMILES IDX 14 14
REMARK H PARENT
REMARK Flexibility Score: inf
ROOT
ATOM      1  C   UNL     1       8.038   6.017   2.522  1.00  0.00     0.000 C 
ENDROOT
BRANCH   1   2
ATOM      2  C   UNL     1       8.125   5.389   1.126  1.00  0.00     0.000 C 
BRANCH   2   3
ATOM      3  C   UNL     1       7.297   4.097   1.052  1.00  0.00     0.006 C 
BRANCH   3   4
ATOM      4  C   UNL     1       5.801   4.353   1.273  1.00  0.00     0.053 C 
BRANCH   4   5
ATOM      5  C   UNL     1       5.113   4.760   0.005  1.00  0.00     0.041 C 
ATOM      6  O   UNL     1       4.228   4.021  -0.500  1.00  0.00    -0.550 OA
ATOM      7  O   UNL     1       5.425   5.971  -0.598  1.00  0.00    -0.550 OA
ENDBRANCH   4   5
ENDBRANCH   3   4
ENDBRANCH   2   3
ENDBRANCH   1   2
BRANCH   1   8
ATOM      8  C   UNL     1       8.000   7.548   2.435  1.00  0.00     0.000 C 
BRANCH   8   9
ATOM      9  C   UNL     1       6.680   8.031   1.816  1.00  0.00     0.000 C 
BRANCH   9  10
ATOM     10  C   UNL     1       5.487   7.878   2.772  1.00  0.00     0.006 C 
BRANCH  10  11
ATOM     11  C   UNL     1       4.137   8.006   2.056  1.00  0.00     0.053 C 
BRANCH  11  12
ATOM     12  C   UNL     1       3.115   7.130   2.709  1.00  0.00     0.041 C 
ATOM     13  O   UNL     1       3.280   5.882   2.746  1.00  0.00    -0.550 OA
ATOM     14  O   UNL     1       2.003   7.695   3.322  1.00  0.00    -0.550 OA
ENDBRANCH  11  12
ENDBRANCH  10  11
ENDBRANCH   9  10
ENDBRANCH   8   9
ENDBRANCH   1   8
TORSDOF 9
ENDMDL
MODEL 4
REMARK VINA RESULT:    -3.327      2.320      3.091
REMARK INTER + INTRA:          -5.762
REMARK INTER:                  -5.097
REMARK INTRA:                  -0.665
REMARK UNBOUND:                -0.684
REMARK SMILES O=C([O-])CCCCCCCCC(=O)[O-]
REMARK SMILES IDX 7 1 6 2 5 3 4 4 2 5 1 6 3 7 8 8 9 9 10 10 11 11 12 12 13 13
REMARK SMILES IDX 14 14
REMARK H PARENT
REMARK Flexibility Score: inf
ROOT
ATOM      1  C   UNL     1       7.865   7.528   2.179  1.00  0.00     0.000 C 
ENDROOT
BRANCH   1   2
ATOM      2  C   UNL     1       6.699   8.097   2.998  1.00  0.00     0.000 C 
BRANCH   2   3
ATOM      3  C   UNL     1       5.390   8.049   2.196  1.00  0.00     0.006 C 
BRANCH   3   4
ATOM      4  C   UNL     1       4.154   8.012   3.104  1.00  0.00     0.053 C 
BRANCH   4   5
ATOM      5  C   UNL     1       2.906   7.701   2.333  1.00  0.00     0.041 C 
ATOM      6  O   UNL     1       1.926   7.160   2.907  1.00  0.00    -0.550 OA
ATOM      7  O   UNL     1       2.815   8.042   0.990  1.00  0.00    -0.550 OA
ENDBRANCH   4   5
ENDBRANCH   3   4
ENDBRANCH   2   3
ENDBRANCH   1   2
BRANCH   1   8
ATOM      8  C   UNL     1       8.075   6.039   2.480  1.00  0.00     0.000 C 
BRANCH   8   9
ATOM      9  C   UNL     1       8.125   5.218   1.184  1.00  0.00     0.000 C 
BRANCH   9  10
ATOM     10  C   UNL     1       7.166   4.018   1.205  1.00  0.00     0.006 C 
BRANCH  10  11
ATOM     11  C   UNL     1       5.700   4.437   1.370  1.00  0.00     0.053 C 
BRANCH  11  12
ATOM     12  C   UNL     1       5.109   4.802   0.045  1.00  0.00     0.041 C 
ATOM     13  O   UNL     1       4.210   4.084  -0.468  1.00  0.00    -0.550 OA
ATOM     14  O   UNL     1       5.514   5.962  -0.602  1.00  0.00    -0.550 OA
ENDBRANCH  11  12
ENDBRANCH  10  11
ENDBRANCH   9  10
ENDBRANCH   8   9
ENDBRANCH   1   8
TORSDOF 9
ENDMDL
MODEL 5
REMARK VINA RESULT:    -3.044     21.239     22.679
REMARK INTER + INTRA:          -5.329
REMARK INTER:                  -5.055
REMARK INTRA:                  -0.274
REMARK UNBOUND:                -0.684
REMARK SMILES O=C([O-])CCCCCCCCC(=O)[O-]
REMARK SMILES IDX 7 1 6 2 5 3 4 4 2 5 1 6 3 7 8 8 9 9 10 10 11 11 12 12 13 13
REMARK SMILES IDX 14 14
REMARK H PARENT
REMARK Flexibility Score: inf
ROOT
ATOM      1  C   UNL     1      -8.452 -11.750   0.614  1.00  0.00     0.000 C 
ENDROOT
BRANCH   1   2
ATOM      2  C   UNL     1      -7.999 -12.125   2.030  1.00  0.00     0.000 C 
BRANCH   2   3
ATOM      3  C   UNL     1      -6.469 -12.057   2.154  1.00  0.00     0.006 C 
BRANCH   3   4
ATOM      4  C   UNL     1      -5.981 -10.662   2.563  1.00  0.00     0.053 C 
BRANCH   4   5
ATOM      5  C   UNL     1      -5.043 -10.721   3.731  1.00  0.00     0.041 C 
ATOM      6  O   UNL     1      -3.851 -10.338   3.605  1.00  0.00    -0.550 OA
ATOM      7  O   UNL     1      -5.496 -11.167   4.966  1.00  0.00    -0.550 OA
ENDBRANCH   4   5
ENDBRANCH   3   4
ENDBRANCH   2   3
ENDBRANCH   1   2
BRANCH   1   8
ATOM      8  C   UNL     1      -9.965 -11.942   0.450  1.00  0.00     0.000 C 
BRANCH   8   9
ATOM      9  C   UNL     1     -10.365 -11.919  -1.032  1.00  0.00     0.000 C 
BRANCH   9  10
ATOM     10  C   UNL     1     -10.362 -10.501  -1.624  1.00  0.00     0.006 C 
BRANCH  10  11
ATOM     11  C   UNL     1     -11.037 -10.434  -3.000  1.00  0.00     0.053 C 
BRANCH  11  12
ATOM     12  C   UNL     1     -10.034 -10.668  -4.085  1.00  0.00     0.041 C 
ATOM     13  O   UNL     1      -8.853 -10.250  -3.958  1.00  0.00    -0.550 OA
ATOM     14  O   UNL     1     -10.389 -11.391  -5.216  1.00  0.00    -0.550 OA
ENDBRANCH  11  12
ENDBRANCH  10  11
ENDBRANCH   9  10
ENDBRANCH   8   9
ENDBRANCH   1   8
TORSDOF 9
ENDMDL
MODEL 6
REMARK VINA RESULT:    -2.876     21.500     23.030
REMARK INTER + INTRA:          -5.073
REMARK INTER:                  -4.725
REMARK INTRA:                  -0.348
REMARK UNBOUND:                -0.684
REMARK SMILES O=C([O-])CCCCCCCCC(=O)[O-]
REMARK SMILES IDX 7 1 6 2 5 3 4 4 2 5 1 6 3 7 8 8 9 9 10 10 11 11 12 12 13 13
REMARK SMILES IDX 14 14
REMARK H PARENT
REMARK Flexibility Score: inf
ROOT
ATOM      1  C   UNL     1     -10.099 -11.059  -0.419  1.00  0.00     0.000 C 
ENDROOT
BRANCH   1   2
ATOM      2  C   UNL     1     -11.044 -11.855  -1.327  1.00  0.00     0.000 C 
BRANCH   2   3
ATOM      3  C   UNL     1     -11.251 -11.138  -2.670  1.00  0.00     0.006 C 
BRANCH   3   4
ATOM      4  C   UNL     1     -10.430 -11.774  -3.800  1.00  0.00     0.053 C 
BRANCH   4   5
ATOM      5  C   UNL     1      -9.469 -10.798  -4.407  1.00  0.00     0.041 C 
ATOM      6  O   UNL     1      -8.324 -10.643  -3.907  1.00  0.00    -0.550 OA
ATOM      7  O   UNL     1      -9.825 -10.085  -5.544  1.00  0.00    -0.550 OA
ENDBRANCH   4   5
ENDBRANCH   3   4
ENDBRANCH   2   3
ENDBRANCH   1   2
BRANCH   1   8
ATOM      8  C   UNL     1      -8.803 -11.836  -0.157  1.00  0.00     0.000 C 
BRANCH   8   9
ATOM      9  C   UNL     1      -8.536 -11.968   1.350  1.00  0.00     0.000 C 
BRANCH   9  10
ATOM     10  C   UNL     1      -7.039 -12.072   1.679  1.00  0.00     0.006 C 
BRANCH  10  11
ATOM     11  C   UNL     1      -6.768 -12.125   3.187  1.00  0.00     0.053 C 
BRANCH  11  12
ATOM     12  C   UNL     1      -5.728 -11.119   3.567  1.00  0.00     0.041 C 
ATOM     13  O   UNL     1      -5.285 -10.310   2.710  1.00  0.00    -0.550 OA
ATOM     14  O   UNL     1      -5.282 -11.041   4.880  1.00  0.00    -0.550 OA
ENDBRANCH  11  12
ENDBRANCH  10  11
ENDBRANCH   9  10
ENDBRANCH   8   9
ENDBRANCH   1   8
TORSDOF 9
ENDMDL
MODEL 7
REMARK VINA RESULT:    -2.840     21.695     22.894
REMARK INTER + INTRA:          -5.018
REMARK INTER:                  -4.458
REMARK INTRA:                  -0.560
REMARK UNBOUND:                -0.684
REMARK SMILES O=C([O-])CCCCCCCCC(=O)[O-]
REMARK SMILES IDX 7 1 6 2 5 3 4 4 2 5 1 6 3 7 8 8 9 9 10 10 11 11 12 12 13 13
REMARK SMILES IDX 14 14
REMARK H PARENT
REMARK Flexibility Score: inf
ROOT
ATOM      1  C   UNL     1      -9.521 -10.946  -2.149  1.00  0.00     0.000 C 
ENDROOT
BRANCH   1   2
ATOM      2  C   UNL     1      -9.826 -11.086  -0.653  1.00  0.00     0.000 C 
BRANCH   2   3
ATOM      3  C   UNL     1     -11.342 -11.104  -0.400  1.00  0.00     0.006 C 
BRANCH   3   4
ATOM      4  C   UNL     1     -11.763 -10.101   0.681  1.00  0.00     0.053 C 
BRANCH   4   5
ATOM      5  C   UNL     1     -11.812  -8.700   0.152  1.00  0.00     0.041 C 
ATOM      6  O   UNL     1     -11.959  -8.494  -1.081  1.00  0.00    -0.550 OA
ATOM      7  O   UNL     1     -11.732  -7.623   1.025  1.00  0.00    -0.550 OA
ENDBRANCH   4   5
ENDBRANCH   3   4
ENDBRANCH   2   3
ENDBRANCH   1   2
BRANCH   1   8
ATOM      8  C   UNL     1     -10.563 -11.689  -2.995  1.00  0.00     0.000 C 
BRANCH   8   9
ATOM      9  C   UNL     1     -10.174 -11.675  -4.481  1.00  0.00     0.000 C 
BRANCH   9  10
ATOM     10  C   UNL     1      -9.948 -10.255  -5.021  1.00  0.00     0.006 C 
BRANCH  10  11
ATOM     11  C   UNL     1      -8.885 -10.205  -6.125  1.00  0.00     0.053 C 
BRANCH  11  12
ATOM     12  C   UNL     1      -7.620  -9.598  -5.605  1.00  0.00     0.041 C 
ATOM     13  O   UNL     1      -7.248  -8.464  -6.007  1.00  0.00    -0.550 OA
ATOM     14  O   UNL     1      -6.876 -10.261  -4.637  1.00  0.00    -0.550 OA
ENDBRANCH  11  12
ENDBRANCH  10  11
ENDBRANCH   9  10
ENDBRANCH   8   9
ENDBRANCH   1   8
TORSDOF 9
ENDMDL
MODEL 8
REMARK VINA RESULT:    -2.769     21.469     23.261
REMARK INTER + INTRA:          -4.910
REMARK INTER:                  -4.455
REMARK INTRA:                  -0.454
REMARK UNBOUND:                -0.684
REMARK SMILES O=C([O-])CCCCCCCCC(=O)[O-]
REMARK SMILES IDX 7 1 6 2 5 3 4 4 2 5 1 6 3 7 8 8 9 9 10 10 11 11 12 12 13 13
REMARK SMILES IDX 14 14
REMARK H PARENT
REMARK Flexibility Score: inf
ROOT
ATOM      1  C   UNL     1      -9.499 -10.690  -2.977  1.00  0.00     0.000 C 
ENDROOT
BRANCH   1   2
ATOM      2  C   UNL     1      -9.973 -11.100  -4.376  1.00  0.00     0.000 C 
BRANCH   2   3
ATOM      3  C   UNL     1      -8.961 -10.668  -5.448  1.00  0.00     0.006 C 
BRANCH   3   4
ATOM      4  C   UNL     1      -7.542 -10.525  -4.883  1.00  0.00     0.053 C 
BRANCH   4   5
ATOM      5  C   UNL     1      -6.784  -9.420  -5.554  1.00  0.00     0.041 C 
ATOM      6  O   UNL     1      -7.403  -8.484  -6.125  1.00  0.00    -0.550 OA
ATOM      7  O   UNL     1      -5.396  -9.405  -5.517  1.00  0.00    -0.550 OA
ENDBRANCH   4   5
ENDBRANCH   3   4
ENDBRANCH   2   3
ENDBRANCH   1   2
BRANCH   1   8
ATOM      8  C   UNL     1     -10.258 -11.462  -1.890  1.00  0.00     0.000 C 
BRANCH   8   9
ATOM      9  C   UNL     1      -9.654 -11.197  -0.504  1.00  0.00     0.000 C 
BRANCH   9  10
ATOM     10  C   UNL     1     -10.723 -11.033   0.587  1.00  0.00     0.006 C 
BRANCH  10  11
ATOM     11  C   UNL     1     -12.030 -10.439   0.049  1.00  0.00     0.053 C 
BRANCH  11  12
ATOM     12  C   UNL     1     -11.903  -8.957  -0.111  1.00  0.00     0.041 C 
ATOM     13  O   UNL     1     -11.800  -8.216   0.902  1.00  0.00    -0.550 OA
ATOM     14  O   UNL     1     -11.847  -8.396  -1.380  1.00  0.00    -0.550 OA
ENDBRANCH  11  12
ENDBRANCH  10  11
ENDBRANCH   9  10
ENDBRANCH   8   9
ENDBRANCH   1   8
TORSDOF 9
ENDMDL
MODEL 9
REMARK VINA RESULT:    -2.073      2.653      4.477
REMARK INTER + INTRA:          -3.848
REMARK INTER:                  -3.191
REMARK INTRA:                  -0.657
REMARK UNBOUND:                -0.684
REMARK SMILES O=C([O-])CCCCCCCCC(=O)[O-]
REMARK SMILES IDX 7 1 6 2 5 3 4 4 2 5 1 6 3 7 8 8 9 9 10 10 11 11 12 12 13 13
REMARK SMILES IDX 14 14
REMARK H PARENT
REMARK Flexibility Score: inf
ROOT
ATOM      1  C   UNL     1       3.729   5.569   2.021  1.00  0.00     0.000 C 
ENDROOT
BRANCH   1   2
ATOM      2  C   UNL     1       4.918   4.614   1.861  1.00  0.00     0.000 C 
BRANCH   2   3
ATOM      3  C   UNL     1       5.473   4.662   0.430  1.00  0.00     0.006 C 
BRANCH   3   4
ATOM      4  C   UNL     1       7.006   4.725   0.402  1.00  0.00     0.053 C 
BRANCH   4   5
ATOM      5  C   UNL     1       7.566   5.209   1.705  1.00  0.00     0.041 C 
ATOM      6  O   UNL     1       7.518   6.432   1.999  1.00  0.00    -0.550 OA
ATOM      7  O   UNL     1       8.110   4.305   2.608  1.00  0.00    -0.550 OA
ENDBRANCH   4   5
ENDBRANCH   3   4
ENDBRANCH   2   3
ENDBRANCH   1   2
BRANCH   1   8
ATOM      8  C   UNL     1       4.193   7.031   2.029  1.00  0.00     0.000 C 
BRANCH   8   9
ATOM      9  C   UNL     1       3.304   7.894   1.121  1.00  0.00     0.000 C 
BRANCH   9  10
ATOM     10  C   UNL     1       3.917   8.115  -0.270  1.00  0.00     0.006 C 
BRANCH  10  11
ATOM     11  C   UNL     1       5.450   8.125  -0.246  1.00  0.00     0.053 C 
BRANCH  11  12
ATOM     12  C   UNL     1       5.995   8.098  -1.639  1.00  0.00     0.041 C 
ATOM     13  O   UNL     1       7.239   8.063  -1.834  1.00  0.00    -0.550 OA
ATOM     14  O   UNL     1       5.129   8.062  -2.725  1.00  0.00    -0.550 OA
ENDBRANCH  11  12
ENDBRANCH  10  11
ENDBRANCH   9  10
ENDBRANCH   8   9
ENDBRANCH   1   8
TORSDOF 9
ENDMDL
