MODEL 1
REMARK VINA RESULT:    -3.292      0.000      0.000
REMARK INTER + INTRA:          -5.280
REMARK INTER:                  -5.024
REMARK INTRA:                  -0.257
REMARK UNBOUND:                -0.257
REMARK SMILES CC1=CCC[C@H](C)C(=O)C[C@@H](C(C)C)C(=O)C1
REMARK SMILES IDX 8 1 9 2 6 3 7 4 5 5 4 6 3 7 2 8 1 9 10 11 11 12 15 13 16 14
REMARK SMILES IDX 17 15 12 17 13 18 14 19
REMARK H PARENT
REMARK Flexibility Score: 70.00
ROOT
ATOM      1  C   UNL     1      43.379  55.001  27.033  1.00  0.00     0.136 C 
ATOM      2  O   UNL     1      42.970  53.998  27.600  1.00  0.00    -0.299 OA
ENDROOT
BRANCH   1   3
ATOM      3  C   UNL     1      42.956  56.372  27.520  1.00  0.00     0.053 C 
ATOM      4  C   UNL     1      41.437  56.387  27.725  1.00  0.00     0.016 C 
BRANCH   3   5
ATOM      5  C   UNL     1      43.675  56.795  28.823  1.00  0.00     0.015 C 
BRANCH   5   6
ATOM      6  C   UNL     1      44.944  57.634  28.587  1.00  0.00     0.028 C 
BRANCH   6   7
ATOM      7  C   UNL     1      44.793  58.545  27.392  1.00  0.00    -0.028 C 
ATOM      8  C   UNL     1      45.564  58.519  26.281  1.00  0.00    -0.070 CG0
ATOM      9  C   UNL     1      45.256  59.507  25.184  1.00  0.00     0.039 C 
ATOM     10  G   UNL     1      46.716  57.551  26.097  1.00  0.00     0.000 G0
ENDBRANCH   6   7
ENDBRANCH   5   6
ENDBRANCH   3   5
ENDBRANCH   1   3
BRANCH   1  11
ATOM     11  C   UNL     1      44.249  54.852  25.808  1.00  0.00     0.087 C 
BRANCH  11  12
ATOM     12  C   UNL     1      45.744  55.067  26.134  1.00  0.00     0.066 C 
BRANCH  12  13
ATOM     13  C   UNL     1      46.295  56.263  25.371  1.00  0.00     0.140 C 
ATOM     14  O   UNL     1      46.418  56.203  24.156  1.00  0.00    -0.299 OA
BRANCH  13  15
ATOM     15  C   UNL     1      46.714  57.527  26.081  1.00  0.00     0.106 CG0
ATOM     16  G   UNL     1      45.559  58.490  26.276  1.00  0.00     0.000 G0
ENDBRANCH  13  15
ENDBRANCH  12  13
BRANCH  12  17
ATOM     17  C   UNL     1      46.586  53.772  25.922  1.00  0.00    -0.006 C 
ATOM     18  C   UNL     1      45.721  52.512  26.078  1.00  0.00     0.008 C 
ATOM     19  C   UNL     1      47.829  53.670  26.823  1.00  0.00     0.008 C 
ENDBRANCH  12  17
ENDBRANCH  11  12
ENDBRANCH   1  11
TORSDOF 1
ENDMDL
MODEL 2
REMARK VINA RESULT:    -3.256      2.376      4.576
REMARK INTER + INTRA:          -5.226
REMARK INTER:                  -5.295
REMARK INTRA:                   0.069
REMARK UNBOUND:                -0.257
REMARK SMILES CC1=CCC[C@H](C)C(=O)C[C@@H](C(C)C)C(=O)C1
REMARK SMILES IDX 8 1 9 2 6 3 7 4 5 5 4 6 3 7 2 8 1 9 10 11 11 12 15 13 16 14
REMARK SMILES IDX 17 15 12 17 13 18 14 19
REMARK H PARENT
REMARK Flexibility Score: 70.00
ROOT
ATOM      1  C   UNL     1      47.643  57.798  26.951  1.00  0.00     0.136 C 
ATOM      2  O   UNL     1      48.147  58.888  26.722  1.00  0.00    -0.299 OA
ENDROOT
BRANCH   1   3
ATOM      3  C   UNL     1      48.345  56.531  26.505  1.00  0.00     0.053 C 
ATOM      4  C   UNL     1      47.398  55.340  26.687  1.00  0.00     0.016 C 
BRANCH   3   5
ATOM      5  C   UNL     1      48.840  56.601  25.041  1.00  0.00     0.015 C 
BRANCH   5   6
ATOM      6  C   UNL     1      47.712  56.488  23.999  1.00  0.00     0.028 C 
BRANCH   6   7
ATOM      7  C   UNL     1      47.437  57.816  23.333  1.00  0.00    -0.028 C 
ATOM      8  C   UNL     1      46.262  58.483  23.366  1.00  0.00    -0.070 CG0
ATOM      9  C   UNL     1      46.178  59.804  22.643  1.00  0.00     0.039 C 
ATOM     10  G   UNL     1      45.035  57.961  24.088  1.00  0.00     0.000 G0
ENDBRANCH   6   7
ENDBRANCH   5   6
ENDBRANCH   3   5
ENDBRANCH   1   3
BRANCH   1  11
ATOM     11  C   UNL     1      46.289  57.736  27.617  1.00  0.00     0.087 C 
BRANCH  11  12
ATOM     12  C   UNL     1      45.185  57.284  26.636  1.00  0.00     0.066 C 
BRANCH  12  13
ATOM     13  C   UNL     1      44.968  58.327  25.549  1.00  0.00     0.140 C 
ATOM     14  O   UNL     1      44.740  59.487  25.859  1.00  0.00    -0.299 OA
BRANCH  13  15
ATOM     15  C   UNL     1      45.009  57.961  24.086  1.00  0.00     0.106 CG0
ATOM     16  G   UNL     1      46.245  58.498  23.391  1.00  0.00     0.000 G0
ENDBRANCH  13  15
ENDBRANCH  12  13
BRANCH  12  17
ATOM     17  C   UNL     1      43.868  56.891  27.373  1.00  0.00    -0.006 C 
ATOM     18  C   UNL     1      43.967  57.170  28.880  1.00  0.00     0.008 C 
ATOM     19  C   UNL     1      43.418  55.439  27.136  1.00  0.00     0.008 C 
ENDBRANCH  12  17
ENDBRANCH  11  12
ENDBRANCH   1  11
TORSDOF 1
ENDMDL
MODEL 3
REMARK VINA RESULT:    -3.189      2.112      3.270
REMARK INTER + INTRA:          -5.124
REMARK INTER:                  -5.140
REMARK INTRA:                   0.016
REMARK UNBOUND:                -0.257
REMARK SMILES CC1=CCC[C@H](C)C(=O)C[C@@H](C(C)C)C(=O)C1
REMARK SMILES IDX 8 1 9 2 6 3 7 4 5 5 4 6 3 7 2 8 1 9 10 11 11 12 15 13 16 14
REMARK SMILES IDX 17 15 12 17 13 18 14 19
REMARK H PARENT
REMARK Flexibility Score: 70.00
ROOT
ATOM      1  C   UNL     1      44.492  58.476  26.694  1.00  0.00     0.136 C 
ATOM      2  O   UNL     1      44.608  59.588  26.202  1.00  0.00    -0.299 OA
ENDROOT
BRANCH   1   3
ATOM      3  C   UNL     1      45.137  58.168  28.031  1.00  0.00     0.053 C 
ATOM      4  C   UNL     1      44.233  57.213  28.818  1.00  0.00     0.016 C 
BRANCH   3   5
ATOM      5  C   UNL     1      46.555  57.567  27.889  1.00  0.00     0.015 C 
BRANCH   5   6
ATOM      6  C   UNL     1      47.456  58.328  26.900  1.00  0.00     0.028 C 
BRANCH   6   7
ATOM      7  C   UNL     1      48.175  57.383  25.966  1.00  0.00    -0.028 C 
ATOM      8  C   UNL     1      47.766  57.043  24.723  1.00  0.00    -0.070 CG0
ATOM      9  C   UNL     1      48.623  56.084  23.934  1.00  0.00     0.039 C 
ATOM     10  G   UNL     1      46.492  57.576  24.097  1.00  0.00     0.000 G0
ENDBRANCH   6   7
ENDBRANCH   5   6
ENDBRANCH   3   5
ENDBRANCH   1   3
BRANCH   1  11
ATOM     11  C   UNL     1      43.760  57.401  25.925  1.00  0.00     0.087 C 
BRANCH  11  12
ATOM     12  C   UNL     1      44.705  56.259  25.490  1.00  0.00     0.066 C 
BRANCH  12  13
ATOM     13  C   UNL     1      45.373  56.587  24.163  1.00  0.00     0.140 C 
ATOM     14  O   UNL     1      44.993  56.035  23.140  1.00  0.00    -0.299 OA
BRANCH  13  15
ATOM     15  C   UNL     1      46.511  57.574  24.075  1.00  0.00     0.106 CG0
ATOM     16  G   UNL     1      47.780  57.051  24.721  1.00  0.00     0.000 G0
ENDBRANCH  13  15
ENDBRANCH  12  13
BRANCH  12  17
ATOM     17  C   UNL     1      43.990  54.873  25.484  1.00  0.00    -0.006 C 
ATOM     18  C   UNL     1      42.510  55.007  25.871  1.00  0.00     0.008 C 
ATOM     19  C   UNL     1      44.668  53.807  26.363  1.00  0.00     0.008 C 
ENDBRANCH  12  17
ENDBRANCH  11  12
ENDBRANCH   1  11
TORSDOF 1
ENDMDL
MODEL 4
REMARK VINA RESULT:    -3.127      2.132      4.746
REMARK INTER + INTRA:          -5.029
REMARK INTER:                  -5.207
REMARK INTRA:                   0.178
REMARK UNBOUND:                -0.257
REMARK SMILES CC1=CCC[C@H](C)C(=O)C[C@@H](C(C)C)C(=O)C1
REMARK SMILES IDX 8 1 9 2 6 3 7 4 5 5 4 6 3 7 2 8 1 9 10 11 11 12 15 13 16 14
REMARK SMILES IDX 17 15 12 17 13 18 14 19
REMARK H PARENT
REMARK Flexibility Score: 70.00
ROOT
ATOM      1  C   UNL     1      45.549  58.698  25.595  1.00  0.00     0.136 C 
ATOM      2  O   UNL     1      45.435  59.107  24.449  1.00  0.00    -0.299 OA
ENDROOT
BRANCH   1   3
ATOM      3  C   UNL     1      46.916  58.322  26.132  1.00  0.00     0.053 C 
ATOM      4  C   UNL     1      46.967  58.625  27.633  1.00  0.00     0.016 C 
BRANCH   3   5
ATOM      5  C   UNL     1      47.276  56.840  25.874  1.00  0.00     0.015 C 
BRANCH   5   6
ATOM      6  C   UNL     1      46.850  56.330  24.485  1.00  0.00     0.028 C 
BRANCH   6   7
ATOM      7  C   UNL     1      46.081  55.034  24.582  1.00  0.00    -0.028 C 
ATOM      8  C   UNL     1      44.750  54.893  24.392  1.00  0.00    -0.070 CG0
ATOM      9  C   UNL     1      44.158  53.512  24.526  1.00  0.00     0.039 C 
ATOM     10  G   UNL     1      43.835  56.055  24.058  1.00  0.00     0.000 G0
ENDBRANCH   6   7
ENDBRANCH   5   6
ENDBRANCH   3   5
ENDBRANCH   1   3
BRANCH   1  11
ATOM     11  C   UNL     1      44.311  58.509  26.438  1.00  0.00     0.087 C 
BRANCH  11  12
ATOM     12  C   UNL     1      43.884  57.026  26.511  1.00  0.00     0.066 C 
BRANCH  12  13
ATOM     13  C   UNL     1      43.115  56.624  25.262  1.00  0.00     0.140 C 
ATOM     14  O   UNL     1      41.899  56.749  25.231  1.00  0.00    -0.299 OA
BRANCH  13  15
ATOM     15  C   UNL     1      43.817  56.055  24.053  1.00  0.00     0.106 CG0
ATOM     16  G   UNL     1      44.724  54.893  24.406  1.00  0.00     0.000 G0
ENDBRANCH  13  15
ENDBRANCH  12  13
BRANCH  12  17
ATOM     17  C   UNL     1      43.115  56.700  27.828  1.00  0.00    -0.006 C 
ATOM     18  C   UNL     1      43.916  57.133  29.065  1.00  0.00     0.008 C 
ATOM     19  C   UNL     1      42.693  55.226  27.966  1.00  0.00     0.008 C 
ENDBRANCH  12  17
ENDBRANCH  11  12
ENDBRANCH   1  11
TORSDOF 1
ENDMDL
MODEL 5
REMARK VINA RESULT:    -3.080      2.081      3.780
REMARK INTER + INTRA:          -4.957
REMARK INTER:                  -4.680
REMARK INTRA:                  -0.276
REMARK UNBOUND:                -0.257
REMARK SMILES CC1=CCC[C@H](C)C(=O)C[C@@H](C(C)C)C(=O)C1
REMARK SMILES IDX 8 1 9 2 6 3 7 4 5 5 4 6 3 7 2 8 1 9 10 11 11 12 15 13 16 14
REMARK SMILES IDX 17 15 12 17 13 18 14 19
REMARK H PARENT
REMARK Flexibility Score: 70.00
ROOT
ATOM      1  C   UNL     1      46.445  57.133  27.206  1.00  0.00     0.136 C 
ATOM      2  O   UNL     1      47.589  57.535  27.055  1.00  0.00    -0.299 OA
ENDROOT
BRANCH   1   3
ATOM      3  C   UNL     1      45.433  57.988  27.943  1.00  0.00     0.053 C 
ATOM      4  C   UNL     1      44.623  58.798  26.926  1.00  0.00     0.016 C 
BRANCH   3   5
ATOM      5  C   UNL     1      44.486  57.158  28.840  1.00  0.00     0.015 C 
BRANCH   5   6
ATOM      6  C   UNL     1      43.029  57.126  28.343  1.00  0.00     0.028 C 
BRANCH   6   7
ATOM      7  C   UNL     1      42.550  55.710  28.121  1.00  0.00    -0.028 C 
ATOM      8  C   UNL     1      42.529  55.065  26.932  1.00  0.00    -0.070 CG0
ATOM      9  C   UNL     1      42.019  53.646  26.907  1.00  0.00     0.039 C 
ATOM     10  G   UNL     1      42.987  55.705  25.637  1.00  0.00     0.000 G0
ENDBRANCH   6   7
ENDBRANCH   5   6
ENDBRANCH   3   5
ENDBRANCH   1   3
BRANCH   1  11
ATOM     11  C   UNL     1      46.075  55.755  26.711  1.00  0.00     0.087 C 
BRANCH  11  12
ATOM     12  C   UNL     1      45.607  55.778  25.239  1.00  0.00     0.066 C 
BRANCH  12  13
ATOM     13  C   UNL     1      44.262  55.083  25.090  1.00  0.00     0.140 C 
ATOM     14  O   UNL     1      44.194  54.010  24.509  1.00  0.00    -0.299 OA
BRANCH  13  15
ATOM     15  C   UNL     1      42.993  55.697  25.631  1.00  0.00     0.106 CG0
ATOM     16  G   UNL     1      42.547  55.052  26.928  1.00  0.00     0.000 G0
ENDBRANCH  13  15
ENDBRANCH  12  13
BRANCH  12  17
ATOM     17  C   UNL     1      46.691  55.217  24.267  1.00  0.00    -0.006 C 
ATOM     18  C   UNL     1      47.732  54.374  25.019  1.00  0.00     0.008 C 
ATOM     19  C   UNL     1      47.397  56.290  23.419  1.00  0.00     0.008 C 
ENDBRANCH  12  17
ENDBRANCH  11  12
ENDBRANCH   1  11
TORSDOF 1
ENDMDL
MODEL 6
REMARK VINA RESULT:    -3.030      2.273      4.167
REMARK INTER + INTRA:          -4.880
REMARK INTER:                  -4.581
REMARK INTRA:                  -0.300
REMARK UNBOUND:                -0.257
REMARK SMILES CC1=CCC[C@H](C)C(=O)C[C@@H](C(C)C)C(=O)C1
REMARK SMILES IDX 8 1 9 2 6 3 7 4 5 5 4 6 3 7 2 8 1 9 10 11 11 12 15 13 16 14
REMARK SMILES IDX 17 15 12 17 13 18 14 19
REMARK H PARENT
REMARK Flexibility Score: 70.00
ROOT
ATOM      1  C   UNL     1      45.492  57.661  27.703  1.00  0.00     0.136 C 
ATOM      2  O   UNL     1      45.297  58.840  27.961  1.00  0.00    -0.299 OA
ENDROOT
BRANCH   1   3
ATOM      3  C   UNL     1      44.335  56.682  27.716  1.00  0.00     0.053 C 
ATOM      4  C   UNL     1      43.522  56.883  29.000  1.00  0.00     0.016 C 
BRANCH   3   5
ATOM      5  C   UNL     1      43.419  56.817  26.477  1.00  0.00     0.015 C 
BRANCH   5   6
ATOM      6  C   UNL     1      43.728  55.800  25.364  1.00  0.00     0.028 C 
BRANCH   6   7
ATOM      7  C   UNL     1      44.211  54.486  25.931  1.00  0.00    -0.028 C 
ATOM      8  C   UNL     1      45.435  53.946  25.732  1.00  0.00    -0.070 CG0
ATOM      9  C   UNL     1      45.739  52.622  26.388  1.00  0.00     0.039 C 
ATOM     10  G   UNL     1      46.502  54.608  24.882  1.00  0.00     0.000 G0
ENDBRANCH   6   7
ENDBRANCH   5   6
ENDBRANCH   3   5
ENDBRANCH   1   3
BRANCH   1  11
ATOM     11  C   UNL     1      46.901  57.187  27.439  1.00  0.00     0.087 C 
BRANCH  11  12
ATOM     12  C   UNL     1      47.154  56.941  25.935  1.00  0.00     0.066 C 
BRANCH  12  13
ATOM     13  C   UNL     1      47.460  55.474  25.672  1.00  0.00     0.140 C 
ATOM     14  O   UNL     1      48.494  54.983  26.103  1.00  0.00    -0.299 OA
BRANCH  13  15
ATOM     15  C   UNL     1      46.521  54.603  24.873  1.00  0.00     0.106 CG0
ATOM     16  G   UNL     1      45.451  53.964  25.735  1.00  0.00     0.000 G0
ENDBRANCH  13  15
ENDBRANCH  12  13
BRANCH  12  17
ATOM     17  C   UNL     1      48.238  57.900  25.355  1.00  0.00    -0.006 C 
ATOM     18  C   UNL     1      47.862  59.372  25.586  1.00  0.00     0.008 C 
ATOM     19  C   UNL     1      48.561  57.667  23.869  1.00  0.00     0.008 C 
ENDBRANCH  12  17
ENDBRANCH  11  12
ENDBRANCH   1  11
TORSDOF 1
ENDMDL
MODEL 7
REMARK VINA RESULT:    -3.024      1.921      3.310
REMARK INTER + INTRA:          -4.871
REMARK INTER:                  -5.017
REMARK INTRA:                   0.146
REMARK UNBOUND:                -0.257
REMARK SMILES CC1=CCC[C@H](C)C(=O)C[C@@H](C(C)C)C(=O)C1
REMARK SMILES IDX 8 1 9 2 6 3 7 4 5 5 4 6 3 7 2 8 1 9 10 11 11 12 15 13 16 14
REMARK SMILES IDX 17 15 12 17 13 18 14 19
REMARK H PARENT
REMARK Flexibility Score: 70.00
ROOT
ATOM      1  C   UNL     1      44.474  58.116  26.391  1.00  0.00     0.136 C 
ATOM      2  O   UNL     1      44.837  58.732  25.400  1.00  0.00    -0.299 OA
ENDROOT
BRANCH   1   3
ATOM      3  C   UNL     1      45.050  58.461  27.750  1.00  0.00     0.053 C 
ATOM      4  C   UNL     1      44.477  57.500  28.798  1.00  0.00     0.016 C 
BRANCH   3   5
ATOM      5  C   UNL     1      46.596  58.419  27.776  1.00  0.00     0.015 C 
BRANCH   5   6
ATOM      6  C   UNL     1      47.189  57.087  27.281  1.00  0.00     0.028 C 
BRANCH   6   7
ATOM      7  C   UNL     1      47.738  57.211  25.879  1.00  0.00    -0.028 C 
ATOM      8  C   UNL     1      47.456  56.383  24.848  1.00  0.00    -0.070 CG0
ATOM      9  C   UNL     1      48.097  56.671  23.514  1.00  0.00     0.039 C 
ATOM     10  G   UNL     1      46.534  55.186  24.978  1.00  0.00     0.000 G0
ENDBRANCH   6   7
ENDBRANCH   5   6
ENDBRANCH   3   5
ENDBRANCH   1   3
BRANCH   1  11
ATOM     11  C   UNL     1      43.504  56.970  26.233  1.00  0.00     0.087 C 
BRANCH  11  12
ATOM     12  C   UNL     1      44.228  55.607  26.160  1.00  0.00     0.066 C 
BRANCH  12  13
ATOM     13  C   UNL     1      45.084  55.517  24.906  1.00  0.00     0.140 C 
ATOM     14  O   UNL     1      44.578  55.714  23.810  1.00  0.00    -0.299 OA
BRANCH  13  15
ATOM     15  C   UNL     1      46.552  55.172  24.975  1.00  0.00     0.106 CG0
ATOM     16  G   UNL     1      47.439  56.393  24.837  1.00  0.00     0.000 G0
ENDBRANCH  13  15
ENDBRANCH  12  13
BRANCH  12  17
ATOM     17  C   UNL     1      43.242  54.408  26.310  1.00  0.00    -0.006 C 
ATOM     18  C   UNL     1      42.085  54.752  27.259  1.00  0.00     0.008 C 
ATOM     19  C   UNL     1      43.909  53.092  26.750  1.00  0.00     0.008 C 
ENDBRANCH  12  17
ENDBRANCH  11  12
ENDBRANCH   1  11
TORSDOF 1
ENDMDL
MODEL 8
REMARK VINA RESULT:    -2.962      2.555      3.973
REMARK INTER + INTRA:          -4.776
REMARK INTER:                  -4.712
REMARK INTRA:                  -0.064
REMARK UNBOUND:                -0.257
REMARK SMILES CC1=CCC[C@H](C)C(=O)C[C@@H](C(C)C)C(=O)C1
REMARK SMILES IDX 8 1 9 2 6 3 7 4 5 5 4 6 3 7 2 8 1 9 10 11 11 12 15 13 16 14
REMARK SMILES IDX 17 15 12 17 13 18 14 19
REMARK H PARENT
REMARK Flexibility Score: 70.00
ROOT
ATOM      1  C   UNL     1      41.291  55.618  26.837  1.00  0.00     0.136 C 
ATOM      2  O   UNL     1      40.502  56.261  27.512  1.00  0.00    -0.299 OA
ENDROOT
BRANCH   1   3
ATOM      3  C   UNL     1      40.866  55.076  25.487  1.00  0.00     0.053 C 
ATOM      4  C   UNL     1      39.489  54.416  25.621  1.00  0.00     0.016 C 
BRANCH   3   5
ATOM      5  C   UNL     1      40.833  56.162  24.387  1.00  0.00     0.015 C 
BRANCH   5   6
ATOM      6  C   UNL     1      41.738  55.851  23.180  1.00  0.00     0.028 C 
BRANCH   6   7
ATOM      7  C   UNL     1      42.956  56.744  23.157  1.00  0.00    -0.028 C 
ATOM      8  C   UNL     1      44.167  56.433  23.673  1.00  0.00    -0.070 CG0
ATOM      9  C   UNL     1      45.271  57.454  23.550  1.00  0.00     0.039 C 
ATOM     10  G   UNL     1      44.458  55.117  24.367  1.00  0.00     0.000 G0
ENDBRANCH   6   7
ENDBRANCH   5   6
ENDBRANCH   3   5
ENDBRANCH   1   3
BRANCH   1  11
ATOM     11  C   UNL     1      42.662  55.316  27.392  1.00  0.00     0.087 C 
BRANCH  11  12
ATOM     12  C   UNL     1      43.764  56.137  26.686  1.00  0.00     0.066 C 
BRANCH  12  13
ATOM     13  C   UNL     1      44.655  55.235  25.845  1.00  0.00     0.140 C 
ATOM     14  O   UNL     1      45.555  54.602  26.379  1.00  0.00    -0.299 OA
BRANCH  13  15
ATOM     15  C   UNL     1      44.466  55.110  24.353  1.00  0.00     0.106 CG0
ATOM     16  G   UNL     1      44.168  56.442  23.695  1.00  0.00     0.000 G0
ENDBRANCH  13  15
ENDBRANCH  12  13
BRANCH  12  17
ATOM     17  C   UNL     1      44.569  57.024  27.685  1.00  0.00    -0.006 C 
ATOM     18  C   UNL     1      43.864  57.111  29.047  1.00  0.00     0.008 C 
ATOM     19  C   UNL     1      44.883  58.438  27.165  1.00  0.00     0.008 C 
ENDBRANCH  12  17
ENDBRANCH  11  12
ENDBRANCH   1  11
TORSDOF 1
ENDMDL
MODEL 9
REMARK VINA RESULT:    -2.912      1.890      2.660
REMARK INTER + INTRA:          -4.701
REMARK INTER:                  -4.537
REMARK INTRA:                  -0.164
REMARK UNBOUND:                -0.257
REMARK SMILES CC1=CCC[C@H](C)C(=O)C[C@@H](C(C)C)C(=O)C1
REMARK SMILES IDX 8 1 9 2 6 3 7 4 5 5 4 6 3 7 2 8 1 9 10 11 11 12 15 13 16 14
REMARK SMILES IDX 17 15 12 17 13 18 14 19
REMARK H PARENT
REMARK Flexibility Score: 70.00
ROOT
ATOM      1  C   UNL     1      43.469  56.462  26.993  1.00  0.00     0.136 C 
ATOM      2  O   UNL     1      42.895  55.477  27.433  1.00  0.00    -0.299 OA
ENDROOT
BRANCH   1   3
ATOM      3  C   UNL     1      44.251  57.362  27.928  1.00  0.00     0.053 C 
ATOM      4  C   UNL     1      43.872  57.035  29.376  1.00  0.00     0.016 C 
BRANCH   3   5
ATOM      5  C   UNL     1      45.781  57.242  27.736  1.00  0.00     0.015 C 
BRANCH   5   6
ATOM      6  C   UNL     1      46.461  58.561  27.323  1.00  0.00     0.028 C 
BRANCH   6   7
ATOM      7  C   UNL     1      47.428  58.352  26.182  1.00  0.00    -0.028 C 
ATOM      8  C   UNL     1      47.104  58.344  24.869  1.00  0.00    -0.070 CG0
ATOM      9  C   UNL     1      48.212  58.125  23.869  1.00  0.00     0.039 C 
ATOM     10  G   UNL     1      45.687  58.538  24.365  1.00  0.00     0.000 G0
ENDBRANCH   6   7
ENDBRANCH   5   6
ENDBRANCH   3   5
ENDBRANCH   1   3
BRANCH   1  11
ATOM     11  C   UNL     1      43.330  56.804  25.528  1.00  0.00     0.087 C 
BRANCH  11  12
ATOM     12  C   UNL     1      44.473  56.196  24.685  1.00  0.00     0.066 C 
BRANCH  12  13
ATOM     13  C   UNL     1      45.104  57.253  23.790  1.00  0.00     0.140 C 
ATOM     14  O   UNL     1      45.159  57.070  22.582  1.00  0.00    -0.299 OA
BRANCH  13  15
ATOM     15  C   UNL     1      45.682  58.525  24.359  1.00  0.00     0.106 CG0
ATOM     16  G   UNL     1      47.096  58.337  24.874  1.00  0.00     0.000 G0
ENDBRANCH  13  15
ENDBRANCH  12  13
BRANCH  12  17
ATOM     17  C   UNL     1      44.015  54.929  23.898  1.00  0.00    -0.006 C 
ATOM     18  C   UNL     1      42.484  54.798  23.895  1.00  0.00     0.008 C 
ATOM     19  C   UNL     1      44.653  53.616  24.385  1.00  0.00     0.008 C 
ENDBRANCH  12  17
ENDBRANCH  11  12
ENDBRANCH   1  11
TORSDOF 1
ENDMDL
