MODEL 1
REMARK VINA RESULT:    -3.626      0.000      0.000
REMARK INTER + INTRA:          -5.308
REMARK INTER:                  -4.898
REMARK INTRA:                  -0.410
REMARK UNBOUND:                -0.410
REMARK SMILES CCCCCCCC(=O)[O-]
REMARK SMILES IDX 5 1 6 2 7 3 8 4 9 5 10 6 4 7 3 8 2 9 1 10
REMARK H PARENT
REMARK Flexibility Score: inf
ROOT
ATOM      1  C   UNL     1      26.369   3.612  41.480  1.00  0.00     0.000 C 
ENDROOT
BRANCH   1   2
ATOM      2  C   UNL     1      26.698   3.071  40.081  1.00  0.00     0.006 C 
BRANCH   2   3
ATOM      3  C   UNL     1      26.174   1.645  39.871  1.00  0.00     0.053 C 
BRANCH   3   4
ATOM      4  C   UNL     1      25.409   1.515  38.590  1.00  0.00     0.041 C 
ATOM      5  O   UNL     1      24.578   2.400  38.256  1.00  0.00    -0.550 OA
ATOM      6  O   UNL     1      25.587   0.399  37.781  1.00  0.00    -0.550 OA
ENDBRANCH   3   4
ENDBRANCH   2   3
ENDBRANCH   1   2
BRANCH   1   7
ATOM      7  C   UNL     1      25.552   2.594  42.285  1.00  0.00     0.000 C 
BRANCH   7   8
ATOM      8  C   UNL     1      26.324   2.128  43.527  1.00  0.00    -0.000 C 
BRANCH   8   9
ATOM      9  C   UNL     1      25.947   0.703  43.957  1.00  0.00    -0.003 C 
ATOM     10  C   UNL     1      26.550  -0.369  43.048  1.00  0.00     0.004 C 
ENDBRANCH   8   9
ENDBRANCH   7   8
ENDBRANCH   1   7
TORSDOF 6
ENDMDL
MODEL 2
REMARK VINA RESULT:    -3.530      6.391      8.453
REMARK INTER + INTRA:          -5.178
REMARK INTER:                  -4.677
REMARK INTRA:                  -0.502
REMARK UNBOUND:                -0.410
REMARK SMILES CCCCCCCC(=O)[O-]
REMARK SMILES IDX 5 1 6 2 7 3 8 4 9 5 10 6 4 7 3 8 2 9 1 10
REMARK H PARENT
REMARK Flexibility Score: inf
ROOT
ATOM      1  C   UNL     1      22.225  -4.254  36.303  1.00  0.00     0.000 C 
ENDROOT
BRANCH   1   2
ATOM      2  C   UNL     1      22.948  -2.959  36.702  1.00  0.00     0.006 C 
BRANCH   2   3
ATOM      3  C   UNL     1      24.153  -2.665  35.799  1.00  0.00     0.053 C 
BRANCH   3   4
ATOM      4  C   UNL     1      25.291  -2.064  36.566  1.00  0.00     0.041 C 
ATOM      5  O   UNL     1      25.189  -0.903  37.044  1.00  0.00    -0.550 OA
ATOM      6  O   UNL     1      26.475  -2.772  36.725  1.00  0.00    -0.550 OA
ENDBRANCH   3   4
ENDBRANCH   2   3
ENDBRANCH   1   2
BRANCH   1   7
ATOM      7  C   UNL     1      22.652  -4.714  34.903  1.00  0.00     0.000 C 
BRANCH   7   8
ATOM      8  C   UNL     1      23.224  -6.138  34.942  1.00  0.00    -0.000 C 
BRANCH   8   9
ATOM      9  C   UNL     1      24.056  -6.405  36.205  1.00  0.00    -0.003 C 
ATOM     10  C   UNL     1      25.546  -6.131  36.001  1.00  0.00     0.004 C 
ENDBRANCH   8   9
ENDBRANCH   7   8
ENDBRANCH   1   7
TORSDOF 6
ENDMDL
MODEL 3
REMARK VINA RESULT:    -3.494      7.228      8.960
REMARK INTER + INTRA:          -5.130
REMARK INTER:                  -4.598
REMARK INTRA:                  -0.532
REMARK UNBOUND:                -0.410
REMARK SMILES CCCCCCCC(=O)[O-]
REMARK SMILES IDX 5 1 6 2 7 3 8 4 9 5 10 6 4 7 3 8 2 9 1 10
REMARK H PARENT
REMARK Flexibility Score: inf
ROOT
ATOM      1  C   UNL     1      22.956  -2.959  36.635  1.00  0.00     0.000 C 
ENDROOT
BRANCH   1   2
ATOM      2  C   UNL     1      24.136  -2.745  35.676  1.00  0.00     0.006 C 
BRANCH   2   3
ATOM      3  C   UNL     1      25.491  -2.833  36.392  1.00  0.00     0.053 C 
BRANCH   3   4
ATOM      4  C   UNL     1      26.261  -4.049  35.978  1.00  0.00     0.041 C 
ATOM      5  O   UNL     1      25.921  -5.187  36.398  1.00  0.00    -0.550 OA
ATOM      6  O   UNL     1      27.376  -3.923  35.159  1.00  0.00    -0.550 OA
ENDBRANCH   3   4
ENDBRANCH   2   3
ENDBRANCH   1   2
BRANCH   1   7
ATOM      7  C   UNL     1      22.308  -4.331  36.413  1.00  0.00     0.000 C 
BRANCH   7   8
ATOM      8  C   UNL     1      22.548  -4.826  34.980  1.00  0.00    -0.000 C 
BRANCH   8   9
ATOM      9  C   UNL     1      22.997  -6.294  34.929  1.00  0.00    -0.003 C 
ATOM     10  C   UNL     1      23.820  -6.619  33.683  1.00  0.00     0.004 C 
ENDBRANCH   8   9
ENDBRANCH   7   8
ENDBRANCH   1   7
TORSDOF 6
ENDMDL
MODEL 4
REMARK VINA RESULT:    -3.459      3.128      4.570
REMARK INTER + INTRA:          -5.082
REMARK INTER:                  -4.695
REMARK INTRA:                  -0.387
REMARK UNBOUND:                -0.410
REMARK SMILES CCCCCCCC(=O)[O-]
REMARK SMILES IDX 5 1 6 2 7 3 8 4 9 5 10 6 4 7 3 8 2 9 1 10
REMARK H PARENT
REMARK Flexibility Score: inf
ROOT
ATOM      1  C   UNL     1      26.355   3.317  40.641  1.00  0.00     0.000 C 
ENDROOT
BRANCH   1   2
ATOM      2  C   UNL     1      26.329   3.337  42.177  1.00  0.00     0.006 C 
BRANCH   2   3
ATOM      3  C   UNL     1      25.575   2.136  42.761  1.00  0.00     0.053 C 
BRANCH   3   4
ATOM      4  C   UNL     1      26.369   1.444  43.826  1.00  0.00     0.041 C 
ATOM      5  O   UNL     1      26.651   0.221  43.712  1.00  0.00    -0.550 OA
ATOM      6  O   UNL     1      26.769   2.139  44.960  1.00  0.00    -0.550 OA
ENDBRANCH   3   4
ENDBRANCH   2   3
ENDBRANCH   1   2
BRANCH   1   7
ATOM      7  C   UNL     1      25.380   2.270  40.088  1.00  0.00     0.000 C 
BRANCH   7   8
ATOM      8  C   UNL     1      25.928   1.632  38.804  1.00  0.00    -0.000 C 
BRANCH   8   9
ATOM      9  C   UNL     1      27.445   1.398  38.862  1.00  0.00    -0.003 C 
ATOM     10  C   UNL     1      27.810   0.015  39.399  1.00  0.00     0.004 C 
ENDBRANCH   8   9
ENDBRANCH   7   8
ENDBRANCH   1   7
TORSDOF 6
ENDMDL
MODEL 5
REMARK VINA RESULT:    -3.441      7.310      9.256
REMARK INTER + INTRA:          -5.058
REMARK INTER:                  -4.448
REMARK INTRA:                  -0.609
REMARK UNBOUND:                -0.410
REMARK SMILES CCCCCCCC(=O)[O-]
REMARK SMILES IDX 5 1 6 2 7 3 8 4 9 5 10 6 4 7 3 8 2 9 1 10
REMARK H PARENT
REMARK Flexibility Score: inf
ROOT
ATOM      1  C   UNL     1      22.608  -4.710  34.940  1.00  0.00     0.000 C 
ENDROOT
BRANCH   1   2
ATOM      2  C   UNL     1      22.868  -6.223  34.884  1.00  0.00     0.006 C 
BRANCH   2   3
ATOM      3  C   UNL     1      24.200  -6.559  34.200  1.00  0.00     0.053 C 
BRANCH   3   4
ATOM      4  C   UNL     1      25.361  -5.925  34.903  1.00  0.00     0.041 C 
ATOM      5  O   UNL     1      26.212  -5.263  34.251  1.00  0.00    -0.550 OA
ATOM      6  O   UNL     1      25.524  -6.093  36.273  1.00  0.00    -0.550 OA
ENDBRANCH   3   4
ENDBRANCH   2   3
ENDBRANCH   1   2
BRANCH   1   7
ATOM      7  C   UNL     1      22.223  -4.271  36.359  1.00  0.00     0.000 C 
BRANCH   7   8
ATOM      8  C   UNL     1      22.900  -2.943  36.725  1.00  0.00    -0.000 C 
BRANCH   8   9
ATOM      9  C   UNL     1      24.034  -2.571  35.758  1.00  0.00    -0.003 C 
ATOM     10  C   UNL     1      25.405  -2.548  36.434  1.00  0.00     0.004 C 
ENDBRANCH   8   9
ENDBRANCH   7   8
ENDBRANCH   1   7
TORSDOF 6
ENDMDL
MODEL 6
REMARK VINA RESULT:    -3.407      1.460      2.561
REMARK INTER + INTRA:          -5.012
REMARK INTER:                  -4.752
REMARK INTRA:                  -0.260
REMARK UNBOUND:                -0.410
REMARK SMILES CCCCCCCC(=O)[O-]
REMARK SMILES IDX 5 1 6 2 7 3 8 4 9 5 10 6 4 7 3 8 2 9 1 10
REMARK H PARENT
REMARK Flexibility Score: inf
ROOT
ATOM      1  C   UNL     1      25.486   1.644  43.569  1.00  0.00     0.000 C 
ENDROOT
BRANCH   1   2
ATOM      2  C   UNL     1      26.054   2.586  42.497  1.00  0.00     0.006 C 
BRANCH   2   3
ATOM      3  C   UNL     1      25.059   2.836  41.357  1.00  0.00     0.053 C 
BRANCH   3   4
ATOM      4  C   UNL     1      25.670   2.570  40.015  1.00  0.00     0.041 C 
ATOM      5  O   UNL     1      26.854   2.929  39.777  1.00  0.00    -0.550 OA
ATOM      6  O   UNL     1      24.922   1.958  39.017  1.00  0.00    -0.550 OA
ENDBRANCH   3   4
ENDBRANCH   2   3
ENDBRANCH   1   2
BRANCH   1   7
ATOM      7  C   UNL     1      26.486   0.533  43.912  1.00  0.00     0.000 C 
BRANCH   7   8
ATOM      8  C   UNL     1      26.735  -0.375  42.699  1.00  0.00    -0.000 C 
BRANCH   8   9
ATOM      9  C   UNL     1      27.734  -1.502  43.001  1.00  0.00    -0.003 C 
ATOM     10  C   UNL     1      28.090  -1.597  44.484  1.00  0.00     0.004 C 
ENDBRANCH   8   9
ENDBRANCH   7   8
ENDBRANCH   1   7
TORSDOF 6
ENDMDL
MODEL 7
REMARK VINA RESULT:    -3.350      3.216      4.850
REMARK INTER + INTRA:          -4.935
REMARK INTER:                  -4.572
REMARK INTRA:                  -0.363
REMARK UNBOUND:                -0.410
REMARK SMILES CCCCCCCC(=O)[O-]
REMARK SMILES IDX 5 1 6 2 7 3 8 4 9 5 10 6 4 7 3 8 2 9 1 10
REMARK H PARENT
REMARK Flexibility Score: inf
ROOT
ATOM      1  C   UNL     1      25.426   1.807  43.335  1.00  0.00     0.000 C 
ENDROOT
BRANCH   1   2
ATOM      2  C   UNL     1      26.428   0.787  43.897  1.00  0.00     0.006 C 
BRANCH   2   3
ATOM      3  C   UNL     1      26.415  -0.532  43.113  1.00  0.00     0.053 C 
BRANCH   3   4
ATOM      4  C   UNL     1      27.526  -1.443  43.538  1.00  0.00     0.041 C 
ATOM      5  O   UNL     1      27.843  -2.432  42.825  1.00  0.00    -0.550 OA
ATOM      6  O   UNL     1      28.190  -1.220  44.739  1.00  0.00    -0.550 OA
ENDBRANCH   3   4
ENDBRANCH   2   3
ENDBRANCH   1   2
BRANCH   1   7
ATOM      7  C   UNL     1      26.049   2.617  42.192  1.00  0.00     0.000 C 
BRANCH   7   8
ATOM      8  C   UNL     1      24.996   2.972  41.132  1.00  0.00    -0.000 C 
BRANCH   8   9
ATOM      9  C   UNL     1      25.263   2.290  39.782  1.00  0.00    -0.003 C 
ATOM     10  C   UNL     1      26.443   1.320  39.833  1.00  0.00     0.004 C 
ENDBRANCH   8   9
ENDBRANCH   7   8
ENDBRANCH   1   7
TORSDOF 6
ENDMDL
MODEL 8
REMARK VINA RESULT:    -3.262      6.326      8.555
REMARK INTER + INTRA:          -4.816
REMARK INTER:                  -4.347
REMARK INTRA:                  -0.469
REMARK UNBOUND:                -0.410
REMARK SMILES CCCCCCCC(=O)[O-]
REMARK SMILES IDX 5 1 6 2 7 3 8 4 9 5 10 6 4 7 3 8 2 9 1 10
REMARK H PARENT
REMARK Flexibility Score: inf
ROOT
ATOM      1  C   UNL     1      25.918  -4.847  34.731  1.00  0.00     0.000 C 
ENDROOT
BRANCH   1   2
ATOM      2  C   UNL     1      25.864  -4.356  36.186  1.00  0.00     0.006 C 
BRANCH   2   3
ATOM      3  C   UNL     1      26.404  -2.928  36.337  1.00  0.00     0.053 C 
BRANCH   3   4
ATOM      4  C   UNL     1      25.327  -1.964  36.731  1.00  0.00     0.041 C 
ATOM      5  O   UNL     1      24.115  -2.283  36.605  1.00  0.00    -0.550 OA
ATOM      6  O   UNL     1      25.660  -0.702  37.207  1.00  0.00    -0.550 OA
ENDBRANCH   3   4
ENDBRANCH   2   3
ENDBRANCH   1   2
BRANCH   1   7
ATOM      7  C   UNL     1      24.518  -4.860  34.104  1.00  0.00     0.000 C 
BRANCH   7   8
ATOM      8  C   UNL     1      23.541  -5.681  34.957  1.00  0.00    -0.000 C 
BRANCH   8   9
ATOM      9  C   UNL     1      22.272  -4.896  35.320  1.00  0.00    -0.003 C 
ATOM     10  C   UNL     1      21.879  -5.051  36.789  1.00  0.00     0.004 C 
ENDBRANCH   8   9
ENDBRANCH   7   8
ENDBRANCH   1   7
TORSDOF 6
ENDMDL
MODEL 9
REMARK VINA RESULT:    -3.190      7.545      9.271
REMARK INTER + INTRA:          -4.718
REMARK INTER:                  -4.241
REMARK INTRA:                  -0.477
REMARK UNBOUND:                -0.410
REMARK SMILES CCCCCCCC(=O)[O-]
REMARK SMILES IDX 5 1 6 2 7 3 8 4 9 5 10 6 4 7 3 8 2 9 1 10
REMARK H PARENT
REMARK Flexibility Score: inf
ROOT
ATOM      1  C   UNL     1      24.307  -6.696  35.483  1.00  0.00     0.000 C 
ENDROOT
BRANCH   1   2
ATOM      2  C   UNL     1      25.439  -5.742  35.075  1.00  0.00     0.006 C 
BRANCH   2   3
ATOM      3  C   UNL     1      26.085  -5.055  36.285  1.00  0.00     0.053 C 
BRANCH   3   4
ATOM      4  C   UNL     1      26.686  -3.733  35.920  1.00  0.00     0.041 C 
ATOM      5  O   UNL     1      27.732  -3.685  35.220  1.00  0.00    -0.550 OA
ATOM      6  O   UNL     1      26.112  -2.554  36.380  1.00  0.00    -0.550 OA
ENDBRANCH   3   4
ENDBRANCH   2   3
ENDBRANCH   1   2
BRANCH   1   7
ATOM      7  C   UNL     1      23.023  -6.393  34.700  1.00  0.00     0.000 C 
BRANCH   7   8
ATOM      8  C   UNL     1      22.592  -4.932  34.895  1.00  0.00    -0.000 C 
BRANCH   8   9
ATOM      9  C   UNL     1      22.140  -4.636  36.333  1.00  0.00    -0.003 C 
ATOM     10  C   UNL     1      22.537  -3.237  36.802  1.00  0.00     0.004 C 
ENDBRANCH   8   9
ENDBRANCH   7   8
ENDBRANCH   1   7
TORSDOF 6
ENDMDL
