MODEL 1
REMARK VINA RESULT:    -6.075      0.000      0.000
REMARK INTER + INTRA:          -7.492
REMARK INTER:                  -7.318
REMARK INTRA:                  -0.174
REMARK UNBOUND:                -0.174
REMARK SMILES O=c1c(O)c(-c2ccc(O)c(O)c2)oc2cc(O)cc(O)c12
REMARK SMILES IDX 5 1 3 2 2 3 1 4 22 5 20 6 19 7 17 8 16 9 15 10 14 11 6 12
REMARK SMILES IDX 7 13 8 14 9 15 13 16 11 17 10 18 12 20 4 22 21 24 18 26
REMARK H PARENT 10 19 12 21 4 23 21 25 18 27
REMARK Flexibility Score: inf
ROOT
ATOM      1  C   UNL     1      32.924 -65.313  -6.210  1.00  0.00     0.180 A 
ATOM      2  C   UNL     1      31.648 -65.523  -5.659  1.00  0.00     0.208 A 
ATOM      3  C   UNL     1      31.253 -66.831  -5.337  1.00  0.00     0.238 A 
ATOM      4  O   UNL     1      30.083 -67.020  -4.914  1.00  0.00    -0.285 OA
ATOM      5  C   UNL     1      32.157 -67.906  -5.517  1.00  0.00     0.111 A 
ATOM      6  C   UNL     1      31.879 -69.267  -5.183  1.00  0.00     0.134 A 
ATOM      7  C   UNL     1      32.811 -70.261  -5.505  1.00  0.00     0.093 A 
ATOM      8  C   UNL     1      34.036 -69.939  -6.088  1.00  0.00     0.123 A 
ATOM      9  C   UNL     1      34.341 -68.607  -6.368  1.00  0.00     0.094 A 
ATOM     10  C   UNL     1      33.416 -67.596  -6.095  1.00  0.00     0.146 A 
ATOM     11  O   UNL     1      33.738 -66.345  -6.398  1.00  0.00    -0.452 OA
ENDROOT
BRANCH   1  12
ATOM     12  C   UNL     1      33.407 -63.965  -6.588  1.00  0.00     0.025 A 
ATOM     13  C   UNL     1      34.447 -63.336  -5.882  1.00  0.00     0.016 A 
ATOM     14  C   UNL     1      34.869 -62.053  -6.242  1.00  0.00     0.051 A 
ATOM     15  C   UNL     1      34.254 -61.375  -7.299  1.00  0.00     0.157 A 
ATOM     16  C   UNL     1      32.777 -63.274  -7.635  1.00  0.00     0.062 A 
ATOM     17  C   UNL     1      33.200 -61.986  -7.998  1.00  0.00     0.158 A 
BRANCH  15  18
ATOM     18  O   UNL     1      34.700 -60.098  -7.636  1.00  0.00    -0.504 OA
ATOM     19  H   UNL     1      34.101 -59.423  -8.097  1.00  0.00     0.293 HD
ENDBRANCH  15  18
BRANCH  17  20
ATOM     20  O   UNL     1      32.577 -61.314  -9.048  1.00  0.00    -0.504 OA
ATOM     21  H   UNL     1      33.104 -60.742  -9.699  1.00  0.00     0.293 HD
ENDBRANCH  17  20
ENDBRANCH   1  12
BRANCH   2  22
ATOM     22  O   UNL     1      30.800 -64.439  -5.418  1.00  0.00    -0.502 OA
ATOM     23  H   UNL     1      29.792 -64.535  -5.382  1.00  0.00     0.293 HD
ENDBRANCH   2  22
BRANCH   6  24
ATOM     24  O   UNL     1      30.724 -69.689  -4.518  1.00  0.00    -0.507 OA
ATOM     25  H   UNL     1      30.403 -70.643  -4.465  1.00  0.00     0.293 HD
ENDBRANCH   6  24
BRANCH   8  26
ATOM     26  O   UNL     1      34.946 -70.952  -6.377  1.00  0.00    -0.508 OA
ATOM     27  H   UNL     1      35.939 -70.767  -6.455  1.00  0.00     0.293 HD
ENDBRANCH   8  26
TORSDOF 6
ENDMDL
MODEL 2
REMARK VINA RESULT:    -5.937     11.040     13.755
REMARK INTER + INTRA:          -7.326
REMARK INTER:                  -7.413
REMARK INTRA:                   0.087
REMARK UNBOUND:                -0.174
REMARK SMILES O=c1c(O)c(-c2ccc(O)c(O)c2)oc2cc(O)cc(O)c12
REMARK SMILES IDX 5 1 3 2 2 3 1 4 22 5 20 6 19 7 17 8 16 9 15 10 14 11 6 12
REMARK SMILES IDX 7 13 8 14 9 15 13 16 11 17 10 18 12 20 4 22 21 24 18 26
REMARK H PARENT 10 19 12 21 4 23 21 25 18 27
REMARK Flexibility Score: inf
ROOT
ATOM      1  C   UNL     1      29.529 -56.127 -12.421  1.00  0.00     0.180 A 
ATOM      2  C   UNL     1      28.383 -55.938 -11.631  1.00  0.00     0.208 A 
ATOM      3  C   UNL     1      28.249 -54.747 -10.899  1.00  0.00     0.238 A 
ATOM      4  O   UNL     1      27.257 -54.616 -10.137  1.00  0.00    -0.285 OA
ATOM      5  C   UNL     1      29.234 -53.736 -11.010  1.00  0.00     0.111 A 
ATOM      6  C   UNL     1      29.180 -52.471 -10.349  1.00  0.00     0.134 A 
ATOM      7  C   UNL     1      30.266 -51.592 -10.449  1.00  0.00     0.093 A 
ATOM      8  C   UNL     1      31.374 -51.902 -11.236  1.00  0.00     0.123 A 
ATOM      9  C   UNL     1      31.414 -53.112 -11.930  1.00  0.00     0.094 A 
ATOM     10  C   UNL     1      30.364 -54.027 -11.819  1.00  0.00     0.146 A 
ATOM     11  O   UNL     1      30.453 -55.175 -12.479  1.00  0.00    -0.452 OA
ENDROOT
BRANCH   1  12
ATOM     12  C   UNL     1      29.748 -57.361 -13.209  1.00  0.00     0.025 A 
ATOM     13  C   UNL     1      30.996 -58.008 -13.224  1.00  0.00     0.016 A 
ATOM     14  C   UNL     1      31.186 -59.158 -13.996  1.00  0.00     0.051 A 
ATOM     15  C   UNL     1      30.142 -59.670 -14.772  1.00  0.00     0.157 A 
ATOM     16  C   UNL     1      28.708 -57.865 -14.007  1.00  0.00     0.062 A 
ATOM     17  C   UNL     1      28.897 -59.020 -14.781  1.00  0.00     0.158 A 
BRANCH  15  18
ATOM     18  O   UNL     1      30.362 -60.820 -15.529  1.00  0.00    -0.504 OA
ATOM     19  H   UNL     1      30.904 -60.805 -16.386  1.00  0.00     0.293 HD
ENDBRANCH  15  18
BRANCH  17  20
ATOM     20  O   UNL     1      27.854 -59.520 -15.559  1.00  0.00    -0.504 OA
ATOM     21  H   UNL     1      27.330 -58.925 -16.190  1.00  0.00     0.293 HD
ENDBRANCH  17  20
ENDBRANCH   1  12
BRANCH   2  22
ATOM     22  O   UNL     1      27.384 -56.914 -11.595  1.00  0.00    -0.502 OA
ATOM     23  H   UNL     1      26.982 -57.312 -12.436  1.00  0.00     0.293 HD
ENDBRANCH   2  22
BRANCH   6  24
ATOM     24  O   UNL     1      28.083 -52.022  -9.609  1.00  0.00    -0.507 OA
ATOM     25  H   UNL     1      27.224 -51.668 -10.003  1.00  0.00     0.293 HD
ENDBRANCH   6  24
BRANCH   8  26
ATOM     26  O   UNL     1      32.428 -50.996 -11.326  1.00  0.00    -0.508 OA
ATOM     27  H   UNL     1      32.784 -50.684 -12.222  1.00  0.00     0.293 HD
ENDBRANCH   8  26
TORSDOF 6
ENDMDL
MODEL 3
REMARK VINA RESULT:    -5.927      9.756     13.144
REMARK INTER + INTRA:          -7.314
REMARK INTER:                  -7.154
REMARK INTRA:                  -0.160
REMARK UNBOUND:                -0.174
REMARK SMILES O=c1c(O)c(-c2ccc(O)c(O)c2)oc2cc(O)cc(O)c12
REMARK SMILES IDX 5 1 3 2 2 3 1 4 22 5 20 6 19 7 17 8 16 9 15 10 14 11 6 12
REMARK SMILES IDX 7 13 8 14 9 15 13 16 11 17 10 18 12 20 4 22 21 24 18 26
REMARK H PARENT 10 19 12 21 4 23 21 25 18 27
REMARK Flexibility Score: inf
ROOT
ATOM      1  C   UNL     1      30.873 -57.015 -12.827  1.00  0.00     0.180 A 
ATOM      2  C   UNL     1      31.806 -55.967 -12.890  1.00  0.00     0.208 A 
ATOM      3  C   UNL     1      31.455 -54.710 -12.373  1.00  0.00     0.238 A 
ATOM      4  O   UNL     1      32.267 -53.758 -12.500  1.00  0.00    -0.285 OA
ATOM      5  C   UNL     1      30.197 -54.530 -11.748  1.00  0.00     0.111 A 
ATOM      6  C   UNL     1      29.753 -53.312 -11.150  1.00  0.00     0.134 A 
ATOM      7  C   UNL     1      28.446 -53.221 -10.656  1.00  0.00     0.093 A 
ATOM      8  C   UNL     1      27.589 -54.320 -10.680  1.00  0.00     0.123 A 
ATOM      9  C   UNL     1      28.030 -55.532 -11.212  1.00  0.00     0.094 A 
ATOM     10  C   UNL     1      29.316 -55.643 -11.748  1.00  0.00     0.146 A 
ATOM     11  O   UNL     1      29.687 -56.808 -12.264  1.00  0.00    -0.452 OA
ENDROOT
BRANCH   1  12
ATOM     12  C   UNL     1      31.164 -58.364 -13.363  1.00  0.00     0.025 A 
ATOM     13  C   UNL     1      32.185 -59.163 -12.821  1.00  0.00     0.016 A 
ATOM     14  C   UNL     1      32.457 -60.423 -13.360  1.00  0.00     0.051 A 
ATOM     15  C   UNL     1      31.727 -60.899 -14.453  1.00  0.00     0.157 A 
ATOM     16  C   UNL     1      30.447 -58.835 -14.475  1.00  0.00     0.062 A 
ATOM     17  C   UNL     1      30.718 -60.101 -15.017  1.00  0.00     0.158 A 
BRANCH  15  18
ATOM     18  O   UNL     1      32.021 -62.161 -14.967  1.00  0.00    -0.504 OA
ATOM     19  H   UNL     1      32.848 -62.676 -14.687  1.00  0.00     0.293 HD
ENDBRANCH  15  18
BRANCH  17  20
ATOM     20  O   UNL     1      29.991 -60.565 -16.111  1.00  0.00    -0.504 OA
ATOM     21  H   UNL     1      29.565 -61.485 -16.114  1.00  0.00     0.293 HD
ENDBRANCH  17  20
ENDBRANCH   1  12
BRANCH   2  22
ATOM     22  O   UNL     1      33.072 -56.185 -13.441  1.00  0.00    -0.502 OA
ATOM     23  H   UNL     1      33.668 -56.951 -13.148  1.00  0.00     0.293 HD
ENDBRANCH   2  22
BRANCH   6  24
ATOM     24  O   UNL     1      30.557 -52.179 -10.993  1.00  0.00    -0.507 OA
ATOM     25  H   UNL     1      30.513 -51.541 -10.213  1.00  0.00     0.293 HD
ENDBRANCH   6  24
BRANCH   8  26
ATOM     26  O   UNL     1      26.301 -54.198 -10.163  1.00  0.00    -0.508 OA
ATOM     27  H   UNL     1      26.070 -54.521  -9.231  1.00  0.00     0.293 HD
ENDBRANCH   8  26
TORSDOF 6
ENDMDL
MODEL 4
REMARK VINA RESULT:    -5.747      9.186     11.449
REMARK INTER + INTRA:          -7.097
REMARK INTER:                  -6.802
REMARK INTRA:                  -0.295
REMARK UNBOUND:                -0.174
REMARK SMILES O=c1c(O)c(-c2ccc(O)c(O)c2)oc2cc(O)cc(O)c12
REMARK SMILES IDX 5 1 3 2 2 3 1 4 22 5 20 6 19 7 17 8 16 9 15 10 14 11 6 12
REMARK SMILES IDX 7 13 8 14 9 15 13 16 11 17 10 18 12 20 4 22 21 24 18 26
REMARK H PARENT 10 19 12 21 4 23 21 25 18 27
REMARK Flexibility Score: inf
ROOT
ATOM      1  C   UNL     1      30.369 -57.811 -13.814  1.00  0.00     0.180 A 
ATOM      2  C   UNL     1      29.904 -57.857 -15.139  1.00  0.00     0.208 A 
ATOM      3  C   UNL     1      30.251 -58.954 -15.944  1.00  0.00     0.238 A 
ATOM      4  O   UNL     1      29.893 -58.953 -17.150  1.00  0.00    -0.285 OA
ATOM      5  C   UNL     1      31.011 -60.017 -15.400  1.00  0.00     0.111 A 
ATOM      6  C   UNL     1      31.384 -61.198 -16.111  1.00  0.00     0.134 A 
ATOM      7  C   UNL     1      32.228 -62.134 -15.501  1.00  0.00     0.093 A 
ATOM      8  C   UNL     1      32.662 -61.965 -14.188  1.00  0.00     0.123 A 
ATOM      9  C   UNL     1      32.260 -60.842 -13.464  1.00  0.00     0.094 A 
ATOM     10  C   UNL     1      31.450 -59.871 -14.058  1.00  0.00     0.146 A 
ATOM     11  O   UNL     1      31.109 -58.807 -13.340  1.00  0.00    -0.452 OA
ENDROOT
BRANCH   1  12
ATOM     12  C   UNL     1      30.057 -56.682 -12.908  1.00  0.00     0.025 A 
ATOM     13  C   UNL     1      31.001 -55.676 -12.640  1.00  0.00     0.016 A 
ATOM     14  C   UNL     1      30.692 -54.634 -11.761  1.00  0.00     0.051 A 
ATOM     15  C   UNL     1      29.447 -54.587 -11.128  1.00  0.00     0.157 A 
ATOM     16  C   UNL     1      28.815 -56.645 -12.254  1.00  0.00     0.062 A 
ATOM     17  C   UNL     1      28.503 -55.598 -11.372  1.00  0.00     0.158 A 
BRANCH  15  18
ATOM     18  O   UNL     1      29.167 -53.533 -10.259  1.00  0.00    -0.504 OA
ATOM     19  H   UNL     1      28.822 -53.688  -9.319  1.00  0.00     0.293 HD
ENDBRANCH  15  18
BRANCH  17  20
ATOM     20  O   UNL     1      27.262 -55.562 -10.739  1.00  0.00    -0.504 OA
ATOM     21  H   UNL     1      27.133 -55.929  -9.803  1.00  0.00     0.293 HD
ENDBRANCH  17  20
ENDBRANCH   1  12
BRANCH   2  22
ATOM     22  O   UNL     1      29.089 -56.836 -15.634  1.00  0.00    -0.502 OA
ATOM     23  H   UNL     1      29.103 -56.553 -16.607  1.00  0.00     0.293 HD
ENDBRANCH   2  22
BRANCH   6  24
ATOM     24  O   UNL     1      30.935 -61.511 -17.397  1.00  0.00    -0.507 OA
ATOM     25  H   UNL     1      30.873 -60.858 -18.163  1.00  0.00     0.293 HD
ENDBRANCH   6  24
BRANCH   8  26
ATOM     26  O   UNL     1      33.487 -62.925 -13.608  1.00  0.00    -0.508 OA
ATOM     27  H   UNL     1      33.437 -63.141 -12.619  1.00  0.00     0.293 HD
ENDBRANCH   8  26
TORSDOF 6
ENDMDL
MODEL 5
REMARK VINA RESULT:    -5.742      2.044      2.386
REMARK INTER + INTRA:          -7.091
REMARK INTER:                  -6.779
REMARK INTRA:                  -0.312
REMARK UNBOUND:                -0.174
REMARK SMILES O=c1c(O)c(-c2ccc(O)c(O)c2)oc2cc(O)cc(O)c12
REMARK SMILES IDX 5 1 3 2 2 3 1 4 22 5 20 6 19 7 17 8 16 9 15 10 14 11 6 12
REMARK SMILES IDX 7 13 8 14 9 15 13 16 11 17 10 18 12 20 4 22 21 24 18 26
REMARK H PARENT 10 19 12 21 4 23 21 25 18 27
REMARK Flexibility Score: inf
ROOT
ATOM      1  C   UNL     1      32.747 -65.831  -6.248  1.00  0.00     0.180 A 
ATOM      2  C   UNL     1      33.282 -65.966  -4.956  1.00  0.00     0.208 A 
ATOM      3  C   UNL     1      33.056 -67.156  -4.246  1.00  0.00     0.238 A 
ATOM      4  O   UNL     1      33.475 -67.241  -3.063  1.00  0.00    -0.285 OA
ATOM      5  C   UNL     1      32.345 -68.218  -4.856  1.00  0.00     0.111 A 
ATOM      6  C   UNL     1      32.094 -69.485  -4.247  1.00  0.00     0.134 A 
ATOM      7  C   UNL     1      31.287 -70.420  -4.905  1.00  0.00     0.093 A 
ATOM      8  C   UNL     1      30.775 -70.163  -6.175  1.00  0.00     0.123 A 
ATOM      9  C   UNL     1      31.058 -68.950  -6.804  1.00  0.00     0.094 A 
ATOM     10  C   UNL     1      31.828 -67.980  -6.157  1.00  0.00     0.146 A 
ATOM     11  O   UNL     1      32.055 -66.832  -6.782  1.00  0.00    -0.452 OA
ENDROOT
BRANCH   1  12
ATOM     12  C   UNL     1      32.930 -64.603  -7.054  1.00  0.00     0.025 A 
ATOM     13  C   UNL     1      34.096 -64.390  -7.810  1.00  0.00     0.016 A 
ATOM     14  C   UNL     1      34.258 -63.212  -8.542  1.00  0.00     0.051 A 
ATOM     15  C   UNL     1      33.269 -62.224  -8.522  1.00  0.00     0.157 A 
ATOM     16  C   UNL     1      31.948 -63.600  -7.017  1.00  0.00     0.062 A 
ATOM     17  C   UNL     1      32.108 -62.416  -7.754  1.00  0.00     0.158 A 
BRANCH  15  18
ATOM     18  O   UNL     1      33.458 -61.060  -9.265  1.00  0.00    -0.504 OA
ATOM     19  H   UNL     1      33.575 -60.154  -8.826  1.00  0.00     0.293 HD
ENDBRANCH  15  18
BRANCH  17  20
ATOM     20  O   UNL     1      31.122 -61.432  -7.722  1.00  0.00    -0.504 OA
ATOM     21  H   UNL     1      30.302 -61.521  -7.131  1.00  0.00     0.293 HD
ENDBRANCH  17  20
ENDBRANCH   1  12
BRANCH   2  22
ATOM     22  O   UNL     1      34.047 -64.937  -4.401  1.00  0.00    -0.502 OA
ATOM     23  H   UNL     1      34.150 -64.033  -4.848  1.00  0.00     0.293 HD
ENDBRANCH   2  22
BRANCH   6  24
ATOM     24  O   UNL     1      32.630 -69.882  -3.018  1.00  0.00    -0.507 OA
ATOM     25  H   UNL     1      32.908 -69.255  -2.278  1.00  0.00     0.293 HD
ENDBRANCH   6  24
BRANCH   8  26
ATOM     26  O   UNL     1      29.990 -71.124  -6.808  1.00  0.00    -0.508 OA
ATOM     27  H   UNL     1      30.273 -72.096  -6.849  1.00  0.00     0.293 HD
ENDBRANCH   8  26
TORSDOF 6
ENDMDL
MODEL 6
REMARK VINA RESULT:    -5.679      2.034      2.499
REMARK INTER + INTRA:          -7.015
REMARK INTER:                  -6.909
REMARK INTRA:                  -0.107
REMARK UNBOUND:                -0.174
REMARK SMILES O=c1c(O)c(-c2ccc(O)c(O)c2)oc2cc(O)cc(O)c12
REMARK SMILES IDX 5 1 3 2 2 3 1 4 22 5 20 6 19 7 17 8 16 9 15 10 14 11 6 12
REMARK SMILES IDX 7 13 8 14 9 15 13 16 11 17 10 18 12 20 4 22 21 24 18 26
REMARK H PARENT 10 19 12 21 4 23 21 25 18 27
REMARK Flexibility Score: inf
ROOT
ATOM      1  C   UNL     1      33.184 -66.344  -6.571  1.00  0.00     0.180 A 
ATOM      2  C   UNL     1      32.264 -67.381  -6.798  1.00  0.00     0.208 A 
ATOM      3  C   UNL     1      32.468 -68.620  -6.171  1.00  0.00     0.238 A 
ATOM      4  O   UNL     1      31.682 -69.567  -6.437  1.00  0.00    -0.285 OA
ATOM      5  C   UNL     1      33.556 -68.792  -5.282  1.00  0.00     0.111 A 
ATOM      6  C   UNL     1      33.834 -69.991  -4.557  1.00  0.00     0.134 A 
ATOM      7  C   UNL     1      35.001 -70.079  -3.789  1.00  0.00     0.093 A 
ATOM      8  C   UNL     1      35.866 -68.993  -3.665  1.00  0.00     0.123 A 
ATOM      9  C   UNL     1      35.577 -67.798  -4.325  1.00  0.00     0.094 A 
ATOM     10  C   UNL     1      34.441 -67.692  -5.131  1.00  0.00     0.146 A 
ATOM     11  O   UNL     1      34.215 -66.544  -5.757  1.00  0.00    -0.452 OA
ENDROOT
BRANCH   1  12
ATOM     12  C   UNL     1      33.045 -65.013  -7.206  1.00  0.00     0.025 A 
ATOM     13  C   UNL     1      34.053 -64.488  -8.033  1.00  0.00     0.016 A 
ATOM     14  C   UNL     1      33.910 -63.219  -8.601  1.00  0.00     0.051 A 
ATOM     15  C   UNL     1      32.770 -62.452  -8.344  1.00  0.00     0.157 A 
ATOM     16  C   UNL     1      31.911 -64.232  -6.931  1.00  0.00     0.062 A 
ATOM     17  C   UNL     1      31.765 -62.958  -7.502  1.00  0.00     0.158 A 
BRANCH  15  18
ATOM     18  O   UNL     1      32.655 -61.191  -8.927  1.00  0.00    -0.504 OA
ATOM     19  H   UNL     1      31.997 -60.499  -8.589  1.00  0.00     0.293 HD
ENDBRANCH  15  18
BRANCH  17  20
ATOM     20  O   UNL     1      30.630 -62.196  -7.234  1.00  0.00    -0.504 OA
ATOM     21  H   UNL     1      29.699 -62.540  -7.441  1.00  0.00     0.293 HD
ENDBRANCH  17  20
ENDBRANCH   1  12
BRANCH   2  22
ATOM     22  O   UNL     1      31.153 -67.168  -7.618  1.00  0.00    -0.502 OA
ATOM     23  H   UNL     1      30.370 -66.591  -7.334  1.00  0.00     0.293 HD
ENDBRANCH   2  22
BRANCH   6  24
ATOM     24  O   UNL     1      32.991 -71.106  -4.538  1.00  0.00    -0.507 OA
ATOM     25  H   UNL     1      32.507 -71.452  -3.724  1.00  0.00     0.293 HD
ENDBRANCH   6  24
BRANCH   8  26
ATOM     26  O   UNL     1      37.009 -69.111  -2.878  1.00  0.00    -0.508 OA
ATOM     27  H   UNL     1      37.301 -70.003  -2.496  1.00  0.00     0.293 HD
ENDBRANCH   8  26
TORSDOF 6
ENDMDL
MODEL 7
REMARK VINA RESULT:    -5.635      0.763      1.533
REMARK INTER + INTRA:          -6.962
REMARK INTER:                  -6.663
REMARK INTRA:                  -0.299
REMARK UNBOUND:                -0.174
REMARK SMILES O=c1c(O)c(-c2ccc(O)c(O)c2)oc2cc(O)cc(O)c12
REMARK SMILES IDX 5 1 3 2 2 3 1 4 22 5 20 6 19 7 17 8 16 9 15 10 14 11 6 12
REMARK SMILES IDX 7 13 8 14 9 15 13 16 11 17 10 18 12 20 4 22 21 24 18 26
REMARK H PARENT 10 19 12 21 4 23 21 25 18 27
REMARK Flexibility Score: inf
ROOT
ATOM      1  C   UNL     1      33.169 -65.505  -6.085  1.00  0.00     0.180 A 
ATOM      2  C   UNL     1      31.927 -65.793  -5.496  1.00  0.00     0.208 A 
ATOM      3  C   UNL     1      31.634 -67.119  -5.139  1.00  0.00     0.238 A 
ATOM      4  O   UNL     1      30.492 -67.381  -4.681  1.00  0.00    -0.285 OA
ATOM      5  C   UNL     1      32.607 -68.131  -5.323  1.00  0.00     0.111 A 
ATOM      6  C   UNL     1      32.436 -69.501  -4.956  1.00  0.00     0.134 A 
ATOM      7  C   UNL     1      33.427 -70.433  -5.284  1.00  0.00     0.093 A 
ATOM      8  C   UNL     1      34.610 -70.038  -5.906  1.00  0.00     0.123 A 
ATOM      9  C   UNL     1      34.812 -68.693  -6.220  1.00  0.00     0.094 A 
ATOM     10  C   UNL     1      33.825 -67.745  -5.941  1.00  0.00     0.146 A 
ATOM     11  O   UNL     1      34.050 -66.481  -6.276  1.00  0.00    -0.452 OA
ENDROOT
BRANCH   1  12
ATOM     12  C   UNL     1      33.546 -64.135  -6.502  1.00  0.00     0.025 A 
ATOM     13  C   UNL     1      33.058 -63.572  -7.693  1.00  0.00     0.016 A 
ATOM     14  C   UNL     1      33.447 -62.286  -8.078  1.00  0.00     0.051 A 
ATOM     15  C   UNL     1      34.337 -61.550  -7.290  1.00  0.00     0.157 A 
ATOM     16  C   UNL     1      34.456 -63.402  -5.723  1.00  0.00     0.062 A 
ATOM     17  C   UNL     1      34.847 -62.110  -6.107  1.00  0.00     0.158 A 
BRANCH  15  18
ATOM     18  O   UNL     1      34.704 -60.269  -7.699  1.00  0.00    -0.504 OA
ATOM     19  H   UNL     1      34.033 -59.513  -7.768  1.00  0.00     0.293 HD
ENDBRANCH  15  18
BRANCH  17  20
ATOM     20  O   UNL     1      35.740 -61.385  -5.320  1.00  0.00    -0.504 OA
ATOM     21  H   UNL     1      35.812 -60.376  -5.391  1.00  0.00     0.293 HD
ENDBRANCH  17  20
ENDBRANCH   1  12
BRANCH   2  22
ATOM     22  O   UNL     1      31.010 -64.767  -5.252  1.00  0.00    -0.502 OA
ATOM     23  H   UNL     1      30.651 -64.568  -4.325  1.00  0.00     0.293 HD
ENDBRANCH   2  22
BRANCH   6  24
ATOM     24  O   UNL     1      31.331 -69.989  -4.252  1.00  0.00    -0.507 OA
ATOM     25  H   UNL     1      30.580 -70.528  -4.655  1.00  0.00     0.293 HD
ENDBRANCH   6  24
BRANCH   8  26
ATOM     26  O   UNL     1      35.583 -70.990  -6.202  1.00  0.00    -0.508 OA
ATOM     27  H   UNL     1      36.545 -70.875  -5.907  1.00  0.00     0.293 HD
ENDBRANCH   8  26
TORSDOF 6
ENDMDL
MODEL 8
REMARK VINA RESULT:    -5.588      2.006      3.243
REMARK INTER + INTRA:          -6.906
REMARK INTER:                  -6.648
REMARK INTRA:                  -0.258
REMARK UNBOUND:                -0.174
REMARK SMILES O=c1c(O)c(-c2ccc(O)c(O)c2)oc2cc(O)cc(O)c12
REMARK SMILES IDX 5 1 3 2 2 3 1 4 22 5 20 6 19 7 17 8 16 9 15 10 14 11 6 12
REMARK SMILES IDX 7 13 8 14 9 15 13 16 11 17 10 18 12 20 4 22 21 24 18 26
REMARK H PARENT 10 19 12 21 4 23 21 25 18 27
REMARK Flexibility Score: inf
ROOT
ATOM      1  C   UNL     1      34.224 -65.519  -6.900  1.00  0.00     0.180 A 
ATOM      2  C   UNL     1      35.248 -66.340  -6.398  1.00  0.00     0.208 A 
ATOM      3  C   UNL     1      35.026 -67.723  -6.303  1.00  0.00     0.238 A 
ATOM      4  O   UNL     1      35.918 -68.442  -5.784  1.00  0.00    -0.285 OA
ATOM      5  C   UNL     1      33.806 -68.276  -6.763  1.00  0.00     0.111 A 
ATOM      6  C   UNL     1      33.490 -69.669  -6.757  1.00  0.00     0.134 A 
ATOM      7  C   UNL     1      32.210 -70.088  -7.139  1.00  0.00     0.093 A 
ATOM      8  C   UNL     1      31.256 -69.176  -7.587  1.00  0.00     0.123 A 
ATOM      9  C   UNL     1      31.572 -67.818  -7.649  1.00  0.00     0.094 A 
ATOM     10  C   UNL     1      32.827 -67.364  -7.238  1.00  0.00     0.146 A 
ATOM     11  O   UNL     1      33.078 -66.062  -7.294  1.00  0.00    -0.452 OA
ENDROOT
BRANCH   1  12
ATOM     12  C   UNL     1      34.377 -64.051  -7.018  1.00  0.00     0.025 A 
ATOM     13  C   UNL     1      34.626 -63.437  -8.257  1.00  0.00     0.016 A 
ATOM     14  C   UNL     1      34.792 -62.052  -8.339  1.00  0.00     0.051 A 
ATOM     15  C   UNL     1      34.726 -61.262  -7.188  1.00  0.00     0.157 A 
ATOM     16  C   UNL     1      34.333 -63.257  -5.860  1.00  0.00     0.062 A 
ATOM     17  C   UNL     1      34.498 -61.866  -5.941  1.00  0.00     0.158 A 
BRANCH  15  18
ATOM     18  O   UNL     1      34.892 -59.883  -7.303  1.00  0.00    -0.504 OA
ATOM     19  H   UNL     1      34.637 -59.378  -8.144  1.00  0.00     0.293 HD
ENDBRANCH  15  18
BRANCH  17  20
ATOM     20  O   UNL     1      34.438 -61.086  -4.788  1.00  0.00    -0.504 OA
ATOM     21  H   UNL     1      33.980 -61.416  -3.946  1.00  0.00     0.293 HD
ENDBRANCH  17  20
ENDBRANCH   1  12
BRANCH   2  22
ATOM     22  O   UNL     1      36.473 -65.785  -6.021  1.00  0.00    -0.502 OA
ATOM     23  H   UNL     1      36.540 -64.947  -5.455  1.00  0.00     0.293 HD
ENDBRANCH   2  22
BRANCH   6  24
ATOM     24  O   UNL     1      34.398 -70.675  -6.412  1.00  0.00    -0.507 OA
ATOM     25  H   UNL     1      35.220 -70.543  -5.844  1.00  0.00     0.293 HD
ENDBRANCH   6  24
BRANCH   8  26
ATOM     26  O   UNL     1      29.999 -69.632  -7.975  1.00  0.00    -0.508 OA
ATOM     27  H   UNL     1      29.187 -69.027  -7.957  1.00  0.00     0.293 HD
ENDBRANCH   8  26
TORSDOF 6
ENDMDL
MODEL 9
REMARK VINA RESULT:    -5.570      1.784      6.517
REMARK INTER + INTRA:          -6.884
REMARK INTER:                  -6.610
REMARK INTRA:                  -0.273
REMARK UNBOUND:                -0.174
REMARK SMILES O=c1c(O)c(-c2ccc(O)c(O)c2)oc2cc(O)cc(O)c12
REMARK SMILES IDX 5 1 3 2 2 3 1 4 22 5 20 6 19 7 17 8 16 9 15 10 14 11 6 12
REMARK SMILES IDX 7 13 8 14 9 15 13 16 11 17 10 18 12 20 4 22 21 24 18 26
REMARK H PARENT 10 19 12 21 4 23 21 25 18 27
REMARK Flexibility Score: inf
ROOT
ATOM      1  C   UNL     1      33.652 -66.423  -5.894  1.00  0.00     0.180 A 
ATOM      2  C   UNL     1      32.354 -66.018  -5.540  1.00  0.00     0.208 A 
ATOM      3  C   UNL     1      31.818 -64.861  -6.127  1.00  0.00     0.238 A 
ATOM      4  O   UNL     1      30.685 -64.463  -5.749  1.00  0.00    -0.285 OA
ATOM      5  C   UNL     1      32.562 -64.153  -7.102  1.00  0.00     0.111 A 
ATOM      6  C   UNL     1      32.100 -62.993  -7.794  1.00  0.00     0.134 A 
ATOM      7  C   UNL     1      32.967 -62.315  -8.661  1.00  0.00     0.093 A 
ATOM      8  C   UNL     1      34.253 -62.789  -8.909  1.00  0.00     0.123 A 
ATOM      9  C   UNL     1      34.697 -63.953  -8.280  1.00  0.00     0.094 A 
ATOM     10  C   UNL     1      33.870 -64.630  -7.380  1.00  0.00     0.146 A 
ATOM     11  O   UNL     1      34.340 -65.721  -6.788  1.00  0.00    -0.452 OA
ENDROOT
BRANCH   1  12
ATOM     12  C   UNL     1      34.291 -67.623  -5.309  1.00  0.00     0.025 A 
ATOM     13  C   UNL     1      34.788 -67.621  -3.995  1.00  0.00     0.016 A 
ATOM     14  C   UNL     1      35.410 -68.758  -3.472  1.00  0.00     0.051 A 
ATOM     15  C   UNL     1      35.557 -69.907  -4.255  1.00  0.00     0.157 A 
ATOM     16  C   UNL     1      34.460 -68.771  -6.100  1.00  0.00     0.062 A 
ATOM     17  C   UNL     1      35.082 -69.915  -5.577  1.00  0.00     0.158 A 
BRANCH  15  18
ATOM     18  O   UNL     1      36.179 -71.026  -3.705  1.00  0.00    -0.504 OA
ATOM     19  H   UNL     1      37.100 -70.978  -3.284  1.00  0.00     0.293 HD
ENDBRANCH  15  18
BRANCH  17  20
ATOM     20  O   UNL     1      35.232 -71.054  -6.365  1.00  0.00    -0.504 OA
ATOM     21  H   UNL     1      35.743 -71.030  -7.241  1.00  0.00     0.293 HD
ENDBRANCH  17  20
ENDBRANCH   1  12
BRANCH   2  22
ATOM     22  O   UNL     1      31.605 -66.773  -4.633  1.00  0.00    -0.502 OA
ATOM     23  H   UNL     1      30.703 -66.469  -4.287  1.00  0.00     0.293 HD
ENDBRANCH   2  22
BRANCH   6  24
ATOM     24  O   UNL     1      30.803 -62.484  -7.688  1.00  0.00    -0.507 OA
ATOM     25  H   UNL     1      30.437 -61.995  -6.885  1.00  0.00     0.293 HD
ENDBRANCH   6  24
BRANCH   8  26
ATOM     26  O   UNL     1      35.082 -62.099  -9.791  1.00  0.00    -0.508 OA
ATOM     27  H   UNL     1      36.022 -62.415  -9.993  1.00  0.00     0.293 HD
ENDBRANCH   8  26
TORSDOF 6
ENDMDL
