MODEL 1
REMARK VINA RESULT:    -4.072      0.000      0.000
REMARK INTER + INTRA:          -6.287
REMARK INTER:                  -5.738
REMARK INTRA:                  -0.548
REMARK UNBOUND:                -0.548
REMARK SMILES CCCCCCCCC(=O)[O-]
REMARK SMILES IDX 6 1 7 2 8 3 9 4 10 5 11 6 5 7 4 8 3 9 2 10 1 11
REMARK H PARENT
REMARK Flexibility Score: inf
ROOT
ATOM      1  C   UNL     1      27.281 -11.244  14.032  1.00  0.00     0.000 C 
ENDROOT
BRANCH   1   2
ATOM      2  C   UNL     1      26.967 -12.718  14.337  1.00  0.00     0.006 C 
BRANCH   2   3
ATOM      3  C   UNL     1      27.303 -13.093  15.786  1.00  0.00     0.053 C 
BRANCH   3   4
ATOM      4  C   UNL     1      28.652 -13.737  15.895  1.00  0.00     0.041 C 
ATOM      5  O   UNL     1      28.825 -14.915  15.484  1.00  0.00    -0.550 OA
ATOM      6  O   UNL     1      29.707 -13.050  16.482  1.00  0.00    -0.550 OA
ENDBRANCH   3   4
ENDBRANCH   2   3
ENDBRANCH   1   2
BRANCH   1   7
ATOM      7  C   UNL     1      27.368 -10.384  15.303  1.00  0.00     0.000 C 
BRANCH   7   8
ATOM      8  C   UNL     1      28.305  -9.175  15.136  1.00  0.00    -0.000 C 
BRANCH   8   9
ATOM      9  C   UNL     1      29.789  -9.574  15.134  1.00  0.00    -0.000 C 
BRANCH   9  10
ATOM     10  C   UNL     1      30.548  -9.020  13.920  1.00  0.00    -0.003 C 
ATOM     11  C   UNL     1      30.586 -10.038  12.784  1.00  0.00     0.004 C 
ENDBRANCH   9  10
ENDBRANCH   8   9
ENDBRANCH   7   8
ENDBRANCH   1   7
TORSDOF 7
ENDMDL
MODEL 2
REMARK VINA RESULT:    -4.038      2.388      4.410
REMARK INTER + INTRA:          -6.239
REMARK INTER:                  -5.586
REMARK INTRA:                  -0.653
REMARK UNBOUND:                -0.548
REMARK SMILES CCCCCCCCC(=O)[O-]
REMARK SMILES IDX 6 1 7 2 8 3 9 4 10 5 11 6 5 7 4 8 3 9 2 10 1 11
REMARK H PARENT
REMARK Flexibility Score: inf
ROOT
ATOM      1  C   UNL     1      27.489 -10.239  15.729  1.00  0.00     0.000 C 
ENDROOT
BRANCH   1   2
ATOM      2  C   UNL     1      28.397  -9.000  15.656  1.00  0.00     0.006 C 
BRANCH   2   3
ATOM      3  C   UNL     1      29.567  -9.197  14.683  1.00  0.00     0.053 C 
BRANCH   3   4
ATOM      4  C   UNL     1      30.880  -9.272  15.402  1.00  0.00     0.041 C 
ATOM      5  O   UNL     1      30.917  -9.212  16.659  1.00  0.00    -0.550 OA
ATOM      6  O   UNL     1      32.064  -9.371  14.682  1.00  0.00    -0.550 OA
ENDBRANCH   3   4
ENDBRANCH   2   3
ENDBRANCH   1   2
BRANCH   1   7
ATOM      7  C   UNL     1      27.357 -10.955  14.376  1.00  0.00     0.000 C 
BRANCH   7   8
ATOM      8  C   UNL     1      27.043 -12.454  14.528  1.00  0.00    -0.000 C 
BRANCH   8   9
ATOM      9  C   UNL     1      27.415 -12.998  15.916  1.00  0.00    -0.000 C 
BRANCH   9  10
ATOM     10  C   UNL     1      28.753 -13.751  15.914  1.00  0.00    -0.003 C 
ATOM     11  C   UNL     1      29.841 -12.941  16.612  1.00  0.00     0.004 C 
ENDBRANCH   9  10
ENDBRANCH   8   9
ENDBRANCH   7   8
ENDBRANCH   1   7
TORSDOF 7
ENDMDL
MODEL 3
REMARK VINA RESULT:    -3.979      2.558      4.554
REMARK INTER + INTRA:          -6.155
REMARK INTER:                  -5.702
REMARK INTRA:                  -0.453
REMARK UNBOUND:                -0.548
REMARK SMILES CCCCCCCCC(=O)[O-]
REMARK SMILES IDX 6 1 7 2 8 3 9 4 10 5 11 6 5 7 4 8 3 9 2 10 1 11
REMARK H PARENT
REMARK Flexibility Score: inf
ROOT
ATOM      1  C   UNL     1      27.951 -11.087  14.843  1.00  0.00     0.000 C 
ENDROOT
BRANCH   1   2
ATOM      2  C   UNL     1      27.884  -9.592  15.197  1.00  0.00     0.006 C 
BRANCH   2   3
ATOM      3  C   UNL     1      28.700  -9.258  16.453  1.00  0.00     0.053 C 
BRANCH   3   4
ATOM      4  C   UNL     1      30.171  -9.225  16.168  1.00  0.00     0.041 C 
ATOM      5  O   UNL     1      30.602  -8.650  15.134  1.00  0.00    -0.550 OA
ATOM      6  O   UNL     1      31.060  -9.861  17.024  1.00  0.00    -0.550 OA
ENDBRANCH   3   4
ENDBRANCH   2   3
ENDBRANCH   1   2
BRANCH   1   7
ATOM      7  C   UNL     1      27.514 -11.989  16.008  1.00  0.00     0.000 C 
BRANCH   7   8
ATOM      8  C   UNL     1      28.537 -13.097  16.314  1.00  0.00    -0.000 C 
BRANCH   8   9
ATOM      9  C   UNL     1      28.455 -14.267  15.321  1.00  0.00    -0.000 C 
BRANCH   9  10
ATOM     10  C   UNL     1      27.017 -14.555  14.867  1.00  0.00    -0.003 C 
ATOM     11  C   UNL     1      26.881 -14.416  13.353  1.00  0.00     0.004 C 
ENDBRANCH   9  10
ENDBRANCH   8   9
ENDBRANCH   7   8
ENDBRANCH   1   7
TORSDOF 7
ENDMDL
MODEL 4
REMARK VINA RESULT:    -3.968      1.178      1.615
REMARK INTER + INTRA:          -6.141
REMARK INTER:                  -5.753
REMARK INTRA:                  -0.387
REMARK UNBOUND:                -0.548
REMARK SMILES CCCCCCCCC(=O)[O-]
REMARK SMILES IDX 6 1 7 2 8 3 9 4 10 5 11 6 5 7 4 8 3 9 2 10 1 11
REMARK H PARENT
REMARK Flexibility Score: inf
ROOT
ATOM      1  C   UNL     1      27.570 -10.828  14.832  1.00  0.00     0.000 C 
ENDROOT
BRANCH   1   2
ATOM      2  C   UNL     1      28.083 -11.861  15.850  1.00  0.00     0.006 C 
BRANCH   2   3
ATOM      3  C   UNL     1      27.304 -13.180  15.778  1.00  0.00     0.053 C 
BRANCH   3   4
ATOM      4  C   UNL     1      28.020 -14.204  14.949  1.00  0.00     0.041 C 
ATOM      5  O   UNL     1      28.864 -14.971  15.482  1.00  0.00    -0.550 OA
ATOM      6  O   UNL     1      27.780 -14.284  13.583  1.00  0.00    -0.550 OA
ENDBRANCH   3   4
ENDBRANCH   2   3
ENDBRANCH   1   2
BRANCH   1   7
ATOM      7  C   UNL     1      28.033  -9.399  15.157  1.00  0.00     0.000 C 
BRANCH   7   8
ATOM      8  C   UNL     1      29.320  -9.372  16.001  1.00  0.00    -0.000 C 
BRANCH   8   9
ATOM      9  C   UNL     1      30.568  -9.051  15.164  1.00  0.00    -0.000 C 
BRANCH   9  10
ATOM     10  C   UNL     1      30.222  -8.569  13.748  1.00  0.00    -0.003 C 
ATOM     11  C   UNL     1      31.484  -8.293  12.937  1.00  0.00     0.004 C 
ENDBRANCH   9  10
ENDBRANCH   8   9
ENDBRANCH   7   8
ENDBRANCH   1   7
TORSDOF 7
ENDMDL
MODEL 5
REMARK VINA RESULT:    -3.961      3.106      4.420
REMARK INTER + INTRA:          -6.130
REMARK INTER:                  -5.875
REMARK INTRA:                  -0.256
REMARK UNBOUND:                -0.548
REMARK SMILES CCCCCCCCC(=O)[O-]
REMARK SMILES IDX 6 1 7 2 8 3 9 4 10 5 11 6 5 7 4 8 3 9 2 10 1 11
REMARK H PARENT
REMARK Flexibility Score: inf
ROOT
ATOM      1  C   UNL     1      30.421  -8.882  13.852  1.00  0.00     0.000 C 
ENDROOT
BRANCH   1   2
ATOM      2  C   UNL     1      30.229 -10.380  13.561  1.00  0.00     0.006 C 
BRANCH   2   3
ATOM      3  C   UNL     1      28.833 -10.873  13.965  1.00  0.00     0.053 C 
BRANCH   3   4
ATOM      4  C   UNL     1      28.593 -10.718  15.436  1.00  0.00     0.041 C 
ATOM      5  O   UNL     1      29.253 -11.405  16.260  1.00  0.00    -0.550 OA
ATOM      6  O   UNL     1      27.617  -9.843  15.894  1.00  0.00    -0.550 OA
ENDBRANCH   3   4
ENDBRANCH   2   3
ENDBRANCH   1   2
BRANCH   1   7
ATOM      7  C   UNL     1      31.287  -8.182  12.794  1.00  0.00     0.000 C 
BRANCH   7   8
ATOM      8  C   UNL     1      30.577  -6.976  12.153  1.00  0.00    -0.000 C 
BRANCH   8   9
ATOM      9  C   UNL     1      31.406  -6.329  11.032  1.00  0.00    -0.000 C 
BRANCH   9  10
ATOM     10  C   UNL     1      32.412  -5.297  11.563  1.00  0.00    -0.003 C 
ATOM     11  C   UNL     1      33.683  -5.284  10.719  1.00  0.00     0.004 C 
ENDBRANCH   9  10
ENDBRANCH   8   9
ENDBRANCH   7   8
ENDBRANCH   1   7
TORSDOF 7
ENDMDL
MODEL 6
REMARK VINA RESULT:    -3.912      2.623      4.535
REMARK INTER + INTRA:          -6.061
REMARK INTER:                  -5.453
REMARK INTRA:                  -0.609
REMARK UNBOUND:                -0.548
REMARK SMILES CCCCCCCCC(=O)[O-]
REMARK SMILES IDX 6 1 7 2 8 3 9 4 10 5 11 6 5 7 4 8 3 9 2 10 1 11
REMARK H PARENT
REMARK Flexibility Score: inf
ROOT
ATOM      1  C   UNL     1      29.075 -10.905  13.868  1.00  0.00     0.000 C 
ENDROOT
BRANCH   1   2
ATOM      2  C   UNL     1      29.812  -9.578  14.115  1.00  0.00     0.006 C 
BRANCH   2   3
ATOM      3  C   UNL     1      30.826  -9.684  15.261  1.00  0.00     0.053 C 
BRANCH   3   4
ATOM      4  C   UNL     1      30.336  -9.003  16.503  1.00  0.00     0.041 C 
ATOM      5  O   UNL     1      31.084  -8.910  17.511  1.00  0.00    -0.550 OA
ATOM      6  O   UNL     1      29.041  -8.503  16.557  1.00  0.00    -0.550 OA
ENDBRANCH   3   4
ENDBRANCH   2   3
ENDBRANCH   1   2
BRANCH   1   7
ATOM      7  C   UNL     1      27.645 -10.900  14.432  1.00  0.00     0.000 C 
BRANCH   7   8
ATOM      8  C   UNL     1      27.416 -12.010  15.473  1.00  0.00    -0.000 C 
BRANCH   8   9
ATOM      9  C   UNL     1      28.694 -12.809  15.775  1.00  0.00    -0.000 C 
BRANCH   9  10
ATOM     10  C   UNL     1      28.524 -14.313  15.520  1.00  0.00    -0.003 C 
ATOM     11  C   UNL     1      27.612 -14.568  14.323  1.00  0.00     0.004 C 
ENDBRANCH   9  10
ENDBRANCH   8   9
ENDBRANCH   7   8
ENDBRANCH   1   7
TORSDOF 7
ENDMDL
MODEL 7
REMARK VINA RESULT:    -3.838      3.070      4.539
REMARK INTER + INTRA:          -5.956
REMARK INTER:                  -5.586
REMARK INTRA:                  -0.370
REMARK UNBOUND:                -0.548
REMARK SMILES CCCCCCCCC(=O)[O-]
REMARK SMILES IDX 6 1 7 2 8 3 9 4 10 5 11 6 5 7 4 8 3 9 2 10 1 11
REMARK H PARENT
REMARK Flexibility Score: inf
ROOT
ATOM      1  C   UNL     1      31.029  -9.226  12.235  1.00  0.00     0.000 C 
ENDROOT
BRANCH   1   2
ATOM      2  C   UNL     1      30.249 -10.378  12.890  1.00  0.00     0.006 C 
BRANCH   2   3
ATOM      3  C   UNL     1      29.502  -9.926  14.152  1.00  0.00     0.053 C 
BRANCH   3   4
ATOM      4  C   UNL     1      28.435 -10.902  14.546  1.00  0.00     0.041 C 
ATOM      5  O   UNL     1      27.235 -10.530  14.625  1.00  0.00    -0.550 OA
ATOM      6  O   UNL     1      28.771 -12.213  14.860  1.00  0.00    -0.550 OA
ENDBRANCH   3   4
ENDBRANCH   2   3
ENDBRANCH   1   2
BRANCH   1   7
ATOM      7  C   UNL     1      30.733  -7.866  12.888  1.00  0.00     0.000 C 
BRANCH   7   8
ATOM      8  C   UNL     1      30.659  -6.721  11.863  1.00  0.00    -0.000 C 
BRANCH   8   9
ATOM      9  C   UNL     1      31.454  -7.023  10.583  1.00  0.00    -0.000 C 
BRANCH   9  10
ATOM     10  C   UNL     1      32.490  -5.937  10.262  1.00  0.00    -0.003 C 
ATOM     11  C   UNL     1      32.943  -5.217  11.529  1.00  0.00     0.004 C 
ENDBRANCH   9  10
ENDBRANCH   8   9
ENDBRANCH   7   8
ENDBRANCH   1   7
TORSDOF 7
ENDMDL
