MODEL 1
REMARK VINA RESULT:     2.456      0.000      0.000
REMARK INTER + INTRA:           2.671
REMARK INTER:                   2.671
REMARK INTRA:                   0.000
REMARK UNBOUND:                 0.000
REMARK SMILES Cc1cc(O)c2c(c1)C(=O)c1cc(O)cc(O)c1C2=O
REMARK SMILES IDX 1 1 2 2 8 3 7 4 6 5 4 6 3 7 19 8 20 9 18 10 11 11 9 12 10 13
REMARK SMILES IDX 12 14 13 15 15 16 16 17 5 18 17 20 14 22
REMARK H PARENT 5 19 17 21 14 23
REMARK Flexibility Score: inf
ROOT
ATOM      1  C   UNL     1      44.783  -8.433  17.639  1.00  0.00     0.044 C 
ATOM      2  C   UNL     1      46.189  -7.930  17.489  1.00  0.00    -0.047 A 
ATOM      3  C   UNL     1      47.192  -8.376  18.355  1.00  0.00     0.016 A 
ATOM      4  C   UNL     1      48.517  -7.933  18.205  1.00  0.00     0.038 A 
ATOM      5  C   UNL     1      48.843  -7.029  17.170  1.00  0.00     0.076 A 
ATOM      6  C   UNL     1      47.839  -6.647  16.243  1.00  0.00     0.127 A 
ATOM      7  C   UNL     1      46.523  -7.085  16.426  1.00  0.00     0.050 A 
ATOM      8  C   UNL     1      50.219  -6.469  17.133  1.00  0.00     0.201 C 
ATOM      9  O   UNL     1      50.414  -5.317  16.663  1.00  0.00    -0.288 OA
ATOM     10  C   UNL     1      51.326  -7.187  17.816  1.00  0.00     0.076 A 
ATOM     11  C   UNL     1      50.996  -8.093  18.850  1.00  0.00     0.041 A 
ATOM     12  C   UNL     1      49.576  -8.417  19.123  1.00  0.00     0.194 C 
ATOM     13  O   UNL     1      49.271  -9.125  20.122  1.00  0.00    -0.289 OA
ATOM     14  C   UNL     1      52.017  -8.686  19.612  1.00  0.00     0.059 A 
ATOM     15  C   UNL     1      53.356  -8.400  19.348  1.00  0.00     0.120 A 
ATOM     16  C   UNL     1      53.689  -7.536  18.301  1.00  0.00     0.093 A 
ATOM     17  C   UNL     1      52.692  -6.949  17.515  1.00  0.00     0.131 A 
ENDROOT
BRANCH   6  18
ATOM     18  O   UNL     1      48.108  -5.870  15.115  1.00  0.00    -0.507 OA
ATOM     19  H   UNL     1      48.291  -4.877  15.151  1.00  0.00     0.293 HD
ENDBRANCH   6  18
BRANCH  17  20
ATOM     20  O   UNL     1      53.103  -6.170  16.430  1.00  0.00    -0.507 OA
ATOM     21  H   UNL     1      53.724  -5.378  16.515  1.00  0.00     0.293 HD
ENDBRANCH  17  20
BRANCH  15  22
ATOM     22  O   UNL     1      54.351  -8.989  20.124  1.00  0.00    -0.508 OA
ATOM     23  H   UNL     1      55.026  -8.431  20.635  1.00  0.00     0.293 HD
ENDBRANCH  15  22
TORSDOF 3
ENDMDL
MODEL 2
REMARK VINA RESULT:     5.395      1.401      6.328
REMARK INTER + INTRA:           5.868
REMARK INTER:                   5.868
REMARK INTRA:                   0.000
REMARK UNBOUND:                 0.000
REMARK SMILES Cc1cc(O)c2c(c1)C(=O)c1cc(O)cc(O)c1C2=O
REMARK SMILES IDX 1 1 2 2 8 3 7 4 6 5 4 6 3 7 19 8 20 9 18 10 11 11 9 12 10 13
REMARK SMILES IDX 12 14 13 15 15 16 16 17 5 18 17 20 14 22
REMARK H PARENT 5 19 17 21 14 23
REMARK Flexibility Score: inf
ROOT
ATOM      1  C   UNL     1      55.123  -5.515  18.041  1.00  0.00     0.044 C 
ATOM      2  C   UNL     1      53.752  -6.074  18.286  1.00  0.00    -0.047 A 
ATOM      3  C   UNL     1      52.646  -5.541  17.617  1.00  0.00     0.016 A 
ATOM      4  C   UNL     1      51.362  -6.074  17.819  1.00  0.00     0.038 A 
ATOM      5  C   UNL     1      51.184  -7.162  18.703  1.00  0.00     0.076 A 
ATOM      6  C   UNL     1      52.321  -7.752  19.312  1.00  0.00     0.127 A 
ATOM      7  C   UNL     1      53.586  -7.189  19.112  1.00  0.00     0.050 A 
ATOM      8  C   UNL     1      49.797  -7.603  19.004  1.00  0.00     0.201 C 
ATOM      9  O   UNL     1      49.531  -8.112  20.125  1.00  0.00    -0.288 OA
ATOM     10  C   UNL     1      48.698  -7.275  18.060  1.00  0.00     0.076 A 
ATOM     11  C   UNL     1      48.880  -6.188  17.175  1.00  0.00     0.041 A 
ATOM     12  C   UNL     1      50.195  -5.508  17.101  1.00  0.00     0.194 C 
ATOM     13  O   UNL     1      50.327  -4.462  16.407  1.00  0.00    -0.289 OA
ATOM     14  C   UNL     1      47.815  -5.759  16.365  1.00  0.00     0.059 A 
ATOM     15  C   UNL     1      46.581  -6.407  16.415  1.00  0.00     0.120 A 
ATOM     16  C   UNL     1      46.407  -7.507  17.259  1.00  0.00     0.093 A 
ATOM     17  C   UNL     1      47.458  -7.966  18.060  1.00  0.00     0.131 A 
ENDROOT
BRANCH   6  18
ATOM     18  O   UNL     1      52.247  -8.912  20.086  1.00  0.00    -0.507 OA
ATOM     19  H   UNL     1      51.436  -9.168  20.632  1.00  0.00     0.293 HD
ENDBRANCH   6  18
BRANCH  17  20
ATOM     20  O   UNL     1      47.238  -9.125  18.808  1.00  0.00    -0.507 OA
ATOM     21  H   UNL     1      46.401  -9.289  19.350  1.00  0.00     0.293 HD
ENDBRANCH  17  20
BRANCH  15  22
ATOM     22  O   UNL     1      45.535  -5.956  15.613  1.00  0.00    -0.508 OA
ATOM     23  H   UNL     1      45.566  -6.041  14.603  1.00  0.00     0.293 HD
ENDBRANCH  15  22
TORSDOF 3
ENDMDL
