MODEL 1
REMARK VINA RESULT:    -5.324      0.000      0.000
REMARK INTER + INTRA:          -8.781
REMARK INTER:                  -7.192
REMARK INTRA:                  -1.589
REMARK UNBOUND:                -1.589
REMARK SMILES CC[C@H](CC[C@H](C)[C@H]1CC[C@H]2[C@H]3CC(=O)C4=CC(=O)CC[C@]4(C)[C@@H]3CC[C@@]12C)C(C)C
REMARK SMILES IDX 4 1 3 2 2 3 1 4 29 5 30 6 31 7 5 8 6 9 7 10 8 11 9 12 27 13
REMARK SMILES IDX 10 14 11 15 26 16 28 17 12 18 25 19 24 20 13 21 22 22 14 23
REMARK SMILES IDX 16 24 21 25 23 26 15 27 17 28 20 29 18 30 19 31
REMARK H PARENT
REMARK Flexibility Score: inf
ROOT
ATOM      1  C   UNL     1      12.649 -17.517  10.287  1.00  0.00     0.004 C 
ENDROOT
BRANCH   1   2
ATOM      2  C   UNL     1      12.117 -18.982  10.167  1.00  0.00    -0.009 C 
BRANCH   2   3
ATOM      3  C   UNL     1      11.099 -19.273  11.307  1.00  0.00     0.000 C 
ATOM      4  C   UNL     1      11.239 -18.348  12.520  1.00  0.00     0.004 C 
ENDBRANCH   2   3
BRANCH   2   5
ATOM      5  C   UNL     1      11.554 -19.300   8.735  1.00  0.00    -0.014 C 
ATOM      6  C   UNL     1      12.565 -20.088   7.878  1.00  0.00     0.007 C 
ATOM      7  C   UNL     1      10.237 -20.099   8.788  1.00  0.00     0.007 C 
ENDBRANCH   2   5
ENDBRANCH   1   2
BRANCH   1   8
ATOM      8  C   UNL     1      11.961 -16.538   9.310  1.00  0.00     0.004 C 
BRANCH   8   9
ATOM      9  C   UNL     1      11.048 -15.506  10.036  1.00  0.00    -0.011 C 
ATOM     10  C   UNL     1       9.874 -15.094   9.130  1.00  0.00     0.008 C 
BRANCH   9  11
ATOM     11  C   UNL     1      11.757 -14.259  10.680  1.00  0.00    -0.002 C 
ATOM     12  C   UNL     1      11.208 -12.913  10.167  1.00  0.00     0.005 C 
ATOM     13  C   UNL     1      11.914 -14.102  12.230  1.00  0.00    -0.026 C 
ATOM     14  C   UNL     1      11.392 -11.901  11.294  1.00  0.00     0.005 C 
ATOM     15  C   UNL     1      12.251 -12.597  12.358  1.00  0.00    -0.001 C 
ATOM     16  C   UNL     1      10.602 -14.416  12.996  1.00  0.00     0.007 C 
ATOM     17  C   UNL     1      13.087 -14.953  12.782  1.00  0.00     0.012 C 
ATOM     18  C   UNL     1      12.140 -12.015  13.801  1.00  0.00     0.004 C 
ATOM     19  C   UNL     1      10.603 -13.919  14.441  1.00  0.00     0.005 C 
ATOM     20  C   UNL     1      10.823 -12.389  14.527  1.00  0.00     0.003 C 
ATOM     21  C   UNL     1      12.323 -10.489  13.792  1.00  0.00     0.085 C 
ATOM     22  C   UNL     1      10.707 -11.775  16.007  1.00  0.00    -0.000 C 
ATOM     23  C   UNL     1      12.417  -9.970  15.187  1.00  0.00     0.159 C 
ATOM     24  C   UNL     1      11.804 -10.729  16.302  1.00  0.00     0.005 C 
ATOM     25  C   UNL     1      10.778 -12.881  17.116  1.00  0.00     0.020 C 
ATOM     26  C   UNL     1       9.344 -11.043  16.110  1.00  0.00     0.017 C 
ATOM     27  O   UNL     1      13.010  -8.875  15.397  1.00  0.00    -0.295 OA
ATOM     28  C   UNL     1      12.173 -10.438  17.565  1.00  0.00     0.055 C 
ATOM     29  C   UNL     1      10.710 -12.328  18.545  1.00  0.00     0.081 C 
ATOM     30  C   UNL     1      11.653 -11.180  18.723  1.00  0.00     0.156 C 
ATOM     31  O   UNL     1      12.000 -10.838  19.887  1.00  0.00    -0.295 OA
ENDBRANCH   9  11
ENDBRANCH   8   9
ENDBRANCH   1   8
TORSDOF 6
ENDMDL
MODEL 2
REMARK VINA RESULT:    -4.940      1.254      2.110
REMARK INTER + INTRA:          -8.262
REMARK INTER:                  -7.056
REMARK INTRA:                  -1.205
REMARK UNBOUND:                -1.589
REMARK SMILES CC[C@H](CC[C@H](C)[C@H]1CC[C@H]2[C@H]3CC(=O)C4=CC(=O)CC[C@]4(C)[C@@H]3CC[C@@]12C)C(C)C
REMARK SMILES IDX 4 1 3 2 2 3 1 4 29 5 30 6 31 7 5 8 6 9 7 10 8 11 9 12 27 13
REMARK SMILES IDX 10 14 11 15 26 16 28 17 12 18 25 19 24 20 13 21 22 22 14 23
REMARK SMILES IDX 16 24 21 25 23 26 15 27 17 28 20 29 18 30 19 31
REMARK H PARENT
REMARK Flexibility Score: inf
ROOT
ATOM      1  C   UNL     1      11.539 -19.091  10.887  1.00  0.00     0.004 C 
ENDROOT
BRANCH   1   2
ATOM      2  C   UNL     1      12.634 -19.008   9.775  1.00  0.00    -0.009 C 
BRANCH   2   3
ATOM      3  C   UNL     1      13.122 -20.437   9.401  1.00  0.00     0.000 C 
ATOM      4  C   UNL     1      12.946 -20.790   7.921  1.00  0.00     0.004 C 
ENDBRANCH   2   3
BRANCH   2   5
ATOM      5  C   UNL     1      12.166 -18.166   8.533  1.00  0.00    -0.014 C 
ATOM      6  C   UNL     1      10.704 -18.471   8.145  1.00  0.00     0.007 C 
ATOM      7  C   UNL     1      12.299 -16.650   8.771  1.00  0.00     0.007 C 
ENDBRANCH   2   5
ENDBRANCH   1   2
BRANCH   1   8
ATOM      8  C   UNL     1      11.908 -18.307  12.165  1.00  0.00     0.004 C 
BRANCH   8   9
ATOM      9  C   UNL     1      10.952 -17.106  12.431  1.00  0.00    -0.011 C 
ATOM     10  C   UNL     1       9.764 -17.136  11.454  1.00  0.00     0.008 C 
BRANCH   9  11
ATOM     11  C   UNL     1      11.610 -15.679  12.512  1.00  0.00    -0.002 C 
ATOM     12  C   UNL     1      10.942 -14.646  11.583  1.00  0.00     0.005 C 
ATOM     13  C   UNL     1      11.844 -14.949  13.876  1.00  0.00    -0.026 C 
ATOM     14  C   UNL     1      11.120 -13.280  12.238  1.00  0.00     0.005 C 
ATOM     15  C   UNL     1      12.085 -13.492  13.413  1.00  0.00    -0.001 C 
ATOM     16  C   UNL     1      10.603 -15.011  14.806  1.00  0.00     0.007 C 
ATOM     17  C   UNL     1      13.103 -15.483  14.609  1.00  0.00     0.012 C 
ATOM     18  C   UNL     1      12.017 -12.419  14.544  1.00  0.00     0.004 C 
ATOM     19  C   UNL     1      10.653 -14.010  15.960  1.00  0.00     0.005 C 
ATOM     20  C   UNL     1      10.772 -12.551  15.458  1.00  0.00     0.003 C 
ATOM     21  C   UNL     1      12.093 -11.000  13.957  1.00  0.00     0.085 C 
ATOM     22  C   UNL     1      10.699 -11.435  16.610  1.00  0.00    -0.000 C 
ATOM     23  C   UNL     1      12.232  -9.995  15.051  1.00  0.00     0.159 C 
ATOM     24  C   UNL     1      11.737 -10.309  16.411  1.00  0.00     0.005 C 
ATOM     25  C   UNL     1      10.909 -12.044  18.040  1.00  0.00     0.020 C 
ATOM     26  C   UNL     1       9.298 -10.776  16.543  1.00  0.00     0.017 C 
ATOM     27  O   UNL     1      12.759  -8.877  14.794  1.00  0.00    -0.295 OA
ATOM     28  C   UNL     1      12.157  -9.553  17.445  1.00  0.00     0.055 C 
ATOM     29  C   UNL     1      10.886 -11.001  19.165  1.00  0.00     0.081 C 
ATOM     30  C   UNL     1      11.756  -9.830  18.832  1.00  0.00     0.156 C 
ATOM     31  O   UNL     1      12.145  -9.064  19.756  1.00  0.00    -0.295 OA
ENDBRANCH   9  11
ENDBRANCH   8   9
ENDBRANCH   1   8
TORSDOF 6
ENDMDL
MODEL 3
REMARK VINA RESULT:    -4.352      1.470      2.832
REMARK INTER + INTRA:          -7.467
REMARK INTER:                  -6.289
REMARK INTRA:                  -1.178
REMARK UNBOUND:                -1.589
REMARK SMILES CC[C@H](CC[C@H](C)[C@H]1CC[C@H]2[C@H]3CC(=O)C4=CC(=O)CC[C@]4(C)[C@@H]3CC[C@@]12C)C(C)C
REMARK SMILES IDX 4 1 3 2 2 3 1 4 29 5 30 6 31 7 5 8 6 9 7 10 8 11 9 12 27 13
REMARK SMILES IDX 10 14 11 15 26 16 28 17 12 18 25 19 24 20 13 21 22 22 14 23
REMARK SMILES IDX 16 24 21 25 23 26 15 27 17 28 20 29 18 30 19 31
REMARK H PARENT
REMARK Flexibility Score: inf
ROOT
ATOM      1  C   UNL     1      10.818 -18.522  12.833  1.00  0.00     0.004 C 
ENDROOT
BRANCH   1   2
ATOM      2  C   UNL     1      11.759 -18.994  13.989  1.00  0.00    -0.009 C 
BRANCH   2   3
ATOM      3  C   UNL     1      13.109 -19.498  13.405  1.00  0.00     0.000 C 
ATOM      4  C   UNL     1      12.981 -20.741  12.518  1.00  0.00     0.004 C 
ENDBRANCH   2   3
BRANCH   2   5
ATOM      5  C   UNL     1      11.933 -17.901  15.104  1.00  0.00    -0.014 C 
ATOM      6  C   UNL     1      10.650 -17.718  15.942  1.00  0.00     0.007 C 
ATOM      7  C   UNL     1      13.096 -18.223  16.062  1.00  0.00     0.007 C 
ENDBRANCH   2   5
ENDBRANCH   1   2
BRANCH   1   8
ATOM      8  C   UNL     1      11.581 -17.888  11.649  1.00  0.00     0.004 C 
BRANCH   8   9
ATOM      9  C   UNL     1      10.904 -16.586  11.125  1.00  0.00    -0.011 C 
ATOM     10  C   UNL     1      10.595 -16.706   9.623  1.00  0.00     0.008 C 
BRANCH   9  11
ATOM     11  C   UNL     1      11.615 -15.227  11.472  1.00  0.00    -0.002 C 
ATOM     12  C   UNL     1      11.019 -14.018  10.723  1.00  0.00     0.005 C 
ATOM     13  C   UNL     1      11.835 -14.758  12.949  1.00  0.00    -0.026 C 
ATOM     14  C   UNL     1      11.230 -12.798  11.613  1.00  0.00     0.005 C 
ATOM     15  C   UNL     1      12.148 -13.255  12.755  1.00  0.00    -0.001 C 
ATOM     16  C   UNL     1      10.564 -14.925  13.823  1.00  0.00     0.007 C 
ATOM     17  C   UNL     1      13.048 -15.467  13.607  1.00  0.00     0.012 C 
ATOM     18  C   UNL     1      12.088 -12.394  14.055  1.00  0.00     0.004 C 
ATOM     19  C   UNL     1      10.618 -14.145  15.136  1.00  0.00     0.005 C 
ATOM     20  C   UNL     1      10.811 -12.627  14.901  1.00  0.00     0.003 C 
ATOM     21  C   UNL     1      12.240 -10.899  13.730  1.00  0.00     0.085 C 
ATOM     22  C   UNL     1      10.746 -11.728  16.230  1.00  0.00    -0.000 C 
ATOM     23  C   UNL     1      12.384 -10.108  14.986  1.00  0.00     0.159 C 
ATOM     24  C   UNL     1      11.834 -10.632  16.257  1.00  0.00     0.005 C 
ATOM     25  C   UNL     1      10.886 -12.586  17.535  1.00  0.00     0.020 C 
ATOM     26  C   UNL     1       9.375 -11.005  16.246  1.00  0.00     0.017 C 
ATOM     27  O   UNL     1      12.963  -8.987  14.942  1.00  0.00    -0.295 OA
ATOM     28  C   UNL     1      12.251 -10.088  17.417  1.00  0.00     0.055 C 
ATOM     29  C   UNL     1      10.869 -11.755  18.825  1.00  0.00     0.081 C 
ATOM     30  C   UNL     1      11.796 -10.585  18.724  1.00  0.00     0.156 C 
ATOM     31  O   UNL     1      12.186 -10.011  19.778  1.00  0.00    -0.295 OA
ENDBRANCH   9  11
ENDBRANCH   8   9
ENDBRANCH   1   8
TORSDOF 6
ENDMDL
MODEL 4
REMARK VINA RESULT:    -3.909      3.356      8.594
REMARK INTER + INTRA:          -6.870
REMARK INTER:                  -6.970
REMARK INTRA:                   0.100
REMARK UNBOUND:                -1.589
REMARK SMILES CC[C@H](CC[C@H](C)[C@H]1CC[C@H]2[C@H]3CC(=O)C4=CC(=O)CC[C@]4(C)[C@@H]3CC[C@@]12C)C(C)C
REMARK SMILES IDX 4 1 3 2 2 3 1 4 29 5 30 6 31 7 5 8 6 9 7 10 8 11 9 12 27 13
REMARK SMILES IDX 10 14 11 15 26 16 28 17 12 18 25 19 24 20 13 21 22 22 14 23
REMARK SMILES IDX 16 24 21 25 23 26 15 27 17 28 20 29 18 30 19 31
REMARK H PARENT
REMARK Flexibility Score: inf
ROOT
ATOM      1  C   UNL     1      11.738 -11.993  16.565  1.00  0.00     0.004 C 
ENDROOT
BRANCH   1   2
ATOM      2  C   UNL     1      10.519 -12.178  17.526  1.00  0.00    -0.009 C 
BRANCH   2   3
ATOM      3  C   UNL     1      10.424 -13.660  17.985  1.00  0.00     0.000 C 
ATOM      4  C   UNL     1       9.397 -14.491  17.208  1.00  0.00     0.004 C 
ENDBRANCH   2   3
BRANCH   2   5
ATOM      5  C   UNL     1      10.536 -11.156  18.720  1.00  0.00    -0.014 C 
ATOM      6  C   UNL     1      11.972 -10.783  19.142  1.00  0.00     0.007 C 
ATOM      7  C   UNL     1       9.774  -9.858  18.390  1.00  0.00     0.007 C 
ENDBRANCH   2   5
ENDBRANCH   1   2
BRANCH   1   8
ATOM      8  C   UNL     1      11.979 -10.521  16.164  1.00  0.00     0.004 C 
BRANCH   8   9
ATOM      9  C   UNL     1      12.314 -10.356  14.652  1.00  0.00    -0.011 C 
ATOM     10  C   UNL     1      12.658  -8.891  14.332  1.00  0.00     0.008 C 
BRANCH   9  11
ATOM     11  C   UNL     1      11.280 -10.954  13.627  1.00  0.00    -0.002 C 
ATOM     12  C   UNL     1      11.041 -10.046  12.404  1.00  0.00     0.005 C 
ATOM     13  C   UNL     1      11.413 -12.410  13.068  1.00  0.00    -0.026 C 
ATOM     14  C   UNL     1      10.675 -10.960  11.239  1.00  0.00     0.005 C 
ATOM     15  C   UNL     1      10.474 -12.359  11.839  1.00  0.00    -0.001 C 
ATOM     16  C   UNL     1      12.859 -12.746  12.615  1.00  0.00     0.007 C 
ATOM     17  C   UNL     1      10.898 -13.467  14.080  1.00  0.00     0.012 C 
ATOM     18  C   UNL     1      10.624 -13.549  10.841  1.00  0.00     0.004 C 
ATOM     19  C   UNL     1      12.950 -13.990  11.733  1.00  0.00     0.005 C 
ATOM     20  C   UNL     1      12.092 -13.856  10.452  1.00  0.00     0.003 C 
ATOM     21  C   UNL     1       9.781 -13.315   9.578  1.00  0.00     0.085 C 
ATOM     22  C   UNL     1      12.241 -15.072   9.413  1.00  0.00    -0.000 C 
ATOM     23  C   UNL     1       9.771 -14.541   8.728  1.00  0.00     0.159 C 
ATOM     24  C   UNL     1      10.886 -15.511   8.817  1.00  0.00     0.005 C 
ATOM     25  C   UNL     1      12.918 -16.329  10.063  1.00  0.00     0.020 C 
ATOM     26  C   UNL     1      13.117 -14.582   8.232  1.00  0.00     0.017 C 
ATOM     27  O   UNL     1       8.812 -14.725   7.927  1.00  0.00    -0.295 OA
ATOM     28  C   UNL     1      10.712 -16.748   8.310  1.00  0.00     0.055 C 
ATOM     29  C   UNL     1      13.040 -17.526   9.111  1.00  0.00     0.081 C 
ATOM     30  C   UNL     1      11.748 -17.787   8.404  1.00  0.00     0.156 C 
ATOM     31  O   UNL     1      11.548 -18.914   7.875  1.00  0.00    -0.295 OA
ENDBRANCH   9  11
ENDBRANCH   8   9
ENDBRANCH   1   8
TORSDOF 6
ENDMDL
MODEL 5
REMARK VINA RESULT:    -3.154      1.536      2.406
REMARK INTER + INTRA:          -5.850
REMARK INTER:                  -5.318
REMARK INTRA:                  -0.532
REMARK UNBOUND:                -1.589
REMARK SMILES CC[C@H](CC[C@H](C)[C@H]1CC[C@H]2[C@H]3CC(=O)C4=CC(=O)CC[C@]4(C)[C@@H]3CC[C@@]12C)C(C)C
REMARK SMILES IDX 4 1 3 2 2 3 1 4 29 5 30 6 31 7 5 8 6 9 7 10 8 11 9 12 27 13
REMARK SMILES IDX 10 14 11 15 26 16 28 17 12 18 25 19 24 20 13 21 22 22 14 23
REMARK SMILES IDX 16 24 21 25 23 26 15 27 17 28 20 29 18 30 19 31
REMARK H PARENT
REMARK Flexibility Score: inf
ROOT
ATOM      1  C   UNL     1      11.008 -18.271  10.857  1.00  0.00     0.004 C 
ENDROOT
BRANCH   1   2
ATOM      2  C   UNL     1      11.713 -19.664  10.780  1.00  0.00    -0.009 C 
BRANCH   2   3
ATOM      3  C   UNL     1      12.185 -19.941   9.324  1.00  0.00     0.000 C 
ATOM      4  C   UNL     1      11.044 -20.052   8.307  1.00  0.00     0.004 C 
ENDBRANCH   2   3
BRANCH   2   5
ATOM      5  C   UNL     1      12.858 -19.818  11.845  1.00  0.00    -0.014 C 
ATOM      6  C   UNL     1      12.682 -18.843  13.028  1.00  0.00     0.007 C 
ATOM      7  C   UNL     1      12.946 -21.251  12.406  1.00  0.00     0.007 C 
ENDBRANCH   2   5
ENDBRANCH   1   2
BRANCH   1   8
ATOM      8  C   UNL     1      11.866 -17.122  10.285  1.00  0.00     0.004 C 
BRANCH   8   9
ATOM      9  C   UNL     1      11.070 -16.202   9.313  1.00  0.00    -0.011 C 
ATOM     10  C   UNL     1      11.595 -16.354   7.875  1.00  0.00     0.008 C 
BRANCH   9  11
ATOM     11  C   UNL     1      10.921 -14.692   9.727  1.00  0.00    -0.002 C 
ATOM     12  C   UNL     1       9.454 -14.219   9.792  1.00  0.00     0.005 C 
ATOM     13  C   UNL     1      11.622 -14.106  10.998  1.00  0.00    -0.026 C 
ATOM     14  C   UNL     1       9.392 -13.109  10.836  1.00  0.00     0.005 C 
ATOM     15  C   UNL     1      10.847 -12.782  11.199  1.00  0.00    -0.001 C 
ATOM     16  C   UNL     1      11.451 -15.014  12.245  1.00  0.00     0.007 C 
ATOM     17  C   UNL     1      13.122 -13.805  10.743  1.00  0.00     0.012 C 
ATOM     18  C   UNL     1      11.059 -12.096  12.584  1.00  0.00     0.004 C 
ATOM     19  C   UNL     1      11.785 -14.313  13.561  1.00  0.00     0.005 C 
ATOM     20  C   UNL     1      10.907 -13.059  13.789  1.00  0.00     0.003 C 
ATOM     21  C   UNL     1      10.118 -10.892  12.749  1.00  0.00     0.085 C 
ATOM     22  C   UNL     1      11.110 -12.345  15.213  1.00  0.00    -0.000 C 
ATOM     23  C   UNL     1      10.467 -10.127  13.981  1.00  0.00     0.159 C 
ATOM     24  C   UNL     1      11.155 -10.806  15.103  1.00  0.00     0.005 C 
ATOM     25  C   UNL     1      12.420 -12.820  15.934  1.00  0.00     0.020 C 
ATOM     26  C   UNL     1       9.889 -12.700  16.100  1.00  0.00     0.017 C 
ATOM     27  O   UNL     1      10.153  -8.906  14.055  1.00  0.00    -0.295 OA
ATOM     28  C   UNL     1      11.753 -10.053  16.048  1.00  0.00     0.055 C 
ATOM     29  C   UNL     1      12.669 -12.129  17.281  1.00  0.00     0.081 C 
ATOM     30  C   UNL     1      12.502 -10.647  17.165  1.00  0.00     0.156 C 
ATOM     31  O   UNL     1      13.007  -9.896  18.044  1.00  0.00    -0.295 OA
ENDBRANCH   9  11
ENDBRANCH   8   9
ENDBRANCH   1   8
TORSDOF 6
ENDMDL
