MODEL 1
REMARK VINA RESULT:    -4.486      0.000      0.000
REMARK INTER + INTRA:          -5.924
REMARK INTER:                  -5.534
REMARK INTRA:                  -0.389
REMARK UNBOUND:                -0.389
REMARK SMILES C=CC[C@@H](C)C(=O)CC
REMARK SMILES IDX 4 1 5 2 6 3 7 4 8 5 9 6 3 7 2 8 1 9
REMARK H PARENT
REMARK Flexibility Score: inf
ROOT
ATOM      1  C   UNL     1      10.828  30.500  71.828  1.00  0.00     0.057 C 
ATOM      2  C   UNL     1       9.437  29.946  72.154  1.00  0.00     0.016 C 
ENDROOT
BRANCH   1   3
ATOM      3  C   UNL     1      11.151  31.662  72.747  1.00  0.00     0.135 C 
ATOM      4  O   UNL     1      12.160  32.327  72.554  1.00  0.00    -0.299 OA
BRANCH   3   5
ATOM      5  C   UNL     1      10.240  32.025  73.889  1.00  0.00     0.072 C 
ATOM      6  C   UNL     1      11.003  32.025  75.210  1.00  0.00     0.012 C 
ENDBRANCH   3   5
ENDBRANCH   1   3
BRANCH   1   7
ATOM      7  C   UNL     1      11.893  29.391  71.938  1.00  0.00     0.038 C 
BRANCH   7   8
ATOM      8  C   UNL     1      11.940  28.783  73.317  1.00  0.00    -0.034 C 
ATOM      9  C   UNL     1      12.854  27.869  73.653  1.00  0.00     0.004 C 
ENDBRANCH   7   8
ENDBRANCH   1   7
TORSDOF 4
ENDMDL
MODEL 2
REMARK VINA RESULT:    -4.473      1.981      3.866
REMARK INTER + INTRA:          -5.909
REMARK INTER:                  -5.659
REMARK INTRA:                  -0.250
REMARK UNBOUND:                -0.389
REMARK SMILES C=CC[C@@H](C)C(=O)CC
REMARK SMILES IDX 4 1 5 2 6 3 7 4 8 5 9 6 3 7 2 8 1 9
REMARK H PARENT
REMARK Flexibility Score: inf
ROOT
ATOM      1  C   UNL     1      10.836  30.710  73.981  1.00  0.00     0.057 C 
ATOM      2  C   UNL     1       9.517  31.013  74.699  1.00  0.00     0.016 C 
ENDROOT
BRANCH   1   3
ATOM      3  C   UNL     1      11.025  29.211  73.857  1.00  0.00     0.135 C 
ATOM      4  O   UNL     1      10.309  28.453  74.497  1.00  0.00    -0.299 OA
BRANCH   3   5
ATOM      5  C   UNL     1      12.074  28.633  72.944  1.00  0.00     0.072 C 
ATOM      6  C   UNL     1      13.053  27.765  73.726  1.00  0.00     0.012 C 
ENDBRANCH   3   5
ENDBRANCH   1   3
BRANCH   1   7
ATOM      7  C   UNL     1      10.869  31.391  72.598  1.00  0.00     0.038 C 
BRANCH   7   8
ATOM      8  C   UNL     1      11.960  32.426  72.500  1.00  0.00    -0.034 C 
ATOM      9  C   UNL     1      11.956  33.527  73.255  1.00  0.00     0.004 C 
ENDBRANCH   7   8
ENDBRANCH   1   7
TORSDOF 4
ENDMDL
MODEL 3
REMARK VINA RESULT:    -4.457      1.555      2.002
REMARK INTER + INTRA:          -5.889
REMARK INTER:                  -5.645
REMARK INTRA:                  -0.244
REMARK UNBOUND:                -0.389
REMARK SMILES C=CC[C@@H](C)C(=O)CC
REMARK SMILES IDX 4 1 5 2 6 3 7 4 8 5 9 6 3 7 2 8 1 9
REMARK H PARENT
REMARK Flexibility Score: inf
ROOT
ATOM      1  C   UNL     1      11.386  29.350  73.467  1.00  0.00     0.057 C 
ATOM      2  C   UNL     1      11.985  29.097  72.079  1.00  0.00     0.016 C 
ENDROOT
BRANCH   1   3
ATOM      3  C   UNL     1      11.162  30.835  73.672  1.00  0.00     0.135 C 
ATOM      4  O   UNL     1      11.654  31.637  72.890  1.00  0.00    -0.299 OA
BRANCH   3   5
ATOM      5  C   UNL     1      10.327  31.344  74.817  1.00  0.00     0.072 C 
ATOM      6  C   UNL     1      11.086  32.399  75.613  1.00  0.00     0.012 C 
ENDBRANCH   3   5
ENDBRANCH   1   3
BRANCH   1   7
ATOM      7  C   UNL     1      10.074  28.559  73.643  1.00  0.00     0.038 C 
BRANCH   7   8
ATOM      8  C   UNL     1      10.146  27.588  74.794  1.00  0.00    -0.034 C 
ATOM      9  C   UNL     1      10.927  26.506  74.754  1.00  0.00     0.004 C 
ENDBRANCH   7   8
ENDBRANCH   1   7
TORSDOF 4
ENDMDL
MODEL 4
REMARK VINA RESULT:    -4.421      1.643      2.412
REMARK INTER + INTRA:          -5.844
REMARK INTER:                  -5.385
REMARK INTRA:                  -0.459
REMARK UNBOUND:                -0.389
REMARK SMILES C=CC[C@@H](C)C(=O)CC
REMARK SMILES IDX 4 1 5 2 6 3 7 4 8 5 9 6 3 7 2 8 1 9
REMARK H PARENT
REMARK Flexibility Score: inf
ROOT
ATOM      1  C   UNL     1      10.426  31.002  73.831  1.00  0.00     0.057 C 
ATOM      2  C   UNL     1       9.162  30.948  74.695  1.00  0.00     0.016 C 
ENDROOT
BRANCH   1   3
ATOM      3  C   UNL     1      11.186  32.285  74.105  1.00  0.00     0.135 C 
ATOM      4  O   UNL     1      11.272  32.708  75.249  1.00  0.00    -0.299 OA
BRANCH   3   5
ATOM      5  C   UNL     1      11.854  33.045  72.990  1.00  0.00     0.072 C 
ATOM      6  C   UNL     1      11.001  33.013  71.727  1.00  0.00     0.012 C 
ENDBRANCH   3   5
ENDBRANCH   1   3
BRANCH   1   7
ATOM      7  C   UNL     1      11.311  29.766  74.088  1.00  0.00     0.038 C 
BRANCH   7   8
ATOM      8  C   UNL     1      11.447  28.899  72.862  1.00  0.00    -0.034 C 
ATOM      9  C   UNL     1      11.943  29.374  71.716  1.00  0.00     0.004 C 
ENDBRANCH   7   8
ENDBRANCH   1   7
TORSDOF 4
ENDMDL
MODEL 5
REMARK VINA RESULT:    -4.413      1.865      2.395
REMARK INTER + INTRA:          -5.834
REMARK INTER:                  -5.625
REMARK INTRA:                  -0.209
REMARK UNBOUND:                -0.389
REMARK SMILES C=CC[C@@H](C)C(=O)CC
REMARK SMILES IDX 4 1 5 2 6 3 7 4 8 5 9 6 3 7 2 8 1 9
REMARK H PARENT
REMARK Flexibility Score: inf
ROOT
ATOM      1  C   UNL     1      11.421  29.324  73.510  1.00  0.00     0.057 C 
ATOM      2  C   UNL     1      11.969  29.067  72.102  1.00  0.00     0.016 C 
ENDROOT
BRANCH   1   3
ATOM      3  C   UNL     1      11.295  30.815  73.753  1.00  0.00     0.135 C 
ATOM      4  O   UNL     1      10.911  31.222  74.840  1.00  0.00    -0.299 OA
BRANCH   3   5
ATOM      5  C   UNL     1      11.652  31.810  72.681  1.00  0.00     0.072 C 
ATOM      6  C   UNL     1      12.042  33.150  73.295  1.00  0.00     0.012 C 
ENDBRANCH   3   5
ENDBRANCH   1   3
BRANCH   1   7
ATOM      7  C   UNL     1      10.066  28.613  73.701  1.00  0.00     0.038 C 
BRANCH   7   8
ATOM      8  C   UNL     1      10.120  27.568  74.787  1.00  0.00    -0.034 C 
ATOM      9  C   UNL     1      10.941  26.518  74.712  1.00  0.00     0.004 C 
ENDBRANCH   7   8
ENDBRANCH   1   7
TORSDOF 4
ENDMDL
MODEL 6
REMARK VINA RESULT:    -4.408      2.195      3.779
REMARK INTER + INTRA:          -5.829
REMARK INTER:                  -5.529
REMARK INTRA:                  -0.299
REMARK UNBOUND:                -0.389
REMARK SMILES C=CC[C@@H](C)C(=O)CC
REMARK SMILES IDX 4 1 5 2 6 3 7 4 8 5 9 6 3 7 2 8 1 9
REMARK H PARENT
REMARK Flexibility Score: inf
ROOT
ATOM      1  C   UNL     1      10.418  30.046  74.024  1.00  0.00     0.057 C 
ATOM      2  C   UNL     1       9.515  31.077  74.709  1.00  0.00     0.016 C 
ENDROOT
BRANCH   1   3
ATOM      3  C   UNL     1       9.590  29.143  73.131  1.00  0.00     0.135 C 
ATOM      4  O   UNL     1       9.063  29.601  72.127  1.00  0.00    -0.299 OA
BRANCH   3   5
ATOM      5  C   UNL     1       9.415  27.683  73.451  1.00  0.00     0.072 C 
ATOM      6  C   UNL     1      10.153  27.318  74.735  1.00  0.00     0.012 C 
ENDBRANCH   3   5
ENDBRANCH   1   3
BRANCH   1   7
ATOM      7  C   UNL     1      11.533  30.750  73.224  1.00  0.00     0.038 C 
BRANCH   7   8
ATOM      8  C   UNL     1      11.268  32.224  73.056  1.00  0.00    -0.034 C 
ATOM      9  C   UNL     1      10.995  32.759  71.862  1.00  0.00     0.004 C 
ENDBRANCH   7   8
ENDBRANCH   1   7
TORSDOF 4
ENDMDL
MODEL 7
REMARK VINA RESULT:    -4.369      2.302      3.366
REMARK INTER + INTRA:          -5.781
REMARK INTER:                  -5.363
REMARK INTRA:                  -0.418
REMARK UNBOUND:                -0.389
REMARK SMILES C=CC[C@@H](C)C(=O)CC
REMARK SMILES IDX 4 1 5 2 6 3 7 4 8 5 9 6 3 7 2 8 1 9
REMARK H PARENT
REMARK Flexibility Score: inf
ROOT
ATOM      1  C   UNL     1      10.340  29.399  74.129  1.00  0.00     0.057 C 
ATOM      2  C   UNL     1       9.669  30.668  74.664  1.00  0.00     0.016 C 
ENDROOT
BRANCH   1   3
ATOM      3  C   UNL     1       9.455  28.745  73.086  1.00  0.00     0.135 C 
ATOM      4  O   UNL     1       9.080  29.391  72.117  1.00  0.00    -0.299 OA
BRANCH   3   5
ATOM      5  C   UNL     1       9.039  27.304  73.212  1.00  0.00     0.072 C 
ATOM      6  C   UNL     1       9.668  26.666  74.446  1.00  0.00     0.012 C 
ENDBRANCH   3   5
ENDBRANCH   1   3
BRANCH   1   7
ATOM      7  C   UNL     1      11.733  29.723  73.552  1.00  0.00     0.038 C 
BRANCH   7   8
ATOM      8  C   UNL     1      12.416  28.501  72.993  1.00  0.00    -0.034 C 
ATOM      9  C   UNL     1      13.177  27.710  73.754  1.00  0.00     0.004 C 
ENDBRANCH   7   8
ENDBRANCH   1   7
TORSDOF 4
ENDMDL
MODEL 8
REMARK VINA RESULT:    -4.289      1.457      3.588
REMARK INTER + INTRA:          -5.681
REMARK INTER:                  -5.387
REMARK INTRA:                  -0.294
REMARK UNBOUND:                -0.389
REMARK SMILES C=CC[C@@H](C)C(=O)CC
REMARK SMILES IDX 4 1 5 2 6 3 7 4 8 5 9 6 3 7 2 8 1 9
REMARK H PARENT
REMARK Flexibility Score: inf
ROOT
ATOM      1  C   UNL     1       9.742  29.361  73.070  1.00  0.00     0.057 C 
ATOM      2  C   UNL     1       9.342  30.224  71.869  1.00  0.00     0.016 C 
ENDROOT
BRANCH   1   3
ATOM      3  C   UNL     1      11.111  28.752  72.838  1.00  0.00     0.135 C 
ATOM      4  O   UNL     1      11.800  29.145  71.907  1.00  0.00    -0.299 OA
BRANCH   3   5
ATOM      5  C   UNL     1      11.647  27.677  73.746  1.00  0.00     0.072 C 
ATOM      6  C   UNL     1      13.171  27.690  73.758  1.00  0.00     0.012 C 
ENDBRANCH   3   5
ENDBRANCH   1   3
BRANCH   1   7
ATOM      7  C   UNL     1       9.716  30.193  74.368  1.00  0.00     0.038 C 
BRANCH   7   8
ATOM      8  C   UNL     1      10.411  31.521  74.206  1.00  0.00    -0.034 C 
ATOM      9  C   UNL     1      11.009  32.132  75.232  1.00  0.00     0.004 C 
ENDBRANCH   7   8
ENDBRANCH   1   7
TORSDOF 4
ENDMDL
MODEL 9
REMARK VINA RESULT:    -4.263      1.578      2.460
REMARK INTER + INTRA:          -5.650
REMARK INTER:                  -5.411
REMARK INTRA:                  -0.239
REMARK UNBOUND:                -0.389
REMARK SMILES C=CC[C@@H](C)C(=O)CC
REMARK SMILES IDX 4 1 5 2 6 3 7 4 8 5 9 6 3 7 2 8 1 9
REMARK H PARENT
REMARK Flexibility Score: inf
ROOT
ATOM      1  C   UNL     1      10.065  30.713  73.978  1.00  0.00     0.057 C 
ATOM      2  C   UNL     1      10.868  31.615  74.921  1.00  0.00     0.016 C 
ENDROOT
BRANCH   1   3
ATOM      3  C   UNL     1      10.198  31.207  72.551  1.00  0.00     0.135 C 
ATOM      4  O   UNL     1       9.487  30.732  71.676  1.00  0.00    -0.299 OA
BRANCH   3   5
ATOM      5  C   UNL     1      11.182  32.288  72.191  1.00  0.00     0.072 C 
ATOM      6  C   UNL     1      10.456  33.562  71.772  1.00  0.00     0.012 C 
ENDBRANCH   3   5
ENDBRANCH   1   3
BRANCH   1   7
ATOM      7  C   UNL     1      10.529  29.248  74.105  1.00  0.00     0.038 C 
BRANCH   7   8
ATOM      8  C   UNL     1      11.906  29.035  73.528  1.00  0.00    -0.034 C 
ATOM      9  C   UNL     1      12.563  27.883  73.684  1.00  0.00     0.004 C 
ENDBRANCH   7   8
ENDBRANCH   1   7
TORSDOF 4
ENDMDL
