MODEL 1
REMARK VINA RESULT:    -5.315      0.000      0.000
REMARK INTER + INTRA:          -7.963
REMARK INTER:                  -7.801
REMARK INTRA:                  -0.162
REMARK UNBOUND:                -0.162
REMARK SMILES O=c1c(O[C@H]2O[C@@H](CO)[C@@H](O)[C@H](O)[C@H]2O)c(-c2ccc(O)c(O)c2)oc2cc(O)cc(O)c12
REMARK SMILES IDX 4 1 3 2 16 3 25 4 2 5 26 6 1 7 33 8 27 9 31 10 28 11 30 12
REMARK SMILES IDX 17 13 18 14 19 15 20 16 24 17 22 18 21 19 23 21 32 23 29 25
REMARK SMILES IDX 5 27 14 28 6 29 12 30 7 31 10 32 15 33 13 35 8 37 9 38 11 40
REMARK H PARENT 21 20 23 22 32 24 29 26 15 34 13 36 9 39 11 41
REMARK Flexibility Score: inf
ROOT
ATOM      1  O   UNL     1     -11.036 -10.977  -5.718  1.00  0.00    -0.454 OA
ENDROOT
BRANCH   1   2
ATOM      2  C   UNL     1     -10.854  -9.579  -5.642  1.00  0.00     0.214 A 
ATOM      3  C   UNL     1      -9.554  -9.040  -5.625  1.00  0.00     0.180 A 
ATOM      4  O   UNL     1      -9.377  -7.743  -5.384  1.00  0.00    -0.452 OA
ATOM      5  C   UNL     1     -11.943  -8.671  -5.554  1.00  0.00     0.239 A 
ATOM      6  C   UNL     1     -10.365  -6.875  -5.243  1.00  0.00     0.146 A 
ATOM      7  O   UNL     1     -13.130  -9.073  -5.689  1.00  0.00    -0.285 OA
ATOM      8  C   UNL     1     -11.703  -7.297  -5.337  1.00  0.00     0.111 A 
ATOM      9  C   UNL     1     -10.065  -5.534  -5.003  1.00  0.00     0.094 A 
ATOM     10  C   UNL     1     -12.748  -6.334  -5.211  1.00  0.00     0.134 A 
ATOM     11  C   UNL     1     -11.089  -4.588  -4.885  1.00  0.00     0.123 A 
ATOM     12  C   UNL     1     -12.421  -4.985  -4.998  1.00  0.00     0.093 A 
BRANCH   3  13
ATOM     13  C   UNL     1      -8.345  -9.838  -5.933  1.00  0.00     0.025 A 
ATOM     14  C   UNL     1      -7.045  -9.350  -5.692  1.00  0.00     0.016 A 
ATOM     15  C   UNL     1      -5.929 -10.146  -5.915  1.00  0.00     0.051 A 
ATOM     16  C   UNL     1      -6.079 -11.443  -6.410  1.00  0.00     0.157 A 
ATOM     17  C   UNL     1      -8.502 -11.171  -6.344  1.00  0.00     0.062 A 
ATOM     18  C   UNL     1      -7.369 -11.965  -6.615  1.00  0.00     0.158 A 
BRANCH  16  19
ATOM     19  O   UNL     1      -4.961 -12.232  -6.703  1.00  0.00    -0.504 OA
ATOM     20  H   UNL     1      -4.794 -12.571  -7.652  1.00  0.00     0.293 HD
ENDBRANCH  16  19
BRANCH  18  21
ATOM     21  O   UNL     1      -7.561 -13.270  -7.074  1.00  0.00    -0.504 OA
ATOM     22  H   UNL     1      -7.285 -13.564  -8.001  1.00  0.00     0.293 HD
ENDBRANCH  18  21
ENDBRANCH   3  13
BRANCH  10  23
ATOM     23  O   UNL     1     -14.080  -6.720  -5.263  1.00  0.00    -0.507 OA
ATOM     24  H   UNL     1     -14.653  -6.604  -6.087  1.00  0.00     0.293 HD
ENDBRANCH  10  23
BRANCH  11  25
ATOM     25  O   UNL     1     -10.787  -3.239  -4.665  1.00  0.00    -0.508 OA
ATOM     26  H   UNL     1     -11.295  -2.507  -5.158  1.00  0.00     0.293 HD
ENDBRANCH  11  25
ENDBRANCH   1   2
BRANCH   1  27
ATOM     27  C   UNL     1     -11.269 -11.786  -4.573  1.00  0.00     0.339 C 
ATOM     28  C   UNL     1     -11.379 -13.282  -4.927  1.00  0.00     0.214 C 
ATOM     29  O   UNL     1     -12.462 -11.392  -3.943  1.00  0.00    -0.332 OA
ATOM     30  C   UNL     1     -11.256 -14.032  -3.588  1.00  0.00     0.180 C 
ATOM     31  C   UNL     1     -12.482 -11.942  -2.624  1.00  0.00     0.179 C 
ATOM     32  C   UNL     1     -12.379 -13.514  -2.599  1.00  0.00     0.177 C 
BRANCH  28  33
ATOM     33  O   UNL     1     -12.638 -13.523  -5.489  1.00  0.00    -0.384 OA
ATOM     34  H   UNL     1     -12.555 -14.313  -6.093  1.00  0.00     0.211 HD
ENDBRANCH  28  33
BRANCH  30  35
ATOM     35  O   UNL     1      -9.970 -13.821  -3.075  1.00  0.00    -0.387 OA
ATOM     36  H   UNL     1      -9.378 -13.454  -3.781  1.00  0.00     0.211 HD
ENDBRANCH  30  35
BRANCH  31  37
ATOM     37  C   UNL     1     -13.653 -11.333  -1.847  1.00  0.00     0.191 C 
BRANCH  37  38
ATOM     38  O   UNL     1     -14.078 -12.251  -0.866  1.00  0.00    -0.394 OA
ATOM     39  H   UNL     1     -13.261 -12.710  -0.522  1.00  0.00     0.210 HD
ENDBRANCH  37  38
ENDBRANCH  31  37
BRANCH  32  40
ATOM     40  O   UNL     1     -13.619 -14.125  -2.848  1.00  0.00    -0.387 OA
ATOM     41  H   UNL     1     -13.935 -13.796  -3.742  1.00  0.00     0.211 HD
ENDBRANCH  32  40
ENDBRANCH   1  27
TORSDOF 12
ENDMDL
MODEL 2
REMARK VINA RESULT:    -4.998      1.789      2.960
REMARK INTER + INTRA:          -7.497
REMARK INTER:                  -7.167
REMARK INTRA:                  -0.330
REMARK UNBOUND:                -0.162
REMARK SMILES O=c1c(O[C@H]2O[C@@H](CO)[C@@H](O)[C@H](O)[C@H]2O)c(-c2ccc(O)c(O)c2)oc2cc(O)cc(O)c12
REMARK SMILES IDX 4 1 3 2 16 3 25 4 2 5 26 6 1 7 33 8 27 9 31 10 28 11 30 12
REMARK SMILES IDX 17 13 18 14 19 15 20 16 24 17 22 18 21 19 23 21 32 23 29 25
REMARK SMILES IDX 5 27 14 28 6 29 12 30 7 31 10 32 15 33 13 35 8 37 9 38 11 40
REMARK H PARENT 21 20 23 22 32 24 29 26 15 34 13 36 9 39 11 41
REMARK Flexibility Score: inf
ROOT
ATOM      1  O   UNL     1     -10.807 -11.068  -5.148  1.00  0.00    -0.454 OA
ENDROOT
BRANCH   1   2
ATOM      2  C   UNL     1     -10.732  -9.665  -5.289  1.00  0.00     0.214 A 
ATOM      3  C   UNL     1      -9.485  -9.046  -5.491  1.00  0.00     0.180 A 
ATOM      4  O   UNL     1      -9.390  -7.719  -5.454  1.00  0.00    -0.452 OA
ATOM      5  C   UNL     1     -11.877  -8.828  -5.210  1.00  0.00     0.239 A 
ATOM      6  C   UNL     1     -10.426  -6.906  -5.328  1.00  0.00     0.146 A 
ATOM      7  O   UNL     1     -13.035  -9.322  -5.157  1.00  0.00    -0.285 OA
ATOM      8  C   UNL     1     -11.728  -7.424  -5.215  1.00  0.00     0.111 A 
ATOM      9  C   UNL     1     -10.212  -5.527  -5.312  1.00  0.00     0.094 A 
ATOM     10  C   UNL     1     -12.829  -6.524  -5.110  1.00  0.00     0.134 A 
ATOM     11  C   UNL     1     -11.293  -4.644  -5.216  1.00  0.00     0.123 A 
ATOM     12  C   UNL     1     -12.593  -5.139  -5.126  1.00  0.00     0.093 A 
BRANCH   3  13
ATOM     13  C   UNL     1      -8.252  -9.800  -5.814  1.00  0.00     0.025 A 
ATOM     14  C   UNL     1      -6.967  -9.279  -5.558  1.00  0.00     0.016 A 
ATOM     15  C   UNL     1      -5.828 -10.036  -5.797  1.00  0.00     0.051 A 
ATOM     16  C   UNL     1      -5.938 -11.325  -6.324  1.00  0.00     0.157 A 
ATOM     17  C   UNL     1      -8.368 -11.126  -6.257  1.00  0.00     0.062 A 
ATOM     18  C   UNL     1      -7.211 -11.880  -6.545  1.00  0.00     0.158 A 
BRANCH  16  19
ATOM     19  O   UNL     1      -4.796 -12.072  -6.633  1.00  0.00    -0.504 OA
ATOM     20  H   UNL     1      -4.876 -13.010  -7.029  1.00  0.00     0.293 HD
ENDBRANCH  16  19
BRANCH  18  21
ATOM     21  O   UNL     1      -7.363 -13.178  -7.036  1.00  0.00    -0.504 OA
ATOM     22  H   UNL     1      -7.192 -13.414  -8.004  1.00  0.00     0.293 HD
ENDBRANCH  18  21
ENDBRANCH   3  13
BRANCH  10  23
ATOM     23  O   UNL     1     -14.125  -7.000  -4.962  1.00  0.00    -0.507 OA
ATOM     24  H   UNL     1     -14.400  -7.616  -4.211  1.00  0.00     0.293 HD
ENDBRANCH  10  23
BRANCH  11  25
ATOM     25  O   UNL     1     -11.080  -3.260  -5.221  1.00  0.00    -0.508 OA
ATOM     26  H   UNL     1     -10.444  -2.831  -4.551  1.00  0.00     0.293 HD
ENDBRANCH  11  25
ENDBRANCH   1   2
BRANCH   1  27
ATOM     27  C   UNL     1     -11.691 -11.873  -5.917  1.00  0.00     0.339 C 
ATOM     28  C   UNL     1     -11.293 -13.362  -5.898  1.00  0.00     0.214 C 
ATOM     29  O   UNL     1     -11.700 -11.434  -7.252  1.00  0.00    -0.332 OA
ATOM     30  C   UNL     1     -12.518 -14.122  -6.440  1.00  0.00     0.180 C 
ATOM     31  C   UNL     1     -12.844 -11.989  -7.905  1.00  0.00     0.179 C 
ATOM     32  C   UNL     1     -12.879 -13.564  -7.878  1.00  0.00     0.177 C 
BRANCH  28  33
ATOM     33  O   UNL     1     -10.203 -13.549  -6.756  1.00  0.00    -0.384 OA
ATOM     34  H   UNL     1      -9.393 -13.185  -6.300  1.00  0.00     0.211 HD
ENDBRANCH  28  33
BRANCH  30  35
ATOM     35  O   UNL     1     -13.576 -13.965  -5.537  1.00  0.00    -0.387 OA
ATOM     36  H   UNL     1     -14.402 -14.371  -5.906  1.00  0.00     0.211 HD
ENDBRANCH  30  35
BRANCH  31  37
ATOM     37  C   UNL     1     -12.998 -11.338  -9.283  1.00  0.00     0.191 C 
BRANCH  37  38
ATOM     38  O   UNL     1     -13.797 -12.166 -10.094  1.00  0.00    -0.394 OA
ATOM     39  H   UNL     1     -13.217 -12.916 -10.406  1.00  0.00     0.210 HD
ENDBRANCH  37  38
ENDBRANCH  31  37
BRANCH  32  40
ATOM     40  O   UNL     1     -12.066 -14.123  -8.877  1.00  0.00    -0.387 OA
ATOM     41  H   UNL     1     -11.114 -13.916  -8.633  1.00  0.00     0.211 HD
ENDBRANCH  32  40
ENDBRANCH   1  27
TORSDOF 12
ENDMDL
MODEL 3
REMARK VINA RESULT:    -4.086      1.704      2.259
REMARK INTER + INTRA:          -6.159
REMARK INTER:                  -5.834
REMARK INTRA:                  -0.324
REMARK UNBOUND:                -0.162
REMARK SMILES O=c1c(O[C@H]2O[C@@H](CO)[C@@H](O)[C@H](O)[C@H]2O)c(-c2ccc(O)c(O)c2)oc2cc(O)cc(O)c12
REMARK SMILES IDX 4 1 3 2 16 3 25 4 2 5 26 6 1 7 33 8 27 9 31 10 28 11 30 12
REMARK SMILES IDX 17 13 18 14 19 15 20 16 24 17 22 18 21 19 23 21 32 23 29 25
REMARK SMILES IDX 5 27 14 28 6 29 12 30 7 31 10 32 15 33 13 35 8 37 9 38 11 40
REMARK H PARENT 21 20 23 22 32 24 29 26 15 34 13 36 9 39 11 41
REMARK Flexibility Score: inf
ROOT
ATOM      1  O   UNL     1     -10.005 -11.106  -4.672  1.00  0.00    -0.454 OA
ENDROOT
BRANCH   1   2
ATOM      2  C   UNL     1     -10.045  -9.773  -5.133  1.00  0.00     0.214 A 
ATOM      3  C   UNL     1      -8.862  -9.143  -5.565  1.00  0.00     0.180 A 
ATOM      4  O   UNL     1      -8.867  -7.841  -5.839  1.00  0.00    -0.452 OA
ATOM      5  C   UNL     1     -11.243  -9.010  -5.160  1.00  0.00     0.239 A 
ATOM      6  C   UNL     1      -9.952  -7.084  -5.822  1.00  0.00     0.146 A 
ATOM      7  O   UNL     1     -12.355  -9.547  -4.908  1.00  0.00    -0.285 OA
ATOM      8  C   UNL     1     -11.202  -7.639  -5.496  1.00  0.00     0.111 A 
ATOM      9  C   UNL     1      -9.843  -5.730  -6.137  1.00  0.00     0.094 A 
ATOM     10  C   UNL     1     -12.360  -6.807  -5.516  1.00  0.00     0.134 A 
ATOM     11  C   UNL     1     -10.980  -4.915  -6.163  1.00  0.00     0.123 A 
ATOM     12  C   UNL     1     -12.231  -5.453  -5.864  1.00  0.00     0.093 A 
BRANCH   3  13
ATOM     13  C   UNL     1      -7.598  -9.877  -5.801  1.00  0.00     0.025 A 
ATOM     14  C   UNL     1      -6.621 -10.025  -4.796  1.00  0.00     0.016 A 
ATOM     15  C   UNL     1      -5.478 -10.784  -5.015  1.00  0.00     0.051 A 
ATOM     16  C   UNL     1      -5.267 -11.393  -6.254  1.00  0.00     0.157 A 
ATOM     17  C   UNL     1      -7.430 -10.562  -7.014  1.00  0.00     0.062 A 
ATOM     18  C   UNL     1      -6.249 -11.294  -7.255  1.00  0.00     0.158 A 
BRANCH  16  19
ATOM     19  O   UNL     1      -4.088 -12.103  -6.511  1.00  0.00    -0.504 OA
ATOM     20  H   UNL     1      -4.003 -12.693  -7.340  1.00  0.00     0.293 HD
ENDBRANCH  16  19
BRANCH  18  21
ATOM     21  O   UNL     1      -6.090 -11.919  -8.494  1.00  0.00    -0.504 OA
ATOM     22  H   UNL     1      -6.547 -12.790  -8.724  1.00  0.00     0.293 HD
ENDBRANCH  18  21
ENDBRANCH   3  13
BRANCH  10  23
ATOM     23  O   UNL     1     -13.605  -7.313  -5.165  1.00  0.00    -0.507 OA
ATOM     24  H   UNL     1     -13.788  -8.301  -5.071  1.00  0.00     0.293 HD
ENDBRANCH  10  23
BRANCH  11  25
ATOM     25  O   UNL     1     -10.873  -3.560  -6.499  1.00  0.00    -0.508 OA
ATOM     26  H   UNL     1     -10.430  -2.901  -5.861  1.00  0.00     0.293 HD
ENDBRANCH  11  25
ENDBRANCH   1   2
BRANCH   1  27
ATOM     27  C   UNL     1     -10.541 -12.194  -5.413  1.00  0.00     0.339 C 
ATOM     28  C   UNL     1     -10.543 -11.924  -6.931  1.00  0.00     0.214 C 
ATOM     29  O   UNL     1     -11.863 -12.445  -5.007  1.00  0.00    -0.332 OA
ATOM     30  C   UNL     1     -10.790 -13.293  -7.592  1.00  0.00     0.180 C 
ATOM     31  C   UNL     1     -12.243 -13.741  -5.473  1.00  0.00     0.179 C 
ATOM     32  C   UNL     1     -12.145 -13.899  -7.038  1.00  0.00     0.177 C 
BRANCH  28  33
ATOM     33  O   UNL     1     -11.598 -11.056  -7.234  1.00  0.00    -0.384 OA
ATOM     34  H   UNL     1     -11.973 -10.723  -6.371  1.00  0.00     0.211 HD
ENDBRANCH  28  33
BRANCH  30  35
ATOM     35  O   UNL     1      -9.696 -14.123  -7.320  1.00  0.00    -0.387 OA
ATOM     36  H   UNL     1      -9.619 -14.278  -6.344  1.00  0.00     0.211 HD
ENDBRANCH  30  35
BRANCH  31  37
ATOM     37  C   UNL     1     -13.586 -14.125  -4.843  1.00  0.00     0.191 C 
BRANCH  37  38
ATOM     38  O   UNL     1     -13.842 -13.269  -3.754  1.00  0.00    -0.394 OA
ATOM     39  H   UNL     1     -12.957 -13.016  -3.367  1.00  0.00     0.210 HD
ENDBRANCH  37  38
ENDBRANCH  31  37
BRANCH  32  40
ATOM     40  O   UNL     1     -13.266 -13.360  -7.690  1.00  0.00    -0.387 OA
ATOM     41  H   UNL     1     -13.072 -12.388  -7.855  1.00  0.00     0.211 HD
ENDBRANCH  32  40
ENDBRANCH   1  27
TORSDOF 12
ENDMDL
MODEL 4
REMARK VINA RESULT:    -3.837      1.785      6.165
REMARK INTER + INTRA:          -5.794
REMARK INTER:                  -6.519
REMARK INTRA:                   0.725
REMARK UNBOUND:                -0.162
REMARK SMILES O=c1c(O[C@H]2O[C@@H](CO)[C@@H](O)[C@H](O)[C@H]2O)c(-c2ccc(O)c(O)c2)oc2cc(O)cc(O)c12
REMARK SMILES IDX 4 1 3 2 16 3 25 4 2 5 26 6 1 7 33 8 27 9 31 10 28 11 30 12
REMARK SMILES IDX 17 13 18 14 19 15 20 16 24 17 22 18 21 19 23 21 32 23 29 25
REMARK SMILES IDX 5 27 14 28 6 29 12 30 7 31 10 32 15 33 13 35 8 37 9 38 11 40
REMARK H PARENT 21 20 23 22 32 24 29 26 15 34 13 36 9 39 11 41
REMARK Flexibility Score: inf
ROOT
ATOM      1  O   UNL     1      -9.546  -8.158  -6.251  1.00  0.00    -0.454 OA
ENDROOT
BRANCH   1   2
ATOM      2  C   UNL     1     -10.106  -9.282  -5.606  1.00  0.00     0.214 A 
ATOM      3  C   UNL     1      -9.366 -10.474  -5.505  1.00  0.00     0.180 A 
ATOM      4  O   UNL     1      -9.949 -11.580  -5.050  1.00  0.00    -0.452 OA
ATOM      5  C   UNL     1     -11.419  -9.274  -5.063  1.00  0.00     0.239 A 
ATOM      6  C   UNL     1     -11.188 -11.627  -4.586  1.00  0.00     0.146 A 
ATOM      7  O   UNL     1     -12.088  -8.209  -5.007  1.00  0.00    -0.285 OA
ATOM      8  C   UNL     1     -11.981 -10.466  -4.556  1.00  0.00     0.111 A 
ATOM      9  C   UNL     1     -11.697 -12.841  -4.124  1.00  0.00     0.094 A 
ATOM     10  C   UNL     1     -13.301 -10.539  -4.022  1.00  0.00     0.134 A 
ATOM     11  C   UNL     1     -12.990 -12.911  -3.595  1.00  0.00     0.123 A 
ATOM     12  C   UNL     1     -13.783 -11.765  -3.536  1.00  0.00     0.093 A 
BRANCH   3  13
ATOM     13  C   UNL     1      -7.921 -10.556  -5.821  1.00  0.00     0.025 A 
ATOM     14  C   UNL     1      -6.943  -9.935  -5.018  1.00  0.00     0.016 A 
ATOM     15  C   UNL     1      -5.590 -10.091  -5.288  1.00  0.00     0.051 A 
ATOM     16  C   UNL     1      -5.177 -10.849  -6.386  1.00  0.00     0.157 A 
ATOM     17  C   UNL     1      -7.505 -11.392  -6.869  1.00  0.00     0.062 A 
ATOM     18  C   UNL     1      -6.133 -11.514  -7.174  1.00  0.00     0.158 A 
BRANCH  16  19
ATOM     19  O   UNL     1      -3.819 -10.958  -6.710  1.00  0.00    -0.504 OA
ATOM     20  H   UNL     1      -3.354 -10.236  -7.262  1.00  0.00     0.293 HD
ENDBRANCH  16  19
BRANCH  18  21
ATOM     21  O   UNL     1      -5.757 -12.310  -8.257  1.00  0.00    -0.504 OA
ATOM     22  H   UNL     1      -4.809 -12.636  -8.387  1.00  0.00     0.293 HD
ENDBRANCH  18  21
ENDBRANCH   3  13
BRANCH  10  23
ATOM     23  O   UNL     1     -14.125  -9.421  -4.009  1.00  0.00    -0.507 OA
ATOM     24  H   UNL     1     -14.522  -9.023  -4.847  1.00  0.00     0.293 HD
ENDBRANCH  10  23
BRANCH  11  25
ATOM     25  O   UNL     1     -13.493 -14.125  -3.111  1.00  0.00    -0.508 OA
ATOM     26  H   UNL     1     -12.987 -14.649  -2.400  1.00  0.00     0.293 HD
ENDBRANCH  11  25
ENDBRANCH   1   2
BRANCH   1  27
ATOM     27  C   UNL     1     -10.332  -7.078  -6.739  1.00  0.00     0.339 C 
ATOM     28  C   UNL     1      -9.549  -6.178  -7.715  1.00  0.00     0.214 C 
ATOM     29  O   UNL     1     -10.776  -6.287  -5.666  1.00  0.00    -0.332 OA
ATOM     30  C   UNL     1     -10.611  -5.313  -8.419  1.00  0.00     0.180 C 
ATOM     31  C   UNL     1     -11.845  -5.457  -6.125  1.00  0.00     0.179 C 
ATOM     32  C   UNL     1     -11.440  -4.520  -7.326  1.00  0.00     0.177 C 
BRANCH  28  33
ATOM     33  O   UNL     1      -8.685  -5.360  -6.980  1.00  0.00    -0.384 OA
ATOM     34  H   UNL     1      -8.621  -5.737  -6.058  1.00  0.00     0.211 HD
ENDBRANCH  28  33
BRANCH  30  35
ATOM     35  O   UNL     1     -11.428  -6.150  -9.190  1.00  0.00    -0.387 OA
ATOM     36  H   UNL     1     -11.843  -6.844  -8.617  1.00  0.00     0.211 HD
ENDBRANCH  30  35
BRANCH  31  37
ATOM     37  C   UNL     1     -12.492  -4.764  -4.922  1.00  0.00     0.191 C 
BRANCH  37  38
ATOM     38  O   UNL     1     -11.484  -4.386  -4.015  1.00  0.00    -0.394 OA
ATOM     39  H   UNL     1     -11.823  -3.590  -3.517  1.00  0.00     0.210 HD
ENDBRANCH  37  38
ENDBRANCH  31  37
BRANCH  32  40
ATOM     40  O   UNL     1     -10.765  -3.369  -6.889  1.00  0.00    -0.387 OA
ATOM     41  H   UNL     1      -9.890  -3.336  -7.381  1.00  0.00     0.211 HD
ENDBRANCH  32  40
ENDBRANCH   1  27
TORSDOF 12
ENDMDL
MODEL 5
REMARK VINA RESULT:    -3.655      1.676      5.513
REMARK INTER + INTRA:          -5.526
REMARK INTER:                  -4.321
REMARK INTRA:                  -1.205
REMARK UNBOUND:                -0.162
REMARK SMILES O=c1c(O[C@H]2O[C@@H](CO)[C@@H](O)[C@H](O)[C@H]2O)c(-c2ccc(O)c(O)c2)oc2cc(O)cc(O)c12
REMARK SMILES IDX 4 1 3 2 16 3 25 4 2 5 26 6 1 7 33 8 27 9 31 10 28 11 30 12
REMARK SMILES IDX 17 13 18 14 19 15 20 16 24 17 22 18 21 19 23 21 32 23 29 25
REMARK SMILES IDX 5 27 14 28 6 29 12 30 7 31 10 32 15 33 13 35 8 37 9 38 11 40
REMARK H PARENT 21 20 23 22 32 24 29 26 15 34 13 36 9 39 11 41
REMARK Flexibility Score: inf
ROOT
ATOM      1  O   UNL     1      -9.462 -10.287  -5.006  1.00  0.00    -0.454 OA
ENDROOT
BRANCH   1   2
ATOM      2  C   UNL     1     -10.298  -9.169  -5.223  1.00  0.00     0.214 A 
ATOM      3  C   UNL     1     -11.696  -9.326  -5.213  1.00  0.00     0.180 A 
ATOM      4  O   UNL     1     -12.479  -8.316  -5.582  1.00  0.00    -0.452 OA
ATOM      5  C   UNL     1      -9.783  -7.871  -5.481  1.00  0.00     0.239 A 
ATOM      6  C   UNL     1     -12.035  -7.106  -5.883  1.00  0.00     0.146 A 
ATOM      7  O   UNL     1      -8.551  -7.633  -5.382  1.00  0.00    -0.285 OA
ATOM      8  C   UNL     1     -10.659  -6.820  -5.832  1.00  0.00     0.111 A 
ATOM      9  C   UNL     1     -12.948  -6.117  -6.248  1.00  0.00     0.094 A 
ATOM     10  C   UNL     1     -10.212  -5.500  -6.132  1.00  0.00     0.134 A 
ATOM     11  C   UNL     1     -12.509  -4.820  -6.536  1.00  0.00     0.123 A 
ATOM     12  C   UNL     1     -11.151  -4.512  -6.469  1.00  0.00     0.093 A 
BRANCH   3  13
ATOM     13  C   UNL     1     -12.366 -10.560  -4.740  1.00  0.00     0.025 A 
ATOM     14  C   UNL     1     -13.042 -11.428  -5.622  1.00  0.00     0.016 A 
ATOM     15  C   UNL     1     -13.595 -12.619  -5.169  1.00  0.00     0.051 A 
ATOM     16  C   UNL     1     -13.513 -12.962  -3.818  1.00  0.00     0.157 A 
ATOM     17  C   UNL     1     -12.204 -10.946  -3.401  1.00  0.00     0.062 A 
ATOM     18  C   UNL     1     -12.806 -12.132  -2.930  1.00  0.00     0.158 A 
BRANCH  16  19
ATOM     19  O   UNL     1     -14.125 -14.125  -3.336  1.00  0.00    -0.504 OA
ATOM     20  H   UNL     1     -13.569 -14.949  -3.099  1.00  0.00     0.293 HD
ENDBRANCH  16  19
BRANCH  18  21
ATOM     21  O   UNL     1     -12.671 -12.459  -1.579  1.00  0.00    -0.504 OA
ATOM     22  H   UNL     1     -11.930 -13.056  -1.238  1.00  0.00     0.293 HD
ENDBRANCH  18  21
ENDBRANCH   3  13
BRANCH  10  23
ATOM     23  O   UNL     1      -8.858  -5.190  -6.125  1.00  0.00    -0.507 OA
ATOM     24  H   UNL     1      -8.320  -5.064  -6.971  1.00  0.00     0.293 HD
ENDBRANCH  10  23
BRANCH  11  25
ATOM     25  O   UNL     1     -13.428  -3.822  -6.883  1.00  0.00    -0.508 OA
ATOM     26  H   UNL     1     -13.586  -3.026  -6.266  1.00  0.00     0.293 HD
ENDBRANCH  11  25
ENDBRANCH   1   2
BRANCH   1  27
ATOM     27  C   UNL     1      -9.018 -11.132  -6.059  1.00  0.00     0.339 C 
ATOM     28  C   UNL     1      -9.527 -12.579  -5.902  1.00  0.00     0.214 C 
ATOM     29  O   UNL     1      -7.614 -11.158  -6.092  1.00  0.00    -0.332 OA
ATOM     30  C   UNL     1      -9.286 -13.250  -7.267  1.00  0.00     0.180 C 
ATOM     31  C   UNL     1      -7.199 -11.689  -7.353  1.00  0.00     0.179 C 
ATOM     32  C   UNL     1      -7.750 -13.138  -7.635  1.00  0.00     0.177 C 
BRANCH  28  33
ATOM     33  O   UNL     1      -8.766 -13.221  -4.919  1.00  0.00    -0.384 OA
ATOM     34  H   UNL     1      -9.386 -13.786  -4.377  1.00  0.00     0.211 HD
ENDBRANCH  28  33
BRANCH  30  35
ATOM     35  O   UNL     1     -10.100 -12.626  -8.220  1.00  0.00    -0.387 OA
ATOM     36  H   UNL     1     -10.745 -13.278  -8.597  1.00  0.00     0.211 HD
ENDBRANCH  30  35
BRANCH  31  37
ATOM     37  C   UNL     1      -5.685 -11.506  -7.498  1.00  0.00     0.191 C 
BRANCH  37  38
ATOM     38  O   UNL     1      -5.287 -10.376  -6.759  1.00  0.00    -0.394 OA
ATOM     39  H   UNL     1      -4.304 -10.268  -6.896  1.00  0.00     0.210 HD
ENDBRANCH  37  38
ENDBRANCH  31  37
BRANCH  32  40
ATOM     40  O   UNL     1      -6.983 -14.124  -6.994  1.00  0.00    -0.387 OA
ATOM     41  H   UNL     1      -7.136 -14.020  -6.006  1.00  0.00     0.211 HD
ENDBRANCH  32  40
ENDBRANCH   1  27
TORSDOF 12
ENDMDL
MODEL 6
REMARK VINA RESULT:    -3.585      2.307      5.323
REMARK INTER + INTRA:          -5.423
REMARK INTER:                  -4.739
REMARK INTRA:                  -0.684
REMARK UNBOUND:                -0.162
REMARK SMILES O=c1c(O[C@H]2O[C@@H](CO)[C@@H](O)[C@H](O)[C@H]2O)c(-c2ccc(O)c(O)c2)oc2cc(O)cc(O)c12
REMARK SMILES IDX 4 1 3 2 16 3 25 4 2 5 26 6 1 7 33 8 27 9 31 10 28 11 30 12
REMARK SMILES IDX 17 13 18 14 19 15 20 16 24 17 22 18 21 19 23 21 32 23 29 25
REMARK SMILES IDX 5 27 14 28 6 29 12 30 7 31 10 32 15 33 13 35 8 37 9 38 11 40
REMARK H PARENT 21 20 23 22 32 24 29 26 15 34 13 36 9 39 11 41
REMARK Flexibility Score: inf
ROOT
ATOM      1  O   UNL     1      -9.387 -10.336  -4.995  1.00  0.00    -0.454 OA
ENDROOT
BRANCH   1   2
ATOM      2  C   UNL     1     -10.143  -9.168  -5.231  1.00  0.00     0.214 A 
ATOM      3  C   UNL     1     -11.380  -9.256  -5.898  1.00  0.00     0.180 A 
ATOM      4  O   UNL     1     -12.012  -8.147  -6.271  1.00  0.00    -0.452 OA
ATOM      5  C   UNL     1      -9.696  -7.877  -4.843  1.00  0.00     0.239 A 
ATOM      6  C   UNL     1     -11.600  -6.925  -5.976  1.00  0.00     0.146 A 
ATOM      7  O   UNL     1      -8.664  -7.738  -4.135  1.00  0.00    -0.285 OA
ATOM      8  C   UNL     1     -10.424  -6.731  -5.230  1.00  0.00     0.111 A 
ATOM      9  C   UNL     1     -12.348  -5.830  -6.410  1.00  0.00     0.094 A 
ATOM     10  C   UNL     1     -10.019  -5.404  -4.900  1.00  0.00     0.134 A 
ATOM     11  C   UNL     1     -11.954  -4.528  -6.081  1.00  0.00     0.123 A 
ATOM     12  C   UNL     1     -10.803  -4.318  -5.322  1.00  0.00     0.093 A 
BRANCH   3  13
ATOM     13  C   UNL     1     -12.067 -10.543  -6.157  1.00  0.00     0.025 A 
ATOM     14  C   UNL     1     -12.696 -11.275  -5.129  1.00  0.00     0.016 A 
ATOM     15  C   UNL     1     -13.402 -12.438  -5.408  1.00  0.00     0.051 A 
ATOM     16  C   UNL     1     -13.476 -12.917  -6.717  1.00  0.00     0.157 A 
ATOM     17  C   UNL     1     -12.217 -10.974  -7.484  1.00  0.00     0.062 A 
ATOM     18  C   UNL     1     -12.893 -12.179  -7.764  1.00  0.00     0.158 A 
BRANCH  16  19
ATOM     19  O   UNL     1     -14.125 -14.124  -7.002  1.00  0.00    -0.504 OA
ATOM     20  H   UNL     1     -14.541 -14.290  -7.920  1.00  0.00     0.293 HD
ENDBRANCH  16  19
BRANCH  18  21
ATOM     21  O   UNL     1     -12.977 -12.608  -9.090  1.00  0.00    -0.504 OA
ATOM     22  H   UNL     1     -13.326 -13.521  -9.343  1.00  0.00     0.293 HD
ENDBRANCH  18  21
ENDBRANCH   3  13
BRANCH  10  23
ATOM     23  O   UNL     1      -8.845  -5.173  -4.195  1.00  0.00    -0.507 OA
ATOM     24  H   UNL     1      -8.392  -4.271  -4.165  1.00  0.00     0.293 HD
ENDBRANCH  10  23
BRANCH  11  25
ATOM     25  O   UNL     1     -12.716  -3.431  -6.498  1.00  0.00    -0.508 OA
ATOM     26  H   UNL     1     -12.397  -2.480  -6.321  1.00  0.00     0.293 HD
ENDBRANCH  11  25
ENDBRANCH   1   2
BRANCH   1  27
ATOM     27  C   UNL     1      -8.856 -11.136  -6.043  1.00  0.00     0.339 C 
ATOM     28  C   UNL     1      -9.406 -12.576  -6.017  1.00  0.00     0.214 C 
ATOM     29  O   UNL     1      -7.456 -11.196  -5.938  1.00  0.00    -0.332 OA
ATOM     30  C   UNL     1      -9.043 -13.180  -7.386  1.00  0.00     0.180 C 
ATOM     31  C   UNL     1      -6.927 -11.669  -7.179  1.00  0.00     0.179 C 
ATOM     32  C   UNL     1      -7.475 -13.087  -7.594  1.00  0.00     0.177 C 
BRANCH  28  33
ATOM     33  O   UNL     1      -8.761 -13.288  -5.001  1.00  0.00    -0.384 OA
ATOM     34  H   UNL     1      -7.925 -12.794  -4.768  1.00  0.00     0.211 HD
ENDBRANCH  28  33
BRANCH  30  35
ATOM     35  O   UNL     1      -9.744 -12.485  -8.380  1.00  0.00    -0.387 OA
ATOM     36  H   UNL     1     -10.564 -12.079  -7.999  1.00  0.00     0.211 HD
ENDBRANCH  30  35
BRANCH  31  37
ATOM     37  C   UNL     1      -5.403 -11.517  -7.163  1.00  0.00     0.191 C 
BRANCH  37  38
ATOM     38  O   UNL     1      -5.077 -10.215  -6.738  1.00  0.00    -0.394 OA
ATOM     39  H   UNL     1      -5.847  -9.883  -6.197  1.00  0.00     0.210 HD
ENDBRANCH  37  38
ENDBRANCH  31  37
BRANCH  32  40
ATOM     40  O   UNL     1      -6.797 -14.125  -6.935  1.00  0.00    -0.387 OA
ATOM     41  H   UNL     1      -6.422 -13.740  -6.086  1.00  0.00     0.211 HD
ENDBRANCH  32  40
ENDBRANCH   1  27
TORSDOF 12
ENDMDL
MODEL 7
REMARK VINA RESULT:    -3.480      1.456      5.776
REMARK INTER + INTRA:          -5.270
REMARK INTER:                  -4.765
REMARK INTRA:                  -0.505
REMARK UNBOUND:                -0.162
REMARK SMILES O=c1c(O[C@H]2O[C@@H](CO)[C@@H](O)[C@H](O)[C@H]2O)c(-c2ccc(O)c(O)c2)oc2cc(O)cc(O)c12
REMARK SMILES IDX 4 1 3 2 16 3 25 4 2 5 26 6 1 7 33 8 27 9 31 10 28 11 30 12
REMARK SMILES IDX 17 13 18 14 19 15 20 16 24 17 22 18 21 19 23 21 32 23 29 25
REMARK SMILES IDX 5 27 14 28 6 29 12 30 7 31 10 32 15 33 13 35 8 37 9 38 11 40
REMARK H PARENT 21 20 23 22 32 24 29 26 15 34 13 36 9 39 11 41
REMARK Flexibility Score: inf
ROOT
ATOM      1  O   UNL     1     -11.165 -10.620  -6.316  1.00  0.00    -0.454 OA
ENDROOT
BRANCH   1   2
ATOM      2  C   UNL     1      -9.760 -10.516  -6.229  1.00  0.00     0.214 A 
ATOM      3  C   UNL     1      -9.164  -9.272  -5.947  1.00  0.00     0.180 A 
ATOM      4  O   UNL     1      -7.843  -9.136  -6.031  1.00  0.00    -0.452 OA
ATOM      5  C   UNL     1      -8.898 -11.625  -6.443  1.00  0.00     0.239 A 
ATOM      6  C   UNL     1      -7.010 -10.133  -6.282  1.00  0.00     0.146 A 
ATOM      7  O   UNL     1      -9.364 -12.787  -6.576  1.00  0.00    -0.285 OA
ATOM      8  C   UNL     1      -7.500 -11.435  -6.486  1.00  0.00     0.111 A 
ATOM      9  C   UNL     1      -5.640  -9.878  -6.338  1.00  0.00     0.094 A 
ATOM     10  C   UNL     1      -6.577 -12.496  -6.723  1.00  0.00     0.134 A 
ATOM     11  C   UNL     1      -4.734 -10.920  -6.565  1.00  0.00     0.123 A 
ATOM     12  C   UNL     1      -5.200 -12.222  -6.747  1.00  0.00     0.093 A 
BRANCH   3  13
ATOM     13  C   UNL     1      -9.935  -8.095  -5.485  1.00  0.00     0.025 A 
ATOM     14  C   UNL     1      -9.305  -6.895  -5.095  1.00  0.00     0.016 A 
ATOM     15  C   UNL     1     -10.051  -5.778  -4.741  1.00  0.00     0.051 A 
ATOM     16  C   UNL     1     -11.446  -5.837  -4.741  1.00  0.00     0.157 A 
ATOM     17  C   UNL     1     -11.335  -8.127  -5.573  1.00  0.00     0.062 A 
ATOM     18  C   UNL     1     -12.094  -7.009  -5.169  1.00  0.00     0.158 A 
BRANCH  16  19
ATOM     19  O   UNL     1     -12.209  -4.741  -4.321  1.00  0.00    -0.504 OA
ATOM     20  H   UNL     1     -13.059  -4.473  -4.819  1.00  0.00     0.293 HD
ENDBRANCH  16  19
BRANCH  18  21
ATOM     21  O   UNL     1     -13.487  -7.093  -5.217  1.00  0.00    -0.504 OA
ATOM     22  H   UNL     1     -14.022  -7.617  -4.538  1.00  0.00     0.293 HD
ENDBRANCH  18  21
ENDBRANCH   3  13
BRANCH  10  23
ATOM     23  O   UNL     1      -7.026 -13.788  -6.963  1.00  0.00    -0.507 OA
ATOM     24  H   UNL     1      -6.447 -14.604  -6.826  1.00  0.00     0.293 HD
ENDBRANCH  10  23
BRANCH  11  25
ATOM     25  O   UNL     1      -3.358 -10.667  -6.600  1.00  0.00    -0.508 OA
ATOM     26  H   UNL     1      -2.822 -10.591  -5.737  1.00  0.00     0.293 HD
ENDBRANCH  11  25
ENDBRANCH   1   2
BRANCH   1  27
ATOM     27  C   UNL     1     -11.920 -11.532  -5.529  1.00  0.00     0.339 C 
ATOM     28  C   UNL     1     -13.426 -11.206  -5.539  1.00  0.00     0.214 C 
ATOM     29  O   UNL     1     -11.470 -11.502  -4.198  1.00  0.00    -0.332 OA
ATOM     30  C   UNL     1     -14.122 -12.459  -4.975  1.00  0.00     0.180 C 
ATOM     31  C   UNL     1     -11.963 -12.663  -3.526  1.00  0.00     0.179 C 
ATOM     32  C   UNL     1     -13.535 -12.774  -3.538  1.00  0.00     0.177 C 
BRANCH  28  33
ATOM     33  O   UNL     1     -13.659 -10.116  -4.694  1.00  0.00    -0.384 OA
ATOM     34  H   UNL     1     -13.567  -9.284  -5.239  1.00  0.00     0.211 HD
ENDBRANCH  28  33
BRANCH  30  35
ATOM     35  O   UNL     1     -13.922 -13.520  -5.866  1.00  0.00    -0.387 OA
ATOM     36  H   UNL     1     -13.215 -13.286  -6.521  1.00  0.00     0.211 HD
ENDBRANCH  30  35
BRANCH  31  37
ATOM     37  C   UNL     1     -11.293 -12.768  -2.153  1.00  0.00     0.191 C 
BRANCH  37  38
ATOM     38  O   UNL     1     -11.591 -11.610  -1.408  1.00  0.00    -0.394 OA
ATOM     39  H   UNL     1     -11.864 -11.911  -0.497  1.00  0.00     0.210 HD
ENDBRANCH  37  38
ENDBRANCH  31  37
BRANCH  32  40
ATOM     40  O   UNL     1     -14.124 -11.976  -2.544  1.00  0.00    -0.387 OA
ATOM     41  H   UNL     1     -13.779 -12.304  -1.660  1.00  0.00     0.211 HD
ENDBRANCH  32  40
ENDBRANCH   1  27
TORSDOF 12
ENDMDL
MODEL 8
REMARK VINA RESULT:    -3.388      1.279      2.270
REMARK INTER + INTRA:          -5.134
REMARK INTER:                  -4.839
REMARK INTRA:                  -0.295
REMARK UNBOUND:                -0.162
REMARK SMILES O=c1c(O[C@H]2O[C@@H](CO)[C@@H](O)[C@H](O)[C@H]2O)c(-c2ccc(O)c(O)c2)oc2cc(O)cc(O)c12
REMARK SMILES IDX 4 1 3 2 16 3 25 4 2 5 26 6 1 7 33 8 27 9 31 10 28 11 30 12
REMARK SMILES IDX 17 13 18 14 19 15 20 16 24 17 22 18 21 19 23 21 32 23 29 25
REMARK SMILES IDX 5 27 14 28 6 29 12 30 7 31 10 32 15 33 13 35 8 37 9 38 11 40
REMARK H PARENT 21 20 23 22 32 24 29 26 15 34 13 36 9 39 11 41
REMARK Flexibility Score: inf
ROOT
ATOM      1  O   UNL     1     -11.127 -10.210  -6.217  1.00  0.00    -0.454 OA
ENDROOT
BRANCH   1   2
ATOM      2  C   UNL     1     -10.714  -8.930  -5.787  1.00  0.00     0.214 A 
ATOM      3  C   UNL     1      -9.357  -8.689  -5.502  1.00  0.00     0.180 A 
ATOM      4  O   UNL     1      -8.991  -7.541  -4.938  1.00  0.00    -0.452 OA
ATOM      5  C   UNL     1     -11.626  -7.857  -5.600  1.00  0.00     0.239 A 
ATOM      6  C   UNL     1      -9.820  -6.537  -4.697  1.00  0.00     0.146 A 
ATOM      7  O   UNL     1     -12.830  -7.964  -5.953  1.00  0.00    -0.285 OA
ATOM      8  C   UNL     1     -11.181  -6.642  -5.033  1.00  0.00     0.111 A 
ATOM      9  C   UNL     1      -9.326  -5.372  -4.110  1.00  0.00     0.094 A 
ATOM     10  C   UNL     1     -12.045  -5.534  -4.790  1.00  0.00     0.134 A 
ATOM     11  C   UNL     1     -10.172  -4.283  -3.878  1.00  0.00     0.123 A 
ATOM     12  C   UNL     1     -11.521  -4.360  -4.225  1.00  0.00     0.093 A 
BRANCH   3  13
ATOM     13  C   UNL     1      -8.276  -9.636  -5.863  1.00  0.00     0.025 A 
ATOM     14  C   UNL     1      -6.913  -9.302  -5.727  1.00  0.00     0.016 A 
ATOM     15  C   UNL     1      -5.919 -10.233  -5.997  1.00  0.00     0.051 A 
ATOM     16  C   UNL     1      -6.257 -11.515  -6.435  1.00  0.00     0.157 A 
ATOM     17  C   UNL     1      -8.619 -10.950  -6.215  1.00  0.00     0.062 A 
ATOM     18  C   UNL     1      -7.611 -11.883  -6.535  1.00  0.00     0.158 A 
BRANCH  16  19
ATOM     19  O   UNL     1      -5.263 -12.440  -6.776  1.00  0.00    -0.504 OA
ATOM     20  H   UNL     1      -4.305 -12.136  -6.957  1.00  0.00     0.293 HD
ENDBRANCH  16  19
BRANCH  18  21
ATOM     21  O   UNL     1      -7.988 -13.166  -6.935  1.00  0.00    -0.504 OA
ATOM     22  H   UNL     1      -8.260 -13.380  -7.884  1.00  0.00     0.293 HD
ENDBRANCH  18  21
ENDBRANCH   3  13
BRANCH  10  23
ATOM     23  O   UNL     1     -13.402  -5.614  -5.076  1.00  0.00    -0.507 OA
ATOM     24  H   UNL     1     -13.921  -6.480  -5.034  1.00  0.00     0.293 HD
ENDBRANCH  10  23
BRANCH  11  25
ATOM     25  O   UNL     1      -9.673  -3.106  -3.308  1.00  0.00    -0.508 OA
ATOM     26  H   UNL     1      -9.514  -3.043  -2.304  1.00  0.00     0.293 HD
ENDBRANCH  11  25
ENDBRANCH   1   2
BRANCH   1  27
ATOM     27  C   UNL     1     -12.102 -10.978  -5.524  1.00  0.00     0.339 C 
ATOM     28  C   UNL     1     -11.749 -11.164  -4.035  1.00  0.00     0.214 C 
ATOM     29  O   UNL     1     -12.218 -12.248  -6.113  1.00  0.00    -0.332 OA
ATOM     30  C   UNL     1     -13.041 -11.671  -3.367  1.00  0.00     0.180 C 
ATOM     31  C   UNL     1     -13.433 -12.849  -5.661  1.00  0.00     0.179 C 
ATOM     32  C   UNL     1     -13.514 -12.997  -4.094  1.00  0.00     0.177 C 
BRANCH  28  33
ATOM     33  O   UNL     1     -10.748 -12.135  -3.925  1.00  0.00    -0.384 OA
ATOM     34  H   UNL     1     -10.288 -11.999  -3.050  1.00  0.00     0.211 HD
ENDBRANCH  28  33
BRANCH  30  35
ATOM     35  O   UNL     1     -14.008 -10.661  -3.441  1.00  0.00    -0.387 OA
ATOM     36  H   UNL     1     -14.134 -10.243  -2.551  1.00  0.00     0.211 HD
ENDBRANCH  30  35
BRANCH  31  37
ATOM     37  C   UNL     1     -13.691 -14.125  -6.469  1.00  0.00     0.191 C 
BRANCH  37  38
ATOM     38  O   UNL     1     -13.079 -13.998  -7.731  1.00  0.00    -0.394 OA
ATOM     39  H   UNL     1     -12.614 -14.861  -7.918  1.00  0.00     0.210 HD
ENDBRANCH  37  38
ENDBRANCH  31  37
BRANCH  32  40
ATOM     40  O   UNL     1     -12.812 -14.124  -3.637  1.00  0.00    -0.387 OA
ATOM     41  H   UNL     1     -13.063 -14.891  -4.236  1.00  0.00     0.211 HD
ENDBRANCH  32  40
ENDBRANCH   1  27
TORSDOF 12
ENDMDL
