MODEL 1
REMARK VINA RESULT:    -5.086      0.000      0.000
REMARK INTER + INTRA:          -5.563
REMARK INTER:                  -5.532
REMARK INTRA:                  -0.031
REMARK UNBOUND:                -0.031
REMARK SMILES O=C([O-])c1ccc(O)cc1
REMARK SMILES IDX 7 1 6 2 9 3 5 4 10 5 4 6 8 7 2 9 1 10 3 11
REMARK H PARENT 8 8
REMARK Flexibility Score: inf
ROOT
ATOM      1  C   UNL     1     147.079 149.108 156.634  1.00  0.00     0.115 A 
ATOM      2  C   UNL     1     146.125 148.108 156.409  1.00  0.00     0.047 A 
ATOM      3  C   UNL     1     148.346 148.762 157.112  1.00  0.00     0.047 A 
ATOM      4  C   UNL     1     146.438 146.769 156.661  1.00  0.00     0.014 A 
ATOM      5  C   UNL     1     148.662 147.424 157.367  1.00  0.00     0.014 A 
ATOM      6  C   UNL     1     147.711 146.413 157.144  1.00  0.00    -0.003 A 
ENDROOT
BRANCH   1   7
ATOM      7  O   UNL     1     146.779 150.446 156.385  1.00  0.00    -0.508 OA
ATOM      8  H   UNL     1     147.065 150.901 155.526  1.00  0.00     0.293 HD
ENDBRANCH   1   7
BRANCH   6   9
ATOM      9  C   UNL     1     148.047 144.998 157.414  1.00  0.00     0.071 C 
ATOM     10  O   UNL     1     149.133 144.508 157.004  1.00  0.00    -0.545 OA
ATOM     11  O   UNL     1     147.169 144.188 158.125  1.00  0.00    -0.545 OA
ENDBRANCH   6   9
TORSDOF 2
ENDMDL
MODEL 2
REMARK VINA RESULT:    -5.074      0.355      1.556
REMARK INTER + INTRA:          -5.550
REMARK INTER:                  -5.517
REMARK INTRA:                  -0.033
REMARK UNBOUND:                -0.031
REMARK SMILES O=C([O-])c1ccc(O)cc1
REMARK SMILES IDX 7 1 6 2 9 3 5 4 10 5 4 6 8 7 2 9 1 10 3 11
REMARK H PARENT 8 8
REMARK Flexibility Score: inf
ROOT
ATOM      1  C   UNL     1     147.124 148.794 156.604  1.00  0.00     0.115 A 
ATOM      2  C   UNL     1     148.449 148.412 156.848  1.00  0.00     0.047 A 
ATOM      3  C   UNL     1     146.110 147.832 156.625  1.00  0.00     0.047 A 
ATOM      4  C   UNL     1     148.757 147.074 157.111  1.00  0.00     0.014 A 
ATOM      5  C   UNL     1     146.415 146.492 156.886  1.00  0.00     0.014 A 
ATOM      6  C   UNL     1     147.742 146.099 157.132  1.00  0.00    -0.003 A 
ENDROOT
BRANCH   1   7
ATOM      7  O   UNL     1     146.804 150.125 156.342  1.00  0.00    -0.508 OA
ATOM      8  H   UNL     1     147.138 150.595 155.509  1.00  0.00     0.293 HD
ENDBRANCH   1   7
BRANCH   6   9
ATOM      9  C   UNL     1     148.062 144.682 157.409  1.00  0.00     0.071 C 
ATOM     10  O   UNL     1     149.142 144.178 157.001  1.00  0.00    -0.545 OA
ATOM     11  O   UNL     1     147.175 143.885 158.125  1.00  0.00    -0.545 OA
ENDBRANCH   6   9
TORSDOF 2
ENDMDL
MODEL 3
REMARK VINA RESULT:    -4.797      1.289      4.691
REMARK INTER + INTRA:          -5.248
REMARK INTER:                  -5.212
REMARK INTRA:                  -0.036
REMARK UNBOUND:                -0.031
REMARK SMILES O=C([O-])c1ccc(O)cc1
REMARK SMILES IDX 7 1 6 2 9 3 5 4 10 5 4 6 8 7 2 9 1 10 3 11
REMARK H PARENT 8 8
REMARK Flexibility Score: inf
ROOT
ATOM      1  C   UNL     1     148.024 146.703 156.474  1.00  0.00     0.115 A 
ATOM      2  C   UNL     1     148.887 147.528 157.207  1.00  0.00     0.047 A 
ATOM      3  C   UNL     1     146.793 147.202 156.038  1.00  0.00     0.047 A 
ATOM      4  C   UNL     1     148.519 148.843 157.503  1.00  0.00     0.014 A 
ATOM      5  C   UNL     1     146.422 148.518 156.332  1.00  0.00     0.014 A 
ATOM      6  C   UNL     1     147.281 149.352 157.068  1.00  0.00    -0.003 A 
ENDROOT
BRANCH   1   7
ATOM      7  O   UNL     1     148.380 145.390 156.173  1.00  0.00    -0.508 OA
ATOM      8  H   UNL     1     147.764 144.783 155.645  1.00  0.00     0.293 HD
ENDBRANCH   1   7
BRANCH   6   9
ATOM      9  C   UNL     1     146.887 150.744 157.378  1.00  0.00     0.071 C 
ATOM     10  O   UNL     1     145.788 151.204 156.970  1.00  0.00    -0.545 OA
ATOM     11  O   UNL     1     147.724 151.565 158.125  1.00  0.00    -0.545 OA
ENDBRANCH   6   9
TORSDOF 2
ENDMDL
MODEL 4
REMARK VINA RESULT:    -4.624      1.483      4.375
REMARK INTER + INTRA:          -5.060
REMARK INTER:                  -5.031
REMARK INTRA:                  -0.030
REMARK UNBOUND:                -0.031
REMARK SMILES O=C([O-])c1ccc(O)cc1
REMARK SMILES IDX 7 1 6 2 9 3 5 4 10 5 4 6 8 7 2 9 1 10 3 11
REMARK H PARENT 8 8
REMARK Flexibility Score: inf
ROOT
ATOM      1  C   UNL     1     148.292 144.076 157.746  1.00  0.00     0.115 A 
ATOM      2  C   UNL     1     147.007 144.485 158.124  1.00  0.00     0.047 A 
ATOM      3  C   UNL     1     149.102 144.938 157.002  1.00  0.00     0.047 A 
ATOM      4  C   UNL     1     146.536 145.750 157.759  1.00  0.00     0.014 A 
ATOM      5  C   UNL     1     148.635 146.203 156.634  1.00  0.00     0.014 A 
ATOM      6  C   UNL     1     147.346 146.623 157.010  1.00  0.00    -0.003 A 
ENDROOT
BRANCH   1   7
ATOM      7  O   UNL     1     148.772 142.818 158.105  1.00  0.00    -0.508 OA
ATOM      8  H   UNL     1     148.348 141.969 157.750  1.00  0.00     0.293 HD
ENDBRANCH   1   7
BRANCH   6   9
ATOM      9  C   UNL     1     146.854 147.962 156.620  1.00  0.00     0.071 C 
ATOM     10  O   UNL     1     145.769 148.088 155.993  1.00  0.00    -0.545 OA
ATOM     11  O   UNL     1     147.582 149.102 156.941  1.00  0.00    -0.545 OA
ENDBRANCH   6   9
TORSDOF 2
ENDMDL
MODEL 5
REMARK VINA RESULT:    -4.600     13.205     14.086
REMARK INTER + INTRA:          -5.035
REMARK INTER:                  -5.000
REMARK INTRA:                  -0.035
REMARK UNBOUND:                -0.031
REMARK SMILES O=C([O-])c1ccc(O)cc1
REMARK SMILES IDX 7 1 6 2 9 3 5 4 10 5 4 6 8 7 2 9 1 10 3 11
REMARK H PARENT 8 8
REMARK Flexibility Score: inf
ROOT
ATOM      1  C   UNL     1     157.500 146.520 146.208  1.00  0.00     0.115 A 
ATOM      2  C   UNL     1     157.751 145.917 147.447  1.00  0.00     0.047 A 
ATOM      3  C   UNL     1     157.379 147.911 146.127  1.00  0.00     0.047 A 
ATOM      4  C   UNL     1     157.879 146.700 148.597  1.00  0.00     0.014 A 
ATOM      5  C   UNL     1     157.506 148.697 147.276  1.00  0.00     0.014 A 
ATOM      6  C   UNL     1     157.757 148.100 148.524  1.00  0.00    -0.003 A 
ENDROOT
BRANCH   1   7
ATOM      7  O   UNL     1     157.371 145.750 145.054  1.00  0.00    -0.508 OA
ATOM      8  H   UNL     1     157.665 146.099 144.150  1.00  0.00     0.293 HD
ENDBRANCH   1   7
BRANCH   6   9
ATOM      9  C   UNL     1     157.891 148.934 149.738  1.00  0.00     0.071 C 
ATOM     10  O   UNL     1     158.125 150.168 149.645  1.00  0.00    -0.545 OA
ATOM     11  O   UNL     1     157.759 148.367 151.001  1.00  0.00    -0.545 OA
ENDBRANCH   6   9
TORSDOF 2
ENDMDL
MODEL 6
REMARK VINA RESULT:    -4.591     13.652     14.346
REMARK INTER + INTRA:          -5.024
REMARK INTER:                  -4.989
REMARK INTRA:                  -0.035
REMARK UNBOUND:                -0.031
REMARK SMILES O=C([O-])c1ccc(O)cc1
REMARK SMILES IDX 7 1 6 2 9 3 5 4 10 5 4 6 8 7 2 9 1 10 3 11
REMARK H PARENT 8 8
REMARK Flexibility Score: inf
ROOT
ATOM      1  C   UNL     1     157.503 149.002 148.907  1.00  0.00     0.115 A 
ATOM      2  C   UNL     1     157.751 149.524 147.631  1.00  0.00     0.047 A 
ATOM      3  C   UNL     1     157.382 147.620 149.078  1.00  0.00     0.047 A 
ATOM      4  C   UNL     1     157.876 148.668 146.533  1.00  0.00     0.014 A 
ATOM      5  C   UNL     1     157.506 146.760 147.983  1.00  0.00     0.014 A 
ATOM      6  C   UNL     1     157.755 147.276 146.698  1.00  0.00    -0.003 A 
ENDROOT
BRANCH   1   7
ATOM      7  O   UNL     1     157.377 149.846 150.008  1.00  0.00    -0.508 OA
ATOM      8  H   UNL     1     158.089 150.529 150.236  1.00  0.00     0.293 HD
ENDBRANCH   1   7
BRANCH   6   9
ATOM      9  C   UNL     1     157.886 146.364 145.540  1.00  0.00     0.071 C 
ATOM     10  O   UNL     1     158.123 145.139 145.713  1.00  0.00    -0.545 OA
ATOM     11  O   UNL     1     157.749 146.847 144.244  1.00  0.00    -0.545 OA
ENDBRANCH   6   9
TORSDOF 2
ENDMDL
MODEL 7
REMARK VINA RESULT:    -4.589     13.204     14.079
REMARK INTER + INTRA:          -5.022
REMARK INTER:                  -4.987
REMARK INTRA:                  -0.035
REMARK UNBOUND:                -0.031
REMARK SMILES O=C([O-])c1ccc(O)cc1
REMARK SMILES IDX 7 1 6 2 9 3 5 4 10 5 4 6 8 7 2 9 1 10 3 11
REMARK H PARENT 8 8
REMARK Flexibility Score: inf
ROOT
ATOM      1  C   UNL     1     157.499 146.543 146.206  1.00  0.00     0.115 A 
ATOM      2  C   UNL     1     157.375 147.936 146.124  1.00  0.00     0.047 A 
ATOM      3  C   UNL     1     157.750 145.942 147.443  1.00  0.00     0.047 A 
ATOM      4  C   UNL     1     157.501 148.722 147.273  1.00  0.00     0.014 A 
ATOM      5  C   UNL     1     157.877 146.725 148.594  1.00  0.00     0.014 A 
ATOM      6  C   UNL     1     157.754 148.124 148.521  1.00  0.00    -0.003 A 
ENDROOT
BRANCH   1   7
ATOM      7  O   UNL     1     157.375 145.749 145.068  1.00  0.00    -0.508 OA
ATOM      8  H   UNL     1     157.565 144.755 145.093  1.00  0.00     0.293 HD
ENDBRANCH   1   7
BRANCH   6   9
ATOM      9  C   UNL     1     157.889 148.950 149.741  1.00  0.00     0.071 C 
ATOM     10  O   UNL     1     158.119 150.186 149.655  1.00  0.00    -0.545 OA
ATOM     11  O   UNL     1     157.762 148.375 151.000  1.00  0.00    -0.545 OA
ENDBRANCH   6   9
TORSDOF 2
ENDMDL
MODEL 8
REMARK VINA RESULT:    -4.433      1.738      2.640
REMARK INTER + INTRA:          -4.853
REMARK INTER:                  -4.826
REMARK INTRA:                  -0.027
REMARK UNBOUND:                -0.031
REMARK SMILES O=C([O-])c1ccc(O)cc1
REMARK SMILES IDX 7 1 6 2 9 3 5 4 10 5 4 6 8 7 2 9 1 10 3 11
REMARK H PARENT 8 8
REMARK Flexibility Score: inf
ROOT
ATOM      1  C   UNL     1     147.228 151.034 157.673  1.00  0.00     0.115 A 
ATOM      2  C   UNL     1     148.411 150.437 158.125  1.00  0.00     0.047 A 
ATOM      3  C   UNL     1     146.338 150.299 156.885  1.00  0.00     0.047 A 
ATOM      4  C   UNL     1     148.702 149.112 157.790  1.00  0.00     0.014 A 
ATOM      5  C   UNL     1     146.625 148.973 156.548  1.00  0.00     0.014 A 
ATOM      6  C   UNL     1     147.811 148.365 156.997  1.00  0.00    -0.003 A 
ENDROOT
BRANCH   1   7
ATOM      7  O   UNL     1     146.927 152.355 158.001  1.00  0.00    -0.508 OA
ATOM      8  H   UNL     1     146.519 152.598 158.895  1.00  0.00     0.293 HD
ENDBRANCH   1   7
BRANCH   6   9
ATOM      9  C   UNL     1     148.113 146.962 156.639  1.00  0.00     0.071 C 
ATOM     10  O   UNL     1     148.584 146.677 155.506  1.00  0.00    -0.545 OA
ATOM     11  O   UNL     1     147.883 145.936 157.549  1.00  0.00    -0.545 OA
ENDBRANCH   6   9
TORSDOF 2
ENDMDL
