MODEL 1
REMARK VINA RESULT:    -4.747      0.000      0.000
REMARK INTER + INTRA:         -15.334
REMARK INTER:                 -11.962
REMARK INTRA:                  -3.372
REMARK UNBOUND:                -3.372
REMARK SMILES CCCCCCCCCCCCCCCCCCCCCCCCCCCC(=O)[O-]
REMARK SMILES IDX 15 1 16 2 17 3 18 4 19 5 20 6 21 7 22 8 23 9 24 10 25 11
REMARK SMILES IDX 26 12 27 13 28 14 29 15 30 16 14 17 13 18 12 19 11 20 10 21
REMARK SMILES IDX 9 22 8 23 7 24 6 25 5 26 4 27 3 28 2 29 1 30
REMARK H PARENT
REMARK Flexibility Score: inf
ROOT
ATOM      1  C   UNL     1      -1.112  47.394  25.514  1.00  0.00     0.000 C 
ENDROOT
BRANCH   1   2
ATOM      2  C   UNL     1      -2.597  47.675  25.227  1.00  0.00     0.000 C 
BRANCH   2   3
ATOM      3  C   UNL     1      -3.521  46.578  25.782  1.00  0.00     0.000 C 
BRANCH   3   4
ATOM      4  C   UNL     1      -4.352  45.896  24.675  1.00  0.00     0.000 C 
BRANCH   4   5
ATOM      5  C   UNL     1      -3.802  44.527  24.239  1.00  0.00     0.000 C 
BRANCH   5   6
ATOM      6  C   UNL     1      -4.866  43.646  23.564  1.00  0.00     0.000 C 
BRANCH   6   7
ATOM      7  C   UNL     1      -6.121  44.429  23.137  1.00  0.00     0.000 C 
BRANCH   7   8
ATOM      8  C   UNL     1      -7.467  43.787  23.519  1.00  0.00     0.000 C 
BRANCH   8   9
ATOM      9  C   UNL     1      -7.366  42.854  24.738  1.00  0.00     0.000 C 
BRANCH   9  10
ATOM     10  C   UNL     1      -8.087  43.421  25.974  1.00  0.00     0.000 C 
BRANCH  10  11
ATOM     11  C   UNL     1      -7.406  44.683  26.534  1.00  0.00     0.000 C 
BRANCH  11  12
ATOM     12  C   UNL     1      -8.394  45.840  26.776  1.00  0.00     0.006 C 
BRANCH  12  13
ATOM     13  C   UNL     1      -7.845  46.945  27.696  1.00  0.00     0.053 C 
BRANCH  13  14
ATOM     14  C   UNL     1      -8.444  46.908  29.067  1.00  0.00     0.041 C 
ATOM     15  O   UNL     1      -8.210  45.939  29.836  1.00  0.00    -0.550 OA
ATOM     16  O   UNL     1      -9.267  47.941  29.495  1.00  0.00    -0.550 OA
ENDBRANCH  13  14
ENDBRANCH  12  13
ENDBRANCH  11  12
ENDBRANCH  10  11
ENDBRANCH   9  10
ENDBRANCH   8   9
ENDBRANCH   7   8
ENDBRANCH   6   7
ENDBRANCH   5   6
ENDBRANCH   4   5
ENDBRANCH   3   4
ENDBRANCH   2   3
ENDBRANCH   1   2
BRANCH   1  17
ATOM     17  C   UNL     1      -0.560  46.238  24.664  1.00  0.00     0.000 C 
BRANCH  17  18
ATOM     18  C   UNL     1      -0.552  46.553  23.157  1.00  0.00     0.000 C 
BRANCH  18  19
ATOM     19  C   UNL     1       0.086  47.903  22.778  1.00  0.00     0.000 C 
BRANCH  19  20
ATOM     20  C   UNL     1       1.060  47.792  21.592  1.00  0.00     0.000 C 
BRANCH  20  21
ATOM     21  C   UNL     1       1.666  49.150  21.199  1.00  0.00     0.000 C 
BRANCH  21  22
ATOM     22  C   UNL     1       0.900  50.333  21.814  1.00  0.00    -0.000 C 
BRANCH  22  23
ATOM     23  C   UNL     1       1.602  51.686  21.584  1.00  0.00    -0.000 C 
BRANCH  23  24
ATOM     24  C   UNL     1       0.842  52.918  22.109  1.00  0.00    -0.000 C 
BRANCH  24  25
ATOM     25  C   UNL     1       1.394  53.529  23.411  1.00  0.00    -0.000 C 
BRANCH  25  26
ATOM     26  C   UNL     1       2.455  52.658  24.117  1.00  0.00    -0.000 C 
BRANCH  26  27
ATOM     27  C   UNL     1       1.983  52.149  25.490  1.00  0.00    -0.000 C 
BRANCH  27  28
ATOM     28  C   UNL     1       1.301  50.770  25.416  1.00  0.00    -0.000 C 
BRANCH  28  29
ATOM     29  C   UNL     1       2.260  49.586  25.191  1.00  0.00    -0.003 C 
ATOM     30  C   UNL     1       2.311  48.624  26.379  1.00  0.00     0.004 C 
ENDBRANCH  28  29
ENDBRANCH  27  28
ENDBRANCH  26  27
ENDBRANCH  25  26
ENDBRANCH  24  25
ENDBRANCH  23  24
ENDBRANCH  22  23
ENDBRANCH  21  22
ENDBRANCH  20  21
ENDBRANCH  19  20
ENDBRANCH  18  19
ENDBRANCH  17  18
ENDBRANCH   1  17
TORSDOF 26
ENDMDL
MODEL 2
REMARK VINA RESULT:    -4.735      1.394      2.241
REMARK INTER + INTRA:         -15.303
REMARK INTER:                 -11.455
REMARK INTRA:                  -3.848
REMARK UNBOUND:                -3.372
REMARK SMILES CCCCCCCCCCCCCCCCCCCCCCCCCCCC(=O)[O-]
REMARK SMILES IDX 15 1 16 2 17 3 18 4 19 5 20 6 21 7 22 8 23 9 24 10 25 11
REMARK SMILES IDX 26 12 27 13 28 14 29 15 30 16 14 17 13 18 12 19 11 20 10 21
REMARK SMILES IDX 9 22 8 23 7 24 6 25 5 26 4 27 3 28 2 29 1 30
REMARK H PARENT
REMARK Flexibility Score: inf
ROOT
ATOM      1  C   UNL     1      -2.408  46.810  24.685  1.00  0.00     0.000 C 
ENDROOT
BRANCH   1   2
ATOM      2  C   UNL     1      -3.585  45.821  24.615  1.00  0.00     0.000 C 
BRANCH   2   3
ATOM      3  C   UNL     1      -3.139  44.403  24.219  1.00  0.00     0.000 C 
BRANCH   3   4
ATOM      4  C   UNL     1      -4.250  43.624  23.484  1.00  0.00     0.000 C 
BRANCH   4   5
ATOM      5  C   UNL     1      -5.383  43.140  24.407  1.00  0.00     0.000 C 
BRANCH   5   6
ATOM      6  C   UNL     1      -6.774  43.573  23.917  1.00  0.00     0.000 C 
BRANCH   6   7
ATOM      7  C   UNL     1      -6.722  44.598  22.769  1.00  0.00     0.000 C 
BRANCH   7   8
ATOM      8  C   UNL     1      -7.262  46.001  23.105  1.00  0.00     0.000 C 
BRANCH   8   9
ATOM      9  C   UNL     1      -8.622  45.967  23.824  1.00  0.00     0.000 C 
BRANCH   9  10
ATOM     10  C   UNL     1      -8.512  46.352  25.310  1.00  0.00     0.000 C 
BRANCH  10  11
ATOM     11  C   UNL     1      -7.112  46.867  25.689  1.00  0.00     0.000 C 
BRANCH  11  12
ATOM     12  C   UNL     1      -6.422  45.999  26.758  1.00  0.00     0.006 C 
BRANCH  12  13
ATOM     13  C   UNL     1      -6.050  46.767  28.039  1.00  0.00     0.053 C 
BRANCH  13  14
ATOM     14  C   UNL     1      -7.217  46.966  28.955  1.00  0.00     0.041 C 
ATOM     15  O   UNL     1      -7.382  48.066  29.544  1.00  0.00    -0.550 OA
ATOM     16  O   UNL     1      -8.122  45.933  29.164  1.00  0.00    -0.550 OA
ENDBRANCH  13  14
ENDBRANCH  12  13
ENDBRANCH  11  12
ENDBRANCH  10  11
ENDBRANCH   9  10
ENDBRANCH   8   9
ENDBRANCH   7   8
ENDBRANCH   6   7
ENDBRANCH   5   6
ENDBRANCH   4   5
ENDBRANCH   3   4
ENDBRANCH   2   3
ENDBRANCH   1   2
BRANCH   1  17
ATOM     17  C   UNL     1      -1.061  46.138  24.370  1.00  0.00     0.000 C 
BRANCH  17  18
ATOM     18  C   UNL     1      -0.523  46.498  22.973  1.00  0.00     0.000 C 
BRANCH  18  19
ATOM     19  C   UNL     1       0.201  47.855  22.885  1.00  0.00     0.000 C 
BRANCH  19  20
ATOM     20  C   UNL     1       0.996  48.025  21.578  1.00  0.00     0.000 C 
BRANCH  20  21
ATOM     21  C   UNL     1       2.146  49.037  21.715  1.00  0.00     0.000 C 
BRANCH  21  22
ATOM     22  C   UNL     1       1.730  50.456  21.289  1.00  0.00    -0.000 C 
BRANCH  22  23
ATOM     23  C   UNL     1       1.356  51.355  22.484  1.00  0.00    -0.000 C 
BRANCH  23  24
ATOM     24  C   UNL     1       2.534  51.779  23.381  1.00  0.00    -0.000 C 
BRANCH  24  25
ATOM     25  C   UNL     1       2.383  51.434  24.875  1.00  0.00    -0.000 C 
BRANCH  25  26
ATOM     26  C   UNL     1       2.324  49.920  25.170  1.00  0.00    -0.000 C 
BRANCH  26  27
ATOM     27  C   UNL     1       1.577  49.601  26.477  1.00  0.00    -0.000 C 
BRANCH  27  28
ATOM     28  C   UNL     1       0.123  49.153  26.241  1.00  0.00    -0.000 C 
BRANCH  28  29
ATOM     29  C   UNL     1      -0.900  50.301  26.142  1.00  0.00    -0.003 C 
ATOM     30  C   UNL     1      -1.467  50.476  24.732  1.00  0.00     0.004 C 
ENDBRANCH  28  29
ENDBRANCH  27  28
ENDBRANCH  26  27
ENDBRANCH  25  26
ENDBRANCH  24  25
ENDBRANCH  23  24
ENDBRANCH  22  23
ENDBRANCH  21  22
ENDBRANCH  20  21
ENDBRANCH  19  20
ENDBRANCH  18  19
ENDBRANCH  17  18
ENDBRANCH   1  17
TORSDOF 26
ENDMDL
MODEL 3
REMARK VINA RESULT:    -4.734      1.740      3.703
REMARK INTER + INTRA:         -15.301
REMARK INTER:                 -11.466
REMARK INTRA:                  -3.835
REMARK UNBOUND:                -3.372
REMARK SMILES CCCCCCCCCCCCCCCCCCCCCCCCCCCC(=O)[O-]
REMARK SMILES IDX 15 1 16 2 17 3 18 4 19 5 20 6 21 7 22 8 23 9 24 10 25 11
REMARK SMILES IDX 26 12 27 13 28 14 29 15 30 16 14 17 13 18 12 19 11 20 10 21
REMARK SMILES IDX 9 22 8 23 7 24 6 25 5 26 4 27 3 28 2 29 1 30
REMARK H PARENT
REMARK Flexibility Score: inf
ROOT
ATOM      1  C   UNL     1       1.134  48.119  21.712  1.00  0.00     0.000 C 
ENDROOT
BRANCH   1   2
ATOM      2  C   UNL     1       0.201  48.124  22.937  1.00  0.00     0.000 C 
BRANCH   2   3
ATOM      3  C   UNL     1      -0.512  46.776  23.136  1.00  0.00     0.000 C 
BRANCH   3   4
ATOM      4  C   UNL     1      -0.515  46.328  24.613  1.00  0.00     0.000 C 
BRANCH   4   5
ATOM      5  C   UNL     1      -1.734  46.824  25.411  1.00  0.00     0.000 C 
BRANCH   5   6
ATOM      6  C   UNL     1      -3.010  46.907  24.557  1.00  0.00     0.000 C 
BRANCH   6   7
ATOM      7  C   UNL     1      -4.218  46.201  25.199  1.00  0.00     0.000 C 
BRANCH   7   8
ATOM      8  C   UNL     1      -5.234  45.593  24.215  1.00  0.00     0.000 C 
BRANCH   8   9
ATOM      9  C   UNL     1      -4.919  44.132  23.848  1.00  0.00     0.000 C 
BRANCH   9  10
ATOM     10  C   UNL     1      -5.774  43.129  24.641  1.00  0.00     0.000 C 
BRANCH  10  11
ATOM     11  C   UNL     1      -7.233  43.075  24.155  1.00  0.00     0.000 C 
BRANCH  11  12
ATOM     12  C   UNL     1      -8.252  43.323  25.284  1.00  0.00     0.006 C 
BRANCH  12  13
ATOM     13  C   UNL     1      -7.705  44.184  26.438  1.00  0.00     0.053 C 
BRANCH  13  14
ATOM     14  C   UNL     1      -8.285  45.563  26.457  1.00  0.00     0.041 C 
ATOM     15  O   UNL     1      -8.092  46.320  27.445  1.00  0.00    -0.550 OA
ATOM     16  O   UNL     1      -9.046  46.014  25.387  1.00  0.00    -0.550 OA
ENDBRANCH  13  14
ENDBRANCH  12  13
ENDBRANCH  11  12
ENDBRANCH  10  11
ENDBRANCH   9  10
ENDBRANCH   8   9
ENDBRANCH   7   8
ENDBRANCH   6   7
ENDBRANCH   5   6
ENDBRANCH   4   5
ENDBRANCH   3   4
ENDBRANCH   2   3
ENDBRANCH   1   2
BRANCH   1  17
ATOM     17  C   UNL     1       1.907  49.440  21.561  1.00  0.00     0.000 C 
BRANCH  17  18
ATOM     18  C   UNL     1       0.998  50.680  21.638  1.00  0.00     0.000 C 
BRANCH  18  19
ATOM     19  C   UNL     1       1.734  52.011  21.879  1.00  0.00     0.000 C 
BRANCH  19  20
ATOM     20  C   UNL     1       1.006  53.217  21.259  1.00  0.00     0.000 C 
BRANCH  20  21
ATOM     21  C   UNL     1       0.083  53.929  22.263  1.00  0.00     0.000 C 
BRANCH  21  22
ATOM     22  C   UNL     1      -1.356  54.069  21.737  1.00  0.00    -0.000 C 
BRANCH  22  23
ATOM     23  C   UNL     1      -2.262  52.893  22.151  1.00  0.00    -0.000 C 
BRANCH  23  24
ATOM     24  C   UNL     1      -2.170  52.482  23.633  1.00  0.00    -0.000 C 
BRANCH  24  25
ATOM     25  C   UNL     1      -1.772  51.015  23.888  1.00  0.00    -0.000 C 
BRANCH  25  26
ATOM     26  C   UNL     1      -1.889  50.578  25.363  1.00  0.00    -0.000 C 
BRANCH  26  27
ATOM     27  C   UNL     1      -0.518  50.325  26.014  1.00  0.00    -0.000 C 
BRANCH  27  28
ATOM     28  C   UNL     1       0.651  50.889  25.185  1.00  0.00    -0.000 C 
BRANCH  28  29
ATOM     29  C   UNL     1       2.051  50.460  25.666  1.00  0.00    -0.003 C 
ATOM     30  C   UNL     1       2.142  48.965  25.979  1.00  0.00     0.004 C 
ENDBRANCH  28  29
ENDBRANCH  27  28
ENDBRANCH  26  27
ENDBRANCH  25  26
ENDBRANCH  24  25
ENDBRANCH  23  24
ENDBRANCH  22  23
ENDBRANCH  21  22
ENDBRANCH  20  21
ENDBRANCH  19  20
ENDBRANCH  18  19
ENDBRANCH  17  18
ENDBRANCH   1  17
TORSDOF 26
ENDMDL
MODEL 4
REMARK VINA RESULT:    -4.715      2.544      5.884
REMARK INTER + INTRA:         -15.253
REMARK INTER:                 -11.455
REMARK INTRA:                  -3.797
REMARK UNBOUND:                -3.372
REMARK SMILES CCCCCCCCCCCCCCCCCCCCCCCCCCCC(=O)[O-]
REMARK SMILES IDX 15 1 16 2 17 3 18 4 19 5 20 6 21 7 22 8 23 9 24 10 25 11
REMARK SMILES IDX 26 12 27 13 28 14 29 15 30 16 14 17 13 18 12 19 11 20 10 21
REMARK SMILES IDX 9 22 8 23 7 24 6 25 5 26 4 27 3 28 2 29 1 30
REMARK H PARENT
REMARK Flexibility Score: inf
ROOT
ATOM      1  C   UNL     1       2.066  53.000  22.430  1.00  0.00     0.000 C 
ENDROOT
BRANCH   1   2
ATOM      2  C   UNL     1       2.352  51.511  22.690  1.00  0.00     0.000 C 
BRANCH   2   3
ATOM      3  C   UNL     1       1.753  50.599  21.606  1.00  0.00     0.000 C 
BRANCH   3   4
ATOM      4  C   UNL     1       2.191  49.129  21.769  1.00  0.00     0.000 C 
BRANCH   4   5
ATOM      5  C   UNL     1       1.046  48.116  21.586  1.00  0.00     0.000 C 
BRANCH   5   6
ATOM      6  C   UNL     1       0.120  48.038  22.811  1.00  0.00     0.000 C 
BRANCH   6   7
ATOM      7  C   UNL     1      -0.380  46.611  23.104  1.00  0.00     0.000 C 
BRANCH   7   8
ATOM      8  C   UNL     1      -0.651  46.293  24.586  1.00  0.00     0.000 C 
BRANCH   8   9
ATOM      9  C   UNL     1      -2.150  46.252  24.930  1.00  0.00     0.000 C 
BRANCH   9  10
ATOM     10  C   UNL     1      -2.587  47.444  25.800  1.00  0.00     0.000 C 
BRANCH  10  11
ATOM     11  C   UNL     1      -3.511  47.029  26.958  1.00  0.00     0.000 C 
BRANCH  11  12
ATOM     12  C   UNL     1      -5.004  47.228  26.635  1.00  0.00     0.006 C 
BRANCH  12  13
ATOM     13  C   UNL     1      -5.802  45.915  26.544  1.00  0.00     0.053 C 
BRANCH  13  14
ATOM     14  C   UNL     1      -5.947  45.421  25.138  1.00  0.00     0.041 C 
ATOM     15  O   UNL     1      -6.450  44.290  24.910  1.00  0.00    -0.550 OA
ATOM     16  O   UNL     1      -5.520  46.208  24.076  1.00  0.00    -0.550 OA
ENDBRANCH  13  14
ENDBRANCH  12  13
ENDBRANCH  11  12
ENDBRANCH  10  11
ENDBRANCH   9  10
ENDBRANCH   8   9
ENDBRANCH   7   8
ENDBRANCH   6   7
ENDBRANCH   5   6
ENDBRANCH   4   5
ENDBRANCH   3   4
ENDBRANCH   2   3
ENDBRANCH   1   2
BRANCH   1  17
ATOM     17  C   UNL     1       1.061  53.212  21.286  1.00  0.00     0.000 C 
BRANCH  17  18
ATOM     18  C   UNL     1      -0.093  54.157  21.668  1.00  0.00     0.000 C 
BRANCH  18  19
ATOM     19  C   UNL     1      -1.399  53.454  22.082  1.00  0.00     0.000 C 
BRANCH  19  20
ATOM     20  C   UNL     1      -1.346  52.889  23.513  1.00  0.00     0.000 C 
BRANCH  20  21
ATOM     21  C   UNL     1      -1.395  51.352  23.541  1.00  0.00     0.000 C 
BRANCH  21  22
ATOM     22  C   UNL     1      -1.222  50.788  24.962  1.00  0.00    -0.000 C 
BRANCH  22  23
ATOM     23  C   UNL     1       0.246  50.786  25.431  1.00  0.00    -0.000 C 
BRANCH  23  24
ATOM     24  C   UNL     1       0.716  49.489  26.114  1.00  0.00    -0.000 C 
BRANCH  24  25
ATOM     25  C   UNL     1       2.112  48.990  25.694  1.00  0.00    -0.000 C 
BRANCH  25  26
ATOM     26  C   UNL     1       3.161  49.022  26.825  1.00  0.00    -0.000 C 
BRANCH  26  27
ATOM     27  C   UNL     1       2.527  49.213  28.214  1.00  0.00    -0.000 C 
BRANCH  27  28
ATOM     28  C   UNL     1       3.048  50.465  28.943  1.00  0.00    -0.000 C 
BRANCH  28  29
ATOM     29  C   UNL     1       3.635  50.199  30.343  1.00  0.00    -0.003 C 
ATOM     30  C   UNL     1       4.213  51.456  30.997  1.00  0.00     0.004 C 
ENDBRANCH  28  29
ENDBRANCH  27  28
ENDBRANCH  26  27
ENDBRANCH  25  26
ENDBRANCH  24  25
ENDBRANCH  23  24
ENDBRANCH  22  23
ENDBRANCH  21  22
ENDBRANCH  20  21
ENDBRANCH  19  20
ENDBRANCH  18  19
ENDBRANCH  17  18
ENDBRANCH   1  17
TORSDOF 26
ENDMDL
MODEL 5
REMARK VINA RESULT:    -4.707      4.052      8.943
REMARK INTER + INTRA:         -15.233
REMARK INTER:                 -10.198
REMARK INTRA:                  -5.035
REMARK UNBOUND:                -3.372
REMARK SMILES CCCCCCCCCCCCCCCCCCCCCCCCCCCC(=O)[O-]
REMARK SMILES IDX 15 1 16 2 17 3 18 4 19 5 20 6 21 7 22 8 23 9 24 10 25 11
REMARK SMILES IDX 26 12 27 13 28 14 29 15 30 16 14 17 13 18 12 19 11 20 10 21
REMARK SMILES IDX 9 22 8 23 7 24 6 25 5 26 4 27 3 28 2 29 1 30
REMARK H PARENT
REMARK Flexibility Score: inf
ROOT
ATOM      1  C   UNL     1       0.688  49.829  21.971  1.00  0.00     0.000 C 
ENDROOT
BRANCH   1   2
ATOM      2  C   UNL     1       1.710  50.907  21.569  1.00  0.00     0.000 C 
BRANCH   2   3
ATOM      3  C   UNL     1       1.125  52.328  21.646  1.00  0.00     0.000 C 
BRANCH   3   4
ATOM      4  C   UNL     1       2.093  53.324  22.318  1.00  0.00     0.000 C 
BRANCH   4   5
ATOM      5  C   UNL     1       3.105  52.661  23.269  1.00  0.00     0.000 C 
BRANCH   5   6
ATOM      6  C   UNL     1       3.247  53.412  24.604  1.00  0.00     0.000 C 
BRANCH   6   7
ATOM      7  C   UNL     1       1.913  53.975  25.129  1.00  0.00     0.000 C 
BRANCH   7   8
ATOM      8  C   UNL     1       0.823  52.930  25.430  1.00  0.00     0.000 C 
BRANCH   8   9
ATOM      9  C   UNL     1       1.336  51.750  26.274  1.00  0.00     0.000 C 
BRANCH   9  10
ATOM     10  C   UNL     1       1.089  50.391  25.596  1.00  0.00     0.000 C 
BRANCH  10  11
ATOM     11  C   UNL     1       2.388  49.600  25.357  1.00  0.00     0.000 C 
BRANCH  11  12
ATOM     12  C   UNL     1       2.684  48.582  26.474  1.00  0.00     0.006 C 
BRANCH  12  13
ATOM     13  C   UNL     1       3.747  49.054  27.482  1.00  0.00     0.053 C 
BRANCH  13  14
ATOM     14  C   UNL     1       3.151  49.557  28.759  1.00  0.00     0.041 C 
ATOM     15  O   UNL     1       1.955  49.292  29.050  1.00  0.00    -0.550 OA
ATOM     16  O   UNL     1       3.914  50.325  29.629  1.00  0.00    -0.550 OA
ENDBRANCH  13  14
ENDBRANCH  12  13
ENDBRANCH  11  12
ENDBRANCH  10  11
ENDBRANCH   9  10
ENDBRANCH   8   9
ENDBRANCH   7   8
ENDBRANCH   6   7
ENDBRANCH   5   6
ENDBRANCH   4   5
ENDBRANCH   3   4
ENDBRANCH   2   3
ENDBRANCH   1   2
BRANCH   1  17
ATOM     17  C   UNL     1       1.262  48.407  21.852  1.00  0.00     0.000 C 
BRANCH  17  18
ATOM     18  C   UNL     1       0.278  47.322  22.329  1.00  0.00     0.000 C 
BRANCH  18  19
ATOM     19  C   UNL     1      -0.285  47.534  23.747  1.00  0.00     0.000 C 
BRANCH  19  20
ATOM     20  C   UNL     1      -0.405  46.223  24.544  1.00  0.00     0.000 C 
BRANCH  20  21
ATOM     21  C   UNL     1      -1.836  45.658  24.537  1.00  0.00     0.000 C 
BRANCH  21  22
ATOM     22  C   UNL     1      -2.899  46.755  24.725  1.00  0.00    -0.000 C 
BRANCH  22  23
ATOM     23  C   UNL     1      -3.499  46.769  26.144  1.00  0.00    -0.000 C 
BRANCH  23  24
ATOM     24  C   UNL     1      -3.038  47.933  27.041  1.00  0.00    -0.000 C 
BRANCH  24  25
ATOM     25  C   UNL     1      -2.109  48.960  26.365  1.00  0.00    -0.000 C 
BRANCH  25  26
ATOM     26  C   UNL     1      -2.840  50.201  25.811  1.00  0.00    -0.000 C 
BRANCH  26  27
ATOM     27  C   UNL     1      -2.839  50.250  24.273  1.00  0.00    -0.000 C 
BRANCH  27  28
ATOM     28  C   UNL     1      -1.989  51.406  23.712  1.00  0.00    -0.000 C 
BRANCH  28  29
ATOM     29  C   UNL     1      -2.517  52.815  24.042  1.00  0.00    -0.003 C 
ATOM     30  C   UNL     1      -1.973  53.893  23.102  1.00  0.00     0.004 C 
ENDBRANCH  28  29
ENDBRANCH  27  28
ENDBRANCH  26  27
ENDBRANCH  25  26
ENDBRANCH  24  25
ENDBRANCH  23  24
ENDBRANCH  22  23
ENDBRANCH  21  22
ENDBRANCH  20  21
ENDBRANCH  19  20
ENDBRANCH  18  19
ENDBRANCH  17  18
ENDBRANCH   1  17
TORSDOF 26
ENDMDL
MODEL 6
REMARK VINA RESULT:    -4.700      2.645      6.125
REMARK INTER + INTRA:         -15.215
REMARK INTER:                 -10.696
REMARK INTRA:                  -4.518
REMARK UNBOUND:                -3.372
REMARK SMILES CCCCCCCCCCCCCCCCCCCCCCCCCCCC(=O)[O-]
REMARK SMILES IDX 15 1 16 2 17 3 18 4 19 5 20 6 21 7 22 8 23 9 24 10 25 11
REMARK SMILES IDX 26 12 27 13 28 14 29 15 30 16 14 17 13 18 12 19 11 20 10 21
REMARK SMILES IDX 9 22 8 23 7 24 6 25 5 26 4 27 3 28 2 29 1 30
REMARK H PARENT
REMARK Flexibility Score: inf
ROOT
ATOM      1  C   UNL     1       2.093  51.879  23.049  1.00  0.00     0.000 C 
ENDROOT
BRANCH   1   2
ATOM      2  C   UNL     1       1.363  51.747  21.700  1.00  0.00     0.000 C 
BRANCH   2   3
ATOM      3  C   UNL     1       1.787  50.488  20.924  1.00  0.00     0.000 C 
BRANCH   3   4
ATOM      4  C   UNL     1       2.061  49.290  21.857  1.00  0.00     0.000 C 
BRANCH   4   5
ATOM      5  C   UNL     1       0.991  48.186  21.780  1.00  0.00     0.000 C 
BRANCH   5   6
ATOM      6  C   UNL     1       0.040  48.195  22.988  1.00  0.00     0.000 C 
BRANCH   6   7
ATOM      7  C   UNL     1      -0.462  46.792  23.375  1.00  0.00     0.000 C 
BRANCH   7   8
ATOM      8  C   UNL     1      -1.052  46.664  24.792  1.00  0.00     0.000 C 
BRANCH   8   9
ATOM      9  C   UNL     1      -2.586  46.540  24.798  1.00  0.00     0.000 C 
BRANCH   9  10
ATOM     10  C   UNL     1      -3.182  46.683  26.209  1.00  0.00     0.000 C 
BRANCH  10  11
ATOM     11  C   UNL     1      -4.721  46.652  26.211  1.00  0.00     0.000 C 
BRANCH  11  12
ATOM     12  C   UNL     1      -5.312  46.125  24.890  1.00  0.00     0.006 C 
BRANCH  12  13
ATOM     13  C   UNL     1      -6.291  44.951  25.070  1.00  0.00     0.053 C 
BRANCH  13  14
ATOM     14  C   UNL     1      -5.724  43.648  24.599  1.00  0.00     0.041 C 
ATOM     15  O   UNL     1      -6.466  42.637  24.484  1.00  0.00    -0.550 OA
ATOM     16  O   UNL     1      -4.374  43.546  24.291  1.00  0.00    -0.550 OA
ENDBRANCH  13  14
ENDBRANCH  12  13
ENDBRANCH  11  12
ENDBRANCH  10  11
ENDBRANCH   9  10
ENDBRANCH   8   9
ENDBRANCH   7   8
ENDBRANCH   6   7
ENDBRANCH   5   6
ENDBRANCH   4   5
ENDBRANCH   3   4
ENDBRANCH   2   3
ENDBRANCH   1   2
BRANCH   1  17
ATOM     17  C   UNL     1       1.133  52.210  24.204  1.00  0.00     0.000 C 
BRANCH  17  18
ATOM     18  C   UNL     1       1.518  51.513  25.522  1.00  0.00     0.000 C 
BRANCH  18  19
ATOM     19  C   UNL     1       2.480  50.320  25.369  1.00  0.00     0.000 C 
BRANCH  19  20
ATOM     20  C   UNL     1       1.852  48.986  25.810  1.00  0.00     0.000 C 
BRANCH  20  21
ATOM     21  C   UNL     1       2.697  48.260  26.871  1.00  0.00     0.000 C 
BRANCH  21  22
ATOM     22  C   UNL     1       3.654  49.211  27.609  1.00  0.00    -0.000 C 
BRANCH  22  23
ATOM     23  C   UNL     1       3.129  49.635  28.994  1.00  0.00    -0.000 C 
BRANCH  23  24
ATOM     24  C   UNL     1       2.291  50.926  29.012  1.00  0.00    -0.000 C 
BRANCH  24  25
ATOM     25  C   UNL     1       0.900  50.802  29.664  1.00  0.00    -0.000 C 
BRANCH  25  26
ATOM     26  C   UNL     1       0.324  49.370  29.654  1.00  0.00    -0.000 C 
BRANCH  26  27
ATOM     27  C   UNL     1      -0.983  49.264  28.849  1.00  0.00    -0.000 C 
BRANCH  27  28
ATOM     28  C   UNL     1      -0.915  50.003  27.500  1.00  0.00    -0.000 C 
BRANCH  28  29
ATOM     29  C   UNL     1      -2.264  50.133  26.766  1.00  0.00    -0.003 C 
ATOM     30  C   UNL     1      -2.111  50.238  25.248  1.00  0.00     0.004 C 
ENDBRANCH  28  29
ENDBRANCH  27  28
ENDBRANCH  26  27
ENDBRANCH  25  26
ENDBRANCH  24  25
ENDBRANCH  23  24
ENDBRANCH  22  23
ENDBRANCH  21  22
ENDBRANCH  20  21
ENDBRANCH  19  20
ENDBRANCH  18  19
ENDBRANCH  17  18
ENDBRANCH   1  17
TORSDOF 26
ENDMDL
MODEL 7
REMARK VINA RESULT:    -4.689      3.274      9.686
REMARK INTER + INTRA:         -15.189
REMARK INTER:                 -11.383
REMARK INTRA:                  -3.806
REMARK UNBOUND:                -3.372
REMARK SMILES CCCCCCCCCCCCCCCCCCCCCCCCCCCC(=O)[O-]
REMARK SMILES IDX 15 1 16 2 17 3 18 4 19 5 20 6 21 7 22 8 23 9 24 10 25 11
REMARK SMILES IDX 26 12 27 13 28 14 29 15 30 16 14 17 13 18 12 19 11 20 10 21
REMARK SMILES IDX 9 22 8 23 7 24 6 25 5 26 4 27 3 28 2 29 1 30
REMARK H PARENT
REMARK Flexibility Score: inf
ROOT
ATOM      1  C   UNL     1      -1.911  47.404  25.048  1.00  0.00     0.000 C 
ENDROOT
BRANCH   1   2
ATOM      2  C   UNL     1      -0.871  46.353  24.621  1.00  0.00     0.000 C 
BRANCH   2   3
ATOM      3  C   UNL     1      -0.503  46.462  23.131  1.00  0.00     0.000 C 
BRANCH   3   4
ATOM      4  C   UNL     1       0.016  47.867  22.758  1.00  0.00     0.000 C 
BRANCH   4   5
ATOM      5  C   UNL     1       1.053  47.864  21.621  1.00  0.00     0.000 C 
BRANCH   5   6
ATOM      6  C   UNL     1       2.122  48.957  21.788  1.00  0.00     0.000 C 
BRANCH   6   7
ATOM      7  C   UNL     1       1.656  50.340  21.297  1.00  0.00     0.000 C 
BRANCH   7   8
ATOM      8  C   UNL     1       1.302  51.353  22.401  1.00  0.00     0.000 C 
BRANCH   8   9
ATOM      9  C   UNL     1       2.480  51.655  23.344  1.00  0.00     0.000 C 
BRANCH   9  10
ATOM     10  C   UNL     1       2.102  51.501  24.827  1.00  0.00     0.000 C 
BRANCH  10  11
ATOM     11  C   UNL     1       1.048  50.405  25.062  1.00  0.00     0.000 C 
BRANCH  11  12
ATOM     12  C   UNL     1       1.641  49.125  25.681  1.00  0.00     0.006 C 
BRANCH  12  13
ATOM     13  C   UNL     1       2.910  49.368  26.518  1.00  0.00     0.053 C 
BRANCH  13  14
ATOM     14  C   UNL     1       2.652  49.307  27.991  1.00  0.00     0.041 C 
ATOM     15  O   UNL     1       3.612  49.210  28.801  1.00  0.00    -0.550 OA
ATOM     16  O   UNL     1       1.351  49.350  28.473  1.00  0.00    -0.550 OA
ENDBRANCH  13  14
ENDBRANCH  12  13
ENDBRANCH  11  12
ENDBRANCH  10  11
ENDBRANCH   9  10
ENDBRANCH   8   9
ENDBRANCH   7   8
ENDBRANCH   6   7
ENDBRANCH   5   6
ENDBRANCH   4   5
ENDBRANCH   3   4
ENDBRANCH   2   3
ENDBRANCH   1   2
BRANCH   1  17
ATOM     17  C   UNL     1      -2.678  46.987  26.314  1.00  0.00     0.000 C 
BRANCH  17  18
ATOM     18  C   UNL     1      -4.195  46.865  26.083  1.00  0.00     0.000 C 
BRANCH  18  19
ATOM     19  C   UNL     1      -4.968  48.196  26.128  1.00  0.00     0.000 C 
BRANCH  19  20
ATOM     20  C   UNL     1      -6.154  48.233  25.148  1.00  0.00     0.000 C 
BRANCH  20  21
ATOM     21  C   UNL     1      -5.764  47.768  23.734  1.00  0.00     0.000 C 
BRANCH  21  22
ATOM     22  C   UNL     1      -6.921  47.055  23.013  1.00  0.00    -0.000 C 
BRANCH  22  23
ATOM     23  C   UNL     1      -8.252  47.140  23.785  1.00  0.00    -0.000 C 
BRANCH  23  24
ATOM     24  C   UNL     1      -8.935  45.790  24.068  1.00  0.00    -0.000 C 
BRANCH  24  25
ATOM     25  C   UNL     1      -8.289  44.945  25.183  1.00  0.00    -0.000 C 
BRANCH  25  26
ATOM     26  C   UNL     1      -8.256  43.430  24.888  1.00  0.00    -0.000 C 
BRANCH  26  27
ATOM     27  C   UNL     1      -6.825  42.870  24.834  1.00  0.00    -0.000 C 
BRANCH  27  28
ATOM     28  C   UNL     1      -5.754  43.973  24.747  1.00  0.00    -0.000 C 
BRANCH  28  29
ATOM     29  C   UNL     1      -4.894  43.940  23.468  1.00  0.00    -0.003 C 
ATOM     30  C   UNL     1      -3.423  43.622  23.745  1.00  0.00     0.004 C 
ENDBRANCH  28  29
ENDBRANCH  27  28
ENDBRANCH  26  27
ENDBRANCH  25  26
ENDBRANCH  24  25
ENDBRANCH  23  24
ENDBRANCH  22  23
ENDBRANCH  21  22
ENDBRANCH  20  21
ENDBRANCH  19  20
ENDBRANCH  18  19
ENDBRANCH  17  18
ENDBRANCH   1  17
TORSDOF 26
ENDMDL
MODEL 8
REMARK VINA RESULT:    -4.674      4.318      6.558
REMARK INTER + INTRA:         -15.151
REMARK INTER:                 -10.242
REMARK INTRA:                  -4.910
REMARK UNBOUND:                -3.372
REMARK SMILES CCCCCCCCCCCCCCCCCCCCCCCCCCCC(=O)[O-]
REMARK SMILES IDX 15 1 16 2 17 3 18 4 19 5 20 6 21 7 22 8 23 9 24 10 25 11
REMARK SMILES IDX 26 12 27 13 28 14 29 15 30 16 14 17 13 18 12 19 11 20 10 21
REMARK SMILES IDX 9 22 8 23 7 24 6 25 5 26 4 27 3 28 2 29 1 30
REMARK H PARENT
REMARK Flexibility Score: inf
ROOT
ATOM      1  C   UNL     1       1.612  48.990  21.714  1.00  0.00     0.000 C 
ENDROOT
BRANCH   1   2
ATOM      2  C   UNL     1       0.777  48.761  22.986  1.00  0.00     0.000 C 
BRANCH   2   3
ATOM      3  C   UNL     1      -0.132  47.525  22.877  1.00  0.00     0.000 C 
BRANCH   3   4
ATOM      4  C   UNL     1      -0.285  46.789  24.225  1.00  0.00     0.000 C 
BRANCH   4   5
ATOM      5  C   UNL     1      -1.531  45.890  24.304  1.00  0.00     0.000 C 
BRANCH   5   6
ATOM      6  C   UNL     1      -2.788  46.654  24.749  1.00  0.00     0.000 C 
BRANCH   6   7
ATOM      7  C   UNL     1      -2.509  47.696  25.847  1.00  0.00     0.000 C 
BRANCH   7   8
ATOM      8  C   UNL     1      -3.260  49.033  25.702  1.00  0.00     0.000 C 
BRANCH   8   9
ATOM      9  C   UNL     1      -2.904  49.787  24.409  1.00  0.00     0.000 C 
BRANCH   9  10
ATOM     10  C   UNL     1      -3.441  51.229  24.402  1.00  0.00     0.000 C 
BRANCH  10  11
ATOM     11  C   UNL     1      -2.516  52.205  23.654  1.00  0.00     0.000 C 
BRANCH  11  12
ATOM     12  C   UNL     1      -3.089  52.657  22.298  1.00  0.00     0.006 C 
BRANCH  12  13
ATOM     13  C   UNL     1      -2.769  54.120  21.942  1.00  0.00     0.053 C 
BRANCH  13  14
ATOM     14  C   UNL     1      -3.887  55.056  22.278  1.00  0.00     0.041 C 
ATOM     15  O   UNL     1      -4.503  55.665  21.364  1.00  0.00    -0.550 OA
ATOM     16  O   UNL     1      -4.248  55.264  23.603  1.00  0.00    -0.550 OA
ENDBRANCH  13  14
ENDBRANCH  12  13
ENDBRANCH  11  12
ENDBRANCH  10  11
ENDBRANCH   9  10
ENDBRANCH   8   9
ENDBRANCH   7   8
ENDBRANCH   6   7
ENDBRANCH   5   6
ENDBRANCH   4   5
ENDBRANCH   3   4
ENDBRANCH   2   3
ENDBRANCH   1   2
BRANCH   1  17
ATOM     17  C   UNL     1       1.637  50.467  21.288  1.00  0.00     0.000 C 
BRANCH  17  18
ATOM     18  C   UNL     1       0.537  51.305  21.966  1.00  0.00     0.000 C 
BRANCH  18  19
ATOM     19  C   UNL     1       0.653  52.826  21.750  1.00  0.00     0.000 C 
BRANCH  19  20
ATOM     20  C   UNL     1       2.112  53.314  21.706  1.00  0.00     0.000 C 
BRANCH  20  21
ATOM     21  C   UNL     1       2.638  53.727  23.091  1.00  0.00     0.000 C 
BRANCH  21  22
ATOM     22  C   UNL     1       3.563  52.663  23.707  1.00  0.00    -0.000 C 
BRANCH  22  23
ATOM     23  C   UNL     1       2.812  51.673  24.621  1.00  0.00    -0.000 C 
BRANCH  23  24
ATOM     24  C   UNL     1       2.011  52.316  25.767  1.00  0.00    -0.000 C 
BRANCH  24  25
ATOM     25  C   UNL     1       0.522  51.925  25.832  1.00  0.00    -0.000 C 
BRANCH  25  26
ATOM     26  C   UNL     1       0.267  50.403  25.802  1.00  0.00    -0.000 C 
BRANCH  26  27
ATOM     27  C   UNL     1       0.880  49.678  27.013  1.00  0.00    -0.000 C 
BRANCH  27  28
ATOM     28  C   UNL     1       1.890  48.588  26.610  1.00  0.00    -0.000 C 
BRANCH  28  29
ATOM     29  C   UNL     1       3.353  48.892  26.981  1.00  0.00    -0.003 C 
ATOM     30  C   UNL     1       3.516  49.370  28.426  1.00  0.00     0.004 C 
ENDBRANCH  28  29
ENDBRANCH  27  28
ENDBRANCH  26  27
ENDBRANCH  25  26
ENDBRANCH  24  25
ENDBRANCH  23  24
ENDBRANCH  22  23
ENDBRANCH  21  22
ENDBRANCH  20  21
ENDBRANCH  19  20
ENDBRANCH  18  19
ENDBRANCH  17  18
ENDBRANCH   1  17
TORSDOF 26
ENDMDL
MODEL 9
REMARK VINA RESULT:    -4.639      3.244      5.956
REMARK INTER + INTRA:         -15.061
REMARK INTER:                 -10.155
REMARK INTRA:                  -4.907
REMARK UNBOUND:                -3.372
REMARK SMILES CCCCCCCCCCCCCCCCCCCCCCCCCCCC(=O)[O-]
REMARK SMILES IDX 15 1 16 2 17 3 18 4 19 5 20 6 21 7 22 8 23 9 24 10 25 11
REMARK SMILES IDX 26 12 27 13 28 14 29 15 30 16 14 17 13 18 12 19 11 20 10 21
REMARK SMILES IDX 9 22 8 23 7 24 6 25 5 26 4 27 3 28 2 29 1 30
REMARK H PARENT
REMARK Flexibility Score: inf
ROOT
ATOM      1  C   UNL     1       2.108  53.038  22.435  1.00  0.00     0.000 C 
ENDROOT
BRANCH   1   2
ATOM      2  C   UNL     1       2.443  51.559  22.693  1.00  0.00     0.000 C 
BRANCH   2   3
ATOM      3  C   UNL     1       1.693  50.612  21.739  1.00  0.00     0.000 C 
BRANCH   3   4
ATOM      4  C   UNL     1       2.124  49.141  21.916  1.00  0.00     0.000 C 
BRANCH   4   5
ATOM      5  C   UNL     1       1.002  48.127  21.631  1.00  0.00     0.000 C 
BRANCH   5   6
ATOM      6  C   UNL     1      -0.033  48.051  22.766  1.00  0.00     0.000 C 
BRANCH   6   7
ATOM      7  C   UNL     1      -0.510  46.617  23.058  1.00  0.00     0.000 C 
BRANCH   7   8
ATOM      8  C   UNL     1      -0.476  46.193  24.538  1.00  0.00     0.000 C 
BRANCH   8   9
ATOM      9  C   UNL     1      -1.668  46.732  25.348  1.00  0.00     0.000 C 
BRANCH   9  10
ATOM     10  C   UNL     1      -3.018  46.456  24.662  1.00  0.00     0.000 C 
BRANCH  10  11
ATOM     11  C   UNL     1      -4.000  47.634  24.787  1.00  0.00     0.000 C 
BRANCH  11  12
ATOM     12  C   UNL     1      -4.415  47.918  26.243  1.00  0.00     0.006 C 
BRANCH  12  13
ATOM     13  C   UNL     1      -4.032  49.326  26.736  1.00  0.00     0.053 C 
BRANCH  13  14
ATOM     14  C   UNL     1      -2.992  49.299  27.811  1.00  0.00     0.041 C 
ATOM     15  O   UNL     1      -2.462  50.371  28.209  1.00  0.00    -0.550 OA
ATOM     16  O   UNL     1      -2.600  48.091  28.372  1.00  0.00    -0.550 OA
ENDBRANCH  13  14
ENDBRANCH  12  13
ENDBRANCH  11  12
ENDBRANCH  10  11
ENDBRANCH   9  10
ENDBRANCH   8   9
ENDBRANCH   7   8
ENDBRANCH   6   7
ENDBRANCH   5   6
ENDBRANCH   4   5
ENDBRANCH   3   4
ENDBRANCH   2   3
ENDBRANCH   1   2
BRANCH   1  17
ATOM     17  C   UNL     1       1.123  53.221  21.269  1.00  0.00     0.000 C 
BRANCH  17  18
ATOM     18  C   UNL     1       0.009  54.238  21.579  1.00  0.00     0.000 C 
BRANCH  18  19
ATOM     19  C   UNL     1      -1.380  53.624  21.834  1.00  0.00     0.000 C 
BRANCH  19  20
ATOM     20  C   UNL     1      -1.516  53.019  23.243  1.00  0.00     0.000 C 
BRANCH  20  21
ATOM     21  C   UNL     1      -1.634  51.486  23.217  1.00  0.00     0.000 C 
BRANCH  21  22
ATOM     22  C   UNL     1      -1.531  50.867  24.622  1.00  0.00    -0.000 C 
BRANCH  22  23
ATOM     23  C   UNL     1      -0.106  50.937  25.205  1.00  0.00    -0.000 C 
BRANCH  23  24
ATOM     24  C   UNL     1       0.306  49.738  26.078  1.00  0.00    -0.000 C 
BRANCH  24  25
ATOM     25  C   UNL     1       1.619  49.043  25.668  1.00  0.00    -0.000 C 
BRANCH  25  26
ATOM     26  C   UNL     1       2.892  49.736  26.199  1.00  0.00    -0.000 C 
BRANCH  26  27
ATOM     27  C   UNL     1       3.571  48.939  27.326  1.00  0.00    -0.000 C 
BRANCH  27  28
ATOM     28  C   UNL     1       3.510  49.657  28.687  1.00  0.00    -0.000 C 
BRANCH  28  29
ATOM     29  C   UNL     1       2.137  49.605  29.384  1.00  0.00    -0.003 C 
ATOM     30  C   UNL     1       1.506  50.987  29.566  1.00  0.00     0.004 C 
ENDBRANCH  28  29
ENDBRANCH  27  28
ENDBRANCH  26  27
ENDBRANCH  25  26
ENDBRANCH  24  25
ENDBRANCH  23  24
ENDBRANCH  22  23
ENDBRANCH  21  22
ENDBRANCH  20  21
ENDBRANCH  19  20
ENDBRANCH  18  19
ENDBRANCH  17  18
ENDBRANCH   1  17
TORSDOF 26
ENDMDL
