MODEL 1
REMARK VINA RESULT:    -5.065      0.000      0.000
REMARK INTER + INTRA:          -6.867
REMARK INTER:                  -6.545
REMARK INTRA:                  -0.322
REMARK UNBOUND:                -0.322
REMARK SMILES C=CC(=O)CCCCC
REMARK SMILES IDX 6 1 7 2 8 3 9 4 5 5 3 6 4 7 2 8 1 9
REMARK H PARENT
REMARK Flexibility Score: inf
ROOT
ATOM      1  C   UNL     1      83.302   5.621  28.836  1.00  0.00     0.008 C 
ENDROOT
BRANCH   1   2
ATOM      2  C   UNL     1      81.974   5.235  28.167  1.00  0.00     0.000 C 
BRANCH   2   3
ATOM      3  C   UNL     1      81.710   6.022  26.877  1.00  0.00    -0.003 C 
ATOM      4  C   UNL     1      80.957   7.316  27.165  1.00  0.00     0.004 C 
ENDBRANCH   2   3
ENDBRANCH   1   2
BRANCH   1   5
ATOM      5  C   UNL     1      84.496   5.524  27.875  1.00  0.00     0.080 C 
BRANCH   5   6
ATOM      6  C   UNL     1      84.857   4.085  27.617  1.00  0.00     0.155 C 
ATOM      7  O   UNL     1      84.720   3.630  26.450  1.00  0.00    -0.295 OA
BRANCH   6   8
ATOM      8  C   UNL     1      85.338   3.168  28.673  1.00  0.00     0.039 C 
ATOM      9  C   UNL     1      86.625   2.973  28.961  1.00  0.00     0.012 C 
ENDBRANCH   6   8
ENDBRANCH   5   6
ENDBRANCH   1   5
TORSDOF 5
ENDMDL
MODEL 2
REMARK VINA RESULT:    -5.060      1.166      1.725
REMARK INTER + INTRA:          -6.861
REMARK INTER:                  -6.448
REMARK INTRA:                  -0.413
REMARK UNBOUND:                -0.322
REMARK SMILES C=CC(=O)CCCCC
REMARK SMILES IDX 6 1 7 2 8 3 9 4 5 5 3 6 4 7 2 8 1 9
REMARK H PARENT
REMARK Flexibility Score: inf
ROOT
ATOM      1  C   UNL     1      84.011   5.556  26.810  1.00  0.00     0.008 C 
ENDROOT
BRANCH   1   2
ATOM      2  C   UNL     1      82.506   5.711  26.541  1.00  0.00     0.000 C 
BRANCH   2   3
ATOM      3  C   UNL     1      81.726   6.165  27.782  1.00  0.00    -0.003 C 
ATOM      4  C   UNL     1      82.460   5.781  29.064  1.00  0.00     0.004 C 
ENDBRANCH   2   3
ENDBRANCH   1   2
BRANCH   1   5
ATOM      5  C   UNL     1      84.555   4.194  26.354  1.00  0.00     0.080 C 
BRANCH   5   6
ATOM      6  C   UNL     1      84.239   3.127  27.370  1.00  0.00     0.155 C 
ATOM      7  O   UNL     1      83.298   2.325  27.127  1.00  0.00    -0.295 OA
BRANCH   6   8
ATOM      8  C   UNL     1      84.961   2.992  28.654  1.00  0.00     0.039 C 
ATOM      9  C   UNL     1      86.288   2.931  28.759  1.00  0.00     0.012 C 
ENDBRANCH   6   8
ENDBRANCH   5   6
ENDBRANCH   1   5
TORSDOF 5
ENDMDL
MODEL 3
REMARK VINA RESULT:    -5.019      1.570      4.659
REMARK INTER + INTRA:          -6.808
REMARK INTER:                  -6.494
REMARK INTRA:                  -0.315
REMARK UNBOUND:                -0.322
REMARK SMILES C=CC(=O)CCCCC
REMARK SMILES IDX 6 1 7 2 8 3 9 4 5 5 3 6 4 7 2 8 1 9
REMARK H PARENT
REMARK Flexibility Score: inf
ROOT
ATOM      1  C   UNL     1      84.453   4.467  26.940  1.00  0.00     0.008 C 
ENDROOT
BRANCH   1   2
ATOM      2  C   UNL     1      84.234   3.121  27.648  1.00  0.00     0.000 C 
BRANCH   2   3
ATOM      3  C   UNL     1      85.056   2.990  28.936  1.00  0.00    -0.003 C 
ATOM      4  C   UNL     1      86.538   2.798  28.627  1.00  0.00     0.004 C 
ENDBRANCH   2   3
ENDBRANCH   1   2
BRANCH   1   5
ATOM      5  C   UNL     1      84.290   5.665  27.887  1.00  0.00     0.080 C 
BRANCH   5   6
ATOM      6  C   UNL     1      82.847   5.843  28.279  1.00  0.00     0.155 C 
ATOM      7  O   UNL     1      82.551   5.838  29.504  1.00  0.00    -0.295 OA
BRANCH   6   8
ATOM      8  C   UNL     1      81.753   5.992  27.295  1.00  0.00     0.039 C 
ATOM      9  C   UNL     1      81.017   7.096  27.163  1.00  0.00     0.012 C 
ENDBRANCH   6   8
ENDBRANCH   5   6
ENDBRANCH   1   5
TORSDOF 5
ENDMDL
MODEL 4
REMARK VINA RESULT:    -4.956      1.564      4.154
REMARK INTER + INTRA:          -6.726
REMARK INTER:                  -6.247
REMARK INTRA:                  -0.480
REMARK UNBOUND:                -0.322
REMARK SMILES C=CC(=O)CCCCC
REMARK SMILES IDX 6 1 7 2 8 3 9 4 5 5 3 6 4 7 2 8 1 9
REMARK H PARENT
REMARK Flexibility Score: inf
ROOT
ATOM      1  C   UNL     1      84.655   4.147  26.622  1.00  0.00     0.008 C 
ENDROOT
BRANCH   1   2
ATOM      2  C   UNL     1      84.184   3.020  27.554  1.00  0.00     0.000 C 
BRANCH   2   3
ATOM      3  C   UNL     1      84.945   2.996  28.886  1.00  0.00    -0.003 C 
ATOM      4  C   UNL     1      86.443   2.817  28.660  1.00  0.00     0.004 C 
ENDBRANCH   2   3
ENDBRANCH   1   2
BRANCH   1   5
ATOM      5  C   UNL     1      84.331   5.543  27.174  1.00  0.00     0.080 C 
BRANCH   5   6
ATOM      6  C   UNL     1      82.842   5.738  27.291  1.00  0.00     0.155 C 
ATOM      7  O   UNL     1      82.157   5.785  26.235  1.00  0.00    -0.295 OA
BRANCH   6   8
ATOM      8  C   UNL     1      82.146   5.907  28.585  1.00  0.00     0.039 C 
ATOM      9  C   UNL     1      82.741   5.785  29.772  1.00  0.00     0.012 C 
ENDBRANCH   6   8
ENDBRANCH   5   6
ENDBRANCH   1   5
TORSDOF 5
ENDMDL
MODEL 5
REMARK VINA RESULT:    -4.869      1.467      1.937
REMARK INTER + INTRA:          -6.614
REMARK INTER:                  -6.159
REMARK INTRA:                  -0.455
REMARK UNBOUND:                -0.322
REMARK SMILES C=CC(=O)CCCCC
REMARK SMILES IDX 6 1 7 2 8 3 9 4 5 5 3 6 4 7 2 8 1 9
REMARK H PARENT
REMARK Flexibility Score: inf
ROOT
ATOM      1  C   UNL     1      83.871   5.287  26.697  1.00  0.00     0.008 C 
ENDROOT
BRANCH   1   2
ATOM      2  C   UNL     1      82.339   5.325  26.595  1.00  0.00     0.000 C 
BRANCH   2   3
ATOM      3  C   UNL     1      81.688   6.106  27.745  1.00  0.00    -0.003 C 
ATOM      4  C   UNL     1      80.934   7.325  27.224  1.00  0.00     0.004 C 
ENDBRANCH   2   3
ENDBRANCH   1   2
BRANCH   1   5
ATOM      5  C   UNL     1      84.365   5.218  28.149  1.00  0.00     0.080 C 
BRANCH   5   6
ATOM      6  C   UNL     1      84.675   3.796  28.538  1.00  0.00     0.155 C 
ATOM      7  O   UNL     1      85.826   3.343  28.295  1.00  0.00    -0.295 OA
BRANCH   6   8
ATOM      8  C   UNL     1      83.686   2.893  29.165  1.00  0.00     0.039 C 
ATOM      9  C   UNL     1      82.706   3.306  29.969  1.00  0.00     0.012 C 
ENDBRANCH   6   8
ENDBRANCH   5   6
ENDBRANCH   1   5
TORSDOF 5
ENDMDL
MODEL 6
REMARK VINA RESULT:    -4.833      1.774      2.163
REMARK INTER + INTRA:          -6.568
REMARK INTER:                  -6.156
REMARK INTRA:                  -0.412
REMARK UNBOUND:                -0.322
REMARK SMILES C=CC(=O)CCCCC
REMARK SMILES IDX 6 1 7 2 8 3 9 4 5 5 3 6 4 7 2 8 1 9
REMARK H PARENT
REMARK Flexibility Score: inf
ROOT
ATOM      1  C   UNL     1      83.114   5.588  28.826  1.00  0.00     0.008 C 
ENDROOT
BRANCH   1   2
ATOM      2  C   UNL     1      81.785   5.950  28.146  1.00  0.00     0.000 C 
BRANCH   2   3
ATOM      3  C   UNL     1      81.778   5.620  26.647  1.00  0.00    -0.003 C 
ATOM      4  C   UNL     1      83.189   5.336  26.140  1.00  0.00     0.004 C 
ENDBRANCH   2   3
ENDBRANCH   1   2
BRANCH   1   5
ATOM      5  C   UNL     1      82.952   4.503  29.900  1.00  0.00     0.080 C 
BRANCH   5   6
ATOM      6  C   UNL     1      83.425   3.169  29.385  1.00  0.00     0.155 C 
ATOM      7  O   UNL     1      82.790   2.134  29.722  1.00  0.00    -0.295 OA
BRANCH   6   8
ATOM      8  C   UNL     1      84.618   3.009  28.526  1.00  0.00     0.039 C 
ATOM      9  C   UNL     1      85.867   2.953  28.989  1.00  0.00     0.012 C 
ENDBRANCH   6   8
ENDBRANCH   5   6
ENDBRANCH   1   5
TORSDOF 5
ENDMDL
MODEL 7
REMARK VINA RESULT:    -4.758      1.564      4.109
REMARK INTER + INTRA:          -6.471
REMARK INTER:                  -6.119
REMARK INTRA:                  -0.352
REMARK UNBOUND:                -0.322
REMARK SMILES C=CC(=O)CCCCC
REMARK SMILES IDX 6 1 7 2 8 3 9 4 5 5 3 6 4 7 2 8 1 9
REMARK H PARENT
REMARK Flexibility Score: inf
ROOT
ATOM      1  C   UNL     1      84.860   4.091  27.672  1.00  0.00     0.008 C 
ENDROOT
BRANCH   1   2
ATOM      2  C   UNL     1      84.712   3.280  28.969  1.00  0.00     0.000 C 
BRANCH   2   3
ATOM      3  C   UNL     1      83.330   2.626  29.102  1.00  0.00    -0.003 C 
ATOM      4  C   UNL     1      82.505   3.300  30.194  1.00  0.00     0.004 C 
ENDBRANCH   2   3
ENDBRANCH   1   2
BRANCH   1   5
ATOM      5  C   UNL     1      84.310   5.518  27.802  1.00  0.00     0.080 C 
BRANCH   5   6
ATOM      6  C   UNL     1      82.985   5.644  27.096  1.00  0.00     0.155 C 
ATOM      7  O   UNL     1      82.920   5.328  25.878  1.00  0.00    -0.295 OA
BRANCH   6   8
ATOM      8  C   UNL     1      81.761   6.150  27.754  1.00  0.00     0.039 C 
ATOM      9  C   UNL     1      80.979   7.100  27.243  1.00  0.00     0.012 C 
ENDBRANCH   6   8
ENDBRANCH   5   6
ENDBRANCH   1   5
TORSDOF 5
ENDMDL
MODEL 8
REMARK VINA RESULT:    -4.705      1.510      2.171
REMARK INTER + INTRA:          -6.402
REMARK INTER:                  -5.880
REMARK INTRA:                  -0.522
REMARK UNBOUND:                -0.322
REMARK SMILES C=CC(=O)CCCCC
REMARK SMILES IDX 6 1 7 2 8 3 9 4 5 5 3 6 4 7 2 8 1 9
REMARK H PARENT
REMARK Flexibility Score: inf
ROOT
ATOM      1  C   UNL     1      82.952   4.337  29.479  1.00  0.00     0.008 C 
ENDROOT
BRANCH   1   2
ATOM      2  C   UNL     1      82.812   5.726  28.838  1.00  0.00     0.000 C 
BRANCH   2   3
ATOM      3  C   UNL     1      81.458   5.924  28.144  1.00  0.00    -0.003 C 
ATOM      4  C   UNL     1      81.626   6.618  26.796  1.00  0.00     0.004 C 
ENDBRANCH   2   3
ENDBRANCH   1   2
BRANCH   1   5
ATOM      5  C   UNL     1      84.173   3.566  28.957  1.00  0.00     0.080 C 
BRANCH   5   6
ATOM      6  C   UNL     1      83.993   3.202  27.506  1.00  0.00     0.155 C 
ATOM      7  O   UNL     1      83.091   2.377  27.200  1.00  0.00    -0.295 OA
BRANCH   6   8
ATOM      8  C   UNL     1      84.842   3.745  26.424  1.00  0.00     0.039 C 
ATOM      9  C   UNL     1      84.467   4.727  25.604  1.00  0.00     0.012 C 
ENDBRANCH   6   8
ENDBRANCH   5   6
ENDBRANCH   1   5
TORSDOF 5
ENDMDL
MODEL 9
REMARK VINA RESULT:    -4.621      2.258      4.102
REMARK INTER + INTRA:          -6.293
REMARK INTER:                  -5.806
REMARK INTRA:                  -0.487
REMARK UNBOUND:                -0.322
REMARK SMILES C=CC(=O)CCCCC
REMARK SMILES IDX 6 1 7 2 8 3 9 4 5 5 3 6 4 7 2 8 1 9
REMARK H PARENT
REMARK Flexibility Score: inf
ROOT
ATOM      1  C   UNL     1      83.320   3.171  28.616  1.00  0.00     0.008 C 
ENDROOT
BRANCH   1   2
ATOM      2  C   UNL     1      83.617   2.883  27.136  1.00  0.00     0.000 C 
BRANCH   2   3
ATOM      3  C   UNL     1      84.828   3.666  26.612  1.00  0.00    -0.003 C 
ATOM      4  C   UNL     1      84.411   4.674  25.545  1.00  0.00     0.004 C 
ENDBRANCH   2   3
ENDBRANCH   1   2
BRANCH   1   5
ATOM      5  C   UNL     1      83.822   4.552  29.060  1.00  0.00     0.080 C 
BRANCH   5   6
ATOM      6  C   UNL     1      82.668   5.497  29.268  1.00  0.00     0.155 C 
ATOM      7  O   UNL     1      82.585   6.115  30.363  1.00  0.00    -0.295 OA
BRANCH   6   8
ATOM      8  C   UNL     1      81.608   5.715  28.260  1.00  0.00     0.039 C 
ATOM      9  C   UNL     1      81.698   6.595  27.262  1.00  0.00     0.012 C 
ENDBRANCH   6   8
ENDBRANCH   5   6
ENDBRANCH   1   5
TORSDOF 5
ENDMDL
