MODEL 1
REMARK VINA RESULT:    -7.064      0.000      0.000
REMARK INTER + INTRA:         -12.328
REMARK INTER:                 -10.367
REMARK INTRA:                  -1.960
REMARK UNBOUND:                -1.960
REMARK SMILES O=c1c(O[C@@H]2O[C@@H](CO)[C@@H](O)[C@H](O)[C@@H]2O)c(-c2ccc(O)c(O)c2)oc2cc(O)cc(O)c12
REMARK SMILES IDX 4 1 3 2 16 3 25 4 2 5 26 6 1 7 33 8 27 9 31 10 28 11 30 12
REMARK SMILES IDX 17 13 20 14 19 15 22 16 18 17 24 18 21 19 23 21 32 23 29 25
REMARK SMILES IDX 5 27 14 28 6 29 12 30 7 31 10 32 15 33 13 35 8 37 9 38 11 40
REMARK H PARENT 21 20 23 22 32 24 29 26 15 34 13 36 9 39 11 41
REMARK Flexibility Score: inf
ROOT
ATOM      1  O   UNL     1      -0.435 -20.307  28.715  1.00  0.00    -0.454 OA
ENDROOT
BRANCH   1   2
ATOM      2  C   UNL     1      -0.606 -21.673  29.025  1.00  0.00     0.214 A 
ATOM      3  C   UNL     1       0.025 -22.625  28.198  1.00  0.00     0.180 A 
ATOM      4  O   UNL     1      -0.047 -23.920  28.485  1.00  0.00    -0.452 OA
ATOM      5  C   UNL     1      -1.346 -22.145  30.136  1.00  0.00     0.239 A 
ATOM      6  C   UNL     1      -0.719 -24.400  29.522  1.00  0.00     0.146 A 
ATOM      7  O   UNL     1      -1.944 -21.337  30.894  1.00  0.00    -0.285 OA
ATOM      8  C   UNL     1      -1.410 -23.531  30.396  1.00  0.00     0.111 A 
ATOM      9  C   UNL     1      -0.739 -25.781  29.736  1.00  0.00     0.094 A 
ATOM     10  C   UNL     1      -2.124 -24.082  31.489  1.00  0.00     0.134 A 
ATOM     11  C   UNL     1      -1.446 -26.319  30.817  1.00  0.00     0.123 A 
ATOM     12  C   UNL     1      -2.134 -25.471  31.686  1.00  0.00     0.093 A 
BRANCH   3  13
ATOM     13  C   UNL     1       0.796 -22.224  27.004  1.00  0.00     0.025 A 
ATOM     14  C   UNL     1       2.225 -21.424  24.719  1.00  0.00     0.157 A 
ATOM     15  C   UNL     1       2.825 -21.359  25.984  1.00  0.00     0.051 A 
ATOM     16  C   UNL     1       0.901 -21.875  24.597  1.00  0.00     0.158 A 
ATOM     17  C   UNL     1       2.112 -21.750  27.120  1.00  0.00     0.016 A 
ATOM     18  C   UNL     1       0.190 -22.264  25.740  1.00  0.00     0.062 A 
BRANCH  14  19
ATOM     19  O   UNL     1       2.939 -21.036  23.586  1.00  0.00    -0.504 OA
ATOM     20  H   UNL     1       3.553 -20.229  23.595  1.00  0.00     0.293 HD
ENDBRANCH  14  19
BRANCH  16  21
ATOM     21  O   UNL     1       0.273 -21.942  23.353  1.00  0.00    -0.504 OA
ATOM     22  H   UNL     1      -0.284 -21.178  22.991  1.00  0.00     0.293 HD
ENDBRANCH  16  21
ENDBRANCH   3  13
BRANCH  10  23
ATOM     23  O   UNL     1      -2.822 -23.264  32.379  1.00  0.00    -0.507 OA
ATOM     24  H   UNL     1      -2.971 -23.532  33.344  1.00  0.00     0.293 HD
ENDBRANCH  10  23
BRANCH  11  25
ATOM     25  O   UNL     1      -1.471 -27.695  31.035  1.00  0.00    -0.508 OA
ATOM     26  H   UNL     1      -1.047 -28.108  31.857  1.00  0.00     0.293 HD
ENDBRANCH  11  25
ENDBRANCH   1   2
BRANCH   1  27
ATOM     27  C   UNL     1      -1.213 -19.524  27.802  1.00  0.00     0.339 C 
ATOM     28  C   UNL     1      -1.904 -18.355  28.530  1.00  0.00     0.214 C 
ATOM     29  O   UNL     1      -0.427 -19.060  26.713  1.00  0.00    -0.332 OA
ATOM     30  C   UNL     1      -0.888 -17.272  28.954  1.00  0.00     0.180 C 
ATOM     31  C   UNL     1       0.612 -18.199  27.151  1.00  0.00     0.179 C 
ATOM     32  C   UNL     1       0.022 -16.908  27.767  1.00  0.00     0.177 C 
BRANCH  28  33
ATOM     33  O   UNL     1      -2.607 -18.841  29.644  1.00  0.00    -0.384 OA
ATOM     34  H   UNL     1      -2.264 -18.350  30.436  1.00  0.00     0.211 HD
ENDBRANCH  28  33
BRANCH  30  35
ATOM     35  O   UNL     1      -0.097 -17.723  30.024  1.00  0.00    -0.387 OA
ATOM     36  H   UNL     1      -0.671 -18.310  30.583  1.00  0.00     0.211 HD
ENDBRANCH  30  35
BRANCH  31  37
ATOM     37  C   UNL     1       1.524 -17.890  25.958  1.00  0.00     0.191 C 
BRANCH  37  38
ATOM     38  O   UNL     1       0.838 -18.108  24.755  1.00  0.00    -0.394 OA
ATOM     39  H   UNL     1       1.288 -17.543  24.075  1.00  0.00     0.210 HD
ENDBRANCH  37  38
ENDBRANCH  31  37
BRANCH  32  40
ATOM     40  O   UNL     1      -0.716 -16.211  26.795  1.00  0.00    -0.387 OA
ATOM     41  H   UNL     1      -0.617 -16.713  25.944  1.00  0.00     0.211 HD
ENDBRANCH  32  40
ENDBRANCH   1  27
TORSDOF 12
ENDMDL
MODEL 2
REMARK VINA RESULT:    -7.012      2.412      8.129
REMARK INTER + INTRA:         -12.251
REMARK INTER:                 -10.610
REMARK INTRA:                  -1.641
REMARK UNBOUND:                -1.960
REMARK SMILES O=c1c(O[C@@H]2O[C@@H](CO)[C@@H](O)[C@H](O)[C@@H]2O)c(-c2ccc(O)c(O)c2)oc2cc(O)cc(O)c12
REMARK SMILES IDX 4 1 3 2 16 3 25 4 2 5 26 6 1 7 33 8 27 9 31 10 28 11 30 12
REMARK SMILES IDX 17 13 20 14 19 15 22 16 18 17 24 18 21 19 23 21 32 23 29 25
REMARK SMILES IDX 5 27 14 28 6 29 12 30 7 31 10 32 15 33 13 35 8 37 9 38 11 40
REMARK H PARENT 21 20 23 22 32 24 29 26 15 34 13 36 9 39 11 41
REMARK Flexibility Score: inf
ROOT
ATOM      1  O   UNL     1       1.540 -23.953  27.790  1.00  0.00    -0.454 OA
ENDROOT
BRANCH   1   2
ATOM      2  C   UNL     1       0.882 -22.884  27.146  1.00  0.00     0.214 A 
ATOM      3  C   UNL     1      -0.149 -22.222  27.844  1.00  0.00     0.180 A 
ATOM      4  O   UNL     1      -0.753 -21.166  27.312  1.00  0.00    -0.452 OA
ATOM      5  C   UNL     1       1.216 -22.414  25.853  1.00  0.00     0.239 A 
ATOM      6  C   UNL     1      -0.461 -20.689  26.111  1.00  0.00     0.146 A 
ATOM      7  O   UNL     1       2.115 -22.983  25.180  1.00  0.00    -0.285 OA
ATOM      8  C   UNL     1       0.536 -21.298  25.318  1.00  0.00     0.111 A 
ATOM      9  C   UNL     1      -1.160 -19.575  25.635  1.00  0.00     0.094 A 
ATOM     10  C   UNL     1       0.815 -20.764  24.034  1.00  0.00     0.134 A 
ATOM     11  C   UNL     1      -0.880 -19.053  24.368  1.00  0.00     0.123 A 
ATOM     12  C   UNL     1       0.103 -19.647  23.574  1.00  0.00     0.093 A 
BRANCH   3  13
ATOM     13  C   UNL     1      -0.579 -22.659  29.188  1.00  0.00     0.025 A 
ATOM     14  C   UNL     1      -1.397 -23.440  31.762  1.00  0.00     0.157 A 
ATOM     15  C   UNL     1      -2.185 -23.754  30.646  1.00  0.00     0.051 A 
ATOM     16  C   UNL     1      -0.203 -22.720  31.592  1.00  0.00     0.158 A 
ATOM     17  C   UNL     1      -1.782 -23.359  29.368  1.00  0.00     0.016 A 
ATOM     18  C   UNL     1       0.195 -22.326  30.308  1.00  0.00     0.062 A 
BRANCH  14  19
ATOM     19  O   UNL     1      -1.799 -23.837  33.037  1.00  0.00    -0.504 OA
ATOM     20  H   UNL     1      -1.139 -24.209  33.710  1.00  0.00     0.293 HD
ENDBRANCH  14  19
BRANCH  16  21
ATOM     21  O   UNL     1       0.599 -22.384  32.683  1.00  0.00    -0.504 OA
ATOM     22  H   UNL     1       1.531 -22.762  32.801  1.00  0.00     0.293 HD
ENDBRANCH  16  21
ENDBRANCH   3  13
BRANCH  10  23
ATOM     23  O   UNL     1       1.792 -21.332  23.214  1.00  0.00    -0.507 OA
ATOM     24  H   UNL     1       2.008 -20.952  22.301  1.00  0.00     0.293 HD
ENDBRANCH  10  23
BRANCH  11  25
ATOM     25  O   UNL     1      -1.573 -17.943  23.889  1.00  0.00    -0.508 OA
ATOM     26  H   UNL     1      -1.735 -17.807  22.898  1.00  0.00     0.293 HD
ENDBRANCH  11  25
ENDBRANCH   1   2
BRANCH   1  27
ATOM     27  C   UNL     1       1.625 -25.311  27.343  1.00  0.00     0.339 C 
ATOM     28  C   UNL     1       3.047 -25.870  27.547  1.00  0.00     0.214 C 
ATOM     29  O   UNL     1       0.654 -26.130  27.978  1.00  0.00    -0.332 OA
ATOM     30  C   UNL     1       3.355 -26.100  29.042  1.00  0.00     0.180 C 
ATOM     31  C   UNL     1       0.858 -26.186  29.381  1.00  0.00     0.179 C 
ATOM     32  C   UNL     1       2.204 -26.877  29.705  1.00  0.00     0.177 C 
BRANCH  28  33
ATOM     33  O   UNL     1       3.984 -24.996  26.973  1.00  0.00    -0.384 OA
ATOM     34  H   UNL     1       3.956 -25.150  25.992  1.00  0.00     0.211 HD
ENDBRANCH  28  33
BRANCH  30  35
ATOM     35  O   UNL     1       3.533 -24.876  29.708  1.00  0.00    -0.387 OA
ATOM     36  H   UNL     1       4.161 -24.335  29.160  1.00  0.00     0.211 HD
ENDBRANCH  30  35
BRANCH  31  37
ATOM     37  C   UNL     1      -0.325 -26.928  30.016  1.00  0.00     0.191 C 
BRANCH  37  38
ATOM     38  O   UNL     1       0.136 -27.864  30.952  1.00  0.00    -0.394 OA
ATOM     39  H   UNL     1       1.035 -28.145  30.642  1.00  0.00     0.210 HD
ENDBRANCH  37  38
ENDBRANCH  31  37
BRANCH  32  40
ATOM     40  O   UNL     1       2.186 -28.201  29.233  1.00  0.00    -0.387 OA
ATOM     41  H   UNL     1       3.122 -28.529  29.261  1.00  0.00     0.211 HD
ENDBRANCH  32  40
ENDBRANCH   1  27
TORSDOF 12
ENDMDL
MODEL 3
REMARK VINA RESULT:    -6.930      2.214      7.624
REMARK INTER + INTRA:         -12.132
REMARK INTER:                 -10.216
REMARK INTRA:                  -1.916
REMARK UNBOUND:                -1.960
REMARK SMILES O=c1c(O[C@@H]2O[C@@H](CO)[C@@H](O)[C@H](O)[C@@H]2O)c(-c2ccc(O)c(O)c2)oc2cc(O)cc(O)c12
REMARK SMILES IDX 4 1 3 2 16 3 25 4 2 5 26 6 1 7 33 8 27 9 31 10 28 11 30 12
REMARK SMILES IDX 17 13 20 14 19 15 22 16 18 17 24 18 21 19 23 21 32 23 29 25
REMARK SMILES IDX 5 27 14 28 6 29 12 30 7 31 10 32 15 33 13 35 8 37 9 38 11 40
REMARK H PARENT 21 20 23 22 32 24 29 26 15 34 13 36 9 39 11 41
REMARK Flexibility Score: inf
ROOT
ATOM      1  O   UNL     1       0.718 -20.697  25.915  1.00  0.00    -0.454 OA
ENDROOT
BRANCH   1   2
ATOM      2  C   UNL     1      -0.008 -19.509  26.145  1.00  0.00     0.214 A 
ATOM      3  C   UNL     1      -0.503 -19.276  27.445  1.00  0.00     0.180 A 
ATOM      4  O   UNL     1      -1.133 -18.143  27.732  1.00  0.00    -0.452 OA
ATOM      5  C   UNL     1      -0.243 -18.522  25.158  1.00  0.00     0.239 A 
ATOM      6  C   UNL     1      -1.362 -17.190  26.840  1.00  0.00     0.146 A 
ATOM      7  O   UNL     1       0.161 -18.692  23.977  1.00  0.00    -0.285 OA
ATOM      8  C   UNL     1      -0.932 -17.339  25.503  1.00  0.00     0.111 A 
ATOM      9  C   UNL     1      -2.040 -16.035  27.239  1.00  0.00     0.094 A 
ATOM     10  C   UNL     1      -1.202 -16.302  24.574  1.00  0.00     0.134 A 
ATOM     11  C   UNL     1      -2.303 -15.015  26.319  1.00  0.00     0.123 A 
ATOM     12  C   UNL     1      -1.885 -15.152  24.994  1.00  0.00     0.093 A 
BRANCH   3  13
ATOM     13  C   UNL     1      -0.326 -20.262  28.530  1.00  0.00     0.025 A 
ATOM     14  C   UNL     1       0.000 -22.180  30.559  1.00  0.00     0.157 A 
ATOM     15  C   UNL     1       1.039 -21.288  30.258  1.00  0.00     0.051 A 
ATOM     16  C   UNL     1      -1.200 -22.123  29.832  1.00  0.00     0.158 A 
ATOM     17  C   UNL     1       0.879 -20.340  29.245  1.00  0.00     0.016 A 
ATOM     18  C   UNL     1      -1.354 -21.171  28.817  1.00  0.00     0.062 A 
BRANCH  14  19
ATOM     19  O   UNL     1       0.161 -23.124  31.573  1.00  0.00    -0.504 OA
ATOM     20  H   UNL     1       0.358 -24.097  31.367  1.00  0.00     0.293 HD
ENDBRANCH  14  19
BRANCH  16  21
ATOM     21  O   UNL     1      -2.249 -23.003  30.101  1.00  0.00    -0.504 OA
ATOM     22  H   UNL     1      -2.262 -23.587  30.929  1.00  0.00     0.293 HD
ENDBRANCH  16  21
ENDBRANCH   3  13
BRANCH  10  23
ATOM     23  O   UNL     1      -0.797 -16.404  23.242  1.00  0.00    -0.507 OA
ATOM     24  H   UNL     1      -0.142 -15.750  22.832  1.00  0.00     0.293 HD
ENDBRANCH  10  23
BRANCH  11  25
ATOM     25  O   UNL     1      -2.980 -13.862  26.711  1.00  0.00    -0.508 OA
ATOM     26  H   UNL     1      -2.559 -12.944  26.621  1.00  0.00     0.293 HD
ENDBRANCH  11  25
ENDBRANCH   1   2
BRANCH   1  27
ATOM     27  C   UNL     1       0.186 -21.991  25.609  1.00  0.00     0.339 C 
ATOM     28  C   UNL     1       0.651 -22.463  24.217  1.00  0.00     0.214 C 
ATOM     29  O   UNL     1       0.516 -22.941  26.612  1.00  0.00    -0.332 OA
ATOM     30  C   UNL     1       2.152 -22.826  24.216  1.00  0.00     0.180 C 
ATOM     31  C   UNL     1       1.919 -23.129  26.708  1.00  0.00     0.179 C 
ATOM     32  C   UNL     1       2.473 -23.750  25.404  1.00  0.00     0.177 C 
BRANCH  28  33
ATOM     33  O   UNL     1       0.377 -21.467  23.265  1.00  0.00    -0.384 OA
ATOM     34  H   UNL     1      -0.587 -21.545  23.039  1.00  0.00     0.211 HD
ENDBRANCH  28  33
BRANCH  30  35
ATOM     35  O   UNL     1       2.943 -21.669  24.300  1.00  0.00    -0.387 OA
ATOM     36  H   UNL     1       3.202 -21.424  23.373  1.00  0.00     0.211 HD
ENDBRANCH  30  35
BRANCH  31  37
ATOM     37  C   UNL     1       2.209 -24.017  27.924  1.00  0.00     0.191 C 
BRANCH  37  38
ATOM     38  O   UNL     1       1.112 -24.849  28.189  1.00  0.00    -0.394 OA
ATOM     39  H   UNL     1       0.468 -24.299  28.706  1.00  0.00     0.210 HD
ENDBRANCH  37  38
ENDBRANCH  31  37
BRANCH  32  40
ATOM     40  O   UNL     1       1.896 -25.014  25.196  1.00  0.00    -0.387 OA
ATOM     41  H   UNL     1       0.970 -24.970  25.550  1.00  0.00     0.211 HD
ENDBRANCH  32  40
ENDBRANCH   1  27
TORSDOF 12
ENDMDL
MODEL 4
REMARK VINA RESULT:    -6.881      2.505      4.958
REMARK INTER + INTRA:         -12.060
REMARK INTER:                 -10.233
REMARK INTRA:                  -1.827
REMARK UNBOUND:                -1.960
REMARK SMILES O=c1c(O[C@@H]2O[C@@H](CO)[C@@H](O)[C@H](O)[C@@H]2O)c(-c2ccc(O)c(O)c2)oc2cc(O)cc(O)c12
REMARK SMILES IDX 4 1 3 2 16 3 25 4 2 5 26 6 1 7 33 8 27 9 31 10 28 11 30 12
REMARK SMILES IDX 17 13 20 14 19 15 22 16 18 17 24 18 21 19 23 21 32 23 29 25
REMARK SMILES IDX 5 27 14 28 6 29 12 30 7 31 10 32 15 33 13 35 8 37 9 38 11 40
REMARK H PARENT 21 20 23 22 32 24 29 26 15 34 13 36 9 39 11 41
REMARK Flexibility Score: inf
ROOT
ATOM      1  O   UNL     1       0.501 -21.532  26.464  1.00  0.00    -0.454 OA
ENDROOT
BRANCH   1   2
ATOM      2  C   UNL     1       1.068 -22.488  27.333  1.00  0.00     0.214 A 
ATOM      3  C   UNL     1       1.091 -22.199  28.713  1.00  0.00     0.180 A 
ATOM      4  O   UNL     1       1.550 -23.091  29.582  1.00  0.00    -0.452 OA
ATOM      5  C   UNL     1       1.588 -23.734  26.908  1.00  0.00     0.239 A 
ATOM      6  C   UNL     1       2.034 -24.273  29.225  1.00  0.00     0.146 A 
ATOM      7  O   UNL     1       1.609 -24.033  25.685  1.00  0.00    -0.285 OA
ATOM      8  C   UNL     1       2.082 -24.648  27.864  1.00  0.00     0.111 A 
ATOM      9  C   UNL     1       2.500 -25.143  30.215  1.00  0.00     0.094 A 
ATOM     10  C   UNL     1       2.614 -25.917  27.519  1.00  0.00     0.134 A 
ATOM     11  C   UNL     1       3.023 -26.393  29.869  1.00  0.00     0.123 A 
ATOM     12  C   UNL     1       3.079 -26.774  28.527  1.00  0.00     0.093 A 
BRANCH   3  13
ATOM     13  C   UNL     1       0.592 -20.913  29.243  1.00  0.00     0.025 A 
ATOM     14  C   UNL     1      -0.386 -18.494  30.290  1.00  0.00     0.157 A 
ATOM     15  C   UNL     1       0.995 -18.719  30.206  1.00  0.00     0.051 A 
ATOM     16  C   UNL     1      -1.282 -19.488  29.864  1.00  0.00     0.158 A 
ATOM     17  C   UNL     1       1.480 -19.924  29.693  1.00  0.00     0.016 A 
ATOM     18  C   UNL     1      -0.789 -20.695  29.351  1.00  0.00     0.062 A 
BRANCH  14  19
ATOM     19  O   UNL     1      -0.868 -17.289  30.801  1.00  0.00    -0.504 OA
ATOM     20  H   UNL     1      -0.412 -16.819  31.574  1.00  0.00     0.293 HD
ENDBRANCH  14  19
BRANCH  16  21
ATOM     21  O   UNL     1      -2.661 -19.299  29.943  1.00  0.00    -0.504 OA
ATOM     22  H   UNL     1      -3.136 -19.167  30.828  1.00  0.00     0.293 HD
ENDBRANCH  16  21
ENDBRANCH   3  13
BRANCH  10  23
ATOM     23  O   UNL     1       2.683 -26.331  26.188  1.00  0.00    -0.507 OA
ATOM     24  H   UNL     1       2.287 -27.212  25.883  1.00  0.00     0.293 HD
ENDBRANCH  10  23
BRANCH  11  25
ATOM     25  O   UNL     1       3.491 -27.263  30.851  1.00  0.00    -0.508 OA
ATOM     26  H   UNL     1       4.482 -27.425  30.987  1.00  0.00     0.293 HD
ENDBRANCH  11  25
ENDBRANCH   1   2
BRANCH   1  27
ATOM     27  C   UNL     1       1.171 -20.788  25.441  1.00  0.00     0.339 C 
ATOM     28  C   UNL     1       0.353 -20.787  24.134  1.00  0.00     0.214 C 
ATOM     29  O   UNL     1       1.464 -19.465  25.866  1.00  0.00    -0.332 OA
ATOM     30  C   UNL     1      -0.914 -19.913  24.261  1.00  0.00     0.180 C 
ATOM     31  C   UNL     1       0.279 -18.734  26.144  1.00  0.00     0.179 C 
ATOM     32  C   UNL     1      -0.551 -18.539  24.853  1.00  0.00     0.177 C 
BRANCH  28  33
ATOM     33  O   UNL     1       0.017 -22.105  23.786  1.00  0.00    -0.384 OA
ATOM     34  H   UNL     1       0.075 -22.163  22.796  1.00  0.00     0.211 HD
ENDBRANCH  28  33
BRANCH  30  35
ATOM     35  O   UNL     1      -1.867 -20.536  25.084  1.00  0.00    -0.387 OA
ATOM     36  H   UNL     1      -2.675 -20.693  24.527  1.00  0.00     0.211 HD
ENDBRANCH  30  35
BRANCH  31  37
ATOM     37  C   UNL     1       0.672 -17.390  26.770  1.00  0.00     0.191 C 
BRANCH  37  38
ATOM     38  O   UNL     1       1.637 -16.750  25.980  1.00  0.00    -0.394 OA
ATOM     39  H   UNL     1       1.797 -15.867  26.402  1.00  0.00     0.210 HD
ENDBRANCH  37  38
ENDBRANCH  31  37
BRANCH  32  40
ATOM     40  O   UNL     1       0.188 -17.796  23.917  1.00  0.00    -0.387 OA
ATOM     41  H   UNL     1      -0.157 -16.866  23.952  1.00  0.00     0.211 HD
ENDBRANCH  32  40
ENDBRANCH   1  27
TORSDOF 12
ENDMDL
MODEL 5
REMARK VINA RESULT:    -6.713      2.390      7.423
REMARK INTER + INTRA:         -11.812
REMARK INTER:                  -9.826
REMARK INTRA:                  -1.986
REMARK UNBOUND:                -1.960
REMARK SMILES O=c1c(O[C@@H]2O[C@@H](CO)[C@@H](O)[C@H](O)[C@@H]2O)c(-c2ccc(O)c(O)c2)oc2cc(O)cc(O)c12
REMARK SMILES IDX 4 1 3 2 16 3 25 4 2 5 26 6 1 7 33 8 27 9 31 10 28 11 30 12
REMARK SMILES IDX 17 13 20 14 19 15 22 16 18 17 24 18 21 19 23 21 32 23 29 25
REMARK SMILES IDX 5 27 14 28 6 29 12 30 7 31 10 32 15 33 13 35 8 37 9 38 11 40
REMARK H PARENT 21 20 23 22 32 24 29 26 15 34 13 36 9 39 11 41
REMARK Flexibility Score: inf
ROOT
ATOM      1  O   UNL     1      -0.256 -18.938  25.547  1.00  0.00    -0.454 OA
ENDROOT
BRANCH   1   2
ATOM      2  C   UNL     1      -0.807 -17.947  26.386  1.00  0.00     0.214 A 
ATOM      3  C   UNL     1      -0.954 -18.245  27.756  1.00  0.00     0.180 A 
ATOM      4  O   UNL     1      -1.403 -17.325  28.602  1.00  0.00    -0.452 OA
ATOM      5  C   UNL     1      -1.194 -16.660  25.942  1.00  0.00     0.239 A 
ATOM      6  C   UNL     1      -1.763 -16.105  28.227  1.00  0.00     0.146 A 
ATOM      7  O   UNL     1      -1.102 -16.351  24.724  1.00  0.00    -0.285 OA
ATOM      8  C   UNL     1      -1.682 -15.716  26.871  1.00  0.00     0.111 A 
ATOM      9  C   UNL     1      -2.231 -15.209  29.192  1.00  0.00     0.094 A 
ATOM     10  C   UNL     1      -2.084 -14.407  26.507  1.00  0.00     0.134 A 
ATOM     11  C   UNL     1      -2.626 -13.918  28.827  1.00  0.00     0.123 A 
ATOM     12  C   UNL     1      -2.552 -13.523  27.490  1.00  0.00     0.093 A 
BRANCH   3  13
ATOM     13  C   UNL     1      -0.599 -19.570  28.303  1.00  0.00     0.025 A 
ATOM     14  C   UNL     1       0.050 -22.117  29.301  1.00  0.00     0.157 A 
ATOM     15  C   UNL     1       1.060 -21.177  29.056  1.00  0.00     0.051 A 
ATOM     16  C   UNL     1      -1.288 -21.789  29.031  1.00  0.00     0.158 A 
ATOM     17  C   UNL     1       0.738 -19.914  28.553  1.00  0.00     0.016 A 
ATOM     18  C   UNL     1      -1.606 -20.521  28.526  1.00  0.00     0.062 A 
BRANCH  14  19
ATOM     19  O   UNL     1       0.374 -23.376  29.805  1.00  0.00    -0.504 OA
ATOM     20  H   UNL     1       1.132 -23.506  30.466  1.00  0.00     0.293 HD
ENDBRANCH  14  19
BRANCH  16  21
ATOM     21  O   UNL     1      -2.316 -22.705  29.255  1.00  0.00    -0.504 OA
ATOM     22  H   UNL     1      -3.224 -22.612  28.817  1.00  0.00     0.293 HD
ENDBRANCH  16  21
ENDBRANCH   3  13
BRANCH  10  23
ATOM     23  O   UNL     1      -2.023 -13.977  25.180  1.00  0.00    -0.507 OA
ATOM     24  H   UNL     1      -2.093 -14.627  24.406  1.00  0.00     0.293 HD
ENDBRANCH  10  23
BRANCH  11  25
ATOM     25  O   UNL     1      -3.093 -13.020  29.785  1.00  0.00    -0.508 OA
ATOM     26  H   UNL     1      -2.515 -12.261  30.125  1.00  0.00     0.293 HD
ENDBRANCH  11  25
ENDBRANCH   1   2
BRANCH   1  27
ATOM     27  C   UNL     1      -0.968 -19.895  24.754  1.00  0.00     0.339 C 
ATOM     28  C   UNL     1      -0.631 -19.732  23.259  1.00  0.00     0.214 C 
ATOM     29  O   UNL     1      -0.723 -21.223  25.195  1.00  0.00    -0.332 OA
ATOM     30  C   UNL     1       0.807 -20.202  22.948  1.00  0.00     0.180 C 
ATOM     31  C   UNL     1       0.646 -21.571  25.059  1.00  0.00     0.179 C 
ATOM     32  C   UNL     1       1.054 -21.589  23.567  1.00  0.00     0.177 C 
BRANCH  28  33
ATOM     33  O   UNL     1      -0.812 -18.393  22.878  1.00  0.00    -0.384 OA
ATOM     34  H   UNL     1      -0.273 -17.842  23.504  1.00  0.00     0.211 HD
ENDBRANCH  28  33
BRANCH  30  35
ATOM     35  O   UNL     1       1.748 -19.291  23.457  1.00  0.00    -0.387 OA
ATOM     36  H   UNL     1       1.724 -19.369  24.447  1.00  0.00     0.211 HD
ENDBRANCH  30  35
BRANCH  31  37
ATOM     37  C   UNL     1       0.869 -22.936  25.721  1.00  0.00     0.191 C 
BRANCH  37  38
ATOM     38  O   UNL     1       1.864 -23.650  25.039  1.00  0.00    -0.394 OA
ATOM     39  H   UNL     1       2.340 -22.988  24.474  1.00  0.00     0.210 HD
ENDBRANCH  37  38
ENDBRANCH  31  37
BRANCH  32  40
ATOM     40  O   UNL     1       0.306 -22.560  22.879  1.00  0.00    -0.387 OA
ATOM     41  H   UNL     1      -0.461 -22.797  23.462  1.00  0.00     0.211 HD
ENDBRANCH  32  40
ENDBRANCH   1  27
TORSDOF 12
ENDMDL
MODEL 6
REMARK VINA RESULT:    -6.640      1.646      4.709
REMARK INTER + INTRA:         -11.705
REMARK INTER:                  -9.892
REMARK INTRA:                  -1.813
REMARK UNBOUND:                -1.960
REMARK SMILES O=c1c(O[C@@H]2O[C@@H](CO)[C@@H](O)[C@H](O)[C@@H]2O)c(-c2ccc(O)c(O)c2)oc2cc(O)cc(O)c12
REMARK SMILES IDX 4 1 3 2 16 3 25 4 2 5 26 6 1 7 33 8 27 9 31 10 28 11 30 12
REMARK SMILES IDX 17 13 20 14 19 15 22 16 18 17 24 18 21 19 23 21 32 23 29 25
REMARK SMILES IDX 5 27 14 28 6 29 12 30 7 31 10 32 15 33 13 35 8 37 9 38 11 40
REMARK H PARENT 21 20 23 22 32 24 29 26 15 34 13 36 9 39 11 41
REMARK Flexibility Score: inf
ROOT
ATOM      1  O   UNL     1       0.435 -22.499  26.467  1.00  0.00    -0.454 OA
ENDROOT
BRANCH   1   2
ATOM      2  C   UNL     1      -0.117 -22.431  27.764  1.00  0.00     0.214 A 
ATOM      3  C   UNL     1      -0.486 -21.165  28.263  1.00  0.00     0.180 A 
ATOM      4  O   UNL     1      -1.072 -21.052  29.449  1.00  0.00    -0.452 OA
ATOM      5  C   UNL     1      -0.351 -23.561  28.584  1.00  0.00     0.239 A 
ATOM      6  C   UNL     1      -1.319 -22.087  30.240  1.00  0.00     0.146 A 
ATOM      7  O   UNL     1      -0.022 -24.712  28.193  1.00  0.00    -0.285 OA
ATOM      8  C   UNL     1      -0.962 -23.395  29.846  1.00  0.00     0.111 A 
ATOM      9  C   UNL     1      -1.936 -21.865  31.475  1.00  0.00     0.094 A 
ATOM     10  C   UNL     1      -1.236 -24.476  30.722  1.00  0.00     0.134 A 
ATOM     11  C   UNL     1      -2.203 -22.935  32.335  1.00  0.00     0.123 A 
ATOM     12  C   UNL     1      -1.853 -24.232  31.957  1.00  0.00     0.093 A 
BRANCH   3  13
ATOM     13  C   UNL     1      -0.255 -19.929  27.487  1.00  0.00     0.025 A 
ATOM     14  C   UNL     1       0.130 -17.567  26.013  1.00  0.00     0.157 A 
ATOM     15  C   UNL     1       0.825 -17.770  27.213  1.00  0.00     0.051 A 
ATOM     16  C   UNL     1      -0.773 -18.541  25.556  1.00  0.00     0.158 A 
ATOM     17  C   UNL     1       0.628 -18.941  27.949  1.00  0.00     0.016 A 
ATOM     18  C   UNL     1      -0.968 -19.712  26.299  1.00  0.00     0.062 A 
BRANCH  14  19
ATOM     19  O   UNL     1       0.330 -16.399  25.278  1.00  0.00    -0.504 OA
ATOM     20  H   UNL     1      -0.251 -16.166  24.481  1.00  0.00     0.293 HD
ENDBRANCH  14  19
BRANCH  16  21
ATOM     21  O   UNL     1      -1.487 -18.364  24.371  1.00  0.00    -0.504 OA
ATOM     22  H   UNL     1      -1.053 -18.000  23.531  1.00  0.00     0.293 HD
ENDBRANCH  16  21
ENDBRANCH   3  13
BRANCH  10  23
ATOM     23  O   UNL     1      -0.901 -25.786  30.376  1.00  0.00    -0.507 OA
ATOM     24  H   UNL     1      -0.507 -26.014  29.471  1.00  0.00     0.293 HD
ENDBRANCH  10  23
BRANCH  11  25
ATOM     25  O   UNL     1      -2.816 -22.719  33.568  1.00  0.00    -0.508 OA
ATOM     26  H   UNL     1      -2.345 -22.220  34.313  1.00  0.00     0.293 HD
ENDBRANCH  11  25
ENDBRANCH   1   2
BRANCH   1  27
ATOM     27  C   UNL     1       1.819 -22.620  26.121  1.00  0.00     0.339 C 
ATOM     28  C   UNL     1       2.053 -23.839  25.207  1.00  0.00     0.214 C 
ATOM     29  O   UNL     1       2.314 -21.429  25.527  1.00  0.00    -0.332 OA
ATOM     30  C   UNL     1       1.482 -23.603  23.792  1.00  0.00     0.180 C 
ATOM     31  C   UNL     1       1.648 -21.140  24.307  1.00  0.00     0.179 C 
ATOM     32  C   UNL     1       1.945 -22.236  23.257  1.00  0.00     0.177 C 
BRANCH  28  33
ATOM     33  O   UNL     1       1.484 -24.982  25.790  1.00  0.00    -0.384 OA
ATOM     34  H   UNL     1       2.021 -25.759  25.481  1.00  0.00     0.211 HD
ENDBRANCH  28  33
BRANCH  30  35
ATOM     35  O   UNL     1       0.078 -23.643  23.809  1.00  0.00    -0.387 OA
ATOM     36  H   UNL     1      -0.189 -24.178  24.602  1.00  0.00     0.211 HD
ENDBRANCH  30  35
BRANCH  31  37
ATOM     37  C   UNL     1       2.098 -19.757  23.822  1.00  0.00     0.191 C 
BRANCH  37  38
ATOM     38  O   UNL     1       1.194 -19.257  22.875  1.00  0.00    -0.394 OA
ATOM     39  H   UNL     1       1.625 -18.458  22.477  1.00  0.00     0.210 HD
ENDBRANCH  37  38
ENDBRANCH  31  37
BRANCH  32  40
ATOM     40  O   UNL     1       3.323 -22.272  22.982  1.00  0.00    -0.387 OA
ATOM     41  H   UNL     1       3.476 -23.045  22.379  1.00  0.00     0.211 HD
ENDBRANCH  32  40
ENDBRANCH   1  27
TORSDOF 12
ENDMDL
MODEL 7
REMARK VINA RESULT:    -6.589      1.865      6.505
REMARK INTER + INTRA:         -11.631
REMARK INTER:                  -9.584
REMARK INTRA:                  -2.046
REMARK UNBOUND:                -1.960
REMARK SMILES O=c1c(O[C@@H]2O[C@@H](CO)[C@@H](O)[C@H](O)[C@@H]2O)c(-c2ccc(O)c(O)c2)oc2cc(O)cc(O)c12
REMARK SMILES IDX 4 1 3 2 16 3 25 4 2 5 26 6 1 7 33 8 27 9 31 10 28 11 30 12
REMARK SMILES IDX 17 13 20 14 19 15 22 16 18 17 24 18 21 19 23 21 32 23 29 25
REMARK SMILES IDX 5 27 14 28 6 29 12 30 7 31 10 32 15 33 13 35 8 37 9 38 11 40
REMARK H PARENT 21 20 23 22 32 24 29 26 15 34 13 36 9 39 11 41
REMARK Flexibility Score: inf
ROOT
ATOM      1  O   UNL     1      -0.952 -20.724  28.301  1.00  0.00    -0.454 OA
ENDROOT
BRANCH   1   2
ATOM      2  C   UNL     1      -1.002 -19.488  27.622  1.00  0.00     0.214 A 
ATOM      3  C   UNL     1      -0.351 -19.390  26.375  1.00  0.00     0.180 A 
ATOM      4  O   UNL     1      -0.424 -18.271  25.663  1.00  0.00    -0.452 OA
ATOM      5  C   UNL     1      -1.691 -18.348  28.102  1.00  0.00     0.239 A 
ATOM      6  C   UNL     1      -1.070 -17.188  26.072  1.00  0.00     0.146 A 
ATOM      7  O   UNL     1      -2.271 -18.378  29.220  1.00  0.00    -0.285 OA
ATOM      8  C   UNL     1      -1.730 -17.174  27.320  1.00  0.00     0.111 A 
ATOM      9  C   UNL     1      -1.084 -16.056  25.252  1.00  0.00     0.094 A 
ATOM     10  C   UNL     1      -2.403 -15.994  27.728  1.00  0.00     0.134 A 
ATOM     11  C   UNL     1      -1.750 -14.896  25.659  1.00  0.00     0.123 A 
ATOM     12  C   UNL     1      -2.404 -14.869  26.892  1.00  0.00     0.093 A 
BRANCH   3  13
ATOM     13  C   UNL     1       0.413 -20.520  25.809  1.00  0.00     0.025 A 
ATOM     14  C   UNL     1       1.848 -22.658  24.681  1.00  0.00     0.157 A 
ATOM     15  C   UNL     1       2.514 -21.679  25.431  1.00  0.00     0.051 A 
ATOM     16  C   UNL     1       0.461 -22.559  24.480  1.00  0.00     0.158 A 
ATOM     17  C   UNL     1       1.802 -20.613  25.985  1.00  0.00     0.016 A 
ATOM     18  C   UNL     1      -0.247 -21.487  25.037  1.00  0.00     0.062 A 
BRANCH  14  19
ATOM     19  O   UNL     1       2.561 -23.723  24.131  1.00  0.00    -0.504 OA
ATOM     20  H   UNL     1       3.517 -23.921  24.404  1.00  0.00     0.293 HD
ENDBRANCH  14  19
BRANCH  16  21
ATOM     21  O   UNL     1      -0.229 -23.512  23.731  1.00  0.00    -0.504 OA
ATOM     22  H   UNL     1       0.237 -24.107  23.058  1.00  0.00     0.293 HD
ENDBRANCH  16  21
ENDBRANCH   3  13
BRANCH  10  23
ATOM     23  O   UNL     1      -3.070 -15.932  28.953  1.00  0.00    -0.507 OA
ATOM     24  H   UNL     1      -3.842 -15.296  29.108  1.00  0.00     0.293 HD
ENDBRANCH  10  23
BRANCH  11  25
ATOM     25  O   UNL     1      -1.766 -13.764  24.846  1.00  0.00    -0.508 OA
ATOM     26  H   UNL     1      -2.623 -13.253  24.667  1.00  0.00     0.293 HD
ENDBRANCH  11  25
ENDBRANCH   1   2
BRANCH   1  27
ATOM     27  C   UNL     1      -0.090 -21.080  29.388  1.00  0.00     0.339 C 
ATOM     28  C   UNL     1      -0.907 -21.566  30.602  1.00  0.00     0.214 C 
ATOM     29  O   UNL     1       0.872 -22.047  28.994  1.00  0.00    -0.332 OA
ATOM     30  C   UNL     1      -1.534 -22.953  30.342  1.00  0.00     0.180 C 
ATOM     31  C   UNL     1       0.256 -23.261  28.594  1.00  0.00     0.179 C 
ATOM     32  C   UNL     1      -0.471 -23.919  29.790  1.00  0.00     0.177 C 
BRANCH  28  33
ATOM     33  O   UNL     1      -1.897 -20.621  30.914  1.00  0.00    -0.384 OA
ATOM     34  H   UNL     1      -1.453 -19.904  31.438  1.00  0.00     0.211 HD
ENDBRANCH  28  33
BRANCH  30  35
ATOM     35  O   UNL     1      -2.594 -22.856  29.425  1.00  0.00    -0.387 OA
ATOM     36  H   UNL     1      -2.266 -22.320  28.655  1.00  0.00     0.211 HD
ENDBRANCH  30  35
BRANCH  31  37
ATOM     37  C   UNL     1       1.333 -24.184  28.010  1.00  0.00     0.191 C 
BRANCH  37  38
ATOM     38  O   UNL     1       0.941 -25.524  28.132  1.00  0.00    -0.394 OA
ATOM     39  H   UNL     1       1.738 -26.016  28.457  1.00  0.00     0.210 HD
ENDBRANCH  37  38
ENDBRANCH  31  37
BRANCH  32  40
ATOM     40  O   UNL     1       0.458 -24.235  30.797  1.00  0.00    -0.387 OA
ATOM     41  H   UNL     1      -0.043 -24.254  31.654  1.00  0.00     0.211 HD
ENDBRANCH  32  40
ENDBRANCH   1  27
TORSDOF 12
ENDMDL
MODEL 8
REMARK VINA RESULT:    -6.583      5.268      9.624
REMARK INTER + INTRA:         -11.623
REMARK INTER:                  -9.839
REMARK INTRA:                  -1.783
REMARK UNBOUND:                -1.960
REMARK SMILES O=c1c(O[C@@H]2O[C@@H](CO)[C@@H](O)[C@H](O)[C@@H]2O)c(-c2ccc(O)c(O)c2)oc2cc(O)cc(O)c12
REMARK SMILES IDX 4 1 3 2 16 3 25 4 2 5 26 6 1 7 33 8 27 9 31 10 28 11 30 12
REMARK SMILES IDX 17 13 20 14 19 15 22 16 18 17 24 18 21 19 23 21 32 23 29 25
REMARK SMILES IDX 5 27 14 28 6 29 12 30 7 31 10 32 15 33 13 35 8 37 9 38 11 40
REMARK H PARENT 21 20 23 22 32 24 29 26 15 34 13 36 9 39 11 41
REMARK Flexibility Score: inf
ROOT
ATOM      1  O   UNL     1      -2.170 -12.738  28.202  1.00  0.00    -0.454 OA
ENDROOT
BRANCH   1   2
ATOM      2  C   UNL     1      -1.948 -14.075  27.809  1.00  0.00     0.214 A 
ATOM      3  C   UNL     1      -2.931 -15.034  28.130  1.00  0.00     0.180 A 
ATOM      4  O   UNL     1      -2.804 -16.291  27.724  1.00  0.00    -0.452 OA
ATOM      5  C   UNL     1      -0.812 -14.507  27.083  1.00  0.00     0.239 A 
ATOM      6  C   UNL     1      -1.762 -16.732  27.033  1.00  0.00     0.146 A 
ATOM      7  O   UNL     1       0.104 -13.695  26.789  1.00  0.00    -0.285 OA
ATOM      8  C   UNL     1      -0.708 -15.858  26.685  1.00  0.00     0.111 A 
ATOM      9  C   UNL     1      -1.717 -18.077  26.657  1.00  0.00     0.094 A 
ATOM     10  C   UNL     1       0.393 -16.367  25.953  1.00  0.00     0.134 A 
ATOM     11  C   UNL     1      -0.628 -18.574  25.934  1.00  0.00     0.123 A 
ATOM     12  C   UNL     1       0.421 -17.720  25.586  1.00  0.00     0.093 A 
BRANCH   3  13
ATOM     13  C   UNL     1      -4.136 -14.677  28.905  1.00  0.00     0.025 A 
ATOM     14  C   UNL     1      -6.459 -14.038  30.356  1.00  0.00     0.157 A 
ATOM     15  C   UNL     1      -5.276 -14.372  31.029  1.00  0.00     0.051 A 
ATOM     16  C   UNL     1      -6.485 -14.039  28.951  1.00  0.00     0.158 A 
ATOM     17  C   UNL     1      -4.124 -14.696  30.309  1.00  0.00     0.016 A 
ATOM     18  C   UNL     1      -5.328 -14.367  28.234  1.00  0.00     0.062 A 
BRANCH  14  19
ATOM     19  O   UNL     1      -7.607 -13.712  31.077  1.00  0.00    -0.504 OA
ATOM     20  H   UNL     1      -7.738 -14.019  32.034  1.00  0.00     0.293 HD
ENDBRANCH  14  19
BRANCH  16  21
ATOM     21  O   UNL     1      -7.649 -13.721  28.251  1.00  0.00    -0.504 OA
ATOM     22  H   UNL     1      -7.807 -12.800  27.863  1.00  0.00     0.293 HD
ENDBRANCH  16  21
ENDBRANCH   3  13
BRANCH  10  23
ATOM     23  O   UNL     1       1.458 -15.542  25.587  1.00  0.00    -0.507 OA
ATOM     24  H   UNL     1       1.626 -15.284  24.622  1.00  0.00     0.293 HD
ENDBRANCH  10  23
BRANCH  11  25
ATOM     25  O   UNL     1      -0.577 -19.914  25.557  1.00  0.00    -0.508 OA
ATOM     26  H   UNL     1       0.195 -20.283  25.015  1.00  0.00     0.293 HD
ENDBRANCH  11  25
ENDBRANCH   1   2
BRANCH   1  27
ATOM     27  C   UNL     1      -1.669 -12.086  29.375  1.00  0.00     0.339 C 
ATOM     28  C   UNL     1      -0.852 -10.834  29.002  1.00  0.00     0.214 C 
ATOM     29  O   UNL     1      -2.715 -11.768  30.281  1.00  0.00    -0.332 OA
ATOM     30  C   UNL     1      -1.762  -9.700  28.480  1.00  0.00     0.180 C 
ATOM     31  C   UNL     1      -3.637 -10.852  29.711  1.00  0.00     0.179 C 
ATOM     32  C   UNL     1      -2.949  -9.493  29.437  1.00  0.00     0.177 C 
BRANCH  28  33
ATOM     33  O   UNL     1       0.121 -11.172  28.048  1.00  0.00    -0.384 OA
ATOM     34  H   UNL     1      -0.209 -11.982  27.577  1.00  0.00     0.211 HD
ENDBRANCH  28  33
BRANCH  30  35
ATOM     35  O   UNL     1      -2.246 -10.002  27.197  1.00  0.00    -0.387 OA
ATOM     36  H   UNL     1      -2.602  -9.157  26.813  1.00  0.00     0.211 HD
ENDBRANCH  30  35
BRANCH  31  37
ATOM     37  C   UNL     1      -4.826 -10.700  30.666  1.00  0.00     0.191 C 
BRANCH  37  38
ATOM     38  O   UNL     1      -5.974 -10.322  29.956  1.00  0.00    -0.394 OA
ATOM     39  H   UNL     1      -6.367  -9.559  30.452  1.00  0.00     0.210 HD
ENDBRANCH  37  38
ENDBRANCH  31  37
BRANCH  32  40
ATOM     40  O   UNL     1      -2.499  -8.934  30.645  1.00  0.00    -0.387 OA
ATOM     41  H   UNL     1      -3.197  -9.120  31.325  1.00  0.00     0.211 HD
ENDBRANCH  32  40
ENDBRANCH   1  27
TORSDOF 12
ENDMDL
MODEL 9
REMARK VINA RESULT:    -6.524      6.361      9.107
REMARK INTER + INTRA:         -11.535
REMARK INTER:                  -9.479
REMARK INTRA:                  -2.056
REMARK UNBOUND:                -1.960
REMARK SMILES O=c1c(O[C@@H]2O[C@@H](CO)[C@@H](O)[C@H](O)[C@@H]2O)c(-c2ccc(O)c(O)c2)oc2cc(O)cc(O)c12
REMARK SMILES IDX 4 1 3 2 16 3 25 4 2 5 26 6 1 7 33 8 27 9 31 10 28 11 30 12
REMARK SMILES IDX 17 13 20 14 19 15 22 16 18 17 24 18 21 19 23 21 32 23 29 25
REMARK SMILES IDX 5 27 14 28 6 29 12 30 7 31 10 32 15 33 13 35 8 37 9 38 11 40
REMARK H PARENT 21 20 23 22 32 24 29 26 15 34 13 36 9 39 11 41
REMARK Flexibility Score: inf
ROOT
ATOM      1  O   UNL     1      -1.282 -12.358  27.756  1.00  0.00    -0.454 OA
ENDROOT
BRANCH   1   2
ATOM      2  C   UNL     1      -2.538 -12.813  28.209  1.00  0.00     0.214 A 
ATOM      3  C   UNL     1      -2.900 -14.148  27.933  1.00  0.00     0.180 A 
ATOM      4  O   UNL     1      -4.040 -14.646  28.396  1.00  0.00    -0.452 OA
ATOM      5  C   UNL     1      -3.446 -12.019  28.951  1.00  0.00     0.239 A 
ATOM      6  C   UNL     1      -4.910 -13.940  29.104  1.00  0.00     0.146 A 
ATOM      7  O   UNL     1      -3.180 -10.815  29.206  1.00  0.00    -0.285 OA
ATOM      8  C   UNL     1      -4.656 -12.584  29.409  1.00  0.00     0.111 A 
ATOM      9  C   UNL     1      -6.088 -14.554  29.541  1.00  0.00     0.094 A 
ATOM     10  C   UNL     1      -5.613 -11.858  30.162  1.00  0.00     0.134 A 
ATOM     11  C   UNL     1      -7.028 -13.832  30.283  1.00  0.00     0.123 A 
ATOM     12  C   UNL     1      -6.789 -12.491  30.589  1.00  0.00     0.093 A 
BRANCH   3  13
ATOM     13  C   UNL     1      -2.026 -15.040  27.145  1.00  0.00     0.025 A 
ATOM     14  C   UNL     1      -0.351 -16.696  25.610  1.00  0.00     0.157 A 
ATOM     15  C   UNL     1      -0.102 -16.514  26.977  1.00  0.00     0.051 A 
ATOM     16  C   UNL     1      -1.432 -16.035  25.004  1.00  0.00     0.158 A 
ATOM     17  C   UNL     1      -0.930 -15.685  27.738  1.00  0.00     0.016 A 
ATOM     18  C   UNL     1      -2.258 -15.204  25.772  1.00  0.00     0.062 A 
BRANCH  14  19
ATOM     19  O   UNL     1       0.475 -17.526  24.853  1.00  0.00    -0.504 OA
ATOM     20  H   UNL     1       0.527 -17.446  23.843  1.00  0.00     0.293 HD
ENDBRANCH  14  19
BRANCH  16  21
ATOM     21  O   UNL     1      -1.701 -16.188  23.644  1.00  0.00    -0.504 OA
ATOM     22  H   UNL     1      -1.952 -17.084  23.243  1.00  0.00     0.293 HD
ENDBRANCH  16  21
ENDBRANCH   3  13
BRANCH  10  23
ATOM     23  O   UNL     1      -5.406 -10.517  30.488  1.00  0.00    -0.507 OA
ATOM     24  H   UNL     1      -4.476 -10.124  30.565  1.00  0.00     0.293 HD
ENDBRANCH  10  23
BRANCH  11  25
ATOM     25  O   UNL     1      -8.204 -14.439  30.720  1.00  0.00    -0.508 OA
ATOM     26  H   UNL     1      -8.471 -14.432  31.697  1.00  0.00     0.293 HD
ENDBRANCH  11  25
ENDBRANCH   1   2
BRANCH   1  27
ATOM     27  C   UNL     1      -1.007 -11.630  26.554  1.00  0.00     0.339 C 
ATOM     28  C   UNL     1      -0.285 -10.304  26.866  1.00  0.00     0.214 C 
ATOM     29  O   UNL     1      -0.269 -12.413  25.627  1.00  0.00    -0.332 OA
ATOM     30  C   UNL     1       1.170 -10.548  27.325  1.00  0.00     0.180 C 
ATOM     31  C   UNL     1       1.003 -12.770  26.145  1.00  0.00     0.179 C 
ATOM     32  C   UNL     1       1.876 -11.509  26.353  1.00  0.00     0.177 C 
BRANCH  28  33
ATOM     33  O   UNL     1      -1.003  -9.594  27.841  1.00  0.00    -0.384 OA
ATOM     34  H   UNL     1      -1.389  -8.798  27.388  1.00  0.00     0.211 HD
ENDBRANCH  28  33
BRANCH  30  35
ATOM     35  O   UNL     1       1.199 -11.091  28.620  1.00  0.00    -0.387 OA
ATOM     36  H   UNL     1       2.076 -10.849  29.018  1.00  0.00     0.211 HD
ENDBRANCH  30  35
BRANCH  31  37
ATOM     37  C   UNL     1       1.663 -13.760  25.177  1.00  0.00     0.191 C 
BRANCH  37  38
ATOM     38  O   UNL     1       1.023 -13.718  23.931  1.00  0.00    -0.394 OA
ATOM     39  H   UNL     1       1.477 -13.005  23.412  1.00  0.00     0.210 HD
ENDBRANCH  37  38
ENDBRANCH  31  37
BRANCH  32  40
ATOM     40  O   UNL     1       2.092 -10.871  25.120  1.00  0.00    -0.387 OA
ATOM     41  H   UNL     1       1.953 -11.554  24.414  1.00  0.00     0.211 HD
ENDBRANCH  32  40
ENDBRANCH   1  27
TORSDOF 12
ENDMDL
