MODEL 1
REMARK VINA RESULT:    -4.451      0.000      0.000
REMARK INTER + INTRA:         -10.636
REMARK INTER:                  -8.354
REMARK INTRA:                  -2.282
REMARK UNBOUND:                -2.282
REMARK SMILES O=C([O-])CCCCCCCCCCCCCCC(=O)[O-]
REMARK SMILES IDX 10 1 9 2 8 3 7 4 6 5 5 6 4 7 2 8 1 9 3 10 11 11 12 12 13 13
REMARK SMILES IDX 14 14 15 15 16 16 17 17 18 18 19 19 20 20
REMARK H PARENT
REMARK Flexibility Score: inf
ROOT
ATOM      1  C   UNL     1      15.732   2.616   1.609  1.00  0.00     0.000 C 
ENDROOT
BRANCH   1   2
ATOM      2  C   UNL     1      14.570   2.317   2.562  1.00  0.00     0.000 C 
BRANCH   2   3
ATOM      3  C   UNL     1      13.388   1.688   1.810  1.00  0.00     0.000 C 
BRANCH   3   4
ATOM      4  C   UNL     1      12.189   2.643   1.670  1.00  0.00     0.000 C 
BRANCH   4   5
ATOM      5  C   UNL     1      11.972   3.595   2.860  1.00  0.00     0.000 C 
BRANCH   5   6
ATOM      6  C   UNL     1      11.278   4.906   2.462  1.00  0.00     0.006 C 
BRANCH   6   7
ATOM      7  C   UNL     1      11.480   5.203   0.974  1.00  0.00     0.053 C 
BRANCH   7   8
ATOM      8  C   UNL     1      10.168   5.489   0.313  1.00  0.00     0.041 C 
ATOM      9  O   UNL     1       9.160   5.782   1.008  1.00  0.00    -0.550 OA
ATOM     10  O   UNL     1      10.072   5.482  -1.073  1.00  0.00    -0.550 OA
ENDBRANCH   7   8
ENDBRANCH   6   7
ENDBRANCH   5   6
ENDBRANCH   4   5
ENDBRANCH   3   4
ENDBRANCH   2   3
ENDBRANCH   1   2
BRANCH   1  11
ATOM     11  C   UNL     1      15.413   3.817   0.710  1.00  0.00     0.000 C 
BRANCH  11  12
ATOM     12  C   UNL     1      16.113   3.686  -0.650  1.00  0.00     0.000 C 
BRANCH  12  13
ATOM     13  C   UNL     1      15.140   3.798  -1.835  1.00  0.00     0.000 C 
BRANCH  13  14
ATOM     14  C   UNL     1      13.797   3.068  -1.641  1.00  0.00     0.000 C 
BRANCH  14  15
ATOM     15  C   UNL     1      13.627   1.828  -2.545  1.00  0.00     0.000 C 
BRANCH  15  16
ATOM     16  C   UNL     1      13.646   0.514  -1.742  1.00  0.00     0.006 C 
BRANCH  16  17
ATOM     17  C   UNL     1      15.068   0.097  -1.345  1.00  0.00     0.053 C 
BRANCH  17  18
ATOM     18  C   UNL     1      16.004   0.131  -2.513  1.00  0.00     0.041 C 
ATOM     19  O   UNL     1      17.034   0.856  -2.480  1.00  0.00    -0.550 OA
ATOM     20  O   UNL     1      15.757  -0.662  -3.626  1.00  0.00    -0.550 OA
ENDBRANCH  17  18
ENDBRANCH  16  17
ENDBRANCH  15  16
ENDBRANCH  14  15
ENDBRANCH  13  14
ENDBRANCH  12  13
ENDBRANCH  11  12
ENDBRANCH   1  11
TORSDOF 15
ENDMDL
MODEL 2
REMARK VINA RESULT:    -4.319      1.339      6.525
REMARK INTER + INTRA:         -10.389
REMARK INTER:                  -8.684
REMARK INTRA:                  -1.705
REMARK UNBOUND:                -2.282
REMARK SMILES O=C([O-])CCCCCCCCCCCCCCC(=O)[O-]
REMARK SMILES IDX 10 1 9 2 8 3 7 4 6 5 5 6 4 7 2 8 1 9 3 10 11 11 12 12 13 13
REMARK SMILES IDX 14 14 15 15 16 16 17 17 18 18 19 19 20 20
REMARK H PARENT
REMARK Flexibility Score: inf
ROOT
ATOM      1  C   UNL     1      16.053   2.611   0.440  1.00  0.00     0.000 C 
ENDROOT
BRANCH   1   2
ATOM      2  C   UNL     1      16.140   3.788  -0.538  1.00  0.00     0.000 C 
BRANCH   2   3
ATOM      3  C   UNL     1      15.736   3.357  -1.955  1.00  0.00     0.000 C 
BRANCH   3   4
ATOM      4  C   UNL     1      14.296   3.761  -2.319  1.00  0.00     0.000 C 
BRANCH   4   5
ATOM      5  C   UNL     1      13.216   2.728  -1.945  1.00  0.00     0.000 C 
BRANCH   5   6
ATOM      6  C   UNL     1      13.427   1.366  -2.623  1.00  0.00     0.006 C 
BRANCH   6   7
ATOM      7  C   UNL     1      13.685   0.271  -1.584  1.00  0.00     0.053 C 
BRANCH   7   8
ATOM      8  C   UNL     1      15.037  -0.337  -1.787  1.00  0.00     0.041 C 
ATOM      9  O   UNL     1      15.647  -0.175  -2.877  1.00  0.00    -0.550 OA
ATOM     10  O   UNL     1      15.646  -1.039  -0.754  1.00  0.00    -0.550 OA
ENDBRANCH   7   8
ENDBRANCH   6   7
ENDBRANCH   5   6
ENDBRANCH   4   5
ENDBRANCH   3   4
ENDBRANCH   2   3
ENDBRANCH   1   2
BRANCH   1  11
ATOM     11  C   UNL     1      15.242   2.988   1.686  1.00  0.00     0.000 C 
BRANCH  11  12
ATOM     12  C   UNL     1      14.469   4.296   1.464  1.00  0.00     0.000 C 
BRANCH  12  13
ATOM     13  C   UNL     1      12.955   4.075   1.319  1.00  0.00     0.000 C 
BRANCH  13  14
ATOM     14  C   UNL     1      12.091   4.817   2.356  1.00  0.00     0.000 C 
BRANCH  14  15
ATOM     15  C   UNL     1      10.643   5.078   1.888  1.00  0.00     0.000 C 
BRANCH  15  16
ATOM     16  C   UNL     1      10.530   5.148   0.354  1.00  0.00     0.006 C 
BRANCH  16  17
ATOM     17  C   UNL     1       9.774   6.396  -0.117  1.00  0.00     0.053 C 
BRANCH  17  18
ATOM     18  C   UNL     1       9.393   6.301  -1.563  1.00  0.00     0.041 C 
ATOM     19  O   UNL     1      10.196   5.807  -2.399  1.00  0.00    -0.550 OA
ATOM     20  O   UNL     1       8.140   6.728  -1.982  1.00  0.00    -0.550 OA
ENDBRANCH  17  18
ENDBRANCH  16  17
ENDBRANCH  15  16
ENDBRANCH  14  15
ENDBRANCH  13  14
ENDBRANCH  12  13
ENDBRANCH  11  12
ENDBRANCH   1  11
TORSDOF 15
ENDMDL
MODEL 3
REMARK VINA RESULT:    -4.284      2.905      4.897
REMARK INTER + INTRA:         -10.323
REMARK INTER:                  -7.995
REMARK INTRA:                  -2.328
REMARK UNBOUND:                -2.282
REMARK SMILES O=C([O-])CCCCCCCCCCCCCCC(=O)[O-]
REMARK SMILES IDX 10 1 9 2 8 3 7 4 6 5 5 6 4 7 2 8 1 9 3 10 11 11 12 12 13 13
REMARK SMILES IDX 14 14 15 15 16 16 17 17 18 18 19 19 20 20
REMARK H PARENT
REMARK Flexibility Score: inf
ROOT
ATOM      1  C   UNL     1      16.876   1.217  -2.030  1.00  0.00     0.000 C 
ENDROOT
BRANCH   1   2
ATOM      2  C   UNL     1      16.769   2.087  -0.773  1.00  0.00     0.000 C 
BRANCH   2   3
ATOM      3  C   UNL     1      16.089   3.428  -1.088  1.00  0.00     0.000 C 
BRANCH   3   4
ATOM      4  C   UNL     1      14.996   3.801  -0.071  1.00  0.00     0.000 C 
BRANCH   4   5
ATOM      5  C   UNL     1      14.812   2.800   1.084  1.00  0.00     0.000 C 
BRANCH   5   6
ATOM      6  C   UNL     1      13.665   3.181   2.032  1.00  0.00     0.006 C 
BRANCH   6   7
ATOM      7  C   UNL     1      13.114   4.570   1.695  1.00  0.00     0.053 C 
BRANCH   7   8
ATOM      8  C   UNL     1      11.791   4.784   2.360  1.00  0.00     0.041 C 
ATOM      9  O   UNL     1      10.862   5.372   1.746  1.00  0.00    -0.550 OA
ATOM     10  O   UNL     1      11.567   4.291   3.639  1.00  0.00    -0.550 OA
ENDBRANCH   7   8
ENDBRANCH   6   7
ENDBRANCH   5   6
ENDBRANCH   4   5
ENDBRANCH   3   4
ENDBRANCH   2   3
ENDBRANCH   1   2
BRANCH   1  11
ATOM     11  C   UNL     1      15.510   0.639  -2.419  1.00  0.00     0.000 C 
BRANCH  11  12
ATOM     12  C   UNL     1      14.887  -0.136  -1.249  1.00  0.00     0.000 C 
BRANCH  12  13
ATOM     13  C   UNL     1      13.358   0.012  -1.183  1.00  0.00     0.000 C 
BRANCH  13  14
ATOM     14  C   UNL     1      12.812   1.342  -1.736  1.00  0.00     0.000 C 
BRANCH  14  15
ATOM     15  C   UNL     1      11.519   1.820  -1.041  1.00  0.00     0.000 C 
BRANCH  15  16
ATOM     16  C   UNL     1      11.258   3.321  -1.265  1.00  0.00     0.006 C 
BRANCH  16  17
ATOM     17  C   UNL     1       9.769   3.675  -1.160  1.00  0.00     0.053 C 
BRANCH  17  18
ATOM     18  C   UNL     1       9.478   5.026  -1.738  1.00  0.00     0.041 C 
ATOM     19  O   UNL     1       8.365   5.578  -1.527  1.00  0.00    -0.550 OA
ATOM     20  O   UNL     1      10.446   5.689  -2.480  1.00  0.00    -0.550 OA
ENDBRANCH  17  18
ENDBRANCH  16  17
ENDBRANCH  15  16
ENDBRANCH  14  15
ENDBRANCH  13  14
ENDBRANCH  12  13
ENDBRANCH  11  12
ENDBRANCH   1  11
TORSDOF 15
ENDMDL
MODEL 4
REMARK VINA RESULT:    -4.261      1.871      3.101
REMARK INTER + INTRA:         -10.279
REMARK INTER:                  -8.119
REMARK INTRA:                  -2.160
REMARK UNBOUND:                -2.282
REMARK SMILES O=C([O-])CCCCCCCCCCCCCCC(=O)[O-]
REMARK SMILES IDX 10 1 9 2 8 3 7 4 6 5 5 6 4 7 2 8 1 9 3 10 11 11 12 12 13 13
REMARK SMILES IDX 14 14 15 15 16 16 17 17 18 18 19 19 20 20
REMARK H PARENT
REMARK Flexibility Score: inf
ROOT
ATOM      1  C   UNL     1      11.827   1.551   0.958  1.00  0.00     0.000 C 
ENDROOT
BRANCH   1   2
ATOM      2  C   UNL     1      13.255   2.018   1.261  1.00  0.00     0.000 C 
BRANCH   2   3
ATOM      3  C   UNL     1      13.249   3.226   2.209  1.00  0.00     0.000 C 
BRANCH   3   4
ATOM      4  C   UNL     1      12.603   4.477   1.586  1.00  0.00     0.000 C 
BRANCH   4   5
ATOM      5  C   UNL     1      11.330   4.974   2.296  1.00  0.00     0.000 C 
BRANCH   5   6
ATOM      6  C   UNL     1      10.190   5.307   1.321  1.00  0.00     0.006 C 
BRANCH   6   7
ATOM      7  C   UNL     1      10.538   4.861  -0.102  1.00  0.00     0.053 C 
BRANCH   7   8
ATOM      8  C   UNL     1       9.789   5.679  -1.106  1.00  0.00     0.041 C 
ATOM      9  O   UNL     1       9.473   5.182  -2.219  1.00  0.00    -0.550 OA
ATOM     10  O   UNL     1       9.395   6.974  -0.793  1.00  0.00    -0.550 OA
ENDBRANCH   7   8
ENDBRANCH   6   7
ENDBRANCH   5   6
ENDBRANCH   4   5
ENDBRANCH   3   4
ENDBRANCH   2   3
ENDBRANCH   1   2
BRANCH   1  11
ATOM     11  C   UNL     1      11.689   1.114  -0.506  1.00  0.00     0.000 C 
BRANCH  11  12
ATOM     12  C   UNL     1      12.511   2.023  -1.431  1.00  0.00     0.000 C 
BRANCH  12  13
ATOM     13  C   UNL     1      13.235   1.245  -2.541  1.00  0.00     0.000 C 
BRANCH  13  14
ATOM     14  C   UNL     1      14.027   0.014  -2.058  1.00  0.00     0.000 C 
BRANCH  14  15
ATOM     15  C   UNL     1      15.559   0.192  -2.132  1.00  0.00     0.000 C 
BRANCH  15  16
ATOM     16  C   UNL     1      16.109   1.000  -0.942  1.00  0.00     0.006 C 
BRANCH  16  17
ATOM     17  C   UNL     1      16.854   2.263  -1.392  1.00  0.00     0.053 C 
BRANCH  17  18
ATOM     18  C   UNL     1      16.029   3.497  -1.185  1.00  0.00     0.041 C 
ATOM     19  O   UNL     1      15.369   3.986  -2.140  1.00  0.00    -0.550 OA
ATOM     20  O   UNL     1      15.963   4.087   0.070  1.00  0.00    -0.550 OA
ENDBRANCH  17  18
ENDBRANCH  16  17
ENDBRANCH  15  16
ENDBRANCH  14  15
ENDBRANCH  13  14
ENDBRANCH  12  13
ENDBRANCH  11  12
ENDBRANCH   1  11
TORSDOF 15
ENDMDL
MODEL 5
REMARK VINA RESULT:    -4.243      2.116      6.737
REMARK INTER + INTRA:         -10.247
REMARK INTER:                  -8.234
REMARK INTRA:                  -2.012
REMARK UNBOUND:                -2.282
REMARK SMILES O=C([O-])CCCCCCCCCCCCCCC(=O)[O-]
REMARK SMILES IDX 10 1 9 2 8 3 7 4 6 5 5 6 4 7 2 8 1 9 3 10 11 11 12 12 13 13
REMARK SMILES IDX 14 14 15 15 16 16 17 17 18 18 19 19 20 20
REMARK H PARENT
REMARK Flexibility Score: inf
ROOT
ATOM      1  C   UNL     1      12.148   2.821  -0.965  1.00  0.00     0.000 C 
ENDROOT
BRANCH   1   2
ATOM      2  C   UNL     1      11.346   1.606  -1.443  1.00  0.00     0.000 C 
BRANCH   2   3
ATOM      3  C   UNL     1      12.278   0.489  -1.935  1.00  0.00     0.000 C 
BRANCH   3   4
ATOM      4  C   UNL     1      13.532   1.024  -2.649  1.00  0.00     0.000 C 
BRANCH   4   5
ATOM      5  C   UNL     1      14.832   0.258  -2.343  1.00  0.00     0.000 C 
BRANCH   5   6
ATOM      6  C   UNL     1      16.034   1.184  -2.105  1.00  0.00     0.006 C 
BRANCH   6   7
ATOM      7  C   UNL     1      15.907   1.912  -0.764  1.00  0.00     0.053 C 
BRANCH   7   8
ATOM      8  C   UNL     1      15.863   3.393  -0.973  1.00  0.00     0.041 C 
ATOM      9  O   UNL     1      15.602   3.864  -2.112  1.00  0.00    -0.550 OA
ATOM     10  O   UNL     1      16.061   4.253   0.099  1.00  0.00    -0.550 OA
ENDBRANCH   7   8
ENDBRANCH   6   7
ENDBRANCH   5   6
ENDBRANCH   4   5
ENDBRANCH   3   4
ENDBRANCH   2   3
ENDBRANCH   1   2
BRANCH   1  11
ATOM     11  C   UNL     1      12.384   2.765   0.549  1.00  0.00     0.000 C 
BRANCH  11  12
ATOM     12  C   UNL     1      12.608   4.172   1.123  1.00  0.00     0.000 C 
BRANCH  12  13
ATOM     13  C   UNL     1      11.373   4.720   1.856  1.00  0.00     0.000 C 
BRANCH  13  14
ATOM     14  C   UNL     1      10.392   5.512   0.971  1.00  0.00     0.000 C 
BRANCH  14  15
ATOM     15  C   UNL     1       9.188   4.682   0.477  1.00  0.00     0.000 C 
BRANCH  15  16
ATOM     16  C   UNL     1       9.030   4.738  -1.053  1.00  0.00     0.006 C 
BRANCH  16  17
ATOM     17  C   UNL     1       9.834   5.884  -1.680  1.00  0.00     0.053 C 
BRANCH  17  18
ATOM     18  C   UNL     1       8.988   7.100  -1.900  1.00  0.00     0.041 C 
ATOM     19  O   UNL     1       8.949   8.011  -1.031  1.00  0.00    -0.550 OA
ATOM     20  O   UNL     1       8.270   7.243  -3.080  1.00  0.00    -0.550 OA
ENDBRANCH  17  18
ENDBRANCH  16  17
ENDBRANCH  15  16
ENDBRANCH  14  15
ENDBRANCH  13  14
ENDBRANCH  12  13
ENDBRANCH  11  12
ENDBRANCH   1  11
TORSDOF 15
ENDMDL
MODEL 6
REMARK VINA RESULT:    -4.227      1.978      5.855
REMARK INTER + INTRA:         -10.216
REMARK INTER:                  -8.325
REMARK INTRA:                  -1.890
REMARK UNBOUND:                -2.282
REMARK SMILES O=C([O-])CCCCCCCCCCCCCCC(=O)[O-]
REMARK SMILES IDX 10 1 9 2 8 3 7 4 6 5 5 6 4 7 2 8 1 9 3 10 11 11 12 12 13 13
REMARK SMILES IDX 14 14 15 15 16 16 17 17 18 18 19 19 20 20
REMARK H PARENT
REMARK Flexibility Score: inf
ROOT
ATOM      1  C   UNL     1      15.495   4.117   0.357  1.00  0.00     0.000 C 
ENDROOT
BRANCH   1   2
ATOM      2  C   UNL     1      16.110   3.729  -0.992  1.00  0.00     0.000 C 
BRANCH   2   3
ATOM      3  C   UNL     1      16.855   2.390  -0.893  1.00  0.00     0.000 C 
BRANCH   3   4
ATOM      4  C   UNL     1      16.523   1.430  -2.050  1.00  0.00     0.000 C 
BRANCH   4   5
ATOM      5  C   UNL     1      15.808   0.132  -1.634  1.00  0.00     0.000 C 
BRANCH   5   6
ATOM      6  C   UNL     1      14.313   0.131  -1.987  1.00  0.00     0.006 C 
BRANCH   6   7
ATOM      7  C   UNL     1      13.486   0.771  -0.868  1.00  0.00     0.053 C 
BRANCH   7   8
ATOM      8  C   UNL     1      12.463   1.702  -1.439  1.00  0.00     0.041 C 
ATOM      9  O   UNL     1      12.700   2.937  -1.508  1.00  0.00    -0.550 OA
ATOM     10  O   UNL     1      11.270   1.200  -1.942  1.00  0.00    -0.550 OA
ENDBRANCH   7   8
ENDBRANCH   6   7
ENDBRANCH   5   6
ENDBRANCH   4   5
ENDBRANCH   3   4
ENDBRANCH   2   3
ENDBRANCH   1   2
BRANCH   1  11
ATOM     11  C   UNL     1      15.599   2.965   1.363  1.00  0.00     0.000 C 
BRANCH  11  12
ATOM     12  C   UNL     1      14.281   2.786   2.131  1.00  0.00     0.000 C 
BRANCH  12  13
ATOM     13  C   UNL     1      13.257   3.890   1.823  1.00  0.00     0.000 C 
BRANCH  13  14
ATOM     14  C   UNL     1      12.150   4.061   2.881  1.00  0.00     0.000 C 
BRANCH  14  15
ATOM     15  C   UNL     1      11.017   5.014   2.448  1.00  0.00     0.000 C 
BRANCH  15  16
ATOM     16  C   UNL     1      11.028   5.283   0.932  1.00  0.00     0.006 C 
BRANCH  16  17
ATOM     17  C   UNL     1       9.614   5.334   0.340  1.00  0.00     0.053 C 
BRANCH  17  18
ATOM     18  C   UNL     1       9.629   5.161  -1.148  1.00  0.00     0.041 C 
ATOM     19  O   UNL     1       9.436   4.025  -1.656  1.00  0.00    -0.550 OA
ATOM     20  O   UNL     1       9.823   6.260  -1.974  1.00  0.00    -0.550 OA
ENDBRANCH  17  18
ENDBRANCH  16  17
ENDBRANCH  15  16
ENDBRANCH  14  15
ENDBRANCH  13  14
ENDBRANCH  12  13
ENDBRANCH  11  12
ENDBRANCH   1  11
TORSDOF 15
ENDMDL
MODEL 7
REMARK VINA RESULT:    -4.198      2.018      2.860
REMARK INTER + INTRA:         -10.161
REMARK INTER:                  -7.927
REMARK INTRA:                  -2.234
REMARK UNBOUND:                -2.282
REMARK SMILES O=C([O-])CCCCCCCCCCCCCCC(=O)[O-]
REMARK SMILES IDX 10 1 9 2 8 3 7 4 6 5 5 6 4 7 2 8 1 9 3 10 11 11 12 12 13 13
REMARK SMILES IDX 14 14 15 15 16 16 17 17 18 18 19 19 20 20
REMARK H PARENT
REMARK Flexibility Score: inf
ROOT
ATOM      1  C   UNL     1      15.729   3.745   0.239  1.00  0.00     0.000 C 
ENDROOT
BRANCH   1   2
ATOM      2  C   UNL     1      15.358   2.581   1.166  1.00  0.00     0.000 C 
BRANCH   2   3
ATOM      3  C   UNL     1      14.141   2.934   2.033  1.00  0.00     0.000 C 
BRANCH   3   4
ATOM      4  C   UNL     1      13.544   4.313   1.699  1.00  0.00     0.000 C 
BRANCH   4   5
ATOM      5  C   UNL     1      12.042   4.462   2.000  1.00  0.00     0.000 C 
BRANCH   5   6
ATOM      6  C   UNL     1      11.275   5.192   0.887  1.00  0.00     0.006 C 
BRANCH   6   7
ATOM      7  C   UNL     1       9.767   4.956   1.015  1.00  0.00     0.053 C 
BRANCH   7   8
ATOM      8  C   UNL     1       9.315   3.913   0.042  1.00  0.00     0.041 C 
ATOM      9  O   UNL     1       9.511   4.071  -1.192  1.00  0.00    -0.550 OA
ATOM     10  O   UNL     1       8.722   2.744   0.501  1.00  0.00    -0.550 OA
ENDBRANCH   7   8
ENDBRANCH   6   7
ENDBRANCH   5   6
ENDBRANCH   4   5
ENDBRANCH   3   4
ENDBRANCH   2   3
ENDBRANCH   1   2
BRANCH   1  11
ATOM     11  C   UNL     1      16.393   3.237  -1.046  1.00  0.00     0.000 C 
BRANCH  11  12
ATOM     12  C   UNL     1      16.829   1.772  -0.897  1.00  0.00     0.000 C 
BRANCH  12  13
ATOM     13  C   UNL     1      17.068   1.081  -2.249  1.00  0.00     0.000 C 
BRANCH  13  14
ATOM     14  C   UNL     1      16.000   0.043  -2.643  1.00  0.00     0.000 C 
BRANCH  14  15
ATOM     15  C   UNL     1      15.131  -0.435  -1.461  1.00  0.00     0.000 C 
BRANCH  15  16
ATOM     16  C   UNL     1      13.634  -0.155  -1.687  1.00  0.00     0.006 C 
BRANCH  16  17
ATOM     17  C   UNL     1      13.392   1.198  -2.369  1.00  0.00     0.053 C 
BRANCH  17  18
ATOM     18  C   UNL     1      12.700   2.164  -1.457  1.00  0.00     0.041 C 
ATOM     19  O   UNL     1      12.787   3.403  -1.662  1.00  0.00    -0.550 OA
ATOM     20  O   UNL     1      11.933   1.693  -0.399  1.00  0.00    -0.550 OA
ENDBRANCH  17  18
ENDBRANCH  16  17
ENDBRANCH  15  16
ENDBRANCH  14  15
ENDBRANCH  13  14
ENDBRANCH  12  13
ENDBRANCH  11  12
ENDBRANCH   1  11
TORSDOF 15
ENDMDL
MODEL 8
REMARK VINA RESULT:    -4.181      1.512      2.205
REMARK INTER + INTRA:         -10.129
REMARK INTER:                  -7.742
REMARK INTRA:                  -2.387
REMARK UNBOUND:                -2.282
REMARK SMILES O=C([O-])CCCCCCCCCCCCCCC(=O)[O-]
REMARK SMILES IDX 10 1 9 2 8 3 7 4 6 5 5 6 4 7 2 8 1 9 3 10 11 11 12 12 13 13
REMARK SMILES IDX 14 14 15 15 16 16 17 17 18 18 19 19 20 20
REMARK H PARENT
REMARK Flexibility Score: inf
ROOT
ATOM      1  C   UNL     1      14.838   3.478   0.452  1.00  0.00     0.000 C 
ENDROOT
BRANCH   1   2
ATOM      2  C   UNL     1      15.581   3.048   1.721  1.00  0.00     0.000 C 
BRANCH   2   3
ATOM      3  C   UNL     1      14.692   2.162   2.606  1.00  0.00     0.000 C 
BRANCH   3   4
ATOM      4  C   UNL     1      13.804   1.201   1.796  1.00  0.00     0.000 C 
BRANCH   4   5
ATOM      5  C   UNL     1      12.298   1.296   2.098  1.00  0.00     0.000 C 
BRANCH   5   6
ATOM      6  C   UNL     1      11.544   2.206   1.116  1.00  0.00     0.006 C 
BRANCH   6   7
ATOM      7  C   UNL     1      10.616   3.168   1.863  1.00  0.00     0.053 C 
BRANCH   7   8
ATOM      8  C   UNL     1      11.394   4.314   2.429  1.00  0.00     0.041 C 
ATOM      9  O   UNL     1      11.555   4.416   3.674  1.00  0.00    -0.550 OA
ATOM     10  O   UNL     1      11.984   5.241   1.580  1.00  0.00    -0.550 OA
ENDBRANCH   7   8
ENDBRANCH   6   7
ENDBRANCH   5   6
ENDBRANCH   4   5
ENDBRANCH   3   4
ENDBRANCH   2   3
ENDBRANCH   1   2
BRANCH   1  11
ATOM     11  C   UNL     1      15.819   3.926  -0.638  1.00  0.00     0.000 C 
BRANCH  11  12
ATOM     12  C   UNL     1      15.185   3.809  -2.031  1.00  0.00     0.000 C 
BRANCH  12  13
ATOM     13  C   UNL     1      13.762   3.228  -1.990  1.00  0.00     0.000 C 
BRANCH  13  14
ATOM     14  C   UNL     1      13.588   1.888  -2.730  1.00  0.00     0.000 C 
BRANCH  14  15
ATOM     15  C   UNL     1      13.314   0.691  -1.794  1.00  0.00     0.000 C 
BRANCH  15  16
ATOM     16  C   UNL     1      14.449  -0.349  -1.832  1.00  0.00     0.006 C 
BRANCH  16  17
ATOM     17  C   UNL     1      15.680   0.159  -2.593  1.00  0.00     0.053 C 
BRANCH  17  18
ATOM     18  C   UNL     1      16.762   0.609  -1.661  1.00  0.00     0.041 C 
ATOM     19  O   UNL     1      16.623   0.474  -0.416  1.00  0.00    -0.550 OA
ATOM     20  O   UNL     1      17.938   1.146  -2.168  1.00  0.00    -0.550 OA
ENDBRANCH  17  18
ENDBRANCH  16  17
ENDBRANCH  15  16
ENDBRANCH  14  15
ENDBRANCH  13  14
ENDBRANCH  12  13
ENDBRANCH  11  12
ENDBRANCH   1  11
TORSDOF 15
ENDMDL
MODEL 9
REMARK VINA RESULT:    -4.152      2.398      7.066
REMARK INTER + INTRA:         -10.076
REMARK INTER:                  -8.139
REMARK INTRA:                  -1.937
REMARK UNBOUND:                -2.282
REMARK SMILES O=C([O-])CCCCCCCCCCCCCCC(=O)[O-]
REMARK SMILES IDX 10 1 9 2 8 3 7 4 6 5 5 6 4 7 2 8 1 9 3 10 11 11 12 12 13 13
REMARK SMILES IDX 14 14 15 15 16 16 17 17 18 18 19 19 20 20
REMARK H PARENT
REMARK Flexibility Score: inf
ROOT
ATOM      1  C   UNL     1      12.449   4.001   1.172  1.00  0.00     0.000 C 
ENDROOT
BRANCH   1   2
ATOM      2  C   UNL     1      12.224   2.486   1.114  1.00  0.00     0.000 C 
BRANCH   2   3
ATOM      3  C   UNL     1      12.333   1.968  -0.328  1.00  0.00     0.000 C 
BRANCH   3   4
ATOM      4  C   UNL     1      12.737   3.064  -1.331  1.00  0.00     0.000 C 
BRANCH   4   5
ATOM      5  C   UNL     1      13.844   2.663  -2.322  1.00  0.00     0.000 C 
BRANCH   5   6
ATOM      6  C   UNL     1      14.742   1.533  -1.795  1.00  0.00     0.006 C 
BRANCH   6   7
ATOM      7  C   UNL     1      16.167   2.035  -1.548  1.00  0.00     0.053 C 
BRANCH   7   8
ATOM      8  C   UNL     1      16.202   2.957  -0.369  1.00  0.00     0.041 C 
ATOM      9  O   UNL     1      16.450   4.181  -0.530  1.00  0.00    -0.550 OA
ATOM     10  O   UNL     1      15.911   2.473   0.900  1.00  0.00    -0.550 OA
ENDBRANCH   7   8
ENDBRANCH   6   7
ENDBRANCH   5   6
ENDBRANCH   4   5
ENDBRANCH   3   4
ENDBRANCH   2   3
ENDBRANCH   1   2
BRANCH   1  11
ATOM     11  C   UNL     1      11.370   4.686   2.019  1.00  0.00     0.000 C 
BRANCH  11  12
ATOM     12  C   UNL     1      10.341   5.396   1.128  1.00  0.00     0.000 C 
BRANCH  12  13
ATOM     13  C   UNL     1       9.118   4.519   0.815  1.00  0.00     0.000 C 
BRANCH  13  14
ATOM     14  C   UNL     1       8.581   4.647  -0.624  1.00  0.00     0.000 C 
BRANCH  14  15
ATOM     15  C   UNL     1       9.687   4.809  -1.689  1.00  0.00     0.000 C 
BRANCH  15  16
ATOM     16  C   UNL     1       9.682   6.212  -2.324  1.00  0.00     0.006 C 
BRANCH  16  17
ATOM     17  C   UNL     1       8.386   6.978  -2.033  1.00  0.00     0.053 C 
BRANCH  17  18
ATOM     18  C   UNL     1       8.654   8.283  -1.348  1.00  0.00     0.041 C 
ATOM     19  O   UNL     1       8.742   8.334  -0.093  1.00  0.00    -0.550 OA
ATOM     20  O   UNL     1       8.839   9.437  -2.098  1.00  0.00    -0.550 OA
ENDBRANCH  17  18
ENDBRANCH  16  17
ENDBRANCH  15  16
ENDBRANCH  14  15
ENDBRANCH  13  14
ENDBRANCH  12  13
ENDBRANCH  11  12
ENDBRANCH   1  11
TORSDOF 15
ENDMDL
