MODEL 1
REMARK VINA RESULT:    -5.681      0.000      0.000
REMARK INTER + INTRA:          -5.681
REMARK INTER:                  -5.681
REMARK INTRA:                   0.000
REMARK UNBOUND:                 0.000
REMARK SMILES O=c1ccc2ccccc2o1
REMARK SMILES IDX 7 1 8 2 9 3 10 4 5 5 6 6 4 7 3 8 2 9 1 10 11 11
REMARK H PARENT
REMARK Flexibility Score: inf
ROOT
ATOM      1  C   UNL     1     -32.226  15.151  52.753  1.00  0.00     0.001 A 
ATOM      2  C   UNL     1     -33.254  14.674  53.574  1.00  0.00     0.004 A 
ATOM      3  C   UNL     1     -34.590  14.826  53.188  1.00  0.00     0.048 A 
ATOM      4  C   UNL     1     -34.903  15.457  51.979  1.00  0.00     0.138 A 
ATOM      5  C   UNL     1     -33.865  15.940  51.151  1.00  0.00     0.018 A 
ATOM      6  C   UNL     1     -32.528  15.784  51.543  1.00  0.00     0.012 A 
ATOM      7  C   UNL     1     -34.209  16.565  49.948  1.00  0.00     0.019 A 
ATOM      8  C   UNL     1     -35.554  16.696  49.605  1.00  0.00     0.094 A 
ATOM      9  C   UNL     1     -36.528  16.194  50.474  1.00  0.00     0.336 A 
ATOM     10  O   UNL     1     -37.747  16.301  50.182  1.00  0.00    -0.246 OA
ATOM     11  O   UNL     1     -36.174  15.602  51.613  1.00  0.00    -0.423 OA
ENDROOT
TORSDOF 0
ENDMDL
MODEL 2
REMARK VINA RESULT:    -5.482      3.211      4.889
REMARK INTER + INTRA:          -5.482
REMARK INTER:                  -5.482
REMARK INTRA:                   0.000
REMARK UNBOUND:                 0.000
REMARK SMILES O=c1ccc2ccccc2o1
REMARK SMILES IDX 7 1 8 2 9 3 10 4 5 5 6 6 4 7 3 8 2 9 1 10 11 11
REMARK H PARENT
REMARK Flexibility Score: inf
ROOT
ATOM      1  C   UNL     1     -34.570  15.901  52.204  1.00  0.00     0.001 A 
ATOM      2  C   UNL     1     -34.688  14.959  53.231  1.00  0.00     0.004 A 
ATOM      3  C   UNL     1     -33.548  14.324  53.738  1.00  0.00     0.048 A 
ATOM      4  C   UNL     1     -32.286  14.631  53.217  1.00  0.00     0.138 A 
ATOM      5  C   UNL     1     -32.168  15.581  52.179  1.00  0.00     0.018 A 
ATOM      6  C   UNL     1     -33.314  16.214  51.676  1.00  0.00     0.012 A 
ATOM      7  C   UNL     1     -30.893  15.867  51.679  1.00  0.00     0.019 A 
ATOM      8  C   UNL     1     -29.786  15.210  52.214  1.00  0.00     0.094 A 
ATOM      9  C   UNL     1     -29.979  14.280  53.240  1.00  0.00     0.336 A 
ATOM     10  O   UNL     1     -28.992  13.677  53.736  1.00  0.00    -0.246 OA
ATOM     11  O   UNL     1     -31.202  14.027  53.699  1.00  0.00    -0.423 OA
ENDROOT
TORSDOF 0
ENDMDL
MODEL 3
REMARK VINA RESULT:    -5.418      3.077      5.309
REMARK INTER + INTRA:          -5.418
REMARK INTER:                  -5.418
REMARK INTRA:                   0.000
REMARK UNBOUND:                 0.000
REMARK SMILES O=c1ccc2ccccc2o1
REMARK SMILES IDX 7 1 8 2 9 3 10 4 5 5 6 6 4 7 3 8 2 9 1 10 11 11
REMARK H PARENT
REMARK Flexibility Score: inf
ROOT
ATOM      1  C   UNL     1     -34.706  15.860  52.144  1.00  0.00     0.001 A 
ATOM      2  C   UNL     1     -33.690  16.284  51.282  1.00  0.00     0.004 A 
ATOM      3  C   UNL     1     -32.370  15.872  51.493  1.00  0.00     0.048 A 
ATOM      4  C   UNL     1     -32.061  15.033  52.570  1.00  0.00     0.138 A 
ATOM      5  C   UNL     1     -33.088  14.606  53.442  1.00  0.00     0.018 A 
ATOM      6  C   UNL     1     -34.409  15.022  53.224  1.00  0.00     0.012 A 
ATOM      7  C   UNL     1     -32.750  13.768  54.509  1.00  0.00     0.019 A 
ATOM      8  C   UNL     1     -31.421  13.382  54.682  1.00  0.00     0.094 A 
ATOM      9  C   UNL     1     -30.457  13.845  53.779  1.00  0.00     0.336 A 
ATOM     10  O   UNL     1     -29.253  13.508  53.918  1.00  0.00    -0.246 OA
ATOM     11  O   UNL     1     -30.806  14.641  52.771  1.00  0.00    -0.423 OA
ENDROOT
TORSDOF 0
ENDMDL
MODEL 4
REMARK VINA RESULT:    -5.355      1.894      3.164
REMARK INTER + INTRA:          -5.355
REMARK INTER:                  -5.355
REMARK INTRA:                   0.000
REMARK UNBOUND:                 0.000
REMARK SMILES O=c1ccc2ccccc2o1
REMARK SMILES IDX 7 1 8 2 9 3 10 4 5 5 6 6 4 7 3 8 2 9 1 10 11 11
REMARK H PARENT
REMARK Flexibility Score: inf
ROOT
ATOM      1  C   UNL     1     -31.541  13.523  54.580  1.00  0.00     0.001 A 
ATOM      2  C   UNL     1     -30.542  13.906  53.677  1.00  0.00     0.004 A 
ATOM      3  C   UNL     1     -30.859  14.713  52.579  1.00  0.00     0.048 A 
ATOM      4  C   UNL     1     -32.176  15.140  52.380  1.00  0.00     0.138 A 
ATOM      5  C   UNL     1     -33.184  14.753  53.291  1.00  0.00     0.018 A 
ATOM      6  C   UNL     1     -32.861  13.944  54.390  1.00  0.00     0.012 A 
ATOM      7  C   UNL     1     -34.491  15.195  53.066  1.00  0.00     0.019 A 
ATOM      8  C   UNL     1     -34.761  15.998  51.958  1.00  0.00     0.094 A 
ATOM      9  C   UNL     1     -33.712  16.341  51.098  1.00  0.00     0.336 A 
ATOM     10  O   UNL     1     -33.935  17.065  50.093  1.00  0.00    -0.246 OA
ATOM     11  O   UNL     1     -32.477  15.907  51.335  1.00  0.00    -0.423 OA
ENDROOT
TORSDOF 0
ENDMDL
MODEL 5
REMARK VINA RESULT:    -5.337      2.060      4.400
REMARK INTER + INTRA:          -5.337
REMARK INTER:                  -5.337
REMARK INTRA:                   0.000
REMARK UNBOUND:                 0.000
REMARK SMILES O=c1ccc2ccccc2o1
REMARK SMILES IDX 7 1 8 2 9 3 10 4 5 5 6 6 4 7 3 8 2 9 1 10 11 11
REMARK H PARENT
REMARK Flexibility Score: inf
ROOT
ATOM      1  C   UNL     1     -36.550  16.197  50.383  1.00  0.00     0.001 A 
ATOM      2  C   UNL     1     -35.632  16.734  49.473  1.00  0.00     0.004 A 
ATOM      3  C   UNL     1     -34.260  16.664  49.734  1.00  0.00     0.048 A 
ATOM      4  C   UNL     1     -33.800  16.058  50.908  1.00  0.00     0.138 A 
ATOM      5  C   UNL     1     -34.726  15.517  51.828  1.00  0.00     0.018 A 
ATOM      6  C   UNL     1     -36.101  15.589  51.560  1.00  0.00     0.012 A 
ATOM      7  C   UNL     1     -34.237  14.917  52.992  1.00  0.00     0.019 A 
ATOM      8  C   UNL     1     -32.861  14.871  53.212  1.00  0.00     0.094 A 
ATOM      9  C   UNL     1     -32.002  15.427  52.258  1.00  0.00     0.336 A 
ATOM     10  O   UNL     1     -30.757  15.395  52.437  1.00  0.00    -0.246 OA
ATOM     11  O   UNL     1     -32.494  15.992  51.157  1.00  0.00    -0.423 OA
ENDROOT
TORSDOF 0
ENDMDL
MODEL 6
REMARK VINA RESULT:    -5.333     10.123     11.972
REMARK INTER + INTRA:          -5.333
REMARK INTER:                  -5.333
REMARK INTRA:                   0.000
REMARK UNBOUND:                 0.000
REMARK SMILES O=c1ccc2ccccc2o1
REMARK SMILES IDX 7 1 8 2 9 3 10 4 5 5 6 6 4 7 3 8 2 9 1 10 11 11
REMARK H PARENT
REMARK Flexibility Score: inf
ROOT
ATOM      1  C   UNL     1     -27.956   5.447  59.274  1.00  0.00     0.001 A 
ATOM      2  C   UNL     1     -28.629   4.622  58.367  1.00  0.00     0.004 A 
ATOM      3  C   UNL     1     -29.250   5.174  57.241  1.00  0.00     0.048 A 
ATOM      4  C   UNL     1     -29.201   6.555  57.019  1.00  0.00     0.138 A 
ATOM      5  C   UNL     1     -28.521   7.388  57.936  1.00  0.00     0.018 A 
ATOM      6  C   UNL     1     -27.900   6.829  59.063  1.00  0.00     0.012 A 
ATOM      7  C   UNL     1     -28.488   8.764  57.688  1.00  0.00     0.019 A 
ATOM      8  C   UNL     1     -29.122   9.270  56.554  1.00  0.00     0.094 A 
ATOM      9  C   UNL     1     -29.776   8.385  55.690  1.00  0.00     0.336 A 
ATOM     10  O   UNL     1     -30.353   8.822  54.661  1.00  0.00    -0.246 OA
ATOM     11  O   UNL     1     -29.792   7.079  55.949  1.00  0.00    -0.423 OA
ENDROOT
TORSDOF 0
ENDMDL
MODEL 7
REMARK VINA RESULT:    -5.282      2.745      4.779
REMARK INTER + INTRA:          -5.282
REMARK INTER:                  -5.282
REMARK INTRA:                   0.000
REMARK UNBOUND:                 0.000
REMARK SMILES O=c1ccc2ccccc2o1
REMARK SMILES IDX 7 1 8 2 9 3 10 4 5 5 6 6 4 7 3 8 2 9 1 10 11 11
REMARK H PARENT
REMARK Flexibility Score: inf
ROOT
ATOM      1  C   UNL     1     -33.487  16.298  51.234  1.00  0.00     0.001 A 
ATOM      2  C   UNL     1     -34.616  16.058  52.024  1.00  0.00     0.004 A 
ATOM      3  C   UNL     1     -34.520  15.245  53.159  1.00  0.00     0.048 A 
ATOM      4  C   UNL     1     -33.293  14.670  53.508  1.00  0.00     0.138 A 
ATOM      5  C   UNL     1     -32.153  14.912  52.709  1.00  0.00     0.018 A 
ATOM      6  C   UNL     1     -32.255  15.727  51.572  1.00  0.00     0.012 A 
ATOM      7  C   UNL     1     -30.941  14.324  53.082  1.00  0.00     0.019 A 
ATOM      8  C   UNL     1     -30.892  13.521  54.221  1.00  0.00     0.094 A 
ATOM      9  C   UNL     1     -32.061  13.325  54.964  1.00  0.00     0.336 A 
ATOM     10  O   UNL     1     -32.038  12.604  55.995  1.00  0.00    -0.246 OA
ATOM     11  O   UNL     1     -33.202  13.897  54.587  1.00  0.00    -0.423 OA
ENDROOT
TORSDOF 0
ENDMDL
MODEL 8
REMARK VINA RESULT:    -5.170     10.039     11.883
REMARK INTER + INTRA:          -5.170
REMARK INTER:                  -5.170
REMARK INTRA:                   0.000
REMARK UNBOUND:                 0.000
REMARK SMILES O=c1ccc2ccccc2o1
REMARK SMILES IDX 7 1 8 2 9 3 10 4 5 5 6 6 4 7 3 8 2 9 1 10 11 11
REMARK H PARENT
REMARK Flexibility Score: inf
ROOT
ATOM      1  C   UNL     1     -28.653   4.835  58.344  1.00  0.00     0.001 A 
ATOM      2  C   UNL     1     -27.954   5.695  59.198  1.00  0.00     0.004 A 
ATOM      3  C   UNL     1     -27.892   7.065  58.920  1.00  0.00     0.048 A 
ATOM      4  C   UNL     1     -28.530   7.579  57.786  1.00  0.00     0.138 A 
ATOM      5  C   UNL     1     -29.235   6.711  56.924  1.00  0.00     0.018 A 
ATOM      6  C   UNL     1     -29.294   5.338  57.208  1.00  0.00     0.012 A 
ATOM      7  C   UNL     1     -29.863   7.254  55.798  1.00  0.00     0.019 A 
ATOM      8  C   UNL     1     -29.774   8.625  55.560  1.00  0.00     0.094 A 
ATOM      9  C   UNL     1     -29.058   9.424  56.457  1.00  0.00     0.336 A 
ATOM     10  O   UNL     1     -28.967  10.664  56.260  1.00  0.00    -0.246 OA
ATOM     11  O   UNL     1     -28.471   8.882  57.522  1.00  0.00    -0.423 OA
ENDROOT
TORSDOF 0
ENDMDL
MODEL 9
REMARK VINA RESULT:    -5.099      1.287      2.152
REMARK INTER + INTRA:          -5.099
REMARK INTER:                  -5.099
REMARK INTRA:                   0.000
REMARK UNBOUND:                 0.000
REMARK SMILES O=c1ccc2ccccc2o1
REMARK SMILES IDX 7 1 8 2 9 3 10 4 5 5 6 6 4 7 3 8 2 9 1 10 11 11
REMARK H PARENT
REMARK Flexibility Score: inf
ROOT
ATOM      1  C   UNL     1     -33.372  14.694  53.657  1.00  0.00     0.001 A 
ATOM      2  C   UNL     1     -32.347  14.856  52.719  1.00  0.00     0.004 A 
ATOM      3  C   UNL     1     -32.645  15.276  51.418  1.00  0.00     0.048 A 
ATOM      4  C   UNL     1     -33.970  15.534  51.051  1.00  0.00     0.138 A 
ATOM      5  C   UNL     1     -35.005  15.369  51.998  1.00  0.00     0.018 A 
ATOM      6  C   UNL     1     -34.700  14.948  53.301  1.00  0.00     0.012 A 
ATOM      7  C   UNL     1     -36.319  15.635  51.602  1.00  0.00     0.019 A 
ATOM      8  C   UNL     1     -36.569  16.050  50.295  1.00  0.00     0.094 A 
ATOM      9  C   UNL     1     -35.495  16.191  49.410  1.00  0.00     0.336 A 
ATOM     10  O   UNL     1     -35.699  16.565  48.227  1.00  0.00    -0.246 OA
ATOM     11  O   UNL     1     -34.252  15.933  49.813  1.00  0.00    -0.423 OA
ENDROOT
TORSDOF 0
ENDMDL
