MODEL 1
REMARK VINA RESULT:    -4.429      0.000      0.000
REMARK INTER + INTRA:         -13.156
REMARK INTER:                 -11.160
REMARK INTRA:                  -1.996
REMARK UNBOUND:                -1.996
REMARK SMILES CCCCCCCCCCCCCCCCCCCCCCCCCCCC(=O)[O-]
REMARK SMILES IDX 15 1 16 2 17 3 18 4 19 5 20 6 21 7 22 8 23 9 24 10 25 11
REMARK SMILES IDX 26 12 27 13 28 14 29 15 30 16 14 17 13 18 12 19 11 20 10 21
REMARK SMILES IDX 9 22 8 23 7 24 6 25 5 26 4 27 3 28 2 29 1 30
REMARK H PARENT
REMARK Flexibility Score: inf
ROOT
ATOM      1  C   UNL     1       4.418   8.406  14.843  1.00  0.00     0.000 C 
ENDROOT
BRANCH   1   2
ATOM      2  C   UNL     1       4.144   8.857  13.401  1.00  0.00     0.000 C 
BRANCH   2   3
ATOM      3  C   UNL     1       3.166   7.902  12.704  1.00  0.00     0.000 C 
BRANCH   3   4
ATOM      4  C   UNL     1       2.797   8.416  11.304  1.00  0.00     0.000 C 
BRANCH   4   5
ATOM      5  C   UNL     1       3.603   7.731  10.189  1.00  0.00     0.000 C 
BRANCH   5   6
ATOM      6  C   UNL     1       3.767   8.620   8.945  1.00  0.00     0.000 C 
BRANCH   6   7
ATOM      7  C   UNL     1       5.232   8.997   8.676  1.00  0.00     0.000 C 
BRANCH   7   8
ATOM      8  C   UNL     1       5.756  10.073   9.645  1.00  0.00     0.000 C 
BRANCH   8   9
ATOM      9  C   UNL     1       7.220   9.835  10.053  1.00  0.00     0.000 C 
BRANCH   9  10
ATOM     10  C   UNL     1       7.346   9.073  11.384  1.00  0.00     0.000 C 
BRANCH  10  11
ATOM     11  C   UNL     1       7.864   7.633  11.203  1.00  0.00     0.000 C 
BRANCH  11  12
ATOM     12  C   UNL     1       7.023   6.748  10.263  1.00  0.00     0.006 C 
BRANCH  12  13
ATOM     13  C   UNL     1       7.814   5.562   9.694  1.00  0.00     0.053 C 
BRANCH  13  14
ATOM     14  C   UNL     1       9.260   5.673  10.055  1.00  0.00     0.041 C 
ATOM     15  O   UNL     1      10.121   5.888   9.160  1.00  0.00    -0.550 OA
ATOM     16  O   UNL     1       9.660   5.558  11.381  1.00  0.00    -0.550 OA
ENDBRANCH  13  14
ENDBRANCH  12  13
ENDBRANCH  11  12
ENDBRANCH  10  11
ENDBRANCH   9  10
ENDBRANCH   8   9
ENDBRANCH   7   8
ENDBRANCH   6   7
ENDBRANCH   5   6
ENDBRANCH   4   5
ENDBRANCH   3   4
ENDBRANCH   2   3
ENDBRANCH   1   2
BRANCH   1  17
ATOM     17  C   UNL     1       4.085   9.491  15.880  1.00  0.00     0.000 C 
BRANCH  17  18
ATOM     18  C   UNL     1       2.617   9.945  15.809  1.00  0.00     0.000 C 
BRANCH  18  19
ATOM     19  C   UNL     1       1.875   9.749  17.140  1.00  0.00     0.000 C 
BRANCH  19  20
ATOM     20  C   UNL     1       2.779   9.151  18.233  1.00  0.00     0.000 C 
BRANCH  20  21
ATOM     21  C   UNL     1       2.012   8.256  19.225  1.00  0.00     0.000 C 
BRANCH  21  22
ATOM     22  C   UNL     1       2.173   6.741  19.007  1.00  0.00    -0.000 C 
BRANCH  22  23
ATOM     23  C   UNL     1       1.975   6.320  17.543  1.00  0.00    -0.000 C 
BRANCH  23  24
ATOM     24  C   UNL     1       2.736   5.031  17.188  1.00  0.00    -0.000 C 
BRANCH  24  25
ATOM     25  C   UNL     1       4.140   4.943  17.824  1.00  0.00    -0.000 C 
BRANCH  25  26
ATOM     26  C   UNL     1       5.127   5.936  17.187  1.00  0.00    -0.000 C 
BRANCH  26  27
ATOM     27  C   UNL     1       5.015   5.979  15.654  1.00  0.00    -0.000 C 
BRANCH  27  28
ATOM     28  C   UNL     1       6.051   5.081  14.959  1.00  0.00    -0.000 C 
BRANCH  28  29
ATOM     29  C   UNL     1       7.176   5.921  14.342  1.00  0.00    -0.003 C 
ATOM     30  C   UNL     1       8.528   5.224  14.483  1.00  0.00     0.004 C 
ENDBRANCH  28  29
ENDBRANCH  27  28
ENDBRANCH  26  27
ENDBRANCH  25  26
ENDBRANCH  24  25
ENDBRANCH  23  24
ENDBRANCH  22  23
ENDBRANCH  21  22
ENDBRANCH  20  21
ENDBRANCH  19  20
ENDBRANCH  18  19
ENDBRANCH  17  18
ENDBRANCH   1  17
TORSDOF 26
ENDMDL
MODEL 2
REMARK VINA RESULT:    -4.069      2.176      3.869
REMARK INTER + INTRA:         -12.249
REMARK INTER:                  -8.835
REMARK INTRA:                  -3.414
REMARK UNBOUND:                -1.996
REMARK SMILES CCCCCCCCCCCCCCCCCCCCCCCCCCCC(=O)[O-]
REMARK SMILES IDX 15 1 16 2 17 3 18 4 19 5 20 6 21 7 22 8 23 9 24 10 25 11
REMARK SMILES IDX 26 12 27 13 28 14 29 15 30 16 14 17 13 18 12 19 11 20 10 21
REMARK SMILES IDX 9 22 8 23 7 24 6 25 5 26 4 27 3 28 2 29 1 30
REMARK H PARENT
REMARK Flexibility Score: inf
ROOT
ATOM      1  C   UNL     1       3.363   9.950  12.851  1.00  0.00     0.000 C 
ENDROOT
BRANCH   1   2
ATOM      2  C   UNL     1       1.991   9.341  12.526  1.00  0.00     0.000 C 
BRANCH   2   3
ATOM      3  C   UNL     1       2.070   7.810  12.472  1.00  0.00     0.000 C 
BRANCH   3   4
ATOM      4  C   UNL     1       2.552   7.331  11.094  1.00  0.00     0.000 C 
BRANCH   4   5
ATOM      5  C   UNL     1       3.972   6.743  11.133  1.00  0.00     0.000 C 
BRANCH   5   6
ATOM      6  C   UNL     1       4.843   7.220   9.958  1.00  0.00     0.000 C 
BRANCH   6   7
ATOM      7  C   UNL     1       4.339   8.535   9.343  1.00  0.00     0.000 C 
BRANCH   7   8
ATOM      8  C   UNL     1       5.441   9.606   9.245  1.00  0.00     0.000 C 
BRANCH   8   9
ATOM      9  C   UNL     1       6.209   9.782  10.566  1.00  0.00     0.000 C 
BRANCH   9  10
ATOM     10  C   UNL     1       7.618   9.166  10.518  1.00  0.00     0.000 C 
BRANCH  10  11
ATOM     11  C   UNL     1       7.980   8.399  11.804  1.00  0.00     0.000 C 
BRANCH  11  12
ATOM     12  C   UNL     1       8.047   6.867  11.655  1.00  0.00     0.006 C 
BRANCH  12  13
ATOM     13  C   UNL     1       9.392   6.380  11.099  1.00  0.00     0.053 C 
BRANCH  13  14
ATOM     14  C   UNL     1       9.193   5.645   9.812  1.00  0.00     0.041 C 
ATOM     15  O   UNL     1      10.189   5.257   9.144  1.00  0.00    -0.550 OA
ATOM     16  O   UNL     1       7.909   5.372   9.355  1.00  0.00    -0.550 OA
ENDBRANCH  13  14
ENDBRANCH  12  13
ENDBRANCH  11  12
ENDBRANCH  10  11
ENDBRANCH   9  10
ENDBRANCH   8   9
ENDBRANCH   7   8
ENDBRANCH   6   7
ENDBRANCH   5   6
ENDBRANCH   4   5
ENDBRANCH   3   4
ENDBRANCH   2   3
ENDBRANCH   1   2
BRANCH   1  17
ATOM     17  C   UNL     1       4.044   9.275  14.053  1.00  0.00     0.000 C 
BRANCH  17  18
ATOM     18  C   UNL     1       3.181   9.324  15.325  1.00  0.00     0.000 C 
BRANCH  18  19
ATOM     19  C   UNL     1       3.703   8.389  16.427  1.00  0.00     0.000 C 
BRANCH  19  20
ATOM     20  C   UNL     1       5.017   7.693  16.031  1.00  0.00     0.000 C 
BRANCH  20  21
ATOM     21  C   UNL     1       4.817   6.222  15.617  1.00  0.00     0.000 C 
BRANCH  21  22
ATOM     22  C   UNL     1       5.829   5.682  14.591  1.00  0.00    -0.000 C 
BRANCH  22  23
ATOM     23  C   UNL     1       7.282   6.055  14.926  1.00  0.00    -0.000 C 
BRANCH  23  24
ATOM     24  C   UNL     1       8.273   4.920  14.613  1.00  0.00    -0.000 C 
BRANCH  24  25
ATOM     25  C   UNL     1       9.750   5.300  14.855  1.00  0.00    -0.000 C 
BRANCH  25  26
ATOM     26  C   UNL     1      10.486   4.246  15.701  1.00  0.00    -0.000 C 
BRANCH  26  27
ATOM     27  C   UNL     1      11.816   4.768  16.270  1.00  0.00    -0.000 C 
BRANCH  27  28
ATOM     28  C   UNL     1      12.696   3.645  16.841  1.00  0.00    -0.000 C 
BRANCH  28  29
ATOM     29  C   UNL     1      12.078   2.270  16.560  1.00  0.00    -0.003 C 
ATOM     30  C   UNL     1      13.117   1.301  15.997  1.00  0.00     0.004 C 
ENDBRANCH  28  29
ENDBRANCH  27  28
ENDBRANCH  26  27
ENDBRANCH  25  26
ENDBRANCH  24  25
ENDBRANCH  23  24
ENDBRANCH  22  23
ENDBRANCH  21  22
ENDBRANCH  20  21
ENDBRANCH  19  20
ENDBRANCH  18  19
ENDBRANCH  17  18
ENDBRANCH   1  17
TORSDOF 26
ENDMDL
MODEL 3
REMARK VINA RESULT:    -3.993      2.520      6.394
REMARK INTER + INTRA:         -12.058
REMARK INTER:                  -8.241
REMARK INTRA:                  -3.816
REMARK UNBOUND:                -1.996
REMARK SMILES CCCCCCCCCCCCCCCCCCCCCCCCCCCC(=O)[O-]
REMARK SMILES IDX 15 1 16 2 17 3 18 4 19 5 20 6 21 7 22 8 23 9 24 10 25 11
REMARK SMILES IDX 26 12 27 13 28 14 29 15 30 16 14 17 13 18 12 19 11 20 10 21
REMARK SMILES IDX 9 22 8 23 7 24 6 25 5 26 4 27 3 28 2 29 1 30
REMARK H PARENT
REMARK Flexibility Score: inf
ROOT
ATOM      1  C   UNL     1       3.046   8.406  17.465  1.00  0.00     0.000 C 
ENDROOT
BRANCH   1   2
ATOM      2  C   UNL     1       2.054   7.715  16.519  1.00  0.00     0.000 C 
BRANCH   2   3
ATOM      3  C   UNL     1       2.165   6.188  16.628  1.00  0.00     0.000 C 
BRANCH   3   4
ATOM      4  C   UNL     1       3.235   5.785  17.654  1.00  0.00     0.000 C 
BRANCH   4   5
ATOM      5  C   UNL     1       4.361   4.940  17.035  1.00  0.00     0.000 C 
BRANCH   5   6
ATOM      6  C   UNL     1       4.907   5.545  15.731  1.00  0.00     0.000 C 
BRANCH   6   7
ATOM      7  C   UNL     1       6.064   6.528  15.973  1.00  0.00     0.000 C 
BRANCH   7   8
ATOM      8  C   UNL     1       7.136   6.467  14.870  1.00  0.00     0.000 C 
BRANCH   8   9
ATOM      9  C   UNL     1       7.640   5.035  14.618  1.00  0.00     0.000 C 
BRANCH   9  10
ATOM     10  C   UNL     1       9.163   4.974  14.403  1.00  0.00     0.000 C 
BRANCH  10  11
ATOM     11  C   UNL     1       9.949   4.861  15.723  1.00  0.00     0.000 C 
BRANCH  11  12
ATOM     12  C   UNL     1      11.439   4.500  15.569  1.00  0.00     0.006 C 
BRANCH  12  13
ATOM     13  C   UNL     1      12.074   4.014  16.879  1.00  0.00     0.053 C 
BRANCH  13  14
ATOM     14  C   UNL     1      12.281   2.534  16.846  1.00  0.00     0.041 C 
ATOM     15  O   UNL     1      12.796   1.989  15.833  1.00  0.00    -0.550 OA
ATOM     16  O   UNL     1      11.921   1.755  17.939  1.00  0.00    -0.550 OA
ENDBRANCH  13  14
ENDBRANCH  12  13
ENDBRANCH  11  12
ENDBRANCH  10  11
ENDBRANCH   9  10
ENDBRANCH   8   9
ENDBRANCH   7   8
ENDBRANCH   6   7
ENDBRANCH   5   6
ENDBRANCH   4   5
ENDBRANCH   3   4
ENDBRANCH   2   3
ENDBRANCH   1   2
BRANCH   1  17
ATOM     17  C   UNL     1       3.787   9.577  16.800  1.00  0.00     0.000 C 
BRANCH  17  18
ATOM     18  C   UNL     1       3.143  10.004  15.470  1.00  0.00     0.000 C 
BRANCH  18  19
ATOM     19  C   UNL     1       4.098   9.848  14.276  1.00  0.00     0.000 C 
BRANCH  19  20
ATOM     20  C   UNL     1       3.411   9.211  13.055  1.00  0.00     0.000 C 
BRANCH  20  21
ATOM     21  C   UNL     1       3.673   7.698  12.940  1.00  0.00     0.000 C 
BRANCH  21  22
ATOM     22  C   UNL     1       3.509   7.105  11.529  1.00  0.00    -0.000 C 
BRANCH  22  23
ATOM     23  C   UNL     1       3.148   8.160  10.471  1.00  0.00    -0.000 C 
BRANCH  23  24
ATOM     24  C   UNL     1       4.085   8.123   9.252  1.00  0.00    -0.000 C 
BRANCH  24  25
ATOM     25  C   UNL     1       5.543   7.752   9.600  1.00  0.00    -0.000 C 
BRANCH  25  26
ATOM     26  C   UNL     1       6.272   8.894  10.329  1.00  0.00    -0.000 C 
BRANCH  26  27
ATOM     27  C   UNL     1       7.577   8.432  10.997  1.00  0.00    -0.000 C 
BRANCH  27  28
ATOM     28  C   UNL     1       7.677   6.903  11.107  1.00  0.00    -0.000 C 
BRANCH  28  29
ATOM     29  C   UNL     1       9.142   6.449  11.104  1.00  0.00    -0.003 C 
ATOM     30  C   UNL     1       9.390   5.388  10.032  1.00  0.00     0.004 C 
ENDBRANCH  28  29
ENDBRANCH  27  28
ENDBRANCH  26  27
ENDBRANCH  25  26
ENDBRANCH  24  25
ENDBRANCH  23  24
ENDBRANCH  22  23
ENDBRANCH  21  22
ENDBRANCH  20  21
ENDBRANCH  19  20
ENDBRANCH  18  19
ENDBRANCH  17  18
ENDBRANCH   1  17
TORSDOF 26
ENDMDL
MODEL 4
REMARK VINA RESULT:    -3.848      3.879      9.285
REMARK INTER + INTRA:         -11.691
REMARK INTER:                 -10.625
REMARK INTRA:                  -1.066
REMARK UNBOUND:                -1.996
REMARK SMILES CCCCCCCCCCCCCCCCCCCCCCCCCCCC(=O)[O-]
REMARK SMILES IDX 15 1 16 2 17 3 18 4 19 5 20 6 21 7 22 8 23 9 24 10 25 11
REMARK SMILES IDX 26 12 27 13 28 14 29 15 30 16 14 17 13 18 12 19 11 20 10 21
REMARK SMILES IDX 9 22 8 23 7 24 6 25 5 26 4 27 3 28 2 29 1 30
REMARK H PARENT
REMARK Flexibility Score: inf
ROOT
ATOM      1  C   UNL     1       8.819   5.627  12.330  1.00  0.00     0.000 C 
ENDROOT
BRANCH   1   2
ATOM      2  C   UNL     1       8.059   6.699  13.124  1.00  0.00     0.000 C 
BRANCH   2   3
ATOM      3  C   UNL     1       7.109   6.056  14.144  1.00  0.00     0.000 C 
BRANCH   3   4
ATOM      4  C   UNL     1       5.735   6.744  14.128  1.00  0.00     0.000 C 
BRANCH   4   5
ATOM      5  C   UNL     1       4.986   6.603  15.462  1.00  0.00     0.000 C 
BRANCH   5   6
ATOM      6  C   UNL     1       4.730   7.959  16.144  1.00  0.00     0.000 C 
BRANCH   6   7
ATOM      7  C   UNL     1       3.592   7.897  17.175  1.00  0.00     0.000 C 
BRANCH   7   8
ATOM      8  C   UNL     1       2.735   6.626  17.038  1.00  0.00     0.000 C 
BRANCH   8   9
ATOM      9  C   UNL     1       1.937   6.313  18.315  1.00  0.00     0.000 C 
BRANCH   9  10
ATOM     10  C   UNL     1       2.839   6.156  19.552  1.00  0.00     0.000 C 
BRANCH  10  11
ATOM     11  C   UNL     1       2.697   7.323  20.548  1.00  0.00     0.000 C 
BRANCH  11  12
ATOM     12  C   UNL     1       1.886   7.003  21.819  1.00  0.00     0.006 C 
BRANCH  12  13
ATOM     13  C   UNL     1       2.473   7.652  23.080  1.00  0.00     0.053 C 
BRANCH  13  14
ATOM     14  C   UNL     1       3.962   7.512  23.099  1.00  0.00     0.041 C 
ATOM     15  O   UNL     1       4.694   8.537  23.109  1.00  0.00    -0.550 OA
ATOM     16  O   UNL     1       4.543   6.249  23.125  1.00  0.00    -0.550 OA
ENDBRANCH  13  14
ENDBRANCH  12  13
ENDBRANCH  11  12
ENDBRANCH  10  11
ENDBRANCH   9  10
ENDBRANCH   8   9
ENDBRANCH   7   8
ENDBRANCH   6   7
ENDBRANCH   5   6
ENDBRANCH   4   5
ENDBRANCH   3   4
ENDBRANCH   2   3
ENDBRANCH   1   2
BRANCH   1  17
ATOM     17  C   UNL     1       9.357   6.150  10.988  1.00  0.00     0.000 C 
BRANCH  17  18
ATOM     18  C   UNL     1       8.670   7.452  10.544  1.00  0.00     0.000 C 
BRANCH  18  19
ATOM     19  C   UNL     1       8.520   8.460  11.694  1.00  0.00     0.000 C 
BRANCH  19  20
ATOM     20  C   UNL     1       7.728   9.712  11.277  1.00  0.00     0.000 C 
BRANCH  20  21
ATOM     21  C   UNL     1       7.930  10.086   9.797  1.00  0.00     0.000 C 
BRANCH  21  22
ATOM     22  C   UNL     1       6.791   9.669   8.849  1.00  0.00    -0.000 C 
BRANCH  22  23
ATOM     23  C   UNL     1       5.395   9.950   9.426  1.00  0.00    -0.000 C 
BRANCH  23  24
ATOM     24  C   UNL     1       4.430   8.765   9.251  1.00  0.00    -0.000 C 
BRANCH  24  25
ATOM     25  C   UNL     1       5.027   7.408   9.684  1.00  0.00    -0.000 C 
BRANCH  25  26
ATOM     26  C   UNL     1       4.315   6.833  10.921  1.00  0.00    -0.000 C 
BRANCH  26  27
ATOM     27  C   UNL     1       2.785   6.948  10.830  1.00  0.00    -0.000 C 
BRANCH  27  28
ATOM     28  C   UNL     1       2.249   8.241  11.465  1.00  0.00    -0.000 C 
BRANCH  28  29
ATOM     29  C   UNL     1       2.997   8.562  12.764  1.00  0.00    -0.003 C 
ATOM     30  C   UNL     1       3.660   9.937  12.695  1.00  0.00     0.004 C 
ENDBRANCH  28  29
ENDBRANCH  27  28
ENDBRANCH  26  27
ENDBRANCH  25  26
ENDBRANCH  24  25
ENDBRANCH  23  24
ENDBRANCH  22  23
ENDBRANCH  21  22
ENDBRANCH  20  21
ENDBRANCH  19  20
ENDBRANCH  18  19
ENDBRANCH  17  18
ENDBRANCH   1  17
TORSDOF 26
ENDMDL
MODEL 5
REMARK VINA RESULT:    -3.782      1.726      4.514
REMARK INTER + INTRA:         -11.527
REMARK INTER:                  -9.168
REMARK INTRA:                  -2.359
REMARK UNBOUND:                -1.996
REMARK SMILES CCCCCCCCCCCCCCCCCCCCCCCCCCCC(=O)[O-]
REMARK SMILES IDX 15 1 16 2 17 3 18 4 19 5 20 6 21 7 22 8 23 9 24 10 25 11
REMARK SMILES IDX 26 12 27 13 28 14 29 15 30 16 14 17 13 18 12 19 11 20 10 21
REMARK SMILES IDX 9 22 8 23 7 24 6 25 5 26 4 27 3 28 2 29 1 30
REMARK H PARENT
REMARK Flexibility Score: inf
ROOT
ATOM      1  C   UNL     1       4.180   6.568  10.658  1.00  0.00     0.000 C 
ENDROOT
BRANCH   1   2
ATOM      2  C   UNL     1       4.861   7.824  10.098  1.00  0.00     0.000 C 
BRANCH   2   3
ATOM      3  C   UNL     1       5.699   8.522  11.178  1.00  0.00     0.000 C 
BRANCH   3   4
ATOM      4  C   UNL     1       6.113   9.932  10.730  1.00  0.00     0.000 C 
BRANCH   4   5
ATOM      5  C   UNL     1       7.638  10.125  10.714  1.00  0.00     0.000 C 
BRANCH   5   6
ATOM      6  C   UNL     1       8.401   8.848  11.108  1.00  0.00     0.000 C 
BRANCH   6   7
ATOM      7  C   UNL     1       8.773   7.983   9.893  1.00  0.00     0.000 C 
BRANCH   7   8
ATOM      8  C   UNL     1       8.475   6.489  10.116  1.00  0.00     0.000 C 
BRANCH   8   9
ATOM      9  C   UNL     1       9.717   5.703  10.571  1.00  0.00     0.000 C 
BRANCH   9  10
ATOM     10  C   UNL     1       9.490   4.957  11.898  1.00  0.00     0.000 C 
BRANCH  10  11
ATOM     11  C   UNL     1       8.408   5.613  12.776  1.00  0.00     0.000 C 
BRANCH  11  12
ATOM     12  C   UNL     1       8.432   5.203  14.261  1.00  0.00     0.006 C 
BRANCH  12  13
ATOM     13  C   UNL     1       7.498   6.055  15.131  1.00  0.00     0.053 C 
BRANCH  13  14
ATOM     14  C   UNL     1       6.524   6.804  14.278  1.00  0.00     0.041 C 
ATOM     15  O   UNL     1       6.853   7.902  13.756  1.00  0.00    -0.550 OA
ATOM     16  O   UNL     1       5.256   6.282  14.045  1.00  0.00    -0.550 OA
ENDBRANCH  13  14
ENDBRANCH  12  13
ENDBRANCH  11  12
ENDBRANCH  10  11
ENDBRANCH   9  10
ENDBRANCH   8   9
ENDBRANCH   7   8
ENDBRANCH   6   7
ENDBRANCH   5   6
ENDBRANCH   4   5
ENDBRANCH   3   4
ENDBRANCH   2   3
ENDBRANCH   1   2
BRANCH   1  17
ATOM     17  C   UNL     1       2.665   6.748  10.853  1.00  0.00     0.000 C 
BRANCH  17  18
ATOM     18  C   UNL     1       2.253   8.228  10.929  1.00  0.00     0.000 C 
BRANCH  18  19
ATOM     19  C   UNL     1       1.875   8.662  12.354  1.00  0.00     0.000 C 
BRANCH  19  20
ATOM     20  C   UNL     1       3.110   8.918  13.236  1.00  0.00     0.000 C 
BRANCH  20  21
ATOM     21  C   UNL     1       2.774   8.984  14.738  1.00  0.00     0.000 C 
BRANCH  21  22
ATOM     22  C   UNL     1       3.985   9.098  15.681  1.00  0.00    -0.000 C 
BRANCH  22  23
ATOM     23  C   UNL     1       3.585   9.328  17.147  1.00  0.00    -0.000 C 
BRANCH  23  24
ATOM     24  C   UNL     1       2.149   8.867  17.450  1.00  0.00    -0.000 C 
BRANCH  24  25
ATOM     25  C   UNL     1       1.947   8.370  18.898  1.00  0.00    -0.000 C 
BRANCH  25  26
ATOM     26  C   UNL     1       2.240   6.866  19.037  1.00  0.00    -0.000 C 
BRANCH  26  27
ATOM     27  C   UNL     1       1.911   6.078  17.759  1.00  0.00    -0.000 C 
BRANCH  27  28
ATOM     28  C   UNL     1       2.854   4.884  17.540  1.00  0.00    -0.000 C 
BRANCH  28  29
ATOM     29  C   UNL     1       4.144   5.328  16.839  1.00  0.00    -0.003 C 
ATOM     30  C   UNL     1       5.150   5.895  17.839  1.00  0.00     0.004 C 
ENDBRANCH  28  29
ENDBRANCH  27  28
ENDBRANCH  26  27
ENDBRANCH  25  26
ENDBRANCH  24  25
ENDBRANCH  23  24
ENDBRANCH  22  23
ENDBRANCH  21  22
ENDBRANCH  20  21
ENDBRANCH  19  20
ENDBRANCH  18  19
ENDBRANCH  17  18
ENDBRANCH   1  17
TORSDOF 26
ENDMDL
MODEL 6
REMARK VINA RESULT:    -3.575      1.850      5.234
REMARK INTER + INTRA:         -11.005
REMARK INTER:                  -9.396
REMARK INTRA:                  -1.610
REMARK UNBOUND:                -1.996
REMARK SMILES CCCCCCCCCCCCCCCCCCCCCCCCCCCC(=O)[O-]
REMARK SMILES IDX 15 1 16 2 17 3 18 4 19 5 20 6 21 7 22 8 23 9 24 10 25 11
REMARK SMILES IDX 26 12 27 13 28 14 29 15 30 16 14 17 13 18 12 19 11 20 10 21
REMARK SMILES IDX 9 22 8 23 7 24 6 25 5 26 4 27 3 28 2 29 1 30
REMARK H PARENT
REMARK Flexibility Score: inf
ROOT
ATOM      1  C   UNL     1       1.877   8.639  20.756  1.00  0.00     0.000 C 
ENDROOT
BRANCH   1   2
ATOM      2  C   UNL     1       1.963   8.643  19.223  1.00  0.00     0.000 C 
BRANCH   2   3
ATOM      3  C   UNL     1       1.875  10.074  18.674  1.00  0.00     0.000 C 
BRANCH   3   4
ATOM      4  C   UNL     1       2.304  10.125  17.199  1.00  0.00     0.000 C 
BRANCH   4   5
ATOM      5  C   UNL     1       3.728   9.592  16.977  1.00  0.00     0.000 C 
BRANCH   5   6
ATOM      6  C   UNL     1       4.148   9.622  15.497  1.00  0.00     0.000 C 
BRANCH   6   7
ATOM      7  C   UNL     1       3.025   9.162  14.554  1.00  0.00     0.000 C 
BRANCH   7   8
ATOM      8  C   UNL     1       3.455   8.000  13.641  1.00  0.00     0.000 C 
BRANCH   8   9
ATOM      9  C   UNL     1       2.418   7.698  12.545  1.00  0.00     0.000 C 
BRANCH   9  10
ATOM     10  C   UNL     1       3.002   6.861  11.393  1.00  0.00     0.000 C 
BRANCH  10  11
ATOM     11  C   UNL     1       2.708   7.465  10.007  1.00  0.00     0.000 C 
BRANCH  11  12
ATOM     12  C   UNL     1       3.289   8.872   9.769  1.00  0.00     0.006 C 
BRANCH  12  13
ATOM     13  C   UNL     1       4.689   8.841   9.140  1.00  0.00     0.053 C 
BRANCH  13  14
ATOM     14  C   UNL     1       5.685   9.494  10.044  1.00  0.00     0.041 C 
ATOM     15  O   UNL     1       6.908   9.500   9.739  1.00  0.00    -0.550 OA
ATOM     16  O   UNL     1       5.264  10.113  11.215  1.00  0.00    -0.550 OA
ENDBRANCH  13  14
ENDBRANCH  12  13
ENDBRANCH  11  12
ENDBRANCH  10  11
ENDBRANCH   9  10
ENDBRANCH   8   9
ENDBRANCH   7   8
ENDBRANCH   6   7
ENDBRANCH   5   6
ENDBRANCH   4   5
ENDBRANCH   3   4
ENDBRANCH   2   3
ENDBRANCH   1   2
BRANCH   1  17
ATOM     17  C   UNL     1       2.094   7.242  21.360  1.00  0.00     0.000 C 
BRANCH  17  18
ATOM     18  C   UNL     1       2.022   6.124  20.305  1.00  0.00     0.000 C 
BRANCH  18  19
ATOM     19  C   UNL     1       2.754   6.495  19.006  1.00  0.00     0.000 C 
BRANCH  19  20
ATOM     20  C   UNL     1       2.504   5.474  17.881  1.00  0.00     0.000 C 
BRANCH  20  21
ATOM     21  C   UNL     1       3.152   5.882  16.544  1.00  0.00     0.000 C 
BRANCH  21  22
ATOM     22  C   UNL     1       4.639   6.273  16.623  1.00  0.00    -0.000 C 
BRANCH  22  23
ATOM     23  C   UNL     1       5.577   5.178  16.090  1.00  0.00    -0.000 C 
BRANCH  23  24
ATOM     24  C   UNL     1       5.959   5.391  14.616  1.00  0.00    -0.000 C 
BRANCH  24  25
ATOM     25  C   UNL     1       6.643   6.748  14.340  1.00  0.00    -0.000 C 
BRANCH  25  26
ATOM     26  C   UNL     1       6.607   7.120  12.847  1.00  0.00    -0.000 C 
BRANCH  26  27
ATOM     27  C   UNL     1       8.006   7.389  12.271  1.00  0.00    -0.000 C 
BRANCH  27  28
ATOM     28  C   UNL     1       8.825   6.103  12.078  1.00  0.00    -0.000 C 
BRANCH  28  29
ATOM     29  C   UNL     1       8.949   5.752  10.590  1.00  0.00    -0.003 C 
ATOM     30  C   UNL     1       7.720   6.215   9.808  1.00  0.00     0.004 C 
ENDBRANCH  28  29
ENDBRANCH  27  28
ENDBRANCH  26  27
ENDBRANCH  25  26
ENDBRANCH  24  25
ENDBRANCH  23  24
ENDBRANCH  22  23
ENDBRANCH  21  22
ENDBRANCH  20  21
ENDBRANCH  19  20
ENDBRANCH  18  19
ENDBRANCH  17  18
ENDBRANCH   1  17
TORSDOF 26
ENDMDL
MODEL 7
REMARK VINA RESULT:    -3.491      2.575      7.621
REMARK INTER + INTRA:         -10.792
REMARK INTER:                  -9.280
REMARK INTRA:                  -1.512
REMARK UNBOUND:                -1.996
REMARK SMILES CCCCCCCCCCCCCCCCCCCCCCCCCCCC(=O)[O-]
REMARK SMILES IDX 15 1 16 2 17 3 18 4 19 5 20 6 21 7 22 8 23 9 24 10 25 11
REMARK SMILES IDX 26 12 27 13 28 14 29 15 30 16 14 17 13 18 12 19 11 20 10 21
REMARK SMILES IDX 9 22 8 23 7 24 6 25 5 26 4 27 3 28 2 29 1 30
REMARK H PARENT
REMARK Flexibility Score: inf
ROOT
ATOM      1  C   UNL     1       8.032   5.768  13.530  1.00  0.00     0.000 C 
ENDROOT
BRANCH   1   2
ATOM      2  C   UNL     1       7.060   6.027  14.689  1.00  0.00     0.000 C 
BRANCH   2   3
ATOM      3  C   UNL     1       5.640   6.286  14.167  1.00  0.00     0.000 C 
BRANCH   3   4
ATOM      4  C   UNL     1       5.183   7.715  14.499  1.00  0.00     0.000 C 
BRANCH   4   5
ATOM      5  C   UNL     1       3.714   7.970  14.123  1.00  0.00     0.000 C 
BRANCH   5   6
ATOM      6  C   UNL     1       3.383   9.468  14.013  1.00  0.00     0.000 C 
BRANCH   6   7
ATOM      7  C   UNL     1       2.456   9.953  15.139  1.00  0.00     0.000 C 
BRANCH   7   8
ATOM      8  C   UNL     1       3.192  10.125  16.481  1.00  0.00     0.000 C 
BRANCH   8   9
ATOM      9  C   UNL     1       3.079   8.880  17.377  1.00  0.00     0.000 C 
BRANCH   9  10
ATOM     10  C   UNL     1       1.890   8.958  18.351  1.00  0.00     0.000 C 
BRANCH  10  11
ATOM     11  C   UNL     1       2.135   8.180  19.657  1.00  0.00     0.000 C 
BRANCH  11  12
ATOM     12  C   UNL     1       2.552   6.708  19.475  1.00  0.00     0.006 C 
BRANCH  12  13
ATOM     13  C   UNL     1       2.587   6.276  18.003  1.00  0.00     0.053 C 
BRANCH  13  14
ATOM     14  C   UNL     1       3.782   5.418  17.734  1.00  0.00     0.041 C 
ATOM     15  O   UNL     1       3.722   4.500  16.874  1.00  0.00    -0.550 OA
ATOM     16  O   UNL     1       4.970   5.641  18.422  1.00  0.00    -0.550 OA
ENDBRANCH  13  14
ENDBRANCH  12  13
ENDBRANCH  11  12
ENDBRANCH  10  11
ENDBRANCH   9  10
ENDBRANCH   8   9
ENDBRANCH   7   8
ENDBRANCH   6   7
ENDBRANCH   5   6
ENDBRANCH   4   5
ENDBRANCH   3   4
ENDBRANCH   2   3
ENDBRANCH   1   2
BRANCH   1  17
ATOM     17  C   UNL     1       8.780   7.036  13.086  1.00  0.00     0.000 C 
BRANCH  17  18
ATOM     18  C   UNL     1       7.831   8.131  12.570  1.00  0.00     0.000 C 
BRANCH  18  19
ATOM     19  C   UNL     1       8.305   8.743  11.242  1.00  0.00     0.000 C 
BRANCH  19  20
ATOM     20  C   UNL     1       7.620  10.087  10.938  1.00  0.00     0.000 C 
BRANCH  20  21
ATOM     21  C   UNL     1       6.085   9.982  10.886  1.00  0.00     0.000 C 
BRANCH  21  22
ATOM     22  C   UNL     1       5.464  10.074   9.480  1.00  0.00    -0.000 C 
BRANCH  22  23
ATOM     23  C   UNL     1       4.495   8.921   9.174  1.00  0.00    -0.000 C 
BRANCH  23  24
ATOM     24  C   UNL     1       3.992   8.216  10.445  1.00  0.00    -0.000 C 
BRANCH  24  25
ATOM     25  C   UNL     1       4.747   6.909  10.772  1.00  0.00    -0.000 C 
BRANCH  25  26
ATOM     26  C   UNL     1       5.703   6.496   9.639  1.00  0.00    -0.000 C 
BRANCH  26  27
ATOM     27  C   UNL     1       7.163   6.383  10.107  1.00  0.00    -0.000 C 
BRANCH  27  28
ATOM     28  C   UNL     1       7.927   5.254   9.398  1.00  0.00    -0.000 C 
BRANCH  28  29
ATOM     29  C   UNL     1       9.299   5.031  10.046  1.00  0.00    -0.003 C 
ATOM     30  C   UNL     1      10.402   5.746   9.267  1.00  0.00     0.004 C 
ENDBRANCH  28  29
ENDBRANCH  27  28
ENDBRANCH  26  27
ENDBRANCH  25  26
ENDBRANCH  24  25
ENDBRANCH  23  24
ENDBRANCH  22  23
ENDBRANCH  21  22
ENDBRANCH  20  21
ENDBRANCH  19  20
ENDBRANCH  18  19
ENDBRANCH  17  18
ENDBRANCH   1  17
TORSDOF 26
ENDMDL
MODEL 8
REMARK VINA RESULT:    -3.438      4.099      7.373
REMARK INTER + INTRA:         -10.661
REMARK INTER:                  -8.030
REMARK INTRA:                  -2.631
REMARK UNBOUND:                -1.996
REMARK SMILES CCCCCCCCCCCCCCCCCCCCCCCCCCCC(=O)[O-]
REMARK SMILES IDX 15 1 16 2 17 3 18 4 19 5 20 6 21 7 22 8 23 9 24 10 25 11
REMARK SMILES IDX 26 12 27 13 28 14 29 15 30 16 14 17 13 18 12 19 11 20 10 21
REMARK SMILES IDX 9 22 8 23 7 24 6 25 5 26 4 27 3 28 2 29 1 30
REMARK H PARENT
REMARK Flexibility Score: inf
ROOT
ATOM      1  C   UNL     1       8.194   9.085  10.909  1.00  0.00     0.000 C 
ENDROOT
BRANCH   1   2
ATOM      2  C   UNL     1       7.113   9.726  10.027  1.00  0.00     0.000 C 
BRANCH   2   3
ATOM      3  C   UNL     1       5.716   9.503  10.624  1.00  0.00     0.000 C 
BRANCH   3   4
ATOM      4  C   UNL     1       4.833   8.686   9.669  1.00  0.00     0.000 C 
BRANCH   4   5
ATOM      5  C   UNL     1       4.837   7.184   9.995  1.00  0.00     0.000 C 
BRANCH   5   6
ATOM      6  C   UNL     1       3.755   6.797  11.018  1.00  0.00     0.000 C 
BRANCH   6   7
ATOM      7  C   UNL     1       2.736   7.924  11.256  1.00  0.00     0.000 C 
BRANCH   7   8
ATOM      8  C   UNL     1       2.511   8.213  12.751  1.00  0.00     0.000 C 
BRANCH   8   9
ATOM      9  C   UNL     1       3.630   9.076  13.358  1.00  0.00     0.000 C 
BRANCH   9  10
ATOM     10  C   UNL     1       4.181   8.492  14.671  1.00  0.00     0.000 C 
BRANCH  10  11
ATOM     11  C   UNL     1       3.662   9.232  15.919  1.00  0.00     0.000 C 
BRANCH  11  12
ATOM     12  C   UNL     1       2.983   8.339  16.975  1.00  0.00     0.006 C 
BRANCH  12  13
ATOM     13  C   UNL     1       3.123   6.841  16.669  1.00  0.00     0.053 C 
BRANCH  13  14
ATOM     14  C   UNL     1       3.583   6.097  17.881  1.00  0.00     0.041 C 
ATOM     15  O   UNL     1       4.409   5.153  17.769  1.00  0.00    -0.550 OA
ATOM     16  O   UNL     1       3.114   6.456  19.140  1.00  0.00    -0.550 OA
ENDBRANCH  13  14
ENDBRANCH  12  13
ENDBRANCH  11  12
ENDBRANCH  10  11
ENDBRANCH   9  10
ENDBRANCH   8   9
ENDBRANCH   7   8
ENDBRANCH   6   7
ENDBRANCH   5   6
ENDBRANCH   4   5
ENDBRANCH   3   4
ENDBRANCH   2   3
ENDBRANCH   1   2
BRANCH   1  17
ATOM     17  C   UNL     1       8.339   7.573  10.670  1.00  0.00     0.000 C 
BRANCH  17  18
ATOM     18  C   UNL     1       8.368   6.769  11.981  1.00  0.00     0.000 C 
BRANCH  18  19
ATOM     19  C   UNL     1       7.101   6.974  12.825  1.00  0.00     0.000 C 
BRANCH  19  20
ATOM     20  C   UNL     1       7.281   6.501  14.278  1.00  0.00     0.000 C 
BRANCH  20  21
ATOM     21  C   UNL     1       8.174   5.251  14.398  1.00  0.00     0.000 C 
BRANCH  21  22
ATOM     22  C   UNL     1       9.162   5.256  15.578  1.00  0.00    -0.000 C 
BRANCH  22  23
ATOM     23  C   UNL     1      10.525   4.642  15.222  1.00  0.00    -0.000 C 
BRANCH  23  24
ATOM     24  C   UNL     1      11.539   4.740  16.375  1.00  0.00    -0.000 C 
BRANCH  24  25
ATOM     25  C   UNL     1      12.619   3.636  16.349  1.00  0.00    -0.000 C 
BRANCH  25  26
ATOM     26  C   UNL     1      12.049   2.262  16.741  1.00  0.00    -0.000 C 
BRANCH  26  27
ATOM     27  C   UNL     1      12.872   1.095  16.171  1.00  0.00    -0.000 C 
BRANCH  27  28
ATOM     28  C   UNL     1      14.235   1.545  15.622  1.00  0.00    -0.000 C 
BRANCH  28  29
ATOM     29  C   UNL     1      15.278   0.429  15.768  1.00  0.00    -0.003 C 
ATOM     30  C   UNL     1      16.698   0.987  15.697  1.00  0.00     0.004 C 
ENDBRANCH  28  29
ENDBRANCH  27  28
ENDBRANCH  26  27
ENDBRANCH  25  26
ENDBRANCH  24  25
ENDBRANCH  23  24
ENDBRANCH  22  23
ENDBRANCH  21  22
ENDBRANCH  20  21
ENDBRANCH  19  20
ENDBRANCH  18  19
ENDBRANCH  17  18
ENDBRANCH   1  17
TORSDOF 26
ENDMDL
