MODEL 1
REMARK VINA RESULT:    -5.017      0.000      0.000
REMARK INTER + INTRA:          -6.133
REMARK INTER:                  -6.044
REMARK INTRA:                  -0.089
REMARK UNBOUND:                -0.089
REMARK SMILES OCCc1ccc(O)c(O)c1
REMARK SMILES IDX 3 1 4 2 5 3 6 4 7 5 11 6 9 7 8 8 10 10 2 12 1 13
REMARK H PARENT 8 9 10 11 1 14
REMARK Flexibility Score: inf
ROOT
ATOM      1  C   UNL     1      27.220  22.573  48.773  1.00  0.00     0.064 C 
ENDROOT
BRANCH   1   2
ATOM      2  C   UNL     1      26.943  22.770  50.241  1.00  0.00    -0.042 A 
ATOM      3  C   UNL     1      26.467  21.704  51.022  1.00  0.00     0.008 A 
ATOM      4  C   UNL     1      26.239  21.881  52.390  1.00  0.00     0.050 A 
ATOM      5  C   UNL     1      26.490  23.121  52.993  1.00  0.00     0.157 A 
ATOM      6  C   UNL     1      27.205  24.007  50.850  1.00  0.00     0.054 A 
ATOM      7  C   UNL     1      26.976  24.185  52.223  1.00  0.00     0.157 A 
BRANCH   5   8
ATOM      8  O   UNL     1      26.263  23.301  54.356  1.00  0.00    -0.504 OA
ATOM      9  H   UNL     1      26.068  22.517  54.969  1.00  0.00     0.293 HD
ENDBRANCH   5   8
BRANCH   7  10
ATOM     10  O   UNL     1      27.229  25.415  52.827  1.00  0.00    -0.504 OA
ATOM     11  H   UNL     1      27.298  26.268  52.284  1.00  0.00     0.293 HD
ENDBRANCH   7  10
ENDBRANCH   1   2
BRANCH   1  12
ATOM     12  C   UNL     1      27.660  23.878  48.111  1.00  0.00     0.161 C 
BRANCH  12  13
ATOM     13  O   UNL     1      26.741  24.248  47.119  1.00  0.00    -0.396 OA
ATOM     14  H   UNL     1      26.268  23.415  46.859  1.00  0.00     0.210 HD
ENDBRANCH  12  13
ENDBRANCH   1  12
TORSDOF 5
ENDMDL
MODEL 2
REMARK VINA RESULT:    -5.012      1.313      1.716
REMARK INTER + INTRA:          -6.127
REMARK INTER:                  -6.070
REMARK INTRA:                  -0.057
REMARK UNBOUND:                -0.089
REMARK SMILES OCCc1ccc(O)c(O)c1
REMARK SMILES IDX 3 1 4 2 5 3 6 4 7 5 11 6 9 7 8 8 10 10 2 12 1 13
REMARK H PARENT 8 9 10 11 1 14
REMARK Flexibility Score: inf
ROOT
ATOM      1  C   UNL     1      27.880  24.104  47.766  1.00  0.00     0.064 C 
ENDROOT
BRANCH   1   2
ATOM      2  C   UNL     1      27.282  23.549  49.032  1.00  0.00    -0.042 A 
ATOM      3  C   UNL     1      26.950  22.187  49.123  1.00  0.00     0.008 A 
ATOM      4  C   UNL     1      26.423  21.668  50.308  1.00  0.00     0.050 A 
ATOM      5  C   UNL     1      26.227  22.501  51.418  1.00  0.00     0.157 A 
ATOM      6  C   UNL     1      27.095  24.378  50.149  1.00  0.00     0.054 A 
ATOM      7  C   UNL     1      26.566  23.858  51.340  1.00  0.00     0.157 A 
BRANCH   5   8
ATOM      8  O   UNL     1      25.700  21.988  52.602  1.00  0.00    -0.504 OA
ATOM      9  H   UNL     1      24.739  22.161  52.872  1.00  0.00     0.293 HD
ENDBRANCH   5   8
BRANCH   7  10
ATOM     10  O   UNL     1      26.375  24.683  52.447  1.00  0.00    -0.504 OA
ATOM     11  H   UNL     1      27.148  24.964  53.038  1.00  0.00     0.293 HD
ENDBRANCH   7  10
ENDBRANCH   1   2
BRANCH   1  12
ATOM     12  C   UNL     1      26.986  23.823  46.559  1.00  0.00     0.161 C 
BRANCH  12  13
ATOM     13  O   UNL     1      27.660  24.149  45.374  1.00  0.00    -0.396 OA
ATOM     14  H   UNL     1      27.648  23.327  44.817  1.00  0.00     0.210 HD
ENDBRANCH  12  13
ENDBRANCH   1  12
TORSDOF 5
ENDMDL
MODEL 3
REMARK VINA RESULT:    -4.839      2.349      3.022
REMARK INTER + INTRA:          -5.918
REMARK INTER:                  -5.851
REMARK INTRA:                  -0.067
REMARK UNBOUND:                -0.089
REMARK SMILES OCCc1ccc(O)c(O)c1
REMARK SMILES IDX 3 1 4 2 5 3 6 4 7 5 11 6 9 7 8 8 10 10 2 12 1 13
REMARK H PARENT 8 9 10 11 1 14
REMARK Flexibility Score: inf
ROOT
ATOM      1  C   UNL     1      29.157  23.840  48.015  1.00  0.00     0.064 C 
ENDROOT
BRANCH   1   2
ATOM      2  C   UNL     1      28.344  23.944  49.278  1.00  0.00    -0.042 A 
ATOM      3  C   UNL     1      28.737  24.818  50.305  1.00  0.00     0.008 A 
ATOM      4  C   UNL     1      27.965  24.934  51.465  1.00  0.00     0.050 A 
ATOM      5  C   UNL     1      26.789  24.185  51.608  1.00  0.00     0.157 A 
ATOM      6  C   UNL     1      27.160  23.204  49.421  1.00  0.00     0.054 A 
ATOM      7  C   UNL     1      26.385  23.320  50.584  1.00  0.00     0.157 A 
BRANCH   5   8
ATOM      8  O   UNL     1      26.018  24.298  52.764  1.00  0.00    -0.504 OA
ATOM      9  H   UNL     1      26.423  24.591  53.645  1.00  0.00     0.293 HD
ENDBRANCH   5   8
BRANCH   7  10
ATOM     10  O   UNL     1      25.212  22.580  50.727  1.00  0.00    -0.504 OA
ATOM     11  H   UNL     1      25.027  21.763  50.157  1.00  0.00     0.293 HD
ENDBRANCH   7  10
ENDBRANCH   1   2
BRANCH   1  12
ATOM     12  C   UNL     1      30.464  23.084  48.255  1.00  0.00     0.161 C 
BRANCH  12  13
ATOM     13  O   UNL     1      31.533  23.772  47.665  1.00  0.00    -0.396 OA
ATOM     14  H   UNL     1      31.153  24.615  47.307  1.00  0.00     0.210 HD
ENDBRANCH  12  13
ENDBRANCH   1  12
TORSDOF 5
ENDMDL
MODEL 4
REMARK VINA RESULT:    -4.802      1.194      2.222
REMARK INTER + INTRA:          -5.874
REMARK INTER:                  -5.810
REMARK INTRA:                  -0.064
REMARK UNBOUND:                -0.089
REMARK SMILES OCCc1ccc(O)c(O)c1
REMARK SMILES IDX 3 1 4 2 5 3 6 4 7 5 11 6 9 7 8 8 10 10 2 12 1 13
REMARK H PARENT 8 9 10 11 1 14
REMARK Flexibility Score: inf
ROOT
ATOM      1  C   UNL     1      27.269  22.744  47.963  1.00  0.00     0.064 C 
ENDROOT
BRANCH   1   2
ATOM      2  C   UNL     1      27.309  23.295  49.364  1.00  0.00    -0.042 A 
ATOM      3  C   UNL     1      28.069  24.440  49.655  1.00  0.00     0.008 A 
ATOM      4  C   UNL     1      28.082  24.967  50.950  1.00  0.00     0.050 A 
ATOM      5  C   UNL     1      27.331  24.361  51.966  1.00  0.00     0.157 A 
ATOM      6  C   UNL     1      26.549  22.698  50.382  1.00  0.00     0.054 A 
ATOM      7  C   UNL     1      26.562  23.226  51.682  1.00  0.00     0.157 A 
BRANCH   5   8
ATOM      8  O   UNL     1      27.342  24.883  53.258  1.00  0.00    -0.504 OA
ATOM      9  H   UNL     1      26.802  24.461  54.005  1.00  0.00     0.293 HD
ENDBRANCH   5   8
BRANCH   7  10
ATOM     10  O   UNL     1      25.812  22.628  52.693  1.00  0.00    -0.504 OA
ATOM     11  H   UNL     1      25.717  23.057  53.607  1.00  0.00     0.293 HD
ENDBRANCH   7  10
ENDBRANCH   1   2
BRANCH   1  12
ATOM     12  C   UNL     1      27.297  23.864  46.924  1.00  0.00     0.161 C 
BRANCH  12  13
ATOM     13  O   UNL     1      26.514  23.513  45.816  1.00  0.00    -0.396 OA
ATOM     14  H   UNL     1      27.093  22.954  45.236  1.00  0.00     0.210 HD
ENDBRANCH  12  13
ENDBRANCH   1  12
TORSDOF 5
ENDMDL
MODEL 5
REMARK VINA RESULT:    -4.673     12.642     14.041
REMARK INTER + INTRA:          -5.718
REMARK INTER:                  -5.659
REMARK INTRA:                  -0.059
REMARK UNBOUND:                -0.089
REMARK SMILES OCCc1ccc(O)c(O)c1
REMARK SMILES IDX 3 1 4 2 5 3 6 4 7 5 11 6 9 7 8 8 10 10 2 12 1 13
REMARK H PARENT 8 9 10 11 1 14
REMARK Flexibility Score: inf
ROOT
ATOM      1  C   UNL     1      18.899  25.611  40.284  1.00  0.00     0.064 C 
ENDROOT
BRANCH   1   2
ATOM      2  C   UNL     1      19.319  24.335  39.602  1.00  0.00    -0.042 A 
ATOM      3  C   UNL     1      18.931  24.076  38.278  1.00  0.00     0.008 A 
ATOM      4  C   UNL     1      19.346  22.905  37.638  1.00  0.00     0.050 A 
ATOM      5  C   UNL     1      20.159  21.983  38.311  1.00  0.00     0.157 A 
ATOM      6  C   UNL     1      20.142  23.415  40.270  1.00  0.00     0.054 A 
ATOM      7  C   UNL     1      20.559  22.238  39.629  1.00  0.00     0.157 A 
BRANCH   5   8
ATOM      8  O   UNL     1      20.573  20.813  37.677  1.00  0.00    -0.504 OA
ATOM      9  H   UNL     1      21.394  20.305  37.987  1.00  0.00     0.293 HD
ENDBRANCH   5   8
BRANCH   7  10
ATOM     10  O   UNL     1      21.372  21.322  40.294  1.00  0.00    -0.504 OA
ATOM     11  H   UNL     1      22.251  21.009  39.900  1.00  0.00     0.293 HD
ENDBRANCH   7  10
ENDBRANCH   1   2
BRANCH   1  12
ATOM     12  C   UNL     1      20.107  26.375  40.826  1.00  0.00     0.161 C 
BRANCH  12  13
ATOM     13  O   UNL     1      19.683  27.398  41.685  1.00  0.00    -0.396 OA
ATOM     14  H   UNL     1      20.304  28.158  41.534  1.00  0.00     0.210 HD
ENDBRANCH  12  13
ENDBRANCH   1  12
TORSDOF 5
ENDMDL
MODEL 6
REMARK VINA RESULT:    -4.567      3.164      4.762
REMARK INTER + INTRA:          -5.591
REMARK INTER:                  -5.486
REMARK INTRA:                  -0.105
REMARK UNBOUND:                -0.089
REMARK SMILES OCCc1ccc(O)c(O)c1
REMARK SMILES IDX 3 1 4 2 5 3 6 4 7 5 11 6 9 7 8 8 10 10 2 12 1 13
REMARK H PARENT 8 9 10 11 1 14
REMARK Flexibility Score: inf
ROOT
ATOM      1  C   UNL     1      27.683  24.877  51.208  1.00  0.00     0.064 C 
ENDROOT
BRANCH   1   2
ATOM      2  C   UNL     1      28.596  24.006  50.386  1.00  0.00    -0.042 A 
ATOM      3  C   UNL     1      28.738  24.228  49.007  1.00  0.00     0.008 A 
ATOM      4  C   UNL     1      29.608  23.437  48.251  1.00  0.00     0.050 A 
ATOM      5  C   UNL     1      30.351  22.420  48.866  1.00  0.00     0.157 A 
ATOM      6  C   UNL     1      29.350  22.994  51.001  1.00  0.00     0.054 A 
ATOM      7  C   UNL     1      30.224  22.199  50.243  1.00  0.00     0.157 A 
BRANCH   5   8
ATOM      8  O   UNL     1      31.219  21.628  48.116  1.00  0.00    -0.504 OA
ATOM      9  H   UNL     1      31.910  21.033  48.559  1.00  0.00     0.293 HD
ENDBRANCH   5   8
BRANCH   7  10
ATOM     10  O   UNL     1      30.967  21.190  50.853  1.00  0.00    -0.504 OA
ATOM     11  H   UNL     1      30.627  20.237  50.904  1.00  0.00     0.293 HD
ENDBRANCH   7  10
ENDBRANCH   1   2
BRANCH   1  12
ATOM     12  C   UNL     1      26.487  24.086  51.737  1.00  0.00     0.161 C 
BRANCH  12  13
ATOM     13  O   UNL     1      25.664  23.689  50.675  1.00  0.00    -0.396 OA
ATOM     14  H   UNL     1      24.785  24.123  50.831  1.00  0.00     0.210 HD
ENDBRANCH  12  13
ENDBRANCH   1  12
TORSDOF 5
ENDMDL
MODEL 7
REMARK VINA RESULT:    -4.539     11.415     12.212
REMARK INTER + INTRA:          -5.557
REMARK INTER:                  -5.445
REMARK INTRA:                  -0.111
REMARK UNBOUND:                -0.089
REMARK SMILES OCCc1ccc(O)c(O)c1
REMARK SMILES IDX 3 1 4 2 5 3 6 4 7 5 11 6 9 7 8 8 10 10 2 12 1 13
REMARK H PARENT 8 9 10 11 1 14
REMARK Flexibility Score: inf
ROOT
ATOM      1  C   UNL     1      19.859  24.678  39.246  1.00  0.00     0.064 C 
ENDROOT
BRANCH   1   2
ATOM      2  C   UNL     1      19.926  25.576  40.454  1.00  0.00    -0.042 A 
ATOM      3  C   UNL     1      18.962  25.473  41.470  1.00  0.00     0.008 A 
ATOM      4  C   UNL     1      19.043  26.286  42.603  1.00  0.00     0.050 A 
ATOM      5  C   UNL     1      20.091  27.207  42.738  1.00  0.00     0.157 A 
ATOM      6  C   UNL     1      20.981  26.491  40.597  1.00  0.00     0.054 A 
ATOM      7  C   UNL     1      21.063  27.308  41.735  1.00  0.00     0.157 A 
BRANCH   5   8
ATOM      8  O   UNL     1      20.175  28.020  43.866  1.00  0.00    -0.504 OA
ATOM      9  H   UNL     1      20.384  27.638  44.782  1.00  0.00     0.293 HD
ENDBRANCH   5   8
BRANCH   7  10
ATOM     10  O   UNL     1      22.107  28.221  41.874  1.00  0.00    -0.504 OA
ATOM     11  H   UNL     1      22.058  28.986  42.537  1.00  0.00     0.293 HD
ENDBRANCH   7  10
ENDBRANCH   1   2
BRANCH   1  12
ATOM     12  C   UNL     1      19.719  23.211  39.651  1.00  0.00     0.161 C 
BRANCH  12  13
ATOM     13  O   UNL     1      20.894  22.770  40.273  1.00  0.00    -0.396 OA
ATOM     14  H   UNL     1      21.523  23.538  40.250  1.00  0.00     0.210 HD
ENDBRANCH  12  13
ENDBRANCH   1  12
TORSDOF 5
ENDMDL
MODEL 8
REMARK VINA RESULT:    -4.442      3.223      3.871
REMARK INTER + INTRA:          -5.440
REMARK INTER:                  -5.367
REMARK INTRA:                  -0.074
REMARK UNBOUND:                -0.089
REMARK SMILES OCCc1ccc(O)c(O)c1
REMARK SMILES IDX 3 1 4 2 5 3 6 4 7 5 11 6 9 7 8 8 10 10 2 12 1 13
REMARK H PARENT 8 9 10 11 1 14
REMARK Flexibility Score: inf
ROOT
ATOM      1  C   UNL     1      30.185  21.295  52.779  1.00  0.00     0.064 C 
ENDROOT
BRANCH   1   2
ATOM      2  C   UNL     1      29.013  22.053  52.212  1.00  0.00    -0.042 A 
ATOM      3  C   UNL     1      28.238  21.495  51.182  1.00  0.00     0.008 A 
ATOM      4  C   UNL     1      27.133  22.187  50.678  1.00  0.00     0.050 A 
ATOM      5  C   UNL     1      26.786  23.440  51.201  1.00  0.00     0.157 A 
ATOM      6  C   UNL     1      28.656  23.303  52.741  1.00  0.00     0.054 A 
ATOM      7  C   UNL     1      27.547  23.998  52.236  1.00  0.00     0.157 A 
BRANCH   5   8
ATOM      8  O   UNL     1      25.686  24.133  50.700  1.00  0.00    -0.504 OA
ATOM      9  H   UNL     1      25.770  25.085  50.359  1.00  0.00     0.293 HD
ENDBRANCH   5   8
BRANCH   7  10
ATOM     10  O   UNL     1      27.196  25.242  52.758  1.00  0.00    -0.504 OA
ATOM     11  H   UNL     1      26.854  25.989  52.164  1.00  0.00     0.293 HD
ENDBRANCH   7  10
ENDBRANCH   1   2
BRANCH   1  12
ATOM     12  C   UNL     1      31.330  21.208  51.771  1.00  0.00     0.161 C 
BRANCH  12  13
ATOM     13  O   UNL     1      31.733  19.874  51.615  1.00  0.00    -0.396 OA
ATOM     14  H   UNL     1      31.448  19.403  52.440  1.00  0.00     0.210 HD
ENDBRANCH  12  13
ENDBRANCH   1  12
TORSDOF 5
ENDMDL
MODEL 9
REMARK VINA RESULT:    -4.406     12.774     14.468
REMARK INTER + INTRA:          -5.397
REMARK INTER:                  -5.345
REMARK INTRA:                  -0.052
REMARK UNBOUND:                -0.089
REMARK SMILES OCCc1ccc(O)c(O)c1
REMARK SMILES IDX 3 1 4 2 5 3 6 4 7 5 11 6 9 7 8 8 10 10 2 12 1 13
REMARK H PARENT 8 9 10 11 1 14
REMARK Flexibility Score: inf
ROOT
ATOM      1  C   UNL     1      18.980  25.249  40.774  1.00  0.00     0.064 C 
ENDROOT
BRANCH   1   2
ATOM      2  C   UNL     1      19.410  24.105  39.894  1.00  0.00    -0.042 A 
ATOM      3  C   UNL     1      20.164  23.046  40.425  1.00  0.00     0.008 A 
ATOM      4  C   UNL     1      20.537  21.971  39.613  1.00  0.00     0.050 A 
ATOM      5  C   UNL     1      20.154  21.937  38.266  1.00  0.00     0.157 A 
ATOM      6  C   UNL     1      19.018  24.062  38.547  1.00  0.00     0.054 A 
ATOM      7  C   UNL     1      19.391  22.983  37.731  1.00  0.00     0.157 A 
BRANCH   5   8
ATOM      8  O   UNL     1      20.524  20.867  37.453  1.00  0.00    -0.504 OA
ATOM      9  H   UNL     1      21.146  20.992  36.662  1.00  0.00     0.293 HD
ENDBRANCH   5   8
BRANCH   7  10
ATOM     10  O   UNL     1      19.008  22.945  36.392  1.00  0.00    -0.504 OA
ATOM     11  H   UNL     1      19.691  22.938  35.645  1.00  0.00     0.293 HD
ENDBRANCH   7  10
ENDBRANCH   1   2
BRANCH   1  12
ATOM     12  C   UNL     1      19.549  26.578  40.275  1.00  0.00     0.161 C 
BRANCH  12  13
ATOM     13  O   UNL     1      19.377  27.571  41.249  1.00  0.00    -0.396 OA
ATOM     14  H   UNL     1      18.771  27.183  41.933  1.00  0.00     0.210 HD
ENDBRANCH  12  13
ENDBRANCH   1  12
TORSDOF 5
ENDMDL
