MODEL 1
REMARK VINA RESULT:    -5.907      0.000      0.000
REMARK INTER + INTRA:          -9.964
REMARK INTER:                  -7.807
REMARK INTRA:                  -2.157
REMARK UNBOUND:                -2.157
REMARK SMILES CC[C@@H](C=C[C@H](C)[C@@H]1CC[C@H]2C3=CC[C@H]4C[C@@H](O)CC[C@]4(C)[C@H]3CC[C@]21C)C(C)C
REMARK SMILES IDX 6 1 7 2 5 3 4 4 3 5 2 6 1 7 28 8 29 9 30 10 8 11 9 12 26 13
REMARK SMILES IDX 10 14 11 15 25 16 27 17 12 18 24 19 23 20 13 21 21 22 14 23
REMARK SMILES IDX 15 24 20 25 22 26 16 27 19 28 17 29 18 30
REMARK H PARENT 18 31
REMARK Flexibility Score: inf
ROOT
ATOM      1  C   UNL     1     146.818 135.454 149.643  1.00  0.00     0.012 C 
ATOM      2  C   UNL     1     147.148 134.578 150.869  1.00  0.00     0.012 C 
ENDROOT
BRANCH   1   3
ATOM      3  C   UNL     1     147.917 135.404 148.593  1.00  0.00    -0.028 C 
ATOM      4  C   UNL     1     148.522 136.469 148.027  1.00  0.00    -0.027 C 
BRANCH   4   5
ATOM      5  C   UNL     1     148.232 137.932 148.324  1.00  0.00     0.014 C 
BRANCH   5   6
ATOM      6  C   UNL     1     147.939 138.687 147.005  1.00  0.00     0.004 C 
ATOM      7  C   UNL     1     148.241 137.830 145.773  1.00  0.00     0.004 C 
ENDBRANCH   5   6
BRANCH   5   8
ATOM      8  C   UNL     1     149.409 138.550 149.141  1.00  0.00    -0.011 C 
ATOM      9  C   UNL     1     150.682 137.687 149.146  1.00  0.00     0.008 C 
ATOM     10  C   UNL     1     149.740 139.978 148.679  1.00  0.00     0.008 C 
ENDBRANCH   5   8
ENDBRANCH   4   5
ENDBRANCH   1   3
BRANCH   1  11
ATOM     11  C   UNL     1     145.385 135.241 149.021  1.00  0.00     0.002 C 
ATOM     12  C   UNL     1     145.498 134.661 147.597  1.00  0.00     0.005 C 
ATOM     13  C   UNL     1     144.380 136.440 148.842  1.00  0.00    -0.023 C 
ATOM     14  C   UNL     1     145.232 135.806 146.618  1.00  0.00     0.009 C 
ATOM     15  C   UNL     1     144.770 137.007 147.454  1.00  0.00     0.021 C 
ATOM     16  C   UNL     1     142.896 135.880 148.876  1.00  0.00     0.008 C 
ATOM     17  C   UNL     1     144.482 137.553 149.917  1.00  0.00     0.012 C 
ATOM     18  C   UNL     1     143.686 137.806 146.746  1.00  0.00    -0.067 C 
ATOM     19  C   UNL     1     142.044 136.164 147.632  1.00  0.00     0.009 C 
ATOM     20  C   UNL     1     142.228 137.609 147.139  1.00  0.00     0.021 C 
ATOM     21  C   UNL     1     144.053 138.710 145.811  1.00  0.00    -0.027 C 
ATOM     22  C   UNL     1     141.234 138.028 145.995  1.00  0.00    -0.023 C 
ATOM     23  C   UNL     1     143.074 139.489 144.970  1.00  0.00     0.031 C 
ATOM     24  C   UNL     1     141.651 139.469 145.551  1.00  0.00     0.002 C 
ATOM     25  C   UNL     1     139.776 138.087 146.548  1.00  0.00     0.010 C 
ATOM     26  C   UNL     1     141.301 137.012 144.816  1.00  0.00     0.012 C 
ATOM     27  C   UNL     1     140.650 140.123 144.577  1.00  0.00     0.036 C 
ATOM     28  C   UNL     1     138.787 138.741 145.570  1.00  0.00     0.032 C 
ATOM     29  C   UNL     1     139.236 140.153 145.177  1.00  0.00     0.114 C 
BRANCH  29  30
ATOM     30  O   UNL     1     138.330 140.677 144.242  1.00  0.00    -0.393 OA
ATOM     31  H   UNL     1     137.419 140.448 144.567  1.00  0.00     0.210 HD
ENDBRANCH  29  30
ENDBRANCH   1  11
TORSDOF 6
ENDMDL
MODEL 2
REMARK VINA RESULT:    -5.876      3.114      8.329
REMARK INTER + INTRA:          -9.923
REMARK INTER:                  -8.448
REMARK INTRA:                  -1.475
REMARK UNBOUND:                -2.157
REMARK SMILES CC[C@@H](C=C[C@H](C)[C@@H]1CC[C@H]2C3=CC[C@H]4C[C@@H](O)CC[C@]4(C)[C@H]3CC[C@]21C)C(C)C
REMARK SMILES IDX 6 1 7 2 5 3 4 4 3 5 2 6 1 7 28 8 29 9 30 10 8 11 9 12 26 13
REMARK SMILES IDX 10 14 11 15 25 16 27 17 12 18 24 19 23 20 13 21 21 22 14 23
REMARK SMILES IDX 15 24 20 25 22 26 16 27 19 28 17 29 18 30
REMARK H PARENT 18 31
REMARK Flexibility Score: inf
ROOT
ATOM      1  C   UNL     1     140.108 139.347 144.811  1.00  0.00     0.012 C 
ATOM      2  C   UNL     1     139.455 139.627 143.441  1.00  0.00     0.012 C 
ENDROOT
BRANCH   1   3
ATOM      3  C   UNL     1     139.086 139.323 145.936  1.00  0.00    -0.028 C 
ATOM      4  C   UNL     1     138.835 140.329 146.801  1.00  0.00    -0.027 C 
BRANCH   4   5
ATOM      5  C   UNL     1     139.518 141.687 146.825  1.00  0.00     0.014 C 
BRANCH   5   6
ATOM      6  C   UNL     1     140.193 141.910 148.200  1.00  0.00     0.004 C 
ATOM      7  C   UNL     1     140.608 143.369 148.406  1.00  0.00     0.004 C 
ENDBRANCH   5   6
BRANCH   5   8
ATOM      8  C   UNL     1     138.493 142.802 146.451  1.00  0.00    -0.011 C 
ATOM      9  C   UNL     1     138.132 142.836 144.956  1.00  0.00     0.008 C 
ATOM     10  C   UNL     1     137.217 142.717 147.302  1.00  0.00     0.008 C 
ENDBRANCH   5   8
ENDBRANCH   4   5
ENDBRANCH   1   3
BRANCH   1  11
ATOM     11  C   UNL     1     141.081 138.108 144.860  1.00  0.00     0.002 C 
ATOM     12  C   UNL     1     140.493 136.996 145.751  1.00  0.00     0.005 C 
ATOM     13  C   UNL     1     142.560 138.244 145.383  1.00  0.00    -0.023 C 
ATOM     14  C   UNL     1     141.245 137.037 147.083  1.00  0.00     0.009 C 
ATOM     15  C   UNL     1     142.401 138.030 146.910  1.00  0.00     0.021 C 
ATOM     16  C   UNL     1     143.456 137.125 144.703  1.00  0.00     0.008 C 
ATOM     17  C   UNL     1     143.236 139.613 145.107  1.00  0.00     0.012 C 
ATOM     18  C   UNL     1     143.655 137.572 147.639  1.00  0.00    -0.067 C 
ATOM     19  C   UNL     1     144.164 136.159 145.660  1.00  0.00     0.009 C 
ATOM     20  C   UNL     1     144.778 136.901 146.860  1.00  0.00     0.021 C 
ATOM     21  C   UNL     1     143.759 137.817 148.965  1.00  0.00    -0.027 C 
ATOM     22  C   UNL     1     145.691 136.003 147.771  1.00  0.00    -0.023 C 
ATOM     23  C   UNL     1     144.900 137.326 149.819  1.00  0.00     0.031 C 
ATOM     24  C   UNL     1     146.117 136.892 148.985  1.00  0.00     0.002 C 
ATOM     25  C   UNL     1     146.977 135.585 146.993  1.00  0.00     0.010 C 
ATOM     26  C   UNL     1     144.921 134.726 148.224  1.00  0.00     0.012 C 
ATOM     27  C   UNL     1     147.189 136.236 149.879  1.00  0.00     0.036 C 
ATOM     28  C   UNL     1     148.040 134.932 147.892  1.00  0.00     0.032 C 
ATOM     29  C   UNL     1     148.429 135.849 149.057  1.00  0.00     0.114 C 
BRANCH  29  30
ATOM     30  O   UNL     1     149.355 135.182 149.874  1.00  0.00    -0.393 OA
ATOM     31  H   UNL     1     148.863 134.895 150.689  1.00  0.00     0.210 HD
ENDBRANCH  29  30
ENDBRANCH   1  11
TORSDOF 6
ENDMDL
MODEL 3
REMARK VINA RESULT:    -5.847      3.046      6.401
REMARK INTER + INTRA:          -9.884
REMARK INTER:                  -7.519
REMARK INTRA:                  -2.365
REMARK UNBOUND:                -2.157
REMARK SMILES CC[C@@H](C=C[C@H](C)[C@@H]1CC[C@H]2C3=CC[C@H]4C[C@@H](O)CC[C@]4(C)[C@H]3CC[C@]21C)C(C)C
REMARK SMILES IDX 6 1 7 2 5 3 4 4 3 5 2 6 1 7 28 8 29 9 30 10 8 11 9 12 26 13
REMARK SMILES IDX 10 14 11 15 25 16 27 17 12 18 24 19 23 20 13 21 21 22 14 23
REMARK SMILES IDX 15 24 20 25 22 26 16 27 19 28 17 29 18 30
REMARK H PARENT 18 31
REMARK Flexibility Score: inf
ROOT
ATOM      1  C   UNL     1     144.368 134.923 150.298  1.00  0.00     0.012 C 
ATOM      2  C   UNL     1     144.723 134.361 151.690  1.00  0.00     0.012 C 
ENDROOT
BRANCH   1   3
ATOM      3  C   UNL     1     142.887 135.247 150.174  1.00  0.00    -0.028 C 
ATOM      4  C   UNL     1     142.065 134.833 149.186  1.00  0.00    -0.027 C 
BRANCH   4   5
ATOM      5  C   UNL     1     142.448 133.961 148.002  1.00  0.00     0.014 C 
BRANCH   5   6
ATOM      6  C   UNL     1     141.891 134.575 146.695  1.00  0.00     0.004 C 
ATOM      7  C   UNL     1     141.172 135.902 146.946  1.00  0.00     0.004 C 
ENDBRANCH   5   6
BRANCH   5   8
ATOM      8  C   UNL     1     141.973 132.495 148.248  1.00  0.00    -0.011 C 
ATOM      9  C   UNL     1     142.985 131.637 149.027  1.00  0.00     0.008 C 
ATOM     10  C   UNL     1     140.599 132.445 148.934  1.00  0.00     0.008 C 
ENDBRANCH   5   8
ENDBRANCH   4   5
ENDBRANCH   1   3
BRANCH   1  11
ATOM     11  C   UNL     1     145.283 136.100 149.785  1.00  0.00     0.002 C 
ATOM     12  C   UNL     1     144.500 137.428 149.782  1.00  0.00     0.005 C 
ATOM     13  C   UNL     1     145.941 136.067 148.355  1.00  0.00    -0.023 C 
ATOM     14  C   UNL     1     144.119 137.727 148.331  1.00  0.00     0.009 C 
ATOM     15  C   UNL     1     144.840 136.690 147.460  1.00  0.00     0.021 C 
ATOM     16  C   UNL     1     147.270 136.933 148.377  1.00  0.00     0.008 C 
ATOM     17  C   UNL     1     146.315 134.655 147.832  1.00  0.00     0.012 C 
ATOM     18  C   UNL     1     145.327 137.290 146.149  1.00  0.00    -0.067 C 
ATOM     19  C   UNL     1     147.325 138.101 147.383  1.00  0.00     0.009 C 
ATOM     20  C   UNL     1     146.788 137.693 146.001  1.00  0.00     0.021 C 
ATOM     21  C   UNL     1     144.450 137.410 145.127  1.00  0.00    -0.027 C 
ATOM     22  C   UNL     1     147.005 138.777 144.883  1.00  0.00    -0.023 C 
ATOM     23  C   UNL     1     144.780 138.079 143.817  1.00  0.00     0.031 C 
ATOM     24  C   UNL     1     146.294 138.236 143.599  1.00  0.00     0.002 C 
ATOM     25  C   UNL     1     148.526 138.931 144.575  1.00  0.00     0.010 C 
ATOM     26  C   UNL     1     146.426 140.150 145.336  1.00  0.00     0.012 C 
ATOM     27  C   UNL     1     146.583 139.078 142.339  1.00  0.00     0.036 C 
ATOM     28  C   UNL     1     148.804 139.770 143.317  1.00  0.00     0.032 C 
ATOM     29  C   UNL     1     148.095 139.191 142.088  1.00  0.00     0.114 C 
BRANCH  29  30
ATOM     30  O   UNL     1     148.336 140.027 140.986  1.00  0.00    -0.393 OA
ATOM     31  H   UNL     1     147.896 140.896 141.185  1.00  0.00     0.210 HD
ENDBRANCH  29  30
ENDBRANCH   1  11
TORSDOF 6
ENDMDL
MODEL 4
REMARK VINA RESULT:    -5.659      5.047      8.491
REMARK INTER + INTRA:          -9.635
REMARK INTER:                  -7.708
REMARK INTRA:                  -1.928
REMARK UNBOUND:                -2.157
REMARK SMILES CC[C@@H](C=C[C@H](C)[C@@H]1CC[C@H]2C3=CC[C@H]4C[C@@H](O)CC[C@]4(C)[C@H]3CC[C@]21C)C(C)C
REMARK SMILES IDX 6 1 7 2 5 3 4 4 3 5 2 6 1 7 28 8 29 9 30 10 8 11 9 12 26 13
REMARK SMILES IDX 10 14 11 15 25 16 27 17 12 18 24 19 23 20 13 21 21 22 14 23
REMARK SMILES IDX 15 24 20 25 22 26 16 27 19 28 17 29 18 30
REMARK H PARENT 18 31
REMARK Flexibility Score: inf
ROOT
ATOM      1  C   UNL     1     147.075 140.728 140.474  1.00  0.00     0.012 C 
ATOM      2  C   UNL     1     145.909 141.120 139.544  1.00  0.00     0.012 C 
ENDROOT
BRANCH   1   3
ATOM      3  C   UNL     1     148.368 141.436 140.100  1.00  0.00    -0.028 C 
ATOM      4  C   UNL     1     149.538 140.840 139.793  1.00  0.00    -0.027 C 
BRANCH   4   5
ATOM      5  C   UNL     1     149.804 139.343 139.755  1.00  0.00     0.014 C 
BRANCH   5   6
ATOM      6  C   UNL     1     150.931 138.985 140.754  1.00  0.00     0.004 C 
ATOM      7  C   UNL     1     151.728 140.217 141.187  1.00  0.00     0.004 C 
ENDBRANCH   5   6
BRANCH   5   8
ATOM      8  C   UNL     1     150.109 138.896 138.291  1.00  0.00    -0.011 C 
ATOM      9  C   UNL     1     150.764 139.990 137.432  1.00  0.00     0.008 C 
ATOM     10  C   UNL     1     150.955 137.613 138.249  1.00  0.00     0.008 C 
ENDBRANCH   5   8
ENDBRANCH   4   5
ENDBRANCH   1   3
BRANCH   1  11
ATOM     11  C   UNL     1     146.771 140.812 142.019  1.00  0.00     0.002 C 
ATOM     12  C   UNL     1     147.955 141.459 142.766  1.00  0.00     0.005 C 
ATOM     13  C   UNL     1     146.470 139.522 142.869  1.00  0.00    -0.023 C 
ATOM     14  C   UNL     1     148.721 140.333 143.461  1.00  0.00     0.009 C 
ATOM     15  C   UNL     1     147.887 139.057 143.293  1.00  0.00     0.021 C 
ATOM     16  C   UNL     1     145.564 139.919 144.110  1.00  0.00     0.008 C 
ATOM     17  C   UNL     1     145.743 138.383 142.108  1.00  0.00     0.012 C 
ATOM     18  C   UNL     1     147.941 138.177 144.533  1.00  0.00    -0.067 C 
ATOM     19  C   UNL     1     146.143 139.598 145.493  1.00  0.00     0.009 C 
ATOM     20  C   UNL     1     146.787 138.201 145.526  1.00  0.00     0.021 C 
ATOM     21  C   UNL     1     149.002 137.356 144.699  1.00  0.00    -0.027 C 
ATOM     22  C   UNL     1     147.216 137.727 146.962  1.00  0.00    -0.023 C 
ATOM     23  C   UNL     1     149.223 136.513 145.929  1.00  0.00     0.031 C 
ATOM     24  C   UNL     1     147.949 136.357 146.775  1.00  0.00     0.002 C 
ATOM     25  C   UNL     1     145.954 137.491 147.848  1.00  0.00     0.010 C 
ATOM     26  C   UNL     1     148.132 138.791 147.637  1.00  0.00     0.012 C 
ATOM     27  C   UNL     1     148.258 135.641 148.106  1.00  0.00     0.036 C 
ATOM     28  C   UNL     1     146.271 136.776 149.171  1.00  0.00     0.032 C 
ATOM     29  C   UNL     1     146.977 135.437 148.930  1.00  0.00     0.114 C 
BRANCH  29  30
ATOM     30  O   UNL     1     147.294 134.858 150.169  1.00  0.00    -0.393 OA
ATOM     31  H   UNL     1     146.522 135.032 150.771  1.00  0.00     0.210 HD
ENDBRANCH  29  30
ENDBRANCH   1  11
TORSDOF 6
ENDMDL
MODEL 5
REMARK VINA RESULT:    -5.601      1.442      1.896
REMARK INTER + INTRA:          -9.560
REMARK INTER:                  -7.663
REMARK INTRA:                  -1.896
REMARK UNBOUND:                -2.157
REMARK SMILES CC[C@@H](C=C[C@H](C)[C@@H]1CC[C@H]2C3=CC[C@H]4C[C@@H](O)CC[C@]4(C)[C@H]3CC[C@]21C)C(C)C
REMARK SMILES IDX 6 1 7 2 5 3 4 4 3 5 2 6 1 7 28 8 29 9 30 10 8 11 9 12 26 13
REMARK SMILES IDX 10 14 11 15 25 16 27 17 12 18 24 19 23 20 13 21 21 22 14 23
REMARK SMILES IDX 15 24 20 25 22 26 16 27 19 28 17 29 18 30
REMARK H PARENT 18 31
REMARK Flexibility Score: inf
ROOT
ATOM      1  C   UNL     1     147.038 135.101 150.331  1.00  0.00     0.012 C 
ATOM      2  C   UNL     1     147.440 134.578 151.726  1.00  0.00     0.012 C 
ENDROOT
BRANCH   1   3
ATOM      3  C   UNL     1     148.203 135.079 149.355  1.00  0.00    -0.028 C 
ATOM      4  C   UNL     1     148.664 136.131 148.646  1.00  0.00    -0.027 C 
BRANCH   4   5
ATOM      5  C   UNL     1     148.117 137.549 148.681  1.00  0.00     0.014 C 
BRANCH   5   6
ATOM      6  C   UNL     1     147.610 137.950 147.275  1.00  0.00     0.004 C 
ATOM      7  C   UNL     1     148.210 137.071 146.175  1.00  0.00     0.004 C 
ENDBRANCH   5   6
BRANCH   5   8
ATOM      8  C   UNL     1     149.198 138.521 149.249  1.00  0.00    -0.011 C 
ATOM      9  C   UNL     1     150.516 137.826 149.633  1.00  0.00     0.008 C 
ATOM     10  C   UNL     1     149.476 139.691 148.292  1.00  0.00     0.008 C 
ENDBRANCH   5   8
ENDBRANCH   4   5
ENDBRANCH   1   3
BRANCH   1  11
ATOM     11  C   UNL     1     145.731 134.467 149.718  1.00  0.00     0.002 C 
ATOM     12  C   UNL     1     145.958 134.089 148.241  1.00  0.00     0.005 C 
ATOM     13  C   UNL     1     144.372 135.261 149.681  1.00  0.00    -0.023 C 
ATOM     14  C   UNL     1     145.270 135.156 147.388  1.00  0.00     0.009 C 
ATOM     15  C   UNL     1     144.474 136.047 148.349  1.00  0.00     0.021 C 
ATOM     16  C   UNL     1     143.168 134.228 149.686  1.00  0.00     0.008 C 
ATOM     17  C   UNL     1     144.147 136.242 150.861  1.00  0.00     0.012 C 
ATOM     18  C   UNL     1     143.147 136.487 147.747  1.00  0.00    -0.067 C 
ATOM     19  C   UNL     1     142.207 134.312 148.494  1.00  0.00     0.009 C 
ATOM     20  C   UNL     1     141.864 135.770 148.146  1.00  0.00     0.021 C 
ATOM     21  C   UNL     1     143.138 137.541 146.901  1.00  0.00    -0.027 C 
ATOM     22  C   UNL     1     140.728 135.923 147.069  1.00  0.00    -0.023 C 
ATOM     23  C   UNL     1     141.910 138.009 146.162  1.00  0.00     0.031 C 
ATOM     24  C   UNL     1     140.610 137.453 146.765  1.00  0.00     0.002 C 
ATOM     25  C   UNL     1     139.368 135.432 147.653  1.00  0.00     0.010 C 
ATOM     26  C   UNL     1     141.073 135.099 145.793  1.00  0.00     0.012 C 
ATOM     27  C   UNL     1     139.397 137.809 145.881  1.00  0.00     0.036 C 
ATOM     28  C   UNL     1     138.166 135.792 146.766  1.00  0.00     0.032 C 
ATOM     29  C   UNL     1     138.090 137.301 146.509  1.00  0.00     0.114 C 
BRANCH  29  30
ATOM     30  O   UNL     1     137.013 137.565 145.649  1.00  0.00    -0.393 OA
ATOM     31  H   UNL     1     136.649 138.452 145.910  1.00  0.00     0.210 HD
ENDBRANCH  29  30
ENDBRANCH   1  11
TORSDOF 6
ENDMDL
MODEL 6
REMARK VINA RESULT:    -5.562      2.875      5.692
REMARK INTER + INTRA:          -9.507
REMARK INTER:                  -7.494
REMARK INTRA:                  -2.013
REMARK UNBOUND:                -2.157
REMARK SMILES CC[C@@H](C=C[C@H](C)[C@@H]1CC[C@H]2C3=CC[C@H]4C[C@@H](O)CC[C@]4(C)[C@H]3CC[C@]21C)C(C)C
REMARK SMILES IDX 6 1 7 2 5 3 4 4 3 5 2 6 1 7 28 8 29 9 30 10 8 11 9 12 26 13
REMARK SMILES IDX 10 14 11 15 25 16 27 17 12 18 24 19 23 20 13 21 21 22 14 23
REMARK SMILES IDX 15 24 20 25 22 26 16 27 19 28 17 29 18 30
REMARK H PARENT 18 31
REMARK Flexibility Score: inf
ROOT
ATOM      1  C   UNL     1     146.181 134.790 150.771  1.00  0.00     0.012 C 
ATOM      2  C   UNL     1     147.363 134.311 151.639  1.00  0.00     0.012 C 
ENDROOT
BRANCH   1   3
ATOM      3  C   UNL     1     144.903 134.943 151.582  1.00  0.00    -0.028 C 
ATOM      4  C   UNL     1     143.811 134.154 151.497  1.00  0.00    -0.027 C 
BRANCH   4   5
ATOM      5  C   UNL     1     143.637 132.954 150.581  1.00  0.00     0.014 C 
BRANCH   5   6
ATOM      6  C   UNL     1     142.791 133.354 149.347  1.00  0.00     0.004 C 
ATOM      7  C   UNL     1     143.492 133.002 148.033  1.00  0.00     0.004 C 
ENDBRANCH   5   6
BRANCH   5   8
ATOM      8  C   UNL     1     143.034 131.758 151.383  1.00  0.00    -0.011 C 
ATOM      9  C   UNL     1     141.936 130.994 150.623  1.00  0.00     0.008 C 
ATOM     10  C   UNL     1     144.121 130.785 151.864  1.00  0.00     0.008 C 
ENDBRANCH   5   8
ENDBRANCH   4   5
ENDBRANCH   1   3
BRANCH   1  11
ATOM     11  C   UNL     1     146.468 136.047 149.863  1.00  0.00     0.002 C 
ATOM     12  C   UNL     1     145.455 137.170 150.162  1.00  0.00     0.005 C 
ATOM     13  C   UNL     1     146.444 135.948 148.292  1.00  0.00    -0.023 C 
ATOM     14  C   UNL     1     144.435 137.175 149.023  1.00  0.00     0.009 C 
ATOM     15  C   UNL     1     144.951 136.197 147.960  1.00  0.00     0.021 C 
ATOM     16  C   UNL     1     147.396 137.065 147.689  1.00  0.00     0.008 C 
ATOM     17  C   UNL     1     146.898 134.585 147.708  1.00  0.00     0.012 C 
ATOM     18  C   UNL     1     144.670 136.694 146.549  1.00  0.00    -0.067 C 
ATOM     19  C   UNL     1     146.733 138.067 146.734  1.00  0.00     0.009 C 
ATOM     20  C   UNL     1     145.780 137.365 145.752  1.00  0.00     0.021 C 
ATOM     21  C   UNL     1     143.444 136.484 146.020  1.00  0.00    -0.027 C 
ATOM     22  C   UNL     1     145.226 138.301 144.616  1.00  0.00    -0.023 C 
ATOM     23  C   UNL     1     143.010 137.015 144.678  1.00  0.00     0.031 C 
ATOM     24  C   UNL     1     144.197 137.449 143.803  1.00  0.00     0.002 C 
ATOM     25  C   UNL     1     146.383 138.722 143.657  1.00  0.00     0.010 C 
ATOM     26  C   UNL     1     144.573 139.575 145.231  1.00  0.00     0.012 C 
ATOM     27  C   UNL     1     143.706 138.146 142.517  1.00  0.00     0.036 C 
ATOM     28  C   UNL     1     145.883 139.414 142.379  1.00  0.00     0.032 C 
ATOM     29  C   UNL     1     144.888 138.533 141.616  1.00  0.00     0.114 C 
BRANCH  29  30
ATOM     30  O   UNL     1     144.423 139.237 140.493  1.00  0.00    -0.393 OA
ATOM     31  H   UNL     1     144.700 140.183 140.614  1.00  0.00     0.210 HD
ENDBRANCH  29  30
ENDBRANCH   1  11
TORSDOF 6
ENDMDL
MODEL 7
REMARK VINA RESULT:    -5.535      3.985      7.144
REMARK INTER + INTRA:          -9.472
REMARK INTER:                  -7.509
REMARK INTRA:                  -1.963
REMARK UNBOUND:                -2.157
REMARK SMILES CC[C@@H](C=C[C@H](C)[C@@H]1CC[C@H]2C3=CC[C@H]4C[C@@H](O)CC[C@]4(C)[C@H]3CC[C@]21C)C(C)C
REMARK SMILES IDX 6 1 7 2 5 3 4 4 3 5 2 6 1 7 28 8 29 9 30 10 8 11 9 12 26 13
REMARK SMILES IDX 10 14 11 15 25 16 27 17 12 18 24 19 23 20 13 21 21 22 14 23
REMARK SMILES IDX 15 24 20 25 22 26 16 27 19 28 17 29 18 30
REMARK H PARENT 18 31
REMARK Flexibility Score: inf
ROOT
ATOM      1  C   UNL     1     147.648 140.313 142.274  1.00  0.00     0.012 C 
ATOM      2  C   UNL     1     146.860 140.786 141.036  1.00  0.00     0.012 C 
ENDROOT
BRANCH   1   3
ATOM      3  C   UNL     1     148.943 141.089 142.458  1.00  0.00    -0.028 C 
ATOM      4  C   UNL     1     150.190 140.591 142.331  1.00  0.00    -0.027 C 
BRANCH   4   5
ATOM      5  C   UNL     1     150.557 139.159 141.976  1.00  0.00     0.014 C 
BRANCH   5   6
ATOM      6  C   UNL     1     151.358 138.520 143.136  1.00  0.00     0.004 C 
ATOM      7  C   UNL     1     150.638 137.309 143.733  1.00  0.00     0.004 C 
ENDBRANCH   5   6
BRANCH   5   8
ATOM      8  C   UNL     1     151.312 139.128 140.611  1.00  0.00    -0.011 C 
ATOM      9  C   UNL     1     152.440 138.084 140.551  1.00  0.00     0.008 C 
ATOM     10  C   UNL     1     150.351 138.936 139.428  1.00  0.00     0.008 C 
ENDBRANCH   5   8
ENDBRANCH   4   5
ENDBRANCH   1   3
BRANCH   1  11
ATOM     11  C   UNL     1     146.817 140.208 143.610  1.00  0.00     0.002 C 
ATOM     12  C   UNL     1     147.636 140.753 144.797  1.00  0.00     0.005 C 
ATOM     13  C   UNL     1     146.288 138.824 144.143  1.00  0.00    -0.023 C 
ATOM     14  C   UNL     1     148.153 139.547 145.583  1.00  0.00     0.009 C 
ATOM     15  C   UNL     1     147.482 138.304 144.983  1.00  0.00     0.021 C 
ATOM     16  C   UNL     1     144.988 139.070 145.019  1.00  0.00     0.008 C 
ATOM     17  C   UNL     1     145.921 137.791 143.046  1.00  0.00     0.012 C 
ATOM     18  C   UNL     1     147.132 137.278 146.050  1.00  0.00    -0.067 C 
ATOM     19  C   UNL     1     145.056 138.578 146.471  1.00  0.00     0.009 C 
ATOM     20  C   UNL     1     145.702 137.185 146.566  1.00  0.00     0.021 C 
ATOM     21  C   UNL     1     148.099 136.438 146.483  1.00  0.00    -0.027 C 
ATOM     22  C   UNL     1     145.618 136.535 147.995  1.00  0.00    -0.023 C 
ATOM     23  C   UNL     1     147.906 135.449 147.605  1.00  0.00     0.031 C 
ATOM     24  C   UNL     1     146.423 135.197 147.921  1.00  0.00     0.002 C 
ATOM     25  C   UNL     1     144.135 136.198 148.343  1.00  0.00     0.010 C 
ATOM     26  C   UNL     1     146.195 137.505 149.070  1.00  0.00     0.012 C 
ATOM     27  C   UNL     1     146.272 134.321 149.182  1.00  0.00     0.036 C 
ATOM     28  C   UNL     1     143.995 135.324 149.600  1.00  0.00     0.032 C 
ATOM     29  C   UNL     1     144.793 134.022 149.470  1.00  0.00     0.114 C 
BRANCH  29  30
ATOM     30  O   UNL     1     144.676 133.294 150.664  1.00  0.00    -0.393 OA
ATOM     31  H   UNL     1     144.526 133.957 151.390  1.00  0.00     0.210 HD
ENDBRANCH  29  30
ENDBRANCH   1  11
TORSDOF 6
ENDMDL
MODEL 8
REMARK VINA RESULT:    -5.356      5.586      9.240
REMARK INTER + INTRA:          -9.235
REMARK INTER:                  -6.910
REMARK INTRA:                  -2.326
REMARK UNBOUND:                -2.157
REMARK SMILES CC[C@@H](C=C[C@H](C)[C@@H]1CC[C@H]2C3=CC[C@H]4C[C@@H](O)CC[C@]4(C)[C@H]3CC[C@]21C)C(C)C
REMARK SMILES IDX 6 1 7 2 5 3 4 4 3 5 2 6 1 7 28 8 29 9 30 10 8 11 9 12 26 13
REMARK SMILES IDX 10 14 11 15 25 16 27 17 12 18 24 19 23 20 13 21 21 22 14 23
REMARK SMILES IDX 15 24 20 25 22 26 16 27 19 28 17 29 18 30
REMARK H PARENT 18 31
REMARK Flexibility Score: inf
ROOT
ATOM      1  C   UNL     1     149.563 138.230 146.976  1.00  0.00     0.012 C 
ATOM      2  C   UNL     1     150.059 137.812 148.376  1.00  0.00     0.012 C 
ENDROOT
BRANCH   1   3
ATOM      3  C   UNL     1     148.417 139.226 147.050  1.00  0.00    -0.028 C 
ATOM      4  C   UNL     1     147.215 139.097 146.451  1.00  0.00    -0.027 C 
BRANCH   4   5
ATOM      5  C   UNL     1     146.760 137.933 145.586  1.00  0.00     0.014 C 
BRANCH   5   6
ATOM      6  C   UNL     1     146.269 138.458 144.214  1.00  0.00     0.004 C 
ATOM      7  C   UNL     1     146.221 139.987 144.169  1.00  0.00     0.004 C 
ENDBRANCH   5   6
BRANCH   5   8
ATOM      8  C   UNL     1     145.686 137.094 146.346  1.00  0.00    -0.011 C 
ATOM      9  C   UNL     1     146.251 136.292 147.530  1.00  0.00     0.008 C 
ATOM     10  C   UNL     1     144.505 137.961 146.811  1.00  0.00     0.008 C 
ENDBRANCH   5   8
ENDBRANCH   4   5
ENDBRANCH   1   3
BRANCH   1  11
ATOM     11  C   UNL     1     150.685 138.681 145.964  1.00  0.00     0.002 C 
ATOM     12  C   UNL     1     150.698 140.217 145.825  1.00  0.00     0.005 C 
ATOM     13  C   UNL     1     150.691 138.185 144.469  1.00  0.00    -0.023 C 
ATOM     14  C   UNL     1     150.026 140.558 144.494  1.00  0.00     0.009 C 
ATOM     15  C   UNL     1     149.795 139.231 143.760  1.00  0.00     0.021 C 
ATOM     16  C   UNL     1     152.183 138.194 143.927  1.00  0.00     0.008 C 
ATOM     17  C   UNL     1     150.124 136.759 144.244  1.00  0.00     0.012 C 
ATOM     18  C   UNL     1     150.013 139.368 142.260  1.00  0.00    -0.067 C 
ATOM     19  C   UNL     1     152.441 139.065 142.691  1.00  0.00     0.009 C 
ATOM     20  C   UNL     1     151.326 138.904 141.644  1.00  0.00     0.021 C 
ATOM     21  C   UNL     1     149.008 139.861 141.502  1.00  0.00    -0.027 C 
ATOM     22  C   UNL     1     151.629 139.607 140.271  1.00  0.00    -0.023 C 
ATOM     23  C   UNL     1     149.134 140.141 140.026  1.00  0.00     0.031 C 
ATOM     24  C   UNL     1     150.345 139.437 139.393  1.00  0.00     0.002 C 
ATOM     25  C   UNL     1     152.814 138.890 139.552  1.00  0.00     0.010 C 
ATOM     26  C   UNL     1     151.989 141.106 140.494  1.00  0.00     0.012 C 
ATOM     27  C   UNL     1     150.540 139.887 137.930  1.00  0.00     0.036 C 
ATOM     28  C   UNL     1     152.999 139.344 138.096  1.00  0.00     0.032 C 
ATOM     29  C   UNL     1     151.717 139.145 137.279  1.00  0.00     0.114 C 
BRANCH  29  30
ATOM     30  O   UNL     1     151.925 139.629 135.978  1.00  0.00    -0.393 OA
ATOM     31  H   UNL     1     151.031 139.867 135.615  1.00  0.00     0.210 HD
ENDBRANCH  29  30
ENDBRANCH   1  11
TORSDOF 6
ENDMDL
MODEL 9
REMARK VINA RESULT:    -5.288      8.809     11.630
REMARK INTER + INTRA:          -9.145
REMARK INTER:                  -7.348
REMARK INTRA:                  -1.798
REMARK UNBOUND:                -2.157
REMARK SMILES CC[C@@H](C=C[C@H](C)[C@@H]1CC[C@H]2C3=CC[C@H]4C[C@@H](O)CC[C@]4(C)[C@H]3CC[C@]21C)C(C)C
REMARK SMILES IDX 6 1 7 2 5 3 4 4 3 5 2 6 1 7 28 8 29 9 30 10 8 11 9 12 26 13
REMARK SMILES IDX 10 14 11 15 25 16 27 17 12 18 24 19 23 20 13 21 21 22 14 23
REMARK SMILES IDX 15 24 20 25 22 26 16 27 19 28 17 29 18 30
REMARK H PARENT 18 31
REMARK Flexibility Score: inf
ROOT
ATOM      1  C   UNL     1     152.222 137.315 141.091  1.00  0.00     0.012 C 
ATOM      2  C   UNL     1     152.780 135.877 141.080  1.00  0.00     0.012 C 
ENDROOT
BRANCH   1   3
ATOM      3  C   UNL     1     152.493 138.023 142.409  1.00  0.00    -0.028 C 
ATOM      4  C   UNL     1     151.561 138.453 143.285  1.00  0.00    -0.027 C 
BRANCH   4   5
ATOM      5  C   UNL     1     150.054 138.315 143.135  1.00  0.00     0.014 C 
BRANCH   5   6
ATOM      6  C   UNL     1     149.440 139.678 142.733  1.00  0.00     0.004 C 
ATOM      7  C   UNL     1     150.259 140.856 143.265  1.00  0.00     0.004 C 
ENDBRANCH   5   6
BRANCH   5   8
ATOM      8  C   UNL     1     149.443 137.724 144.444  1.00  0.00    -0.011 C 
ATOM      9  C   UNL     1     150.223 138.097 145.716  1.00  0.00     0.008 C 
ATOM     10  C   UNL     1     147.961 138.097 144.603  1.00  0.00     0.008 C 
ENDBRANCH   5   8
ENDBRANCH   4   5
ENDBRANCH   1   3
BRANCH   1  11
ATOM     11  C   UNL     1     152.604 138.202 139.845  1.00  0.00     0.002 C 
ATOM     12  C   UNL     1     152.757 139.679 140.262  1.00  0.00     0.005 C 
ATOM     13  C   UNL     1     151.676 138.281 138.576  1.00  0.00    -0.023 C 
ATOM     14  C   UNL     1     151.498 140.414 139.800  1.00  0.00     0.009 C 
ATOM     15  C   UNL     1     150.697 139.426 138.942  1.00  0.00     0.021 C 
ATOM     16  C   UNL     1     152.563 138.623 137.305  1.00  0.00     0.008 C 
ATOM     17  C   UNL     1     150.883 136.987 138.255  1.00  0.00     0.012 C 
ATOM     18  C   UNL     1     150.026 140.114 137.762  1.00  0.00    -0.067 C 
ATOM     19  C   UNL     1     152.183 139.900 136.546  1.00  0.00     0.009 C 
ATOM     20  C   UNL     1     150.659 140.027 136.380  1.00  0.00     0.021 C 
ATOM     21  C   UNL     1     148.853 140.753 137.966  1.00  0.00    -0.027 C 
ATOM     22  C   UNL     1     150.212 141.202 135.436  1.00  0.00    -0.023 C 
ATOM     23  C   UNL     1     148.142 141.556 136.907  1.00  0.00     0.031 C 
ATOM     24  C   UNL     1     148.649 141.243 135.490  1.00  0.00     0.002 C 
ATOM     25  C   UNL     1     150.646 140.905 133.967  1.00  0.00     0.010 C 
ATOM     26  C   UNL     1     150.847 142.546 135.903  1.00  0.00     0.012 C 
ATOM     27  C   UNL     1     148.026 142.206 134.458  1.00  0.00     0.036 C 
ATOM     28  C   UNL     1     150.019 141.869 132.947  1.00  0.00     0.032 C 
ATOM     29  C   UNL     1     148.489 141.861 133.034  1.00  0.00     0.114 C 
BRANCH  29  30
ATOM     30  O   UNL     1     147.975 142.798 132.124  1.00  0.00    -0.393 OA
ATOM     31  H   UNL     1     146.991 142.821 132.262  1.00  0.00     0.210 HD
ENDBRANCH  29  30
ENDBRANCH   1  11
TORSDOF 6
ENDMDL
