MODEL 1
REMARK VINA RESULT:    -3.102      0.000      0.000
REMARK INTER + INTRA:          -3.726
REMARK INTER:                  -3.646
REMARK INTRA:                  -0.080
REMARK UNBOUND:                -0.080
REMARK SMILES CCCCC(=O)[O-]
REMARK SMILES IDX 4 1 5 2 6 3 7 4 3 5 2 6 1 7
REMARK H PARENT
REMARK Flexibility Score: inf
ROOT
ATOM      1  C   UNL     1     -17.107  42.531  -4.961  1.00  0.00     0.053 C 
ENDROOT
BRANCH   1   2
ATOM      2  C   UNL     1     -17.011  43.405  -6.172  1.00  0.00     0.041 C 
ATOM      3  O   UNL     1     -18.054  43.752  -6.788  1.00  0.00    -0.550 OA
ATOM      4  O   UNL     1     -15.769  43.811  -6.643  1.00  0.00    -0.550 OA
ENDBRANCH   1   2
BRANCH   1   5
ATOM      5  C   UNL     1     -17.288  43.349  -3.673  1.00  0.00     0.006 C 
BRANCH   5   6
ATOM      6  C   UNL     1     -18.756  43.611  -3.293  1.00  0.00    -0.003 C 
ATOM      7  C   UNL     1     -19.581  42.328  -3.190  1.00  0.00     0.004 C 
ENDBRANCH   5   6
ENDBRANCH   1   5
TORSDOF 3
ENDMDL
MODEL 2
REMARK VINA RESULT:    -3.004      0.707      1.495
REMARK INTER + INTRA:          -3.611
REMARK INTER:                  -3.563
REMARK INTRA:                  -0.048
REMARK UNBOUND:                -0.080
REMARK SMILES CCCCC(=O)[O-]
REMARK SMILES IDX 4 1 5 2 6 3 7 4 3 5 2 6 1 7
REMARK H PARENT
REMARK Flexibility Score: inf
ROOT
ATOM      1  C   UNL     1     -16.354  43.344  -5.309  1.00  0.00     0.053 C 
ENDROOT
BRANCH   1   2
ATOM      2  C   UNL     1     -16.579  43.745  -6.734  1.00  0.00     0.041 C 
ATOM      3  O   UNL     1     -15.603  44.064  -7.465  1.00  0.00    -0.550 OA
ATOM      4  O   UNL     1     -17.869  43.801  -7.248  1.00  0.00    -0.550 OA
ENDBRANCH   1   2
BRANCH   1   5
ATOM      5  C   UNL     1     -17.530  42.531  -4.747  1.00  0.00     0.006 C 
BRANCH   5   6
ATOM      6  C   UNL     1     -18.354  43.271  -3.678  1.00  0.00    -0.003 C 
ATOM      7  C   UNL     1     -19.448  42.399  -3.063  1.00  0.00     0.004 C 
ENDBRANCH   5   6
ENDBRANCH   1   5
TORSDOF 3
ENDMDL
MODEL 3
REMARK VINA RESULT:    -2.983      2.286      3.561
REMARK INTER + INTRA:          -3.585
REMARK INTER:                  -3.484
REMARK INTRA:                  -0.102
REMARK UNBOUND:                -0.080
REMARK SMILES CCCCC(=O)[O-]
REMARK SMILES IDX 4 1 5 2 6 3 7 4 3 5 2 6 1 7
REMARK H PARENT
REMARK Flexibility Score: inf
ROOT
ATOM      1  C   UNL     1     -17.843  42.256  -4.394  1.00  0.00     0.053 C 
ENDROOT
BRANCH   1   2
ATOM      2  C   UNL     1     -18.840  42.918  -3.494  1.00  0.00     0.041 C 
ATOM      3  O   UNL     1     -19.456  42.244  -2.626  1.00  0.00    -0.550 OA
ATOM      4  O   UNL     1     -19.115  44.273  -3.634  1.00  0.00    -0.550 OA
ENDBRANCH   1   2
BRANCH   1   5
ATOM      5  C   UNL     1     -16.616  43.145  -4.647  1.00  0.00     0.006 C 
BRANCH   5   6
ATOM      6  C   UNL     1     -16.354  43.450  -6.132  1.00  0.00    -0.003 C 
ATOM      7  C   UNL     1     -17.628  43.794  -6.902  1.00  0.00     0.004 C 
ENDBRANCH   5   6
ENDBRANCH   1   5
TORSDOF 3
ENDMDL
MODEL 4
REMARK VINA RESULT:    -2.967      2.247      3.599
REMARK INTER + INTRA:          -3.567
REMARK INTER:                  -3.460
REMARK INTRA:                  -0.107
REMARK UNBOUND:                -0.080
REMARK SMILES CCCCC(=O)[O-]
REMARK SMILES IDX 4 1 5 2 6 3 7 4 3 5 2 6 1 7
REMARK H PARENT
REMARK Flexibility Score: inf
ROOT
ATOM      1  C   UNL     1     -17.703  42.278  -4.370  1.00  0.00     0.053 C 
ENDROOT
BRANCH   1   2
ATOM      2  C   UNL     1     -18.815  42.946  -3.623  1.00  0.00     0.041 C 
ATOM      3  O   UNL     1     -19.114  44.145  -3.868  1.00  0.00    -0.550 OA
ATOM      4  O   UNL     1     -19.501  42.256  -2.631  1.00  0.00    -0.550 OA
ENDBRANCH   1   2
BRANCH   1   5
ATOM      5  C   UNL     1     -16.520  43.229  -4.611  1.00  0.00     0.006 C 
BRANCH   5   6
ATOM      6  C   UNL     1     -16.140  43.400  -6.093  1.00  0.00    -0.003 C 
ATOM      7  C   UNL     1     -17.330  43.783  -6.971  1.00  0.00     0.004 C 
ENDBRANCH   5   6
ENDBRANCH   1   5
TORSDOF 3
ENDMDL
MODEL 5
REMARK VINA RESULT:    -2.630      2.362      3.866
REMARK INTER + INTRA:          -3.171
REMARK INTER:                  -3.151
REMARK INTRA:                  -0.020
REMARK UNBOUND:                -0.080
REMARK SMILES CCCCC(=O)[O-]
REMARK SMILES IDX 4 1 5 2 6 3 7 4 3 5 2 6 1 7
REMARK H PARENT
REMARK Flexibility Score: inf
ROOT
ATOM      1  C   UNL     1     -16.808  43.429  -6.025  1.00  0.00     0.053 C 
ENDROOT
BRANCH   1   2
ATOM      2  C   UNL     1     -17.193  42.748  -4.748  1.00  0.00     0.041 C 
ATOM      3  O   UNL     1     -16.800  43.206  -3.642  1.00  0.00    -0.550 OA
ATOM      4  O   UNL     1     -17.957  41.589  -4.779  1.00  0.00    -0.550 OA
ENDBRANCH   1   2
BRANCH   1   5
ATOM      5  C   UNL     1     -18.035  43.810  -6.868  1.00  0.00     0.006 C 
BRANCH   5   6
ATOM      6  C   UNL     1     -17.767  43.867  -8.382  1.00  0.00    -0.003 C 
ATOM      7  C   UNL     1     -18.771  43.050  -9.194  1.00  0.00     0.004 C 
ENDBRANCH   5   6
ENDBRANCH   1   5
TORSDOF 3
ENDMDL
MODEL 6
REMARK VINA RESULT:    -2.583      3.381      4.971
REMARK INTER + INTRA:          -3.116
REMARK INTER:                  -2.993
REMARK INTRA:                  -0.123
REMARK UNBOUND:                -0.080
REMARK SMILES CCCCC(=O)[O-]
REMARK SMILES IDX 4 1 5 2 6 3 7 4 3 5 2 6 1 7
REMARK H PARENT
REMARK Flexibility Score: inf
ROOT
ATOM      1  C   UNL     1     -18.225  45.018  -8.735  1.00  0.00     0.053 C 
ENDROOT
BRANCH   1   2
ATOM      2  C   UNL     1     -18.625  44.570  -7.363  1.00  0.00     0.041 C 
ATOM      3  O   UNL     1     -19.604  45.108  -6.781  1.00  0.00    -0.550 OA
ATOM      4  O   UNL     1     -17.896  43.582  -6.712  1.00  0.00    -0.550 OA
ENDBRANCH   1   2
BRANCH   1   5
ATOM      5  C   UNL     1     -19.216  44.540  -9.808  1.00  0.00     0.006 C 
BRANCH   5   6
ATOM      6  C   UNL     1     -19.555  43.041  -9.731  1.00  0.00    -0.003 C 
ATOM      7  C   UNL     1     -18.451  42.152 -10.302  1.00  0.00     0.004 C 
ENDBRANCH   5   6
ENDBRANCH   1   5
TORSDOF 3
ENDMDL
MODEL 7
REMARK VINA RESULT:    -2.446      2.393      3.215
REMARK INTER + INTRA:          -2.955
REMARK INTER:                  -2.936
REMARK INTRA:                  -0.019
REMARK UNBOUND:                -0.080
REMARK SMILES CCCCC(=O)[O-]
REMARK SMILES IDX 4 1 5 2 6 3 7 4 3 5 2 6 1 7
REMARK H PARENT
REMARK Flexibility Score: inf
ROOT
ATOM      1  C   UNL     1     -17.756  44.096  -7.776  1.00  0.00     0.053 C 
ENDROOT
BRANCH   1   2
ATOM      2  C   UNL     1     -18.793  43.670  -8.769  1.00  0.00     0.041 C 
ATOM      3  O   UNL     1     -19.689  44.476  -9.135  1.00  0.00    -0.550 OA
ATOM      4  O   UNL     1     -18.792  42.373  -9.266  1.00  0.00    -0.550 OA
ENDBRANCH   1   2
BRANCH   1   5
ATOM      5  C   UNL     1     -18.017  43.505  -6.382  1.00  0.00     0.006 C 
BRANCH   5   6
ATOM      6  C   UNL     1     -16.745  43.273  -5.547  1.00  0.00    -0.003 C 
ATOM      7  C   UNL     1     -17.044  42.962  -4.082  1.00  0.00     0.004 C 
ENDBRANCH   5   6
ENDBRANCH   1   5
TORSDOF 3
ENDMDL
MODEL 8
REMARK VINA RESULT:    -2.402      3.773      5.363
REMARK INTER + INTRA:          -2.904
REMARK INTER:                  -2.803
REMARK INTRA:                  -0.100
REMARK UNBOUND:                -0.080
REMARK SMILES CCCCC(=O)[O-]
REMARK SMILES IDX 4 1 5 2 6 3 7 4 3 5 2 6 1 7
REMARK H PARENT
REMARK Flexibility Score: inf
ROOT
ATOM      1  C   UNL     1     -17.830  43.631  -9.363  1.00  0.00     0.053 C 
ENDROOT
BRANCH   1   2
ATOM      2  C   UNL     1     -17.736  44.204  -7.982  1.00  0.00     0.041 C 
ATOM      3  O   UNL     1     -16.678  44.071  -7.312  1.00  0.00    -0.550 OA
ATOM      4  O   UNL     1     -18.827  44.856  -7.422  1.00  0.00    -0.550 OA
ENDBRANCH   1   2
BRANCH   1   5
ATOM      5  C   UNL     1     -19.137  42.853  -9.575  1.00  0.00     0.006 C 
BRANCH   5   6
ATOM      6  C   UNL     1     -19.927  43.276 -10.826  1.00  0.00    -0.003 C 
ATOM      7  C   UNL     1     -20.168  44.783 -10.895  1.00  0.00     0.004 C 
ENDBRANCH   5   6
ENDBRANCH   1   5
TORSDOF 3
ENDMDL
MODEL 9
REMARK VINA RESULT:    -2.388      2.925      4.400
REMARK INTER + INTRA:          -2.887
REMARK INTER:                  -2.800
REMARK INTRA:                  -0.086
REMARK UNBOUND:                -0.080
REMARK SMILES CCCCC(=O)[O-]
REMARK SMILES IDX 4 1 5 2 6 3 7 4 3 5 2 6 1 7
REMARK H PARENT
REMARK Flexibility Score: inf
ROOT
ATOM      1  C   UNL     1     -18.733  44.458  -7.404  1.00  0.00     0.053 C 
ENDROOT
BRANCH   1   2
ATOM      2  C   UNL     1     -17.398  43.925  -6.984  1.00  0.00     0.041 C 
ATOM      3  O   UNL     1     -17.265  43.356  -5.868  1.00  0.00    -0.550 OA
ATOM      4  O   UNL     1     -16.292  44.087  -7.809  1.00  0.00    -0.550 OA
ENDBRANCH   1   2
BRANCH   1   5
ATOM      5  C   UNL     1     -18.836  44.619  -8.928  1.00  0.00     0.006 C 
BRANCH   5   6
ATOM      6  C   UNL     1     -19.634  43.505  -9.627  1.00  0.00    -0.003 C 
ATOM      7  C   UNL     1     -18.786  42.275  -9.944  1.00  0.00     0.004 C 
ENDBRANCH   5   6
ENDBRANCH   1   5
TORSDOF 3
ENDMDL
