MODEL 1
REMARK VINA RESULT:    -2.962      0.000      0.000
REMARK INTER + INTRA:          -4.075
REMARK INTER:                  -3.568
REMARK INTRA:                  -0.507
REMARK UNBOUND:                -0.507
REMARK SMILES NC(=O)C[C@@H]([NH3+])C(=O)[O-]
REMARK SMILES IDX 4 1 5 2 6 3 7 7 8 8 9 9 2 10 3 11 1 12
REMARK H PARENT 6 4 6 5 6 6 1 13 1 14
REMARK Flexibility Score: inf
ROOT
ATOM      1  C   UNL     1     112.306 101.502  99.396  1.00  0.00     0.171 C 
ENDROOT
BRANCH   1   2
ATOM      2  C   UNL     1     112.757 102.648 100.323  1.00  0.00     0.237 C 
BRANCH   2   3
ATOM      3  N   UNL     1     111.873 103.809 100.171  1.00  0.00    -0.350 N 
ATOM      4  H   UNL     1     110.870 103.524 100.255  1.00  0.00     0.345 HD
ATOM      5  H   UNL     1     112.025 104.249  99.233  1.00  0.00     0.345 HD
ATOM      6  H   UNL     1     112.092 104.522 100.905  1.00  0.00     0.345 HD
ENDBRANCH   2   3
BRANCH   2   7
ATOM      7  C   UNL     1     112.776 102.200 101.763  1.00  0.00     0.100 C 
ATOM      8  O   UNL     1     113.865 102.140 102.392  1.00  0.00    -0.544 OA
ATOM      9  O   UNL     1     111.596 101.839 102.401  1.00  0.00    -0.544 OA
ENDBRANCH   2   7
ENDBRANCH   1   2
BRANCH   1  10
ATOM     10  C   UNL     1     110.840 101.588  99.084  1.00  0.00     0.223 C 
ATOM     11  O   UNL     1     110.444 102.299  98.121  1.00  0.00    -0.275 OA
ATOM     12  N   UNL     1     109.887 100.897  99.891  1.00  0.00    -0.369 N 
ATOM     13  H   UNL     1     110.197 100.317 100.702  1.00  0.00     0.159 HD
ATOM     14  H   UNL     1     108.867 100.969  99.680  1.00  0.00     0.159 HD
ENDBRANCH   1  10
TORSDOF 4
ENDMDL
MODEL 2
REMARK VINA RESULT:    -2.957     12.075     12.763
REMARK INTER + INTRA:          -4.068
REMARK INTER:                  -3.565
REMARK INTRA:                  -0.503
REMARK UNBOUND:                -0.507
REMARK SMILES NC(=O)C[C@@H]([NH3+])C(=O)[O-]
REMARK SMILES IDX 4 1 5 2 6 3 7 7 8 8 9 9 2 10 3 11 1 12
REMARK H PARENT 6 4 6 5 6 6 1 13 1 14
REMARK Flexibility Score: inf
ROOT
ATOM      1  C   UNL     1     100.584 108.986  99.398  1.00  0.00     0.171 C 
ENDROOT
BRANCH   1   2
ATOM      2  C   UNL     1     101.321 107.942 100.261  1.00  0.00     0.237 C 
BRANCH   2   3
ATOM      3  N   UNL     1     102.770 108.036 100.054  1.00  0.00    -0.350 N 
ATOM      4  H   UNL     1     103.220 107.096 100.152  1.00  0.00     0.345 HD
ATOM      5  H   UNL     1     103.186 108.689 100.758  1.00  0.00     0.345 HD
ATOM      6  H   UNL     1     102.969 108.416  99.100  1.00  0.00     0.345 HD
ENDBRANCH   2   3
BRANCH   2   7
ATOM      7  C   UNL     1     100.995 108.125 101.722  1.00  0.00     0.100 C 
ATOM      8  O   UNL     1     100.419 107.206 102.361  1.00  0.00    -0.544 OA
ATOM      9  O   UNL     1     101.317 109.312 102.369  1.00  0.00    -0.544 OA
ENDBRANCH   2   7
ENDBRANCH   1   2
BRANCH   1  10
ATOM     10  C   UNL     1     101.453 110.176  99.109  1.00  0.00     0.223 C 
ATOM     11  O   UNL     1     102.237 110.157  98.121  1.00  0.00    -0.275 OA
ATOM     12  N   UNL     1     101.424 111.318  99.966  1.00  0.00    -0.369 N 
ATOM     13  H   UNL     1     100.793 111.343 100.797  1.00  0.00     0.159 HD
ATOM     14  H   UNL     1     102.039 112.139  99.771  1.00  0.00     0.159 HD
ENDBRANCH   1  10
TORSDOF 4
ENDMDL
MODEL 3
REMARK VINA RESULT:    -2.956     12.139     12.847
REMARK INTER + INTRA:          -4.068
REMARK INTER:                  -3.559
REMARK INTRA:                  -0.508
REMARK UNBOUND:                -0.507
REMARK SMILES NC(=O)C[C@@H]([NH3+])C(=O)[O-]
REMARK SMILES IDX 4 1 5 2 6 3 7 7 8 8 9 9 2 10 3 11 1 12
REMARK H PARENT 6 4 6 5 6 6 1 13 1 14
REMARK Flexibility Score: inf
ROOT
ATOM      1  C   UNL     1     113.007 115.398  99.392  1.00  0.00     0.171 C 
ENDROOT
BRANCH   1   2
ATOM      2  C   UNL     1     111.748 115.268 100.273  1.00  0.00     0.237 C 
BRANCH   2   3
ATOM      3  N   UNL     1     111.128 113.951 100.090  1.00  0.00    -0.350 N 
ATOM      4  H   UNL     1     110.217 114.038  99.584  1.00  0.00     0.345 HD
ATOM      5  H   UNL     1     110.959 113.507 101.023  1.00  0.00     0.345 HD
ATOM      6  H   UNL     1     111.768 113.329  99.544  1.00  0.00     0.345 HD
ENDBRANCH   2   3
BRANCH   2   7
ATOM      7  C   UNL     1     112.084 115.482 101.727  1.00  0.00     0.100 C 
ATOM      8  O   UNL     1     111.607 116.468 102.348  1.00  0.00    -0.544 OA
ATOM      9  O   UNL     1     112.932 114.602 102.388  1.00  0.00    -0.544 OA
ENDBRANCH   2   7
ENDBRANCH   1   2
BRANCH   1  10
ATOM     10  C   UNL     1     113.623 114.059  99.108  1.00  0.00     0.223 C 
ATOM     11  O   UNL     1     113.216 113.375  98.130  1.00  0.00    -0.275 OA
ATOM     12  N   UNL     1     114.644 113.538  99.959  1.00  0.00    -0.369 N 
ATOM     13  H   UNL     1     114.982 114.085 100.782  1.00  0.00     0.159 HD
ATOM     14  H   UNL     1     115.063 112.601  99.767  1.00  0.00     0.159 HD
ENDBRANCH   1  10
TORSDOF 4
ENDMDL
MODEL 4
REMARK VINA RESULT:    -2.901     12.721     13.584
REMARK INTER + INTRA:          -4.001
REMARK INTER:                  -3.708
REMARK INTRA:                  -0.293
REMARK UNBOUND:                -0.507
REMARK SMILES NC(=O)C[C@@H]([NH3+])C(=O)[O-]
REMARK SMILES IDX 4 1 5 2 6 3 7 7 8 8 9 9 2 10 3 11 1 12
REMARK H PARENT 6 4 6 5 6 6 1 13 1 14
REMARK Flexibility Score: inf
ROOT
ATOM      1  C   UNL     1     100.932 110.251  99.376  1.00  0.00     0.171 C 
ENDROOT
BRANCH   1   2
ATOM      2  C   UNL     1     101.517 109.348 100.480  1.00  0.00     0.237 C 
BRANCH   2   3
ATOM      3  N   UNL     1     101.817 110.135 101.681  1.00  0.00    -0.350 N 
ATOM      4  H   UNL     1     102.432 110.948 101.447  1.00  0.00     0.345 HD
ATOM      5  H   UNL     1     102.300 109.533 102.388  1.00  0.00     0.345 HD
ATOM      6  H   UNL     1     100.928 110.487 102.107  1.00  0.00     0.345 HD
ENDBRANCH   2   3
BRANCH   2   7
ATOM      7  C   UNL     1     100.566 108.229 100.821  1.00  0.00     0.100 C 
ATOM      8  O   UNL     1      99.546 108.027 100.110  1.00  0.00    -0.544 OA
ATOM      9  O   UNL     1     100.801 107.421 101.927  1.00  0.00    -0.544 OA
ENDBRANCH   2   7
ENDBRANCH   1   2
BRANCH   1  10
ATOM     10  C   UNL     1     101.550 111.619  99.395  1.00  0.00     0.223 C 
ATOM     11  O   UNL     1     102.802 111.743  99.301  1.00  0.00    -0.275 OA
ATOM     12  N   UNL     1     100.734 112.779  99.553  1.00  0.00    -0.369 N 
ATOM     13  H   UNL     1      99.698 112.692  99.647  1.00  0.00     0.159 HD
ATOM     14  H   UNL     1     101.167 113.728  99.579  1.00  0.00     0.159 HD
ENDBRANCH   1  10
TORSDOF 4
ENDMDL
MODEL 5
REMARK VINA RESULT:    -2.896      1.693      1.946
REMARK INTER + INTRA:          -3.995
REMARK INTER:                  -3.702
REMARK INTRA:                  -0.293
REMARK UNBOUND:                -0.507
REMARK SMILES NC(=O)C[C@@H]([NH3+])C(=O)[O-]
REMARK SMILES IDX 4 1 5 2 6 3 7 7 8 8 9 9 2 10 3 11 1 12
REMARK H PARENT 6 4 6 5 6 6 1 13 1 14
REMARK Flexibility Score: inf
ROOT
ATOM      1  C   UNL     1     110.952 101.033  99.410  1.00  0.00     0.171 C 
ENDROOT
BRANCH   1   2
ATOM      2  C   UNL     1     111.425 102.004 100.511  1.00  0.00     0.237 C 
BRANCH   2   3
ATOM      3  N   UNL     1     110.604 101.851 101.717  1.00  0.00    -0.350 N 
ATOM      4  H   UNL     1     110.880 100.992 102.247  1.00  0.00     0.345 HD
ATOM      5  H   UNL     1     109.594 101.777 101.451  1.00  0.00     0.345 HD
ATOM      6  H   UNL     1     110.717 102.688 102.333  1.00  0.00     0.345 HD
ENDBRANCH   2   3
BRANCH   2   7
ATOM      7  C   UNL     1     112.877 101.774 100.844  1.00  0.00     0.100 C 
ATOM      8  O   UNL     1     113.565 100.974 100.156  1.00  0.00    -0.544 OA
ATOM      9  O   UNL     1     113.464 102.434 101.917  1.00  0.00    -0.544 OA
ENDBRANCH   2   7
ENDBRANCH   1   2
BRANCH   1  10
ATOM     10  C   UNL     1     109.466 100.827  99.456  1.00  0.00     0.223 C 
ATOM     11  O   UNL     1     108.692 101.821  99.386  1.00  0.00    -0.275 OA
ATOM     12  N   UNL     1     108.921  99.517  99.612  1.00  0.00    -0.369 N 
ATOM     13  H   UNL     1     109.549  98.686  99.687  1.00  0.00     0.159 HD
ATOM     14  H   UNL     1     107.888  99.378  99.657  1.00  0.00     0.159 HD
ENDBRANCH   1  10
TORSDOF 4
ENDMDL
MODEL 6
REMARK VINA RESULT:    -2.827      2.238      3.918
REMARK INTER + INTRA:          -3.912
REMARK INTER:                  -3.439
REMARK INTRA:                  -0.473
REMARK UNBOUND:                -0.507
REMARK SMILES NC(=O)C[C@@H]([NH3+])C(=O)[O-]
REMARK SMILES IDX 4 1 5 2 6 3 7 7 8 8 9 9 2 10 3 11 1 12
REMARK H PARENT 6 4 6 5 6 6 1 13 1 14
REMARK Flexibility Score: inf
ROOT
ATOM      1  C   UNL     1     111.841 101.891 102.655  1.00  0.00     0.171 C 
ENDROOT
BRANCH   1   2
ATOM      2  C   UNL     1     111.877 102.722 101.357  1.00  0.00     0.237 C 
BRANCH   2   3
ATOM      3  N   UNL     1     112.557 104.002 101.586  1.00  0.00    -0.350 N 
ATOM      4  H   UNL     1     112.070 104.552 102.330  1.00  0.00     0.345 HD
ATOM      5  H   UNL     1     112.568 104.560 100.700  1.00  0.00     0.345 HD
ATOM      6  H   UNL     1     113.548 103.831 101.875  1.00  0.00     0.345 HD
ENDBRANCH   2   3
BRANCH   2   7
ATOM      7  C   UNL     1     112.565 101.963 100.251  1.00  0.00     0.100 C 
ATOM      8  O   UNL     1     113.621 101.320 100.487  1.00  0.00    -0.544 OA
ATOM      9  O   UNL     1     112.045 101.977  98.962  1.00  0.00    -0.544 OA
ENDBRANCH   2   7
ENDBRANCH   1   2
BRANCH   1  10
ATOM     10  C   UNL     1     112.935 102.295 103.600  1.00  0.00     0.223 C 
ATOM     11  O   UNL     1     112.726 103.201 104.453  1.00  0.00    -0.275 OA
ATOM     12  N   UNL     1     114.224 101.686 103.518  1.00  0.00    -0.369 N 
ATOM     13  H   UNL     1     114.418 100.946 102.808  1.00  0.00     0.159 HD
ATOM     14  H   UNL     1     114.987 101.977 104.168  1.00  0.00     0.159 HD
ENDBRANCH   1  10
TORSDOF 4
ENDMDL
MODEL 7
REMARK VINA RESULT:    -2.811     12.796     13.737
REMARK INTER + INTRA:          -3.893
REMARK INTER:                  -3.412
REMARK INTRA:                  -0.482
REMARK UNBOUND:                -0.507
REMARK SMILES NC(=O)C[C@@H]([NH3+])C(=O)[O-]
REMARK SMILES IDX 4 1 5 2 6 3 7 7 8 8 9 9 2 10 3 11 1 12
REMARK H PARENT 6 4 6 5 6 6 1 13 1 14
REMARK Flexibility Score: inf
ROOT
ATOM      1  C   UNL     1     112.793 114.707 102.588  1.00  0.00     0.171 C 
ENDROOT
BRANCH   1   2
ATOM      2  C   UNL     1     112.026 114.356 101.298  1.00  0.00     0.237 C 
BRANCH   2   3
ATOM      3  N   UNL     1     110.580 114.357 101.544  1.00  0.00    -0.350 N 
ATOM      4  H   UNL     1     110.367 114.725 102.499  1.00  0.00     0.345 HD
ATOM      5  H   UNL     1     110.207 113.382 101.463  1.00  0.00     0.345 HD
ATOM      6  H   UNL     1     110.098 114.950 100.829  1.00  0.00     0.345 HD
ENDBRANCH   2   3
BRANCH   2   7
ATOM      7  C   UNL     1     112.362 115.324 100.192  1.00  0.00     0.100 C 
ATOM      8  O   UNL     1     112.196 116.561 100.362  1.00  0.00    -0.544 OA
ATOM      9  O   UNL     1     112.844 114.860  98.974  1.00  0.00    -0.544 OA
ENDBRANCH   2   7
ENDBRANCH   1   2
BRANCH   1  10
ATOM     10  C   UNL     1     111.943 115.504 103.536  1.00  0.00     0.223 C 
ATOM     11  O   UNL     1     111.259 114.913 104.414  1.00  0.00    -0.275 OA
ATOM     12  N   UNL     1     111.878 116.926 103.427  1.00  0.00    -0.369 N 
ATOM     13  H   UNL     1     112.427 117.430 102.695  1.00  0.00     0.159 HD
ATOM     14  H   UNL     1     111.277 117.478 104.079  1.00  0.00     0.159 HD
ENDBRANCH   1  10
TORSDOF 4
ENDMDL
MODEL 8
REMARK VINA RESULT:    -2.807     11.822     12.793
REMARK INTER + INTRA:          -3.888
REMARK INTER:                  -3.399
REMARK INTRA:                  -0.489
REMARK UNBOUND:                -0.507
REMARK SMILES NC(=O)C[C@@H]([NH3+])C(=O)[O-]
REMARK SMILES IDX 4 1 5 2 6 3 7 7 8 8 9 9 2 10 3 11 1 12
REMARK H PARENT 6 4 6 5 6 6 1 13 1 14
REMARK Flexibility Score: inf
ROOT
ATOM      1  C   UNL     1     101.212 109.113 102.518  1.00  0.00     0.171 C 
ENDROOT
BRANCH   1   2
ATOM      2  C   UNL     1     101.910 108.686 101.211  1.00  0.00     0.237 C 
BRANCH   2   3
ATOM      3  N   UNL     1     102.697 107.466 101.424  1.00  0.00    -0.350 N 
ATOM      4  H   UNL     1     103.720 107.665 101.333  1.00  0.00     0.345 HD
ATOM      5  H   UNL     1     102.425 106.741 100.720  1.00  0.00     0.345 HD
ATOM      6  H   UNL     1     102.504 107.081 102.378  1.00  0.00     0.345 HD
ENDBRANCH   2   3
BRANCH   2   7
ATOM      7  C   UNL     1     100.904 108.464 100.110  1.00  0.00     0.100 C 
ATOM      8  O   UNL     1     101.190 108.764  98.921  1.00  0.00    -0.544 OA
ATOM      9  O   UNL     1      99.650 107.939 100.401  1.00  0.00    -0.544 OA
ENDBRANCH   2   7
ENDBRANCH   1   2
BRANCH   1  10
ATOM     10  C   UNL     1     101.072 107.961 103.471  1.00  0.00     0.223 C 
ATOM     11  O   UNL     1     101.989 107.720 104.302  1.00  0.00    -0.275 OA
ATOM     12  N   UNL     1      99.923 107.116 103.420  1.00  0.00    -0.369 N 
ATOM     13  H   UNL     1      99.162 107.293 102.727  1.00  0.00     0.159 HD
ATOM     14  H   UNL     1      99.833 106.308 104.075  1.00  0.00     0.159 HD
ENDBRANCH   1  10
TORSDOF 4
ENDMDL
MODEL 9
REMARK VINA RESULT:    -2.801      2.681      3.687
REMARK INTER + INTRA:          -3.880
REMARK INTER:                  -3.403
REMARK INTRA:                  -0.477
REMARK UNBOUND:                -0.507
REMARK SMILES NC(=O)C[C@@H]([NH3+])C(=O)[O-]
REMARK SMILES IDX 4 1 5 2 6 3 7 7 8 8 9 9 2 10 3 11 1 12
REMARK H PARENT 6 4 6 5 6 6 1 13 1 14
REMARK Flexibility Score: inf
ROOT
ATOM      1  C   UNL     1     109.857 100.797  99.439  1.00  0.00     0.171 C 
ENDROOT
BRANCH   1   2
ATOM      2  C   UNL     1     109.464 101.106 100.898  1.00  0.00     0.237 C 
BRANCH   2   3
ATOM      3  N   UNL     1     110.533 101.853 101.569  1.00  0.00    -0.350 N 
ATOM      4  H   UNL     1     111.172 102.296 100.869  1.00  0.00     0.345 HD
ATOM      5  H   UNL     1     111.089 101.207 102.178  1.00  0.00     0.345 HD
ATOM      6  H   UNL     1     110.119 102.597 102.178  1.00  0.00     0.345 HD
ENDBRANCH   2   3
BRANCH   2   7
ATOM      7  C   UNL     1     108.175 101.885 100.955  1.00  0.00     0.100 C 
ATOM      8  O   UNL     1     107.691 102.226 102.066  1.00  0.00    -0.544 OA
ATOM      9  O   UNL     1     107.507 102.222  99.784  1.00  0.00    -0.544 OA
ENDBRANCH   2   7
ENDBRANCH   1   2
BRANCH   1  10
ATOM     10  C   UNL     1     110.703 101.889  98.852  1.00  0.00     0.223 C 
ATOM     11  O   UNL     1     111.953 101.873  99.016  1.00  0.00    -0.275 OA
ATOM     12  N   UNL     1     110.098 102.966  98.136  1.00  0.00    -0.369 N 
ATOM     13  H   UNL     1     109.062 103.003  98.005  1.00  0.00     0.159 HD
ATOM     14  H   UNL     1     110.686 103.732  97.739  1.00  0.00     0.159 HD
ENDBRANCH   1  10
TORSDOF 4
ENDMDL
