MODEL 1
REMARK VINA RESULT:    -0.341      0.000      0.000
REMARK INTER + INTRA:          -0.341
REMARK INTER:                  -0.341
REMARK INTRA:                   0.000
REMARK UNBOUND:                 0.000
REMARK SMILES CC(=O)[O-]
REMARK SMILES IDX 1 1 2 2 3 3 4 4
REMARK H PARENT
REMARK Flexibility Score: inf
ROOT
ATOM      1  C   UNL     1       0.691  -7.084  26.057  1.00  0.00     0.063 C 
ATOM      2  C   UNL     1       0.316  -8.513  26.263  1.00  0.00     0.038 C 
ATOM      3  O   UNL     1       0.917  -9.206  27.125  1.00  0.00    -0.550 OA
ATOM      4  O   UNL     1      -0.735  -9.067  25.544  1.00  0.00    -0.550 OA
ENDROOT
TORSDOF 0
ENDMDL
MODEL 2
REMARK VINA RESULT:    -0.246      1.376      1.698
REMARK INTER + INTRA:          -0.246
REMARK INTER:                  -0.246
REMARK INTRA:                   0.000
REMARK UNBOUND:                 0.000
REMARK SMILES CC(=O)[O-]
REMARK SMILES IDX 1 1 2 2 3 3 4 4
REMARK H PARENT
REMARK Flexibility Score: inf
ROOT
ATOM      1  C   UNL     1       0.866  -9.265  27.125  1.00  0.00     0.063 C 
ATOM      2  C   UNL     1       0.211  -8.397  26.105  1.00  0.00     0.038 C 
ATOM      3  O   UNL     1       0.617  -7.220  25.923  1.00  0.00    -0.550 OA
ATOM      4  O   UNL     1      -0.813  -8.903  25.315  1.00  0.00    -0.550 OA
ENDROOT
TORSDOF 0
ENDMDL
MODEL 3
REMARK VINA RESULT:     0.008      1.359      1.761
REMARK INTER + INTRA:           0.008
REMARK INTER:                   0.008
REMARK INTRA:                   0.000
REMARK UNBOUND:                 0.000
REMARK SMILES CC(=O)[O-]
REMARK SMILES IDX 1 1 2 2 3 3 4 4
REMARK H PARENT
REMARK Flexibility Score: inf
ROOT
ATOM      1  C   UNL     1      -0.711  -9.034  25.384  1.00  0.00     0.063 C 
ATOM      2  C   UNL     1       0.335  -8.491  26.297  1.00  0.00     0.038 C 
ATOM      3  O   UNL     1       0.911  -9.250  27.119  1.00  0.00    -0.550 OA
ATOM      4  O   UNL     1       0.715  -7.158  26.205  1.00  0.00    -0.550 OA
ENDROOT
TORSDOF 0
ENDMDL
MODEL 4
REMARK VINA RESULT:     0.257     10.580     11.190
REMARK INTER + INTRA:           0.257
REMARK INTER:                   0.257
REMARK INTRA:                   0.000
REMARK UNBOUND:                 0.000
REMARK SMILES CC(=O)[O-]
REMARK SMILES IDX 1 1 2 2 3 3 4 4
REMARK H PARENT
REMARK Flexibility Score: inf
ROOT
ATOM      1  C   UNL     1      -5.053 -17.226  25.839  1.00  0.00     0.063 C 
ATOM      2  C   UNL     1      -5.153 -18.039  24.594  1.00  0.00     0.038 C 
ATOM      3  O   UNL     1      -5.800 -19.118  24.594  1.00  0.00    -0.550 OA
ATOM      4  O   UNL     1      -4.578 -17.581  23.415  1.00  0.00    -0.550 OA
ENDROOT
TORSDOF 0
ENDMDL
MODEL 5
REMARK VINA RESULT:     1.100     11.090     11.602
REMARK INTER + INTRA:           1.100
REMARK INTER:                   1.100
REMARK INTRA:                   0.000
REMARK UNBOUND:                 0.000
REMARK SMILES CC(=O)[O-]
REMARK SMILES IDX 1 1 2 2 3 3 4 4
REMARK H PARENT
REMARK Flexibility Score: inf
ROOT
ATOM      1  C   UNL     1      -6.395 -19.050  23.943  1.00  0.00     0.063 C 
ATOM      2  C   UNL     1      -5.306 -18.204  24.511  1.00  0.00     0.038 C 
ATOM      3  O   UNL     1      -4.526 -17.581  23.746  1.00  0.00    -0.550 OA
ATOM      4  O   UNL     1      -5.185 -18.059  25.887  1.00  0.00    -0.550 OA
ENDROOT
TORSDOF 0
ENDMDL
MODEL 6
REMARK VINA RESULT:     2.391     25.094     25.655
REMARK INTER + INTRA:           2.391
REMARK INTER:                   2.391
REMARK INTRA:                   0.000
REMARK UNBOUND:                 0.000
REMARK SMILES CC(=O)[O-]
REMARK SMILES IDX 1 1 2 2 3 3 4 4
REMARK H PARENT
REMARK Flexibility Score: inf
ROOT
ATOM      1  C   UNL     1      -9.499 -24.958  10.586  1.00  0.00     0.063 C 
ATOM      2  C   UNL     1      -9.369 -26.440  10.690  1.00  0.00     0.038 C 
ATOM      3  O   UNL     1      -9.116 -27.125   9.665  1.00  0.00    -0.550 OA
ATOM      4  O   UNL     1      -9.473 -27.063  11.927  1.00  0.00    -0.550 OA
ENDROOT
TORSDOF 0
ENDMDL
MODEL 7
REMARK VINA RESULT:     2.439     11.471     11.790
REMARK INTER + INTRA:           2.439
REMARK INTER:                   2.439
REMARK INTRA:                   0.000
REMARK UNBOUND:                 0.000
REMARK SMILES CC(=O)[O-]
REMARK SMILES IDX 1 1 2 2 3 3 4 4
REMARK H PARENT
REMARK Flexibility Score: inf
ROOT
ATOM      1  C   UNL     1       4.681 -17.054  17.440  1.00  0.00     0.063 C 
ATOM      2  C   UNL     1       4.090 -16.301  18.584  1.00  0.00     0.038 C 
ATOM      3  O   UNL     1       3.185 -16.825  19.284  1.00  0.00    -0.550 OA
ATOM      4  O   UNL     1       4.575 -15.042  18.913  1.00  0.00    -0.550 OA
ENDROOT
TORSDOF 0
ENDMDL
