MODEL 1
REMARK VINA RESULT:    -2.914      0.000      0.000
REMARK INTER + INTRA:          -4.814
REMARK INTER:                  -4.191
REMARK INTRA:                  -0.623
REMARK UNBOUND:                -0.623
REMARK SMILES CCCCCCCCCO
REMARK SMILES IDX 6 1 5 2 4 3 3 4 2 5 1 6 7 7 8 8 9 9 10 10
REMARK H PARENT 10 11
REMARK Flexibility Score: inf
ROOT
ATOM      1  C   UNL     1     134.271 139.178 144.849  1.00  0.00     0.000 C 
ENDROOT
BRANCH   1   2
ATOM      2  C   UNL     1     133.037 138.448 145.415  1.00  0.00     0.000 C 
BRANCH   2   3
ATOM      3  C   UNL     1     132.051 137.922 144.356  1.00  0.00    -0.000 C 
BRANCH   3   4
ATOM      4  C   UNL     1     131.562 136.497 144.651  1.00  0.00    -0.000 C 
BRANCH   4   5
ATOM      5  C   UNL     1     132.729 135.505 144.650  1.00  0.00    -0.003 C 
ATOM      6  C   UNL     1     132.971 134.938 143.254  1.00  0.00     0.004 C 
ENDBRANCH   4   5
ENDBRANCH   3   4
ENDBRANCH   2   3
ENDBRANCH   1   2
BRANCH   1   7
ATOM      7  C   UNL     1     134.755 138.679 143.472  1.00  0.00     0.002 C 
BRANCH   7   8
ATOM      8  C   UNL     1     136.187 138.115 143.454  1.00  0.00     0.028 C 
BRANCH   8   9
ATOM      9  C   UNL     1     136.234 136.601 143.675  1.00  0.00     0.156 C 
BRANCH   9  10
ATOM     10  O   UNL     1     136.358 135.956 142.439  1.00  0.00    -0.396 OA
ATOM     11  H   UNL     1     136.326 136.670 141.750  1.00  0.00     0.210 HD
ENDBRANCH   9  10
ENDBRANCH   8   9
ENDBRANCH   7   8
ENDBRANCH   1   7
TORSDOF 8
ENDMDL
MODEL 2
REMARK VINA RESULT:    -2.839      8.336     10.253
REMARK INTER + INTRA:          -4.706
REMARK INTER:                  -3.870
REMARK INTRA:                  -0.837
REMARK UNBOUND:                -0.623
REMARK SMILES CCCCCCCCCO
REMARK SMILES IDX 6 1 5 2 4 3 3 4 2 5 1 6 7 7 8 8 9 9 10 10
REMARK H PARENT 10 11
REMARK Flexibility Score: inf
ROOT
ATOM      1  C   UNL     1     141.803 134.204 145.156  1.00  0.00     0.000 C 
ENDROOT
BRANCH   1   2
ATOM      2  C   UNL     1     141.475 135.699 145.332  1.00  0.00     0.000 C 
BRANCH   2   3
ATOM      3  C   UNL     1     142.569 136.666 144.844  1.00  0.00    -0.000 C 
BRANCH   3   4
ATOM      4  C   UNL     1     143.209 136.224 143.520  1.00  0.00    -0.000 C 
BRANCH   4   5
ATOM      5  C   UNL     1     144.738 136.215 143.626  1.00  0.00    -0.003 C 
ATOM      6  C   UNL     1     145.195 136.517 145.050  1.00  0.00     0.004 C 
ENDBRANCH   4   5
ENDBRANCH   3   4
ENDBRANCH   2   3
ENDBRANCH   1   2
BRANCH   1   7
ATOM      7  C   UNL     1     142.891 133.654 146.101  1.00  0.00     0.002 C 
BRANCH   7   8
ATOM      8  C   UNL     1     143.928 132.735 145.432  1.00  0.00     0.028 C 
BRANCH   8   9
ATOM      9  C   UNL     1     143.553 132.360 143.995  1.00  0.00     0.156 C 
BRANCH   9  10
ATOM     10  O   UNL     1     144.562 132.790 143.125  1.00  0.00    -0.396 OA
ATOM     11  H   UNL     1     144.109 133.315 142.415  1.00  0.00     0.210 HD
ENDBRANCH   9  10
ENDBRANCH   8   9
ENDBRANCH   7   8
ENDBRANCH   1   7
TORSDOF 8
ENDMDL
MODEL 3
REMARK VINA RESULT:    -2.823      8.891     10.908
REMARK INTER + INTRA:          -4.684
REMARK INTER:                  -3.922
REMARK INTRA:                  -0.763
REMARK UNBOUND:                -0.623
REMARK SMILES CCCCCCCCCO
REMARK SMILES IDX 6 1 5 2 4 3 3 4 2 5 1 6 7 7 8 8 9 9 10 10
REMARK H PARENT 10 11
REMARK Flexibility Score: inf
ROOT
ATOM      1  C   UNL     1     142.471 135.727 144.740  1.00  0.00     0.000 C 
ENDROOT
BRANCH   1   2
ATOM      2  C   UNL     1     143.241 136.292 143.530  1.00  0.00     0.000 C 
BRANCH   2   3
ATOM      3  C   UNL     1     144.767 136.098 143.584  1.00  0.00    -0.000 C 
BRANCH   3   4
ATOM      4  C   UNL     1     145.420 136.827 144.768  1.00  0.00    -0.000 C 
BRANCH   4   5
ATOM      5  C   UNL     1     146.005 135.827 145.772  1.00  0.00    -0.003 C 
ATOM      6  C   UNL     1     146.426 134.534 145.081  1.00  0.00     0.004 C 
ENDBRANCH   4   5
ENDBRANCH   3   4
ENDBRANCH   2   3
ENDBRANCH   1   2
BRANCH   1   7
ATOM      7  C   UNL     1     142.017 134.259 144.602  1.00  0.00     0.002 C 
BRANCH   7   8
ATOM      8  C   UNL     1     142.989 133.222 145.193  1.00  0.00     0.028 C 
BRANCH   8   9
ATOM      9  C   UNL     1     143.570 132.279 144.136  1.00  0.00     0.156 C 
BRANCH   9  10
ATOM     10  O   UNL     1     143.358 132.821 142.863  1.00  0.00    -0.396 OA
ATOM     11  H   UNL     1     142.987 133.730 143.009  1.00  0.00     0.210 HD
ENDBRANCH   9  10
ENDBRANCH   8   9
ENDBRANCH   7   8
ENDBRANCH   1   7
TORSDOF 8
ENDMDL
MODEL 4
REMARK VINA RESULT:    -2.815     13.553     16.160
REMARK INTER + INTRA:          -4.672
REMARK INTER:                  -4.090
REMARK INTRA:                  -0.582
REMARK UNBOUND:                -0.623
REMARK SMILES CCCCCCCCCO
REMARK SMILES IDX 6 1 5 2 4 3 3 4 2 5 1 6 7 7 8 8 9 9 10 10
REMARK H PARENT 10 11
REMARK Flexibility Score: inf
ROOT
ATOM      1  C   UNL     1     147.311 142.845 145.286  1.00  0.00     0.000 C 
ENDROOT
BRANCH   1   2
ATOM      2  C   UNL     1     148.616 143.544 145.714  1.00  0.00     0.000 C 
BRANCH   2   3
ATOM      3  C   UNL     1     149.551 143.940 144.557  1.00  0.00    -0.000 C 
BRANCH   3   4
ATOM      4  C   UNL     1     150.287 145.263 144.810  1.00  0.00    -0.000 C 
BRANCH   4   5
ATOM      5  C   UNL     1     149.323 146.452 144.729  1.00  0.00    -0.003 C 
ATOM      6  C   UNL     1     148.725 146.583 143.331  1.00  0.00     0.004 C 
ENDBRANCH   4   5
ENDBRANCH   3   4
ENDBRANCH   2   3
ENDBRANCH   1   2
BRANCH   1   7
ATOM      7  C   UNL     1     147.006 142.892 143.775  1.00  0.00     0.002 C 
BRANCH   7   8
ATOM      8  C   UNL     1     145.609 143.423 143.412  1.00  0.00     0.028 C 
BRANCH   8   9
ATOM      9  C   UNL     1     145.439 144.913 143.721  1.00  0.00     0.156 C 
BRANCH   9  10
ATOM     10  O   UNL     1     145.193 145.609 142.531  1.00  0.00    -0.396 OA
ATOM     11  H   UNL     1     145.038 146.554 142.790  1.00  0.00     0.210 HD
ENDBRANCH   9  10
ENDBRANCH   8   9
ENDBRANCH   7   8
ENDBRANCH   1   7
TORSDOF 8
ENDMDL
MODEL 5
REMARK VINA RESULT:    -2.810      1.858      3.617
REMARK INTER + INTRA:          -4.666
REMARK INTER:                  -3.920
REMARK INTRA:                  -0.746
REMARK UNBOUND:                -0.623
REMARK SMILES CCCCCCCCCO
REMARK SMILES IDX 6 1 5 2 4 3 3 4 2 5 1 6 7 7 8 8 9 9 10 10
REMARK H PARENT 10 11
REMARK Flexibility Score: inf
ROOT
ATOM      1  C   UNL     1     135.697 139.117 144.806  1.00  0.00     0.000 C 
ENDROOT
BRANCH   1   2
ATOM      2  C   UNL     1     136.315 138.372 143.607  1.00  0.00     0.000 C 
BRANCH   2   3
ATOM      3  C   UNL     1     136.097 136.848 143.607  1.00  0.00    -0.000 C 
BRANCH   3   4
ATOM      4  C   UNL     1     136.897 136.130 144.703  1.00  0.00    -0.000 C 
BRANCH   4   5
ATOM      5  C   UNL     1     135.967 135.586 145.793  1.00  0.00    -0.003 C 
ATOM      6  C   UNL     1     134.626 135.154 145.210  1.00  0.00     0.004 C 
ENDBRANCH   4   5
ENDBRANCH   3   4
ENDBRANCH   2   3
ENDBRANCH   1   2
BRANCH   1   7
ATOM      7  C   UNL     1     134.234 139.567 144.617  1.00  0.00     0.002 C 
BRANCH   7   8
ATOM      8  C   UNL     1     133.179 138.592 145.170  1.00  0.00     0.028 C 
BRANCH   8   9
ATOM      9  C   UNL     1     132.324 137.954 144.072  1.00  0.00     0.156 C 
BRANCH   9  10
ATOM     10  O   UNL     1     132.855 138.283 142.819  1.00  0.00    -0.396 OA
ATOM     11  H   UNL     1     132.506 139.185 142.600  1.00  0.00     0.210 HD
ENDBRANCH   9  10
ENDBRANCH   8   9
ENDBRANCH   7   8
ENDBRANCH   1   7
TORSDOF 8
ENDMDL
MODEL 6
REMARK VINA RESULT:    -2.761      1.125      3.576
REMARK INTER + INTRA:          -4.595
REMARK INTER:                  -3.948
REMARK INTRA:                  -0.647
REMARK UNBOUND:                -0.623
REMARK SMILES CCCCCCCCCO
REMARK SMILES IDX 6 1 5 2 4 3 3 4 2 5 1 6 7 7 8 8 9 9 10 10
REMARK H PARENT 10 11
REMARK Flexibility Score: inf
ROOT
ATOM      1  C   UNL     1     132.085 137.978 144.490  1.00  0.00     0.000 C 
ENDROOT
BRANCH   1   2
ATOM      2  C   UNL     1     133.168 138.480 145.465  1.00  0.00     0.000 C 
BRANCH   2   3
ATOM      3  C   UNL     1     134.341 139.225 144.803  1.00  0.00    -0.000 C 
BRANCH   3   4
ATOM      4  C   UNL     1     134.742 138.624 143.448  1.00  0.00    -0.000 C 
BRANCH   4   5
ATOM      5  C   UNL     1     136.172 138.074 143.493  1.00  0.00    -0.003 C 
ATOM      6  C   UNL     1     136.174 136.554 143.628  1.00  0.00     0.004 C 
ENDBRANCH   4   5
ENDBRANCH   3   4
ENDBRANCH   2   3
ENDBRANCH   1   2
BRANCH   1   7
ATOM      7  C   UNL     1     131.631 136.519 144.707  1.00  0.00     0.002 C 
BRANCH   7   8
ATOM      8  C   UNL     1     132.760 135.475 144.652  1.00  0.00     0.028 C 
BRANCH   8   9
ATOM      9  C   UNL     1     132.652 134.544 143.441  1.00  0.00     0.156 C 
BRANCH   9  10
ATOM     10  O   UNL     1     132.924 135.268 142.274  1.00  0.00    -0.396 OA
ATOM     11  H   UNL     1     133.541 134.705 141.738  1.00  0.00     0.210 HD
ENDBRANCH   9  10
ENDBRANCH   8   9
ENDBRANCH   7   8
ENDBRANCH   1   7
TORSDOF 8
ENDMDL
MODEL 7
REMARK VINA RESULT:    -2.751      9.456     11.278
REMARK INTER + INTRA:          -4.581
REMARK INTER:                  -3.741
REMARK INTRA:                  -0.840
REMARK UNBOUND:                -0.623
REMARK SMILES CCCCCCCCCO
REMARK SMILES IDX 6 1 5 2 4 3 3 4 2 5 1 6 7 7 8 8 9 9 10 10
REMARK H PARENT 10 11
REMARK Flexibility Score: inf
ROOT
ATOM      1  C   UNL     1     138.039 148.642 145.632  1.00  0.00     0.000 C 
ENDROOT
BRANCH   1   2
ATOM      2  C   UNL     1     139.115 147.856 144.858  1.00  0.00     0.000 C 
BRANCH   2   3
ATOM      3  C   UNL     1     138.629 147.204 143.551  1.00  0.00    -0.000 C 
BRANCH   3   4
ATOM      4  C   UNL     1     138.323 145.708 143.709  1.00  0.00    -0.000 C 
BRANCH   4   5
ATOM      5  C   UNL     1     136.818 145.440 143.599  1.00  0.00    -0.003 C 
ATOM      6  C   UNL     1     136.220 145.083 144.957  1.00  0.00     0.004 C 
ENDBRANCH   4   5
ENDBRANCH   3   4
ENDBRANCH   2   3
ENDBRANCH   1   2
BRANCH   1   7
ATOM      7  C   UNL     1     136.957 149.309 144.758  1.00  0.00     0.002 C 
BRANCH   7   8
ATOM      8  C   UNL     1     135.533 148.764 144.961  1.00  0.00     0.028 C 
BRANCH   8   9
ATOM      9  C   UNL     1     134.763 148.604 143.647  1.00  0.00     0.156 C 
BRANCH   9  10
ATOM     10  O   UNL     1     135.635 148.803 142.571  1.00  0.00    -0.396 OA
ATOM     11  H   UNL     1     136.524 148.997 142.968  1.00  0.00     0.210 HD
ENDBRANCH   9  10
ENDBRANCH   8   9
ENDBRANCH   7   8
ENDBRANCH   1   7
TORSDOF 8
ENDMDL
MODEL 8
REMARK VINA RESULT:    -2.739     13.862     15.734
REMARK INTER + INTRA:          -4.563
REMARK INTER:                  -3.763
REMARK INTRA:                  -0.800
REMARK UNBOUND:                -0.623
REMARK SMILES CCCCCCCCCO
REMARK SMILES IDX 6 1 5 2 4 3 3 4 2 5 1 6 7 7 8 8 9 9 10 10
REMARK H PARENT 10 11
REMARK Flexibility Score: inf
ROOT
ATOM      1  C   UNL     1     148.816 143.620 145.611  1.00  0.00     0.000 C 
ENDROOT
BRANCH   1   2
ATOM      2  C   UNL     1     147.971 142.527 144.929  1.00  0.00     0.000 C 
BRANCH   2   3
ATOM      3  C   UNL     1     147.290 142.958 143.617  1.00  0.00    -0.000 C 
BRANCH   3   4
ATOM      4  C   UNL     1     145.789 143.237 143.788  1.00  0.00    -0.000 C 
BRANCH   4   5
ATOM      5  C   UNL     1     145.487 144.731 143.626  1.00  0.00    -0.003 C 
ATOM      6  C   UNL     1     145.005 145.342 144.938  1.00  0.00     0.004 C 
ENDBRANCH   4   5
ENDBRANCH   3   4
ENDBRANCH   2   3
ENDBRANCH   1   2
BRANCH   1   7
ATOM      7  C   UNL     1     149.395 144.691 144.664  1.00  0.00     0.002 C 
BRANCH   7   8
ATOM      8  C   UNL     1     148.903 146.125 144.928  1.00  0.00     0.028 C 
BRANCH   8   9
ATOM      9  C   UNL     1     148.518 146.869 143.647  1.00  0.00     0.156 C 
BRANCH   9  10
ATOM     10  O   UNL     1     148.777 146.052 142.540  1.00  0.00    -0.396 OA
ATOM     11  H   UNL     1     148.942 146.665 141.777  1.00  0.00     0.210 HD
ENDBRANCH   9  10
ENDBRANCH   8   9
ENDBRANCH   7   8
ENDBRANCH   1   7
TORSDOF 8
ENDMDL
MODEL 9
REMARK VINA RESULT:    -2.727      9.575     11.507
REMARK INTER + INTRA:          -4.546
REMARK INTER:                  -3.913
REMARK INTRA:                  -0.632
REMARK UNBOUND:                -0.623
REMARK SMILES CCCCCCCCCO
REMARK SMILES IDX 6 1 5 2 4 3 3 4 2 5 1 6 7 7 8 8 9 9 10 10
REMARK H PARENT 10 11
REMARK Flexibility Score: inf
ROOT
ATOM      1  C   UNL     1     142.519 134.046 144.938  1.00  0.00     0.000 C 
ENDROOT
BRANCH   1   2
ATOM      2  C   UNL     1     143.338 132.853 145.468  1.00  0.00     0.000 C 
BRANCH   2   3
ATOM      3  C   UNL     1     143.986 131.976 144.381  1.00  0.00    -0.000 C 
BRANCH   3   4
ATOM      4  C   UNL     1     145.485 131.742 144.619  1.00  0.00    -0.000 C 
BRANCH   4   5
ATOM      5  C   UNL     1     146.329 132.768 143.855  1.00  0.00    -0.003 C 
ATOM      6  C   UNL     1     147.153 133.626 144.810  1.00  0.00     0.004 C 
ENDBRANCH   4   5
ENDBRANCH   3   4
ENDBRANCH   2   3
ENDBRANCH   1   2
BRANCH   1   7
ATOM      7  C   UNL     1     142.982 134.609 143.579  1.00  0.00     0.002 C 
BRANCH   7   8
ATOM      8  C   UNL     1     143.367 136.099 143.592  1.00  0.00     0.028 C 
BRANCH   8   9
ATOM      9  C   UNL     1     144.849 136.330 143.895  1.00  0.00     0.156 C 
BRANCH   9  10
ATOM     10  O   UNL     1     145.600 136.115 142.733  1.00  0.00    -0.396 OA
ATOM     11  H   UNL     1     145.141 135.387 142.239  1.00  0.00     0.210 HD
ENDBRANCH   9  10
ENDBRANCH   8   9
ENDBRANCH   7   8
ENDBRANCH   1   7
TORSDOF 8
ENDMDL
