MODEL 1
REMARK VINA RESULT:    -3.363      0.000      0.000
REMARK INTER + INTRA:          -3.797
REMARK INTER:                  -3.756
REMARK INTRA:                  -0.041
REMARK UNBOUND:                -0.041
REMARK SMILES CCCC(=O)[O-]
REMARK SMILES IDX 3 1 4 2 5 3 6 4 2 5 1 6
REMARK H PARENT
REMARK Flexibility Score: inf
ROOT
ATOM      1  C   UNL     1     -12.609 -28.196 -33.891  1.00  0.00     0.052 C 
ENDROOT
BRANCH   1   2
ATOM      2  C   UNL     1     -11.496 -27.204 -34.041  1.00  0.00     0.041 C 
ATOM      3  O   UNL     1     -10.941 -27.037 -35.158  1.00  0.00    -0.550 OA
ATOM      4  O   UNL     1     -11.095 -26.441 -32.952  1.00  0.00    -0.550 OA
ENDBRANCH   1   2
BRANCH   1   5
ATOM      5  C   UNL     1     -13.984 -27.528 -34.011  1.00  0.00     0.003 C 
ATOM      6  C   UNL     1     -14.515 -27.543 -35.445  1.00  0.00     0.004 C 
ENDBRANCH   1   5
TORSDOF 2
ENDMDL
MODEL 2
REMARK VINA RESULT:    -3.190      1.669      2.487
REMARK INTER + INTRA:          -3.604
REMARK INTER:                  -3.599
REMARK INTRA:                  -0.005
REMARK UNBOUND:                -0.041
REMARK SMILES CCCC(=O)[O-]
REMARK SMILES IDX 3 1 4 2 5 3 6 4 2 5 1 6
REMARK H PARENT
REMARK Flexibility Score: inf
ROOT
ATOM      1  C   UNL     1     -12.182 -28.606 -33.648  1.00  0.00     0.052 C 
ENDROOT
BRANCH   1   2
ATOM      2  C   UNL     1     -12.120 -27.752 -34.877  1.00  0.00     0.041 C 
ATOM      3  O   UNL     1     -13.104 -27.694 -35.660  1.00  0.00    -0.550 OA
ATOM      4  O   UNL     1     -10.985 -26.996 -35.142  1.00  0.00    -0.550 OA
ENDBRANCH   1   2
BRANCH   1   5
ATOM      5  C   UNL     1     -12.974 -27.925 -32.525  1.00  0.00     0.003 C 
ATOM      6  C   UNL     1     -12.998 -28.758 -31.243  1.00  0.00     0.004 C 
ENDBRANCH   1   5
TORSDOF 2
ENDMDL
MODEL 3
REMARK VINA RESULT:    -3.170      1.921      2.251
REMARK INTER + INTRA:          -3.581
REMARK INTER:                  -3.551
REMARK INTRA:                  -0.030
REMARK UNBOUND:                -0.041
REMARK SMILES CCCC(=O)[O-]
REMARK SMILES IDX 3 1 4 2 5 3 6 4 2 5 1 6
REMARK H PARENT
REMARK Flexibility Score: inf
ROOT
ATOM      1  C   UNL     1     -12.556 -28.378 -33.998  1.00  0.00     0.052 C 
ENDROOT
BRANCH   1   2
ATOM      2  C   UNL     1     -12.919 -27.904 -32.624  1.00  0.00     0.041 C 
ATOM      3  O   UNL     1     -12.958 -28.715 -31.662  1.00  0.00    -0.550 OA
ATOM      4  O   UNL     1     -13.184 -26.559 -32.401  1.00  0.00    -0.550 OA
ENDBRANCH   1   2
BRANCH   1   5
ATOM      5  C   UNL     1     -13.040 -27.403 -35.080  1.00  0.00     0.003 C 
ATOM      6  C   UNL     1     -14.512 -27.613 -35.434  1.00  0.00     0.004 C 
ENDBRANCH   1   5
TORSDOF 2
ENDMDL
MODEL 4
REMARK VINA RESULT:    -3.120      2.344      3.077
REMARK INTER + INTRA:          -3.526
REMARK INTER:                  -3.488
REMARK INTRA:                  -0.038
REMARK UNBOUND:                -0.041
REMARK SMILES CCCC(=O)[O-]
REMARK SMILES IDX 3 1 4 2 5 3 6 4 2 5 1 6
REMARK H PARENT
REMARK Flexibility Score: inf
ROOT
ATOM      1  C   UNL     1     -12.980 -27.939 -33.074  1.00  0.00     0.052 C 
ENDROOT
BRANCH   1   2
ATOM      2  C   UNL     1     -12.532 -28.351 -31.706  1.00  0.00     0.041 C 
ATOM      3  O   UNL     1     -13.302 -29.009 -30.957  1.00  0.00    -0.550 OA
ATOM      4  O   UNL     1     -11.252 -28.036 -31.269  1.00  0.00    -0.550 OA
ENDBRANCH   1   2
BRANCH   1   5
ATOM      5  C   UNL     1     -11.986 -28.386 -34.154  1.00  0.00     0.003 C 
ATOM      6  C   UNL     1     -11.298 -27.203 -34.836  1.00  0.00     0.004 C 
ENDBRANCH   1   5
TORSDOF 2
ENDMDL
MODEL 5
REMARK VINA RESULT:    -3.106      1.793      2.484
REMARK INTER + INTRA:          -3.510
REMARK INTER:                  -3.471
REMARK INTRA:                  -0.039
REMARK UNBOUND:                -0.041
REMARK SMILES CCCC(=O)[O-]
REMARK SMILES IDX 3 1 4 2 5 3 6 4 2 5 1 6
REMARK H PARENT
REMARK Flexibility Score: inf
ROOT
ATOM      1  C   UNL     1     -13.357 -27.520 -35.192  1.00  0.00     0.052 C 
ENDROOT
BRANCH   1   2
ATOM      2  C   UNL     1     -12.692 -26.238 -35.589  1.00  0.00     0.041 C 
ATOM      3  O   UNL     1     -11.482 -26.036 -35.304  1.00  0.00    -0.550 OA
ATOM      4  O   UNL     1     -13.400 -25.280 -36.303  1.00  0.00    -0.550 OA
ENDBRANCH   1   2
BRANCH   1   5
ATOM      5  C   UNL     1     -13.820 -27.488 -33.729  1.00  0.00     0.003 C 
ATOM      6  C   UNL     1     -12.849 -28.211 -32.796  1.00  0.00     0.004 C 
ENDBRANCH   1   5
TORSDOF 2
ENDMDL
MODEL 6
REMARK VINA RESULT:    -3.077     15.341     15.920
REMARK INTER + INTRA:          -3.478
REMARK INTER:                  -3.465
REMARK INTRA:                  -0.013
REMARK UNBOUND:                -0.041
REMARK SMILES CCCC(=O)[O-]
REMARK SMILES IDX 3 1 4 2 5 3 6 4 2 5 1 6
REMARK H PARENT
REMARK Flexibility Score: inf
ROOT
ATOM      1  C   UNL     1      -6.646 -31.356 -47.927  1.00  0.00     0.052 C 
ENDROOT
BRANCH   1   2
ATOM      2  C   UNL     1      -6.023 -32.661 -47.535  1.00  0.00     0.041 C 
ATOM      3  O   UNL     1      -4.979 -33.064 -48.111  1.00  0.00    -0.550 OA
ATOM      4  O   UNL     1      -6.580 -33.417 -46.511  1.00  0.00    -0.550 OA
ENDBRANCH   1   2
BRANCH   1   5
ATOM      5  C   UNL     1      -5.693 -30.506 -48.776  1.00  0.00     0.003 C 
ATOM      6  C   UNL     1      -5.895 -29.007 -48.552  1.00  0.00     0.004 C 
ENDBRANCH   1   5
TORSDOF 2
ENDMDL
MODEL 7
REMARK VINA RESULT:    -3.072     15.403     15.817
REMARK INTER + INTRA:          -3.472
REMARK INTER:                  -3.450
REMARK INTRA:                  -0.022
REMARK UNBOUND:                -0.041
REMARK SMILES CCCC(=O)[O-]
REMARK SMILES IDX 3 1 4 2 5 3 6 4 2 5 1 6
REMARK H PARENT
REMARK Flexibility Score: inf
ROOT
ATOM      1  C   UNL     1      -5.459 -30.379 -48.646  1.00  0.00     0.052 C 
ENDROOT
BRANCH   1   2
ATOM      2  C   UNL     1      -6.517 -31.270 -48.071  1.00  0.00     0.041 C 
ATOM      3  O   UNL     1      -6.230 -32.092 -47.162  1.00  0.00    -0.550 OA
ATOM      4  O   UNL     1      -7.829 -31.170 -48.518  1.00  0.00    -0.550 OA
ENDBRANCH   1   2
BRANCH   1   5
ATOM      5  C   UNL     1      -5.964 -28.941 -48.823  1.00  0.00     0.003 C 
ATOM      6  C   UNL     1      -5.363 -27.984 -47.794  1.00  0.00     0.004 C 
ENDBRANCH   1   5
TORSDOF 2
ENDMDL
MODEL 8
REMARK VINA RESULT:    -3.055      2.130      2.898
REMARK INTER + INTRA:          -3.453
REMARK INTER:                  -3.406
REMARK INTRA:                  -0.046
REMARK UNBOUND:                -0.041
REMARK SMILES CCCC(=O)[O-]
REMARK SMILES IDX 3 1 4 2 5 3 6 4 2 5 1 6
REMARK H PARENT
REMARK Flexibility Score: inf
ROOT
ATOM      1  C   UNL     1     -12.009 -27.685 -34.976  1.00  0.00     0.052 C 
ENDROOT
BRANCH   1   2
ATOM      2  C   UNL     1     -13.282 -27.068 -35.468  1.00  0.00     0.041 C 
ATOM      3  O   UNL     1     -13.301 -25.867 -35.844  1.00  0.00    -0.550 OA
ATOM      4  O   UNL     1     -14.441 -27.830 -35.539  1.00  0.00    -0.550 OA
ENDBRANCH   1   2
BRANCH   1   5
ATOM      5  C   UNL     1     -12.254 -28.611 -33.778  1.00  0.00     0.003 C 
ATOM      6  C   UNL     1     -12.695 -27.844 -32.531  1.00  0.00     0.004 C 
ENDBRANCH   1   5
TORSDOF 2
ENDMDL
MODEL 9
REMARK VINA RESULT:    -2.873      2.341      2.820
REMARK INTER + INTRA:          -3.250
REMARK INTER:                  -3.211
REMARK INTRA:                  -0.038
REMARK UNBOUND:                -0.041
REMARK SMILES CCCC(=O)[O-]
REMARK SMILES IDX 3 1 4 2 5 3 6 4 2 5 1 6
REMARK H PARENT
REMARK Flexibility Score: inf
ROOT
ATOM      1  C   UNL     1     -11.916 -27.486 -35.102  1.00  0.00     0.052 C 
ENDROOT
BRANCH   1   2
ATOM      2  C   UNL     1     -13.318 -27.708 -34.623  1.00  0.00     0.041 C 
ATOM      3  O   UNL     1     -14.264 -27.801 -35.448  1.00  0.00    -0.550 OA
ATOM      4  O   UNL     1     -13.574 -27.842 -33.264  1.00  0.00    -0.550 OA
ENDBRANCH   1   2
BRANCH   1   5
ATOM      5  C   UNL     1     -11.483 -26.024 -34.930  1.00  0.00     0.003 C 
ATOM      6  C   UNL     1     -12.099 -25.107 -35.986  1.00  0.00     0.004 C 
ENDBRANCH   1   5
TORSDOF 2
ENDMDL
