MODEL 1
REMARK VINA RESULT:    -5.537      0.000      0.000
REMARK INTER + INTRA:          -6.638
REMARK INTER:                  -6.509
REMARK INTRA:                  -0.130
REMARK UNBOUND:                -0.130
REMARK SMILES O=C([O-])C=Cc1ccc(O)c(O)c1
REMARK SMILES IDX 6 1 13 2 7 3 11 4 8 5 9 6 5 7 4 8 2 9 1 10 3 11 12 12 10 14
REMARK H PARENT 12 13 10 15
REMARK Flexibility Score: inf
ROOT
ATOM      1  C   UNL     1      72.791  40.998  -2.975  1.00  0.00    -0.022 A 
ATOM      2  C   UNL     1      73.720  40.528  -3.917  1.00  0.00     0.058 A 
ATOM      3  C   UNL     1      71.516  40.401  -2.920  1.00  0.00     0.012 A 
ATOM      4  C   UNL     1      73.398  39.465  -4.774  1.00  0.00     0.157 A 
ATOM      5  C   UNL     1      71.195  39.342  -3.773  1.00  0.00     0.051 A 
ATOM      6  C   UNL     1      72.129  38.868  -4.698  1.00  0.00     0.157 A 
ENDROOT
BRANCH   1   7
ATOM      7  C   UNL     1      73.180  42.132  -2.099  1.00  0.00     0.010 C 
ATOM      8  C   UNL     1      73.533  43.341  -2.559  1.00  0.00     0.025 C 
BRANCH   8   9
ATOM      9  C   UNL     1      73.901  44.441  -1.652  1.00  0.00     0.064 C 
ATOM     10  O   UNL     1      73.494  44.427  -0.462  1.00  0.00    -0.545 OA
ATOM     11  O   UNL     1      74.692  45.498  -2.090  1.00  0.00    -0.545 OA
ENDBRANCH   8   9
ENDBRANCH   1   7
BRANCH   4  12
ATOM     12  O   UNL     1      74.333  39.002  -5.698  1.00  0.00    -0.504 OA
ATOM     13  H   UNL     1      74.939  39.638  -6.204  1.00  0.00     0.293 HD
ENDBRANCH   4  12
BRANCH   6  14
ATOM     14  O   UNL     1      71.779  37.810  -5.535  1.00  0.00    -0.504 OA
ATOM     15  H   UNL     1      70.926  37.279  -5.404  1.00  0.00     0.293 HD
ENDBRANCH   6  14
TORSDOF 4
ENDMDL
MODEL 2
REMARK VINA RESULT:    -5.436      0.823      1.891
REMARK INTER + INTRA:          -6.520
REMARK INTER:                  -6.395
REMARK INTRA:                  -0.124
REMARK UNBOUND:                -0.130
REMARK SMILES O=C([O-])C=Cc1ccc(O)c(O)c1
REMARK SMILES IDX 6 1 13 2 7 3 11 4 8 5 9 6 5 7 4 8 2 9 1 10 3 11 12 12 10 14
REMARK H PARENT 12 13 10 15
REMARK Flexibility Score: inf
ROOT
ATOM      1  C   UNL     1      73.187  41.000  -3.146  1.00  0.00    -0.022 A 
ATOM      2  C   UNL     1      71.878  40.516  -2.986  1.00  0.00     0.058 A 
ATOM      3  C   UNL     1      74.025  40.391  -4.100  1.00  0.00     0.012 A 
ATOM      4  C   UNL     1      71.401  39.461  -3.778  1.00  0.00     0.157 A 
ATOM      5  C   UNL     1      73.551  39.339  -4.889  1.00  0.00     0.051 A 
ATOM      6  C   UNL     1      72.243  38.873  -4.736  1.00  0.00     0.157 A 
ENDROOT
BRANCH   1   7
ATOM      7  C   UNL     1      73.643  42.111  -2.275  1.00  0.00     0.010 C 
ATOM      8  C   UNL     1      73.461  43.408  -2.564  1.00  0.00     0.025 C 
BRANCH   8   9
ATOM      9  C   UNL     1      73.922  44.478  -1.665  1.00  0.00     0.064 C 
ATOM     10  O   UNL     1      73.582  44.460  -0.453  1.00  0.00    -0.545 OA
ATOM     11  O   UNL     1      74.726  45.511  -2.131  1.00  0.00    -0.545 OA
ENDBRANCH   8   9
ENDBRANCH   1   7
BRANCH   4  12
ATOM     12  O   UNL     1      70.097  38.997  -3.616  1.00  0.00    -0.504 OA
ATOM     13  H   UNL     1      69.340  39.322  -4.208  1.00  0.00     0.293 HD
ENDBRANCH   4  12
BRANCH   6  14
ATOM     14  O   UNL     1      71.798  37.823  -5.540  1.00  0.00    -0.504 OA
ATOM     15  H   UNL     1      72.439  37.230  -6.053  1.00  0.00     0.293 HD
ENDBRANCH   6  14
TORSDOF 4
ENDMDL
MODEL 3
REMARK VINA RESULT:    -4.976      1.285      2.260
REMARK INTER + INTRA:          -5.979
REMARK INTER:                  -5.850
REMARK INTRA:                  -0.129
REMARK UNBOUND:                -0.130
REMARK SMILES O=C([O-])C=Cc1ccc(O)c(O)c1
REMARK SMILES IDX 6 1 13 2 7 3 11 4 8 5 9 6 5 7 4 8 2 9 1 10 3 11 12 12 10 14
REMARK H PARENT 12 13 10 15
REMARK Flexibility Score: inf
ROOT
ATOM      1  C   UNL     1      73.512  41.438  -2.825  1.00  0.00    -0.022 A 
ATOM      2  C   UNL     1      72.508  40.543  -3.229  1.00  0.00     0.058 A 
ATOM      3  C   UNL     1      74.768  41.382  -3.460  1.00  0.00     0.012 A 
ATOM      4  C   UNL     1      72.739  39.624  -4.263  1.00  0.00     0.157 A 
ATOM      5  C   UNL     1      74.999  40.467  -4.490  1.00  0.00     0.051 A 
ATOM      6  C   UNL     1      73.991  39.590  -4.898  1.00  0.00     0.157 A 
ENDROOT
BRANCH   1   7
ATOM      7  C   UNL     1      73.218  42.382  -1.718  1.00  0.00     0.010 C 
ATOM      8  C   UNL     1      72.863  43.662  -1.905  1.00  0.00     0.025 C 
BRANCH   8   9
ATOM      9  C   UNL     1      72.569  44.560  -0.777  1.00  0.00     0.064 C 
ATOM     10  O   UNL     1      73.271  44.498   0.265  1.00  0.00    -0.545 OA
ATOM     11  O   UNL     1      71.526  45.478  -0.843  1.00  0.00    -0.545 OA
ENDBRANCH   8   9
ENDBRANCH   1   7
BRANCH   4  12
ATOM     12  O   UNL     1      71.731  38.748  -4.661  1.00  0.00    -0.504 OA
ATOM     13  H   UNL     1      71.072  38.359  -3.996  1.00  0.00     0.293 HD
ENDBRANCH   4  12
BRANCH   6  14
ATOM     14  O   UNL     1      74.252  38.689  -5.931  1.00  0.00    -0.504 OA
ATOM     15  H   UNL     1      74.969  38.860  -6.625  1.00  0.00     0.293 HD
ENDBRANCH   6  14
TORSDOF 4
ENDMDL
MODEL 4
REMARK VINA RESULT:    -4.889     13.619     14.689
REMARK INTER + INTRA:          -5.876
REMARK INTER:                  -5.743
REMARK INTRA:                  -0.133
REMARK UNBOUND:                -0.130
REMARK SMILES O=C([O-])C=Cc1ccc(O)c(O)c1
REMARK SMILES IDX 6 1 13 2 7 3 11 4 8 5 9 6 5 7 4 8 2 9 1 10 3 11 12 12 10 14
REMARK H PARENT 12 13 10 15
REMARK Flexibility Score: inf
ROOT
ATOM      1  C   UNL     1      68.817  49.426   8.386  1.00  0.00    -0.022 A 
ATOM      2  C   UNL     1      68.625  48.444   7.401  1.00  0.00     0.058 A 
ATOM      3  C   UNL     1      67.689  49.997   9.006  1.00  0.00     0.012 A 
ATOM      4  C   UNL     1      67.334  48.018   7.054  1.00  0.00     0.157 A 
ATOM      5  C   UNL     1      66.402  49.574   8.661  1.00  0.00     0.051 A 
ATOM      6  C   UNL     1      66.218  48.585   7.691  1.00  0.00     0.157 A 
ENDROOT
BRANCH   1   7
ATOM      7  C   UNL     1      70.204  49.847   8.707  1.00  0.00     0.010 C 
ATOM      8  C   UNL     1      71.296  49.286   8.168  1.00  0.00     0.025 C 
BRANCH   8   9
ATOM      9  C   UNL     1      72.653  49.744   8.508  1.00  0.00     0.064 C 
ATOM     10  O   UNL     1      73.215  50.610   7.788  1.00  0.00    -0.545 OA
ATOM     11  O   UNL     1      73.327  49.234   9.612  1.00  0.00    -0.545 OA
ENDBRANCH   8   9
ENDBRANCH   1   7
BRANCH   4  12
ATOM     12  O   UNL     1      67.158  47.035   6.082  1.00  0.00    -0.504 OA
ATOM     13  H   UNL     1      66.759  46.131   6.307  1.00  0.00     0.293 HD
ENDBRANCH   4  12
BRANCH   6  14
ATOM     14  O   UNL     1      64.922  48.182   7.370  1.00  0.00    -0.504 OA
ATOM     15  H   UNL     1      64.696  47.760   6.478  1.00  0.00     0.293 HD
ENDBRANCH   6  14
TORSDOF 4
ENDMDL
MODEL 5
REMARK VINA RESULT:    -4.772     13.379     14.582
REMARK INTER + INTRA:          -5.739
REMARK INTER:                  -5.606
REMARK INTRA:                  -0.133
REMARK UNBOUND:                -0.130
REMARK SMILES O=C([O-])C=Cc1ccc(O)c(O)c1
REMARK SMILES IDX 6 1 13 2 7 3 11 4 8 5 9 6 5 7 4 8 2 9 1 10 3 11 12 12 10 14
REMARK H PARENT 12 13 10 15
REMARK Flexibility Score: inf
ROOT
ATOM      1  C   UNL     1      69.253  49.567   8.138  1.00  0.00    -0.022 A 
ATOM      2  C   UNL     1      68.725  48.607   7.259  1.00  0.00     0.058 A 
ATOM      3  C   UNL     1      68.380  50.245   9.011  1.00  0.00     0.012 A 
ATOM      4  C   UNL     1      67.354  48.309   7.264  1.00  0.00     0.157 A 
ATOM      5  C   UNL     1      67.014  49.948   9.015  1.00  0.00     0.051 A 
ATOM      6  C   UNL     1      66.496  48.981   8.149  1.00  0.00     0.157 A 
ENDROOT
BRANCH   1   7
ATOM      7  C   UNL     1      70.709  49.852   8.085  1.00  0.00     0.010 C 
ATOM      8  C   UNL     1      71.620  48.990   7.610  1.00  0.00     0.025 C 
BRANCH   8   9
ATOM      9  C   UNL     1      73.054  49.320   7.567  1.00  0.00     0.064 C 
ATOM     10  O   UNL     1      73.557  50.025   8.480  1.00  0.00    -0.545 OA
ATOM     11  O   UNL     1      73.864  48.866   6.531  1.00  0.00    -0.545 OA
ENDBRANCH   8   9
ENDBRANCH   1   7
BRANCH   4  12
ATOM     12  O   UNL     1      66.844  47.347   6.393  1.00  0.00    -0.504 OA
ATOM     13  H   UNL     1      67.415  46.935   5.663  1.00  0.00     0.293 HD
ENDBRANCH   4  12
BRANCH   6  14
ATOM     14  O   UNL     1      65.130  48.706   8.178  1.00  0.00    -0.504 OA
ATOM     15  H   UNL     1      64.593  48.556   7.332  1.00  0.00     0.293 HD
ENDBRANCH   6  14
TORSDOF 4
ENDMDL
MODEL 6
REMARK VINA RESULT:    -4.674     13.975     15.110
REMARK INTER + INTRA:          -5.623
REMARK INTER:                  -5.484
REMARK INTRA:                  -0.139
REMARK UNBOUND:                -0.130
REMARK SMILES O=C([O-])C=Cc1ccc(O)c(O)c1
REMARK SMILES IDX 6 1 13 2 7 3 11 4 8 5 9 6 5 7 4 8 2 9 1 10 3 11 12 12 10 14
REMARK H PARENT 12 13 10 15
REMARK Flexibility Score: inf
ROOT
ATOM      1  C   UNL     1      68.656  49.250   8.271  1.00  0.00    -0.022 A 
ATOM      2  C   UNL     1      67.555  49.754   8.982  1.00  0.00     0.058 A 
ATOM      3  C   UNL     1      68.429  48.336   7.223  1.00  0.00     0.012 A 
ATOM      4  C   UNL     1      66.247  49.375   8.642  1.00  0.00     0.157 A 
ATOM      5  C   UNL     1      67.127  47.959   6.884  1.00  0.00     0.051 A 
ATOM      6  C   UNL     1      66.034  48.476   7.585  1.00  0.00     0.157 A 
ENDROOT
BRANCH   1   7
ATOM      7  C   UNL     1      70.019  49.675   8.679  1.00  0.00     0.010 C 
ATOM      8  C   UNL     1      71.140  49.277   8.060  1.00  0.00     0.025 C 
BRANCH   8   9
ATOM      9  C   UNL     1      72.470  49.733   8.493  1.00  0.00     0.064 C 
ATOM     10  O   UNL     1      73.113  50.543   7.775  1.00  0.00    -0.545 OA
ATOM     11  O   UNL     1      73.032  49.283   9.683  1.00  0.00    -0.545 OA
ENDBRANCH   8   9
ENDBRANCH   1   7
BRANCH   4  12
ATOM     12  O   UNL     1      65.163  49.891   9.349  1.00  0.00    -0.504 OA
ATOM     13  H   UNL     1      65.255  50.709   9.941  1.00  0.00     0.293 HD
ENDBRANCH   4  12
BRANCH   6  14
ATOM     14  O   UNL     1      64.747  48.081   7.222  1.00  0.00    -0.504 OA
ATOM     15  H   UNL     1      64.257  47.336   7.703  1.00  0.00     0.293 HD
ENDBRANCH   6  14
TORSDOF 4
ENDMDL
MODEL 7
REMARK VINA RESULT:    -4.606     13.403     15.254
REMARK INTER + INTRA:          -5.543
REMARK INTER:                  -5.414
REMARK INTRA:                  -0.129
REMARK UNBOUND:                -0.130
REMARK SMILES O=C([O-])C=Cc1ccc(O)c(O)c1
REMARK SMILES IDX 6 1 13 2 7 3 11 4 8 5 9 6 5 7 4 8 2 9 1 10 3 11 12 12 10 14
REMARK H PARENT 12 13 10 15
REMARK Flexibility Score: inf
ROOT
ATOM      1  C   UNL     1      71.162  49.703   8.948  1.00  0.00    -0.022 A 
ATOM      2  C   UNL     1      71.753  49.559   7.682  1.00  0.00     0.058 A 
ATOM      3  C   UNL     1      71.895  49.320  10.088  1.00  0.00     0.012 A 
ATOM      4  C   UNL     1      73.060  49.064   7.552  1.00  0.00     0.157 A 
ATOM      5  C   UNL     1      73.197  48.828   9.959  1.00  0.00     0.051 A 
ATOM      6  C   UNL     1      73.785  48.701   8.698  1.00  0.00     0.157 A 
ENDROOT
BRANCH   1   7
ATOM      7  C   UNL     1      69.774  50.220   9.028  1.00  0.00     0.010 C 
ATOM      8  C   UNL     1      68.684  49.442   8.967  1.00  0.00     0.025 C 
BRANCH   8   9
ATOM      9  C   UNL     1      67.324  49.998   9.061  1.00  0.00     0.064 C 
ATOM     10  O   UNL     1      67.112  50.998   9.795  1.00  0.00    -0.545 OA
ATOM     11  O   UNL     1      66.268  49.435   8.354  1.00  0.00    -0.545 OA
ENDBRANCH   8   9
ENDBRANCH   1   7
BRANCH   4  12
ATOM     12  O   UNL     1      73.638  48.936   6.290  1.00  0.00    -0.504 OA
ATOM     13  H   UNL     1      74.099  49.716   5.835  1.00  0.00     0.293 HD
ENDBRANCH   4  12
BRANCH   6  14
ATOM     14  O   UNL     1      75.086  48.208   8.603  1.00  0.00    -0.504 OA
ATOM     15  H   UNL     1      75.627  47.954   9.421  1.00  0.00     0.293 HD
ENDBRANCH   6  14
TORSDOF 4
ENDMDL
MODEL 8
REMARK VINA RESULT:    -3.899     14.305     15.457
REMARK INTER + INTRA:          -4.713
REMARK INTER:                  -4.584
REMARK INTRA:                  -0.129
REMARK UNBOUND:                -0.130
REMARK SMILES O=C([O-])C=Cc1ccc(O)c(O)c1
REMARK SMILES IDX 6 1 13 2 7 3 11 4 8 5 9 6 5 7 4 8 2 9 1 10 3 11 12 12 10 14
REMARK H PARENT 12 13 10 15
REMARK Flexibility Score: inf
ROOT
ATOM      1  C   UNL     1      70.971  49.814   8.763  1.00  0.00    -0.022 A 
ATOM      2  C   UNL     1      71.443  48.728   9.517  1.00  0.00     0.058 A 
ATOM      3  C   UNL     1      71.855  50.462   7.877  1.00  0.00     0.012 A 
ATOM      4  C   UNL     1      72.764  48.276   9.377  1.00  0.00     0.157 A 
ATOM      5  C   UNL     1      73.171  50.013   7.737  1.00  0.00     0.051 A 
ATOM      6  C   UNL     1      73.630  48.921   8.479  1.00  0.00     0.157 A 
ENDROOT
BRANCH   1   7
ATOM      7  C   UNL     1      69.568  50.258   8.957  1.00  0.00     0.010 C 
ATOM      8  C   UNL     1      68.509  49.440   8.868  1.00  0.00     0.025 C 
BRANCH   8   9
ATOM      9  C   UNL     1      67.135  49.921   9.080  1.00  0.00     0.064 C 
ATOM     10  O   UNL     1      66.918  50.830   9.923  1.00  0.00    -0.545 OA
ATOM     11  O   UNL     1      66.069  49.388   8.364  1.00  0.00    -0.545 OA
ENDBRANCH   8   9
ENDBRANCH   1   7
BRANCH   4  12
ATOM     12  O   UNL     1      73.216  47.191  10.125  1.00  0.00    -0.504 OA
ATOM     13  H   UNL     1      73.671  47.316  11.023  1.00  0.00     0.293 HD
ENDBRANCH   4  12
BRANCH   6  14
ATOM     14  O   UNL     1      74.948  48.496   8.316  1.00  0.00    -0.504 OA
ATOM     15  H   UNL     1      75.237  47.549   8.530  1.00  0.00     0.293 HD
ENDBRANCH   6  14
TORSDOF 4
ENDMDL
