MODEL 1
REMARK VINA RESULT:    -4.151      0.000      0.000
REMARK INTER + INTRA:          -5.598
REMARK INTER:                  -5.364
REMARK INTRA:                  -0.234
REMARK UNBOUND:                -0.234
REMARK SMILES CCCCCCC(=O)[O-]
REMARK SMILES IDX 5 1 6 2 7 3 8 4 9 5 4 6 3 7 2 8 1 9
REMARK H PARENT
REMARK Flexibility Score: inf
ROOT
ATOM      1  C   UNL     1      25.312  35.534 147.346  1.00  0.00     0.006 C 
ENDROOT
BRANCH   1   2
ATOM      2  C   UNL     1      24.042  34.672 147.367  1.00  0.00     0.053 C 
BRANCH   2   3
ATOM      3  C   UNL     1      24.193  33.547 148.340  1.00  0.00     0.041 C 
ATOM      4  O   UNL     1      24.055  32.355 147.957  1.00  0.00    -0.550 OA
ATOM      5  O   UNL     1      24.438  33.815 149.681  1.00  0.00    -0.550 OA
ENDBRANCH   2   3
ENDBRANCH   1   2
BRANCH   1   6
ATOM      6  C   UNL     1      25.044  36.996 147.738  1.00  0.00     0.000 C 
BRANCH   6   7
ATOM      7  C   UNL     1      23.543  37.317 147.832  1.00  0.00    -0.000 C 
BRANCH   7   8
ATOM      8  C   UNL     1      23.246  38.811 147.623  1.00  0.00    -0.003 C 
ATOM      9  C   UNL     1      24.509  39.673 147.634  1.00  0.00     0.004 C 
ENDBRANCH   7   8
ENDBRANCH   6   7
ENDBRANCH   1   6
TORSDOF 5
ENDMDL
MODEL 2
REMARK VINA RESULT:    -4.119      2.707      4.764
REMARK INTER + INTRA:          -5.558
REMARK INTER:                  -5.422
REMARK INTRA:                  -0.136
REMARK UNBOUND:                -0.234
REMARK SMILES CCCCCCC(=O)[O-]
REMARK SMILES IDX 5 1 6 2 7 3 8 4 9 5 4 6 3 7 2 8 1 9
REMARK H PARENT
REMARK Flexibility Score: inf
ROOT
ATOM      1  C   UNL     1      24.399  37.139 147.450  1.00  0.00     0.006 C 
ENDROOT
BRANCH   1   2
ATOM      2  C   UNL     1      23.529  38.365 147.759  1.00  0.00     0.053 C 
BRANCH   2   3
ATOM      3  C   UNL     1      23.594  38.696 149.216  1.00  0.00     0.041 C 
ATOM      4  O   UNL     1      22.859  38.087 150.038  1.00  0.00    -0.550 OA
ATOM      5  O   UNL     1      24.431  39.711 149.661  1.00  0.00    -0.550 OA
ENDBRANCH   2   3
ENDBRANCH   1   2
BRANCH   1   6
ATOM      6  C   UNL     1      23.583  35.839 147.360  1.00  0.00     0.000 C 
BRANCH   6   7
ATOM      7  C   UNL     1      24.474  34.591 147.241  1.00  0.00    -0.000 C 
BRANCH   7   8
ATOM      8  C   UNL     1      23.884  33.375 147.974  1.00  0.00    -0.003 C 
ATOM      9  C   UNL     1      24.241  33.347 149.460  1.00  0.00     0.004 C 
ENDBRANCH   7   8
ENDBRANCH   6   7
ENDBRANCH   1   6
TORSDOF 5
ENDMDL
MODEL 3
REMARK VINA RESULT:    -4.117      0.685      1.208
REMARK INTER + INTRA:          -5.555
REMARK INTER:                  -5.362
REMARK INTRA:                  -0.193
REMARK UNBOUND:                -0.234
REMARK SMILES CCCCCCC(=O)[O-]
REMARK SMILES IDX 5 1 6 2 7 3 8 4 9 5 4 6 3 7 2 8 1 9
REMARK H PARENT
REMARK Flexibility Score: inf
ROOT
ATOM      1  C   UNL     1      23.525  35.308 147.251  1.00  0.00     0.006 C 
ENDROOT
BRANCH   1   2
ATOM      2  C   UNL     1      24.849  34.595 147.556  1.00  0.00     0.053 C 
BRANCH   2   3
ATOM      3  C   UNL     1      24.628  33.479 148.526  1.00  0.00     0.041 C 
ATOM      4  O   UNL     1      24.301  32.335 148.112  1.00  0.00    -0.550 OA
ATOM      5  O   UNL     1      24.736  33.712 149.891  1.00  0.00    -0.550 OA
ENDBRANCH   2   3
ENDBRANCH   1   2
BRANCH   1   6
ATOM      6  C   UNL     1      23.606  36.829 147.461  1.00  0.00     0.000 C 
BRANCH   6   7
ATOM      7  C   UNL     1      25.055  37.343 147.491  1.00  0.00    -0.000 C 
BRANCH   7   8
ATOM      8  C   UNL     1      25.136  38.864 147.701  1.00  0.00    -0.003 C 
ATOM      9  C   UNL     1      23.767  39.544 147.645  1.00  0.00     0.004 C 
ENDBRANCH   7   8
ENDBRANCH   6   7
ENDBRANCH   1   6
TORSDOF 5
ENDMDL
MODEL 4
REMARK VINA RESULT:    -4.039      0.683      1.397
REMARK INTER + INTRA:          -5.454
REMARK INTER:                  -5.316
REMARK INTRA:                  -0.137
REMARK UNBOUND:                -0.234
REMARK SMILES CCCCCCC(=O)[O-]
REMARK SMILES IDX 5 1 6 2 7 3 8 4 9 5 4 6 3 7 2 8 1 9
REMARK H PARENT
REMARK Flexibility Score: inf
ROOT
ATOM      1  C   UNL     1      23.632  35.793 147.400  1.00  0.00     0.006 C 
ENDROOT
BRANCH   1   2
ATOM      2  C   UNL     1      24.656  34.654 147.320  1.00  0.00     0.053 C 
BRANCH   2   3
ATOM      3  C   UNL     1      24.357  33.611 148.348  1.00  0.00     0.041 C 
ATOM      4  O   UNL     1      24.259  33.928 149.563  1.00  0.00    -0.550 OA
ATOM      5  O   UNL     1      24.233  32.279 147.972  1.00  0.00    -0.550 OA
ENDBRANCH   2   3
ENDBRANCH   1   2
BRANCH   1   6
ATOM      6  C   UNL     1      24.291  37.182 147.454  1.00  0.00     0.000 C 
BRANCH   6   7
ATOM      7  C   UNL     1      23.304  38.287 147.869  1.00  0.00    -0.000 C 
BRANCH   7   8
ATOM      8  C   UNL     1      23.930  39.689 147.803  1.00  0.00    -0.003 C 
ATOM      9  C   UNL     1      25.448  39.654 147.617  1.00  0.00     0.004 C 
ENDBRANCH   7   8
ENDBRANCH   6   7
ENDBRANCH   1   6
TORSDOF 5
ENDMDL
MODEL 5
REMARK VINA RESULT:    -3.918      2.694      4.503
REMARK INTER + INTRA:          -5.297
REMARK INTER:                  -5.053
REMARK INTRA:                  -0.244
REMARK UNBOUND:                -0.234
REMARK SMILES CCCCCCC(=O)[O-]
REMARK SMILES IDX 5 1 6 2 7 3 8 4 9 5 4 6 3 7 2 8 1 9
REMARK H PARENT
REMARK Flexibility Score: inf
ROOT
ATOM      1  C   UNL     1      23.620  37.031 147.563  1.00  0.00     0.006 C 
ENDROOT
BRANCH   1   2
ATOM      2  C   UNL     1      25.140  37.237 147.582  1.00  0.00     0.053 C 
BRANCH   2   3
ATOM      3  C   UNL     1      25.570  37.819 148.891  1.00  0.00     0.041 C 
ATOM      4  O   UNL     1      24.876  38.711 149.447  1.00  0.00    -0.550 OA
ATOM      5  O   UNL     1      26.763  37.412 149.474  1.00  0.00    -0.550 OA
ENDBRANCH   2   3
ENDBRANCH   1   2
BRANCH   1   6
ATOM      6  C   UNL     1      23.221  35.587 147.217  1.00  0.00     0.000 C 
BRANCH   6   7
ATOM      7  C   UNL     1      24.418  34.620 147.249  1.00  0.00    -0.000 C 
BRANCH   7   8
ATOM      8  C   UNL     1      24.098  33.313 147.991  1.00  0.00    -0.003 C 
ATOM      9  C   UNL     1      24.221  33.447 149.509  1.00  0.00     0.004 C 
ENDBRANCH   7   8
ENDBRANCH   6   7
ENDBRANCH   1   6
TORSDOF 5
ENDMDL
MODEL 6
REMARK VINA RESULT:    -3.906      1.878      2.396
REMARK INTER + INTRA:          -5.281
REMARK INTER:                  -5.114
REMARK INTRA:                  -0.167
REMARK UNBOUND:                -0.234
REMARK SMILES CCCCCCC(=O)[O-]
REMARK SMILES IDX 5 1 6 2 7 3 8 4 9 5 4 6 3 7 2 8 1 9
REMARK H PARENT
REMARK Flexibility Score: inf
ROOT
ATOM      1  C   UNL     1      24.373  34.803 148.775  1.00  0.00     0.006 C 
ENDROOT
BRANCH   1   2
ATOM      2  C   UNL     1      25.213  33.522 148.700  1.00  0.00     0.053 C 
BRANCH   2   3
ATOM      3  C   UNL     1      26.666  33.841 148.853  1.00  0.00     0.041 C 
ATOM      4  O   UNL     1      27.049  34.637 149.750  1.00  0.00    -0.550 OA
ATOM      5  O   UNL     1      27.594  33.298 147.973  1.00  0.00    -0.550 OA
ENDBRANCH   2   3
ENDBRANCH   1   2
BRANCH   1   6
ATOM      6  C   UNL     1      24.254  35.516 147.418  1.00  0.00     0.000 C 
BRANCH   6   7
ATOM      7  C   UNL     1      24.526  37.026 147.519  1.00  0.00    -0.000 C 
BRANCH   7   8
ATOM      8  C   UNL     1      23.294  37.816 147.989  1.00  0.00    -0.003 C 
ATOM      9  C   UNL     1      23.336  39.286 147.570  1.00  0.00     0.004 C 
ENDBRANCH   7   8
ENDBRANCH   6   7
ENDBRANCH   1   6
TORSDOF 5
ENDMDL
MODEL 7
REMARK VINA RESULT:    -3.893      1.287      2.274
REMARK INTER + INTRA:          -5.265
REMARK INTER:                  -5.091
REMARK INTRA:                  -0.174
REMARK UNBOUND:                -0.234
REMARK SMILES CCCCCCC(=O)[O-]
REMARK SMILES IDX 5 1 6 2 7 3 8 4 9 5 4 6 3 7 2 8 1 9
REMARK H PARENT
REMARK Flexibility Score: inf
ROOT
ATOM      1  C   UNL     1      23.542  37.397 147.768  1.00  0.00     0.006 C 
ENDROOT
BRANCH   1   2
ATOM      2  C   UNL     1      24.851  36.645 147.497  1.00  0.00     0.053 C 
BRANCH   2   3
ATOM      3  C   UNL     1      24.716  35.206 147.884  1.00  0.00     0.041 C 
ATOM      4  O   UNL     1      24.944  34.299 147.041  1.00  0.00    -0.550 OA
ATOM      5  O   UNL     1      24.289  34.867 149.162  1.00  0.00    -0.550 OA
ENDBRANCH   2   3
ENDBRANCH   1   2
BRANCH   1   6
ATOM      6  C   UNL     1      23.699  38.922 147.657  1.00  0.00     0.000 C 
BRANCH   6   7
ATOM      7  C   UNL     1      25.168  39.355 147.516  1.00  0.00    -0.000 C 
BRANCH   7   8
ATOM      8  C   UNL     1      25.314  40.860 147.234  1.00  0.00    -0.003 C 
ATOM      9  C   UNL     1      24.039  41.646 147.540  1.00  0.00     0.004 C 
ENDBRANCH   7   8
ENDBRANCH   6   7
ENDBRANCH   1   6
TORSDOF 5
ENDMDL
MODEL 8
REMARK VINA RESULT:    -3.882      3.792      5.596
REMARK INTER + INTRA:          -5.251
REMARK INTER:                  -5.158
REMARK INTRA:                  -0.092
REMARK UNBOUND:                -0.234
REMARK SMILES CCCCCCC(=O)[O-]
REMARK SMILES IDX 5 1 6 2 7 3 8 4 9 5 4 6 3 7 2 8 1 9
REMARK H PARENT
REMARK Flexibility Score: inf
ROOT
ATOM      1  C   UNL     1      24.359  38.139 147.733  1.00  0.00     0.006 C 
ENDROOT
BRANCH   1   2
ATOM      2  C   UNL     1      23.441  39.367 147.669  1.00  0.00     0.053 C 
BRANCH   2   3
ATOM      3  C   UNL     1      24.251  40.619 147.570  1.00  0.00     0.041 C 
ATOM      4  O   UNL     1      25.405  40.590 147.065  1.00  0.00    -0.550 OA
ATOM      5  O   UNL     1      23.753  41.812 148.079  1.00  0.00    -0.550 OA
ENDBRANCH   2   3
ENDBRANCH   1   2
BRANCH   1   6
ATOM      6  C   UNL     1      23.595  36.816 147.563  1.00  0.00     0.000 C 
BRANCH   6   7
ATOM      7  C   UNL     1      24.535  35.609 147.399  1.00  0.00    -0.000 C 
BRANCH   7   8
ATOM      8  C   UNL     1      23.872  34.287 147.819  1.00  0.00    -0.003 C 
ATOM      9  C   UNL     1      24.233  33.869 149.245  1.00  0.00     0.004 C 
ENDBRANCH   7   8
ENDBRANCH   6   7
ENDBRANCH   1   6
TORSDOF 5
ENDMDL
MODEL 9
REMARK VINA RESULT:    -3.725      3.051      4.891
REMARK INTER + INTRA:          -5.048
REMARK INTER:                  -4.727
REMARK INTRA:                  -0.321
REMARK UNBOUND:                -0.234
REMARK SMILES CCCCCCC(=O)[O-]
REMARK SMILES IDX 5 1 6 2 7 3 8 4 9 5 4 6 3 7 2 8 1 9
REMARK H PARENT
REMARK Flexibility Score: inf
ROOT
ATOM      1  C   UNL     1      25.327  39.594 147.683  1.00  0.00     0.006 C 
ENDROOT
BRANCH   1   2
ATOM      2  C   UNL     1      25.926  40.311 148.900  1.00  0.00     0.053 C 
BRANCH   2   3
ATOM      3  C   UNL     1      25.859  39.431 150.108  1.00  0.00     0.041 C 
ATOM      4  O   UNL     1      25.097  39.726 151.066  1.00  0.00    -0.550 OA
ATOM      5  O   UNL     1      26.675  38.311 150.197  1.00  0.00    -0.550 OA
ENDBRANCH   2   3
ENDBRANCH   1   2
BRANCH   1   6
ATOM      6  C   UNL     1      23.791  39.541 147.720  1.00  0.00     0.000 C 
BRANCH   6   7
ATOM      7  C   UNL     1      23.250  38.101 147.728  1.00  0.00    -0.000 C 
BRANCH   7   8
ATOM      8  C   UNL     1      24.366  37.052 147.589  1.00  0.00    -0.003 C 
ATOM      9  C   UNL     1      23.828  35.641 147.352  1.00  0.00     0.004 C 
ENDBRANCH   7   8
ENDBRANCH   6   7
ENDBRANCH   1   6
TORSDOF 5
ENDMDL
