MODEL 1
REMARK VINA RESULT:    -3.820      0.000      0.000
REMARK INTER + INTRA:         -12.727
REMARK INTER:                  -8.733
REMARK INTRA:                  -3.993
REMARK UNBOUND:                -3.993
REMARK SMILES CCCCCCCCCCCCCCCCCCCCCCCC(=O)[O-]
REMARK SMILES IDX 13 1 14 2 15 3 16 4 17 5 18 6 19 7 20 8 21 9 22 10 23 11
REMARK SMILES IDX 24 12 25 13 26 14 12 15 11 16 10 17 9 18 8 19 7 20 6 21 5 22
REMARK SMILES IDX 4 23 3 24 2 25 1 26
REMARK H PARENT
REMARK Flexibility Score: inf
ROOT
ATOM      1  C   UNL     1      32.006  33.105  19.002  1.00  0.00     0.000 C 
ENDROOT
BRANCH   1   2
ATOM      2  C   UNL     1      30.820  33.872  19.622  1.00  0.00     0.000 C 
BRANCH   2   3
ATOM      3  C   UNL     1      31.080  35.388  19.674  1.00  0.00     0.000 C 
BRANCH   3   4
ATOM      4  C   UNL     1      30.949  35.970  21.091  1.00  0.00     0.000 C 
BRANCH   4   5
ATOM      5  C   UNL     1      32.217  35.857  21.962  1.00  0.00     0.000 C 
BRANCH   5   6
ATOM      6  C   UNL     1      32.184  34.753  23.037  1.00  0.00     0.000 C 
BRANCH   6   7
ATOM      7  C   UNL     1      30.777  34.254  23.413  1.00  0.00     0.000 C 
BRANCH   7   8
ATOM      8  C   UNL     1      30.553  32.776  23.053  1.00  0.00     0.000 C 
BRANCH   8   9
ATOM      9  C   UNL     1      29.064  32.444  22.858  1.00  0.00     0.000 C 
BRANCH   9  10
ATOM     10  C   UNL     1      28.270  33.638  22.297  1.00  0.00     0.006 C 
BRANCH  10  11
ATOM     11  C   UNL     1      27.601  33.309  20.957  1.00  0.00     0.053 C 
BRANCH  11  12
ATOM     12  C   UNL     1      27.084  34.540  20.276  1.00  0.00     0.041 C 
ATOM     13  O   UNL     1      26.277  34.440  19.315  1.00  0.00    -0.550 OA
ATOM     14  O   UNL     1      27.480  35.798  20.715  1.00  0.00    -0.550 OA
ENDBRANCH  11  12
ENDBRANCH  10  11
ENDBRANCH   9  10
ENDBRANCH   8   9
ENDBRANCH   7   8
ENDBRANCH   6   7
ENDBRANCH   5   6
ENDBRANCH   4   5
ENDBRANCH   3   4
ENDBRANCH   2   3
ENDBRANCH   1   2
BRANCH   1  15
ATOM     15  C   UNL     1      33.203  32.927  19.952  1.00  0.00     0.000 C 
BRANCH  15  16
ATOM     16  C   UNL     1      34.263  31.956  19.407  1.00  0.00     0.000 C 
BRANCH  16  17
ATOM     17  C   UNL     1      34.579  32.179  17.916  1.00  0.00     0.000 C 
BRANCH  17  18
ATOM     18  C   UNL     1      34.146  31.035  16.979  1.00  0.00    -0.000 C 
BRANCH  18  19
ATOM     19  C   UNL     1      34.724  31.170  15.559  1.00  0.00    -0.000 C 
BRANCH  19  20
ATOM     20  C   UNL     1      34.464  32.552  14.934  1.00  0.00    -0.000 C 
BRANCH  20  21
ATOM     21  C   UNL     1      33.224  32.634  14.023  1.00  0.00    -0.000 C 
BRANCH  21  22
ATOM     22  C   UNL     1      32.323  33.838  14.341  1.00  0.00    -0.000 C 
BRANCH  22  23
ATOM     23  C   UNL     1      32.265  34.158  15.845  1.00  0.00    -0.000 C 
BRANCH  23  24
ATOM     24  C   UNL     1      32.610  35.624  16.181  1.00  0.00    -0.000 C 
BRANCH  24  25
ATOM     25  C   UNL     1      34.085  35.795  16.578  1.00  0.00    -0.003 C 
ATOM     26  C   UNL     1      34.229  36.026  18.078  1.00  0.00     0.004 C 
ENDBRANCH  24  25
ENDBRANCH  23  24
ENDBRANCH  22  23
ENDBRANCH  21  22
ENDBRANCH  20  21
ENDBRANCH  19  20
ENDBRANCH  18  19
ENDBRANCH  17  18
ENDBRANCH  16  17
ENDBRANCH  15  16
ENDBRANCH   1  15
TORSDOF 22
ENDMDL
MODEL 2
REMARK VINA RESULT:    -3.648      3.211      7.346
REMARK INTER + INTRA:         -12.334
REMARK INTER:                  -7.756
REMARK INTRA:                  -4.579
REMARK UNBOUND:                -3.993
REMARK SMILES CCCCCCCCCCCCCCCCCCCCCCCC(=O)[O-]
REMARK SMILES IDX 13 1 14 2 15 3 16 4 17 5 18 6 19 7 20 8 21 9 22 10 23 11
REMARK SMILES IDX 24 12 25 13 26 14 12 15 11 16 10 17 9 18 8 19 7 20 6 21 5 22
REMARK SMILES IDX 4 23 3 24 2 25 1 26
REMARK H PARENT
REMARK Flexibility Score: inf
ROOT
ATOM      1  C   UNL     1      30.805  34.388  23.297  1.00  0.00     0.000 C 
ENDROOT
BRANCH   1   2
ATOM      2  C   UNL     1      32.230  34.969  23.406  1.00  0.00     0.000 C 
BRANCH   2   3
ATOM      3  C   UNL     1      32.218  36.444  23.846  1.00  0.00     0.000 C 
BRANCH   3   4
ATOM      4  C   UNL     1      32.335  37.423  22.666  1.00  0.00     0.000 C 
BRANCH   4   5
ATOM      5  C   UNL     1      32.727  36.777  21.321  1.00  0.00     0.000 C 
BRANCH   5   6
ATOM      6  C   UNL     1      31.633  36.800  20.234  1.00  0.00     0.000 C 
BRANCH   6   7
ATOM      7  C   UNL     1      31.755  35.698  19.167  1.00  0.00     0.000 C 
BRANCH   7   8
ATOM      8  C   UNL     1      30.870  34.477  19.466  1.00  0.00     0.000 C 
BRANCH   8   9
ATOM      9  C   UNL     1      31.656  33.157  19.394  1.00  0.00     0.000 C 
BRANCH   9  10
ATOM     10  C   UNL     1      33.115  33.322  19.855  1.00  0.00     0.006 C 
BRANCH  10  11
ATOM     11  C   UNL     1      33.939  32.047  19.634  1.00  0.00     0.053 C 
BRANCH  11  12
ATOM     12  C   UNL     1      34.447  31.950  18.227  1.00  0.00     0.041 C 
ATOM     13  O   UNL     1      35.234  32.824  17.778  1.00  0.00    -0.550 OA
ATOM     14  O   UNL     1      34.067  30.885  17.420  1.00  0.00    -0.550 OA
ENDBRANCH  11  12
ENDBRANCH  10  11
ENDBRANCH   9  10
ENDBRANCH   8   9
ENDBRANCH   7   8
ENDBRANCH   6   7
ENDBRANCH   5   6
ENDBRANCH   4   5
ENDBRANCH   3   4
ENDBRANCH   2   3
ENDBRANCH   1   2
BRANCH   1  15
ATOM     15  C   UNL     1      30.765  32.894  22.930  1.00  0.00     0.000 C 
BRANCH  15  16
ATOM     16  C   UNL     1      29.359  32.285  23.054  1.00  0.00     0.000 C 
BRANCH  16  17
ATOM     17  C   UNL     1      28.236  33.270  22.677  1.00  0.00     0.000 C 
BRANCH  17  18
ATOM     18  C   UNL     1      27.842  33.269  21.187  1.00  0.00    -0.000 C 
BRANCH  18  19
ATOM     19  C   UNL     1      27.104  34.550  20.760  1.00  0.00    -0.000 C 
BRANCH  19  20
ATOM     20  C   UNL     1      27.996  35.803  20.820  1.00  0.00    -0.000 C 
BRANCH  20  21
ATOM     21  C   UNL     1      27.547  36.877  21.829  1.00  0.00    -0.000 C 
BRANCH  21  22
ATOM     22  C   UNL     1      28.724  37.588  22.515  1.00  0.00    -0.000 C 
BRANCH  22  23
ATOM     23  C   UNL     1      28.672  37.483  24.049  1.00  0.00    -0.000 C 
BRANCH  23  24
ATOM     24  C   UNL     1      27.773  36.339  24.563  1.00  0.00    -0.000 C 
BRANCH  24  25
ATOM     25  C   UNL     1      28.216  35.830  25.943  1.00  0.00    -0.003 C 
ATOM     26  C   UNL     1      29.528  36.477  26.374  1.00  0.00     0.004 C 
ENDBRANCH  24  25
ENDBRANCH  23  24
ENDBRANCH  22  23
ENDBRANCH  21  22
ENDBRANCH  20  21
ENDBRANCH  19  20
ENDBRANCH  18  19
ENDBRANCH  17  18
ENDBRANCH  16  17
ENDBRANCH  15  16
ENDBRANCH   1  15
TORSDOF 22
ENDMDL
MODEL 3
REMARK VINA RESULT:    -3.599      2.989      7.002
REMARK INTER + INTRA:         -12.222
REMARK INTER:                  -7.771
REMARK INTRA:                  -4.450
REMARK UNBOUND:                -3.993
REMARK SMILES CCCCCCCCCCCCCCCCCCCCCCCC(=O)[O-]
REMARK SMILES IDX 13 1 14 2 15 3 16 4 17 5 18 6 19 7 20 8 21 9 22 10 23 11
REMARK SMILES IDX 24 12 25 13 26 14 12 15 11 16 10 17 9 18 8 19 7 20 6 21 5 22
REMARK SMILES IDX 4 23 3 24 2 25 1 26
REMARK H PARENT
REMARK Flexibility Score: inf
ROOT
ATOM      1  C   UNL     1      28.265  33.129  21.281  1.00  0.00     0.000 C 
ENDROOT
BRANCH   1   2
ATOM      2  C   UNL     1      26.925  33.640  20.713  1.00  0.00     0.000 C 
BRANCH   2   3
ATOM      3  C   UNL     1      27.075  35.011  20.029  1.00  0.00     0.000 C 
BRANCH   3   4
ATOM      4  C   UNL     1      27.301  36.157  21.029  1.00  0.00     0.000 C 
BRANCH   4   5
ATOM      5  C   UNL     1      28.545  37.027  20.751  1.00  0.00     0.000 C 
BRANCH   5   6
ATOM      6  C   UNL     1      29.899  36.363  21.069  1.00  0.00     0.000 C 
BRANCH   6   7
ATOM      7  C   UNL     1      31.062  36.788  20.154  1.00  0.00     0.000 C 
BRANCH   7   8
ATOM      8  C   UNL     1      31.624  35.622  19.324  1.00  0.00     0.000 C 
BRANCH   8   9
ATOM      9  C   UNL     1      30.843  34.316  19.553  1.00  0.00     0.000 C 
BRANCH   9  10
ATOM     10  C   UNL     1      31.380  33.158  18.693  1.00  0.00     0.006 C 
BRANCH  10  11
ATOM     11  C   UNL     1      32.795  32.736  19.111  1.00  0.00     0.053 C 
BRANCH  11  12
ATOM     12  C   UNL     1      33.681  32.509  17.924  1.00  0.00     0.041 C 
ATOM     13  O   UNL     1      33.946  33.459  17.142  1.00  0.00    -0.550 OA
ATOM     14  O   UNL     1      34.229  31.253  17.692  1.00  0.00    -0.550 OA
ENDBRANCH  11  12
ENDBRANCH  10  11
ENDBRANCH   9  10
ENDBRANCH   8   9
ENDBRANCH   7   8
ENDBRANCH   6   7
ENDBRANCH   5   6
ENDBRANCH   4   5
ENDBRANCH   3   4
ENDBRANCH   2   3
ENDBRANCH   1   2
BRANCH   1  15
ATOM     15  C   UNL     1      28.331  33.120  22.818  1.00  0.00     0.000 C 
BRANCH  15  16
ATOM     16  C   UNL     1      29.321  32.081  23.369  1.00  0.00     0.000 C 
BRANCH  16  17
ATOM     17  C   UNL     1      30.773  32.330  22.917  1.00  0.00     0.000 C 
BRANCH  17  18
ATOM     18  C   UNL     1      31.319  33.737  23.226  1.00  0.00    -0.000 C 
BRANCH  18  19
ATOM     19  C   UNL     1      32.721  33.979  22.637  1.00  0.00    -0.000 C 
BRANCH  19  20
ATOM     20  C   UNL     1      33.294  35.359  23.005  1.00  0.00    -0.000 C 
BRANCH  20  21
ATOM     21  C   UNL     1      32.518  36.121  24.096  1.00  0.00    -0.000 C 
BRANCH  21  22
ATOM     22  C   UNL     1      32.273  37.596  23.742  1.00  0.00    -0.000 C 
BRANCH  22  23
ATOM     23  C   UNL     1      30.903  38.104  24.222  1.00  0.00    -0.000 C 
BRANCH  23  24
ATOM     24  C   UNL     1      30.174  37.127  25.168  1.00  0.00    -0.000 C 
BRANCH  24  25
ATOM     25  C   UNL     1      29.009  36.407  24.472  1.00  0.00    -0.003 C 
ATOM     26  C   UNL     1      28.062  35.780  25.489  1.00  0.00     0.004 C 
ENDBRANCH  24  25
ENDBRANCH  23  24
ENDBRANCH  22  23
ENDBRANCH  21  22
ENDBRANCH  20  21
ENDBRANCH  19  20
ENDBRANCH  18  19
ENDBRANCH  17  18
ENDBRANCH  16  17
ENDBRANCH  15  16
ENDBRANCH   1  15
TORSDOF 22
ENDMDL
MODEL 4
REMARK VINA RESULT:    -3.573      3.172      7.600
REMARK INTER + INTRA:         -12.161
REMARK INTER:                  -8.535
REMARK INTRA:                  -3.626
REMARK UNBOUND:                -3.993
REMARK SMILES CCCCCCCCCCCCCCCCCCCCCCCC(=O)[O-]
REMARK SMILES IDX 13 1 14 2 15 3 16 4 17 5 18 6 19 7 20 8 21 9 22 10 23 11
REMARK SMILES IDX 24 12 25 13 26 14 12 15 11 16 10 17 9 18 8 19 7 20 6 21 5 22
REMARK SMILES IDX 4 23 3 24 2 25 1 26
REMARK H PARENT
REMARK Flexibility Score: inf
ROOT
ATOM      1  C   UNL     1      32.096  34.078  16.886  1.00  0.00     0.000 C 
ENDROOT
BRANCH   1   2
ATOM      2  C   UNL     1      32.419  35.185  15.861  1.00  0.00     0.000 C 
BRANCH   2   3
ATOM      3  C   UNL     1      32.471  34.640  14.423  1.00  0.00     0.000 C 
BRANCH   3   4
ATOM      4  C   UNL     1      32.700  33.121  14.366  1.00  0.00     0.000 C 
BRANCH   4   5
ATOM      5  C   UNL     1      34.063  32.689  13.788  1.00  0.00     0.000 C 
BRANCH   5   6
ATOM      6  C   UNL     1      34.983  31.929  14.765  1.00  0.00     0.000 C 
BRANCH   6   7
ATOM      7  C   UNL     1      34.251  31.102  15.836  1.00  0.00     0.000 C 
BRANCH   7   8
ATOM      8  C   UNL     1      34.516  31.608  17.264  1.00  0.00     0.000 C 
BRANCH   8   9
ATOM      9  C   UNL     1      35.422  32.850  17.282  1.00  0.00     0.000 C 
BRANCH   9  10
ATOM     10  C   UNL     1      35.611  33.413  18.702  1.00  0.00     0.006 C 
BRANCH  10  11
ATOM     11  C   UNL     1      35.663  32.304  19.761  1.00  0.00     0.053 C 
BRANCH  11  12
ATOM     12  C   UNL     1      36.837  32.466  20.679  1.00  0.00     0.041 C 
ATOM     13  O   UNL     1      36.664  32.858  21.863  1.00  0.00    -0.550 OA
ATOM     14  O   UNL     1      38.118  32.166  20.233  1.00  0.00    -0.550 OA
ENDBRANCH  11  12
ENDBRANCH  10  11
ENDBRANCH   9  10
ENDBRANCH   8   9
ENDBRANCH   7   8
ENDBRANCH   6   7
ENDBRANCH   5   6
ENDBRANCH   4   5
ENDBRANCH   3   4
ENDBRANCH   2   3
ENDBRANCH   1   2
BRANCH   1  15
ATOM     15  C   UNL     1      32.079  34.562  18.346  1.00  0.00     0.000 C 
BRANCH  15  16
ATOM     16  C   UNL     1      31.598  33.483  19.330  1.00  0.00     0.000 C 
BRANCH  16  17
ATOM     17  C   UNL     1      30.067  33.315  19.344  1.00  0.00     0.000 C 
BRANCH  17  18
ATOM     18  C   UNL     1      29.355  33.927  20.565  1.00  0.00    -0.000 C 
BRANCH  18  19
ATOM     19  C   UNL     1      28.756  32.866  21.505  1.00  0.00    -0.000 C 
BRANCH  19  20
ATOM     20  C   UNL     1      29.108  33.108  22.984  1.00  0.00    -0.000 C 
BRANCH  20  21
ATOM     21  C   UNL     1      30.479  33.764  23.231  1.00  0.00    -0.000 C 
BRANCH  21  22
ATOM     22  C   UNL     1      31.658  32.813  22.966  1.00  0.00    -0.000 C 
BRANCH  22  23
ATOM     23  C   UNL     1      32.943  33.556  22.563  1.00  0.00    -0.000 C 
BRANCH  23  24
ATOM     24  C   UNL     1      32.916  35.065  22.885  1.00  0.00    -0.000 C 
BRANCH  24  25
ATOM     25  C   UNL     1      33.078  35.929  21.626  1.00  0.00    -0.003 C 
ATOM     26  C   UNL     1      34.504  35.858  21.089  1.00  0.00     0.004 C 
ENDBRANCH  24  25
ENDBRANCH  23  24
ENDBRANCH  22  23
ENDBRANCH  21  22
ENDBRANCH  20  21
ENDBRANCH  19  20
ENDBRANCH  18  19
ENDBRANCH  17  18
ENDBRANCH  16  17
ENDBRANCH  15  16
ENDBRANCH   1  15
TORSDOF 22
ENDMDL
MODEL 5
REMARK VINA RESULT:    -3.524      2.434      7.187
REMARK INTER + INTRA:         -12.051
REMARK INTER:                  -7.969
REMARK INTRA:                  -4.082
REMARK UNBOUND:                -3.993
REMARK SMILES CCCCCCCCCCCCCCCCCCCCCCCC(=O)[O-]
REMARK SMILES IDX 13 1 14 2 15 3 16 4 17 5 18 6 19 7 20 8 21 9 22 10 23 11
REMARK SMILES IDX 24 12 25 13 26 14 12 15 11 16 10 17 9 18 8 19 7 20 6 21 5 22
REMARK SMILES IDX 4 23 3 24 2 25 1 26
REMARK H PARENT
REMARK Flexibility Score: inf
ROOT
ATOM      1  C   UNL     1      31.386  35.583  20.058  1.00  0.00     0.000 C 
ENDROOT
BRANCH   1   2
ATOM      2  C   UNL     1      31.161  34.073  19.833  1.00  0.00     0.000 C 
BRANCH   2   3
ATOM      3  C   UNL     1      31.301  33.685  18.350  1.00  0.00     0.000 C 
BRANCH   3   4
ATOM      4  C   UNL     1      32.224  34.634  17.567  1.00  0.00     0.000 C 
BRANCH   4   5
ATOM      5  C   UNL     1      32.278  34.382  16.047  1.00  0.00     0.000 C 
BRANCH   5   6
ATOM      6  C   UNL     1      33.692  34.343  15.434  1.00  0.00     0.000 C 
BRANCH   6   7
ATOM      7  C   UNL     1      34.091  32.995  14.806  1.00  0.00     0.000 C 
BRANCH   7   8
ATOM      8  C   UNL     1      35.009  32.162  15.716  1.00  0.00     0.000 C 
BRANCH   8   9
ATOM      9  C   UNL     1      34.255  31.016  16.411  1.00  0.00     0.000 C 
BRANCH   9  10
ATOM     10  C   UNL     1      34.002  31.304  17.901  1.00  0.00     0.006 C 
BRANCH  10  11
ATOM     11  C   UNL     1      34.956  32.370  18.454  1.00  0.00     0.053 C 
BRANCH  11  12
ATOM     12  C   UNL     1      34.574  32.794  19.841  1.00  0.00     0.041 C 
ATOM     13  O   UNL     1      33.945  32.004  20.592  1.00  0.00    -0.550 OA
ATOM     14  O   UNL     1      34.929  34.053  20.308  1.00  0.00    -0.550 OA
ENDBRANCH  11  12
ENDBRANCH  10  11
ENDBRANCH   9  10
ENDBRANCH   8   9
ENDBRANCH   7   8
ENDBRANCH   6   7
ENDBRANCH   5   6
ENDBRANCH   4   5
ENDBRANCH   3   4
ENDBRANCH   2   3
ENDBRANCH   1   2
BRANCH   1  15
ATOM     15  C   UNL     1      31.948  35.932  21.446  1.00  0.00     0.000 C 
BRANCH  15  16
ATOM     16  C   UNL     1      31.906  34.748  22.426  1.00  0.00     0.000 C 
BRANCH  16  17
ATOM     17  C   UNL     1      30.928  34.964  23.596  1.00  0.00     0.000 C 
BRANCH  17  18
ATOM     18  C   UNL     1      29.597  34.197  23.483  1.00  0.00    -0.000 C 
BRANCH  18  19
ATOM     19  C   UNL     1      29.778  32.745  23.006  1.00  0.00    -0.000 C 
BRANCH  19  20
ATOM     20  C   UNL     1      28.916  32.405  21.778  1.00  0.00    -0.000 C 
BRANCH  20  21
ATOM     21  C   UNL     1      27.646  33.263  21.613  1.00  0.00    -0.000 C 
BRANCH  21  22
ATOM     22  C   UNL     1      27.421  33.733  20.168  1.00  0.00    -0.000 C 
BRANCH  22  23
ATOM     23  C   UNL     1      26.863  35.164  20.087  1.00  0.00    -0.000 C 
BRANCH  23  24
ATOM     24  C   UNL     1      27.878  36.251  20.500  1.00  0.00    -0.000 C 
BRANCH  24  25
ATOM     25  C   UNL     1      27.519  36.896  21.847  1.00  0.00    -0.003 C 
ATOM     26  C   UNL     1      28.688  37.707  22.398  1.00  0.00     0.004 C 
ENDBRANCH  24  25
ENDBRANCH  23  24
ENDBRANCH  22  23
ENDBRANCH  21  22
ENDBRANCH  20  21
ENDBRANCH  19  20
ENDBRANCH  18  19
ENDBRANCH  17  18
ENDBRANCH  16  17
ENDBRANCH  15  16
ENDBRANCH   1  15
TORSDOF 22
ENDMDL
MODEL 6
REMARK VINA RESULT:    -3.509      3.257      7.530
REMARK INTER + INTRA:         -12.016
REMARK INTER:                  -7.719
REMARK INTRA:                  -4.297
REMARK UNBOUND:                -3.993
REMARK SMILES CCCCCCCCCCCCCCCCCCCCCCCC(=O)[O-]
REMARK SMILES IDX 13 1 14 2 15 3 16 4 17 5 18 6 19 7 20 8 21 9 22 10 23 11
REMARK SMILES IDX 24 12 25 13 26 14 12 15 11 16 10 17 9 18 8 19 7 20 6 21 5 22
REMARK SMILES IDX 4 23 3 24 2 25 1 26
REMARK H PARENT
REMARK Flexibility Score: inf
ROOT
ATOM      1  C   UNL     1      32.002  35.063  18.044  1.00  0.00     0.000 C 
ENDROOT
BRANCH   1   2
ATOM      2  C   UNL     1      32.377  33.621  17.643  1.00  0.00     0.000 C 
BRANCH   2   3
ATOM      3  C   UNL     1      32.335  32.661  18.845  1.00  0.00     0.000 C 
BRANCH   3   4
ATOM      4  C   UNL     1      33.537  31.703  18.889  1.00  0.00     0.000 C 
BRANCH   4   5
ATOM      5  C   UNL     1      34.598  32.040  19.957  1.00  0.00     0.000 C 
BRANCH   5   6
ATOM      6  C   UNL     1      34.284  33.266  20.837  1.00  0.00     0.000 C 
BRANCH   6   7
ATOM      7  C   UNL     1      35.019  34.558  20.439  1.00  0.00     0.000 C 
BRANCH   7   8
ATOM      8  C   UNL     1      36.029  34.342  19.299  1.00  0.00     0.000 C 
BRANCH   8   9
ATOM      9  C   UNL     1      35.789  35.300  18.121  1.00  0.00     0.000 C 
BRANCH   9  10
ATOM     10  C   UNL     1      35.702  34.558  16.775  1.00  0.00     0.006 C 
BRANCH  10  11
ATOM     11  C   UNL     1      36.243  33.125  16.869  1.00  0.00     0.053 C 
BRANCH  11  12
ATOM     12  C   UNL     1      35.925  32.329  15.639  1.00  0.00     0.041 C 
ATOM     13  O   UNL     1      36.499  32.591  14.550  1.00  0.00    -0.550 OA
ATOM     14  O   UNL     1      35.008  31.287  15.701  1.00  0.00    -0.550 OA
ENDBRANCH  11  12
ENDBRANCH  10  11
ENDBRANCH   9  10
ENDBRANCH   8   9
ENDBRANCH   7   8
ENDBRANCH   6   7
ENDBRANCH   5   6
ENDBRANCH   4   5
ENDBRANCH   3   4
ENDBRANCH   2   3
ENDBRANCH   1   2
BRANCH   1  15
ATOM     15  C   UNL     1      31.423  35.188  19.464  1.00  0.00     0.000 C 
BRANCH  15  16
ATOM     16  C   UNL     1      31.662  36.573  20.089  1.00  0.00     0.000 C 
BRANCH  16  17
ATOM     17  C   UNL     1      31.354  36.617  21.597  1.00  0.00     0.000 C 
BRANCH  17  18
ATOM     18  C   UNL     1      32.571  36.400  22.517  1.00  0.00    -0.000 C 
BRANCH  18  19
ATOM     19  C   UNL     1      32.309  35.366  23.627  1.00  0.00    -0.000 C 
BRANCH  19  20
ATOM     20  C   UNL     1      30.995  34.590  23.425  1.00  0.00    -0.000 C 
BRANCH  20  21
ATOM     21  C   UNL     1      31.162  33.127  22.974  1.00  0.00    -0.000 C 
BRANCH  21  22
ATOM     22  C   UNL     1      29.836  32.349  22.952  1.00  0.00    -0.000 C 
BRANCH  22  23
ATOM     23  C   UNL     1      28.605  33.271  22.937  1.00  0.00    -0.000 C 
BRANCH  23  24
ATOM     24  C   UNL     1      27.942  33.400  21.550  1.00  0.00    -0.000 C 
BRANCH  24  25
ATOM     25  C   UNL     1      28.125  34.802  20.949  1.00  0.00    -0.003 C 
ATOM     26  C   UNL     1      26.805  35.348  20.412  1.00  0.00     0.004 C 
ENDBRANCH  24  25
ENDBRANCH  23  24
ENDBRANCH  22  23
ENDBRANCH  21  22
ENDBRANCH  20  21
ENDBRANCH  19  20
ENDBRANCH  18  19
ENDBRANCH  17  18
ENDBRANCH  16  17
ENDBRANCH  15  16
ENDBRANCH   1  15
TORSDOF 22
ENDMDL
MODEL 7
REMARK VINA RESULT:    -3.502      2.816      4.604
REMARK INTER + INTRA:         -12.000
REMARK INTER:                  -7.494
REMARK INTRA:                  -4.506
REMARK UNBOUND:                -3.993
REMARK SMILES CCCCCCCCCCCCCCCCCCCCCCCC(=O)[O-]
REMARK SMILES IDX 13 1 14 2 15 3 16 4 17 5 18 6 19 7 20 8 21 9 22 10 23 11
REMARK SMILES IDX 24 12 25 13 26 14 12 15 11 16 10 17 9 18 8 19 7 20 6 21 5 22
REMARK SMILES IDX 4 23 3 24 2 25 1 26
REMARK H PARENT
REMARK Flexibility Score: inf
ROOT
ATOM      1  C   UNL     1      31.069  33.702  22.399  1.00  0.00     0.000 C 
ENDROOT
BRANCH   1   2
ATOM      2  C   UNL     1      29.956  33.190  23.337  1.00  0.00     0.000 C 
BRANCH   2   3
ATOM      3  C   UNL     1      28.681  32.810  22.563  1.00  0.00     0.000 C 
BRANCH   3   4
ATOM      4  C   UNL     1      28.871  32.852  21.038  1.00  0.00     0.000 C 
BRANCH   4   5
ATOM      5  C   UNL     1      27.755  33.581  20.262  1.00  0.00     0.000 C 
BRANCH   5   6
ATOM      6  C   UNL     1      27.859  35.119  20.246  1.00  0.00     0.000 C 
BRANCH   6   7
ATOM      7  C   UNL     1      27.102  35.834  21.380  1.00  0.00     0.000 C 
BRANCH   7   8
ATOM      8  C   UNL     1      28.039  36.591  22.336  1.00  0.00     0.000 C 
BRANCH   8   9
ATOM      9  C   UNL     1      27.585  36.482  23.801  1.00  0.00     0.000 C 
BRANCH   9  10
ATOM     10  C   UNL     1      28.750  36.137  24.747  1.00  0.00     0.006 C 
BRANCH  10  11
ATOM     11  C   UNL     1      30.056  36.828  24.332  1.00  0.00     0.053 C 
BRANCH  11  12
ATOM     12  C   UNL     1      31.204  36.414  25.202  1.00  0.00     0.041 C 
ATOM     13  O   UNL     1      32.319  36.138  24.687  1.00  0.00    -0.550 OA
ATOM     14  O   UNL     1      31.047  36.350  26.581  1.00  0.00    -0.550 OA
ENDBRANCH  11  12
ENDBRANCH  10  11
ENDBRANCH   9  10
ENDBRANCH   8   9
ENDBRANCH   7   8
ENDBRANCH   6   7
ENDBRANCH   5   6
ENDBRANCH   4   5
ENDBRANCH   3   4
ENDBRANCH   2   3
ENDBRANCH   1   2
BRANCH   1  15
ATOM     15  C   UNL     1      32.457  33.108  22.692  1.00  0.00     0.000 C 
BRANCH  15  16
ATOM     16  C   UNL     1      33.606  33.981  22.162  1.00  0.00     0.000 C 
BRANCH  16  17
ATOM     17  C   UNL     1      34.805  33.158  21.652  1.00  0.00     0.000 C 
BRANCH  17  18
ATOM     18  C   UNL     1      35.066  33.258  20.137  1.00  0.00    -0.000 C 
BRANCH  18  19
ATOM     19  C   UNL     1      34.720  31.962  19.381  1.00  0.00    -0.000 C 
BRANCH  19  20
ATOM     20  C   UNL     1      33.555  32.139  18.391  1.00  0.00    -0.000 C 
BRANCH  20  21
ATOM     21  C   UNL     1      32.273  32.746  18.991  1.00  0.00    -0.000 C 
BRANCH  21  22
ATOM     22  C   UNL     1      31.644  33.828  18.099  1.00  0.00    -0.000 C 
BRANCH  22  23
ATOM     23  C   UNL     1      32.544  35.066  17.939  1.00  0.00    -0.000 C 
BRANCH  23  24
ATOM     24  C   UNL     1      32.660  35.918  19.220  1.00  0.00    -0.000 C 
BRANCH  24  25
ATOM     25  C   UNL     1      31.287  36.234  19.832  1.00  0.00    -0.003 C 
ATOM     26  C   UNL     1      31.395  37.315  20.902  1.00  0.00     0.004 C 
ENDBRANCH  24  25
ENDBRANCH  23  24
ENDBRANCH  22  23
ENDBRANCH  21  22
ENDBRANCH  20  21
ENDBRANCH  19  20
ENDBRANCH  18  19
ENDBRANCH  17  18
ENDBRANCH  16  17
ENDBRANCH  15  16
ENDBRANCH   1  15
TORSDOF 22
ENDMDL
MODEL 8
REMARK VINA RESULT:    -3.496      3.428      7.786
REMARK INTER + INTRA:         -11.985
REMARK INTER:                  -7.922
REMARK INTRA:                  -4.063
REMARK UNBOUND:                -3.993
REMARK SMILES CCCCCCCCCCCCCCCCCCCCCCCC(=O)[O-]
REMARK SMILES IDX 13 1 14 2 15 3 16 4 17 5 18 6 19 7 20 8 21 9 22 10 23 11
REMARK SMILES IDX 24 12 25 13 26 14 12 15 11 16 10 17 9 18 8 19 7 20 6 21 5 22
REMARK SMILES IDX 4 23 3 24 2 25 1 26
REMARK H PARENT
REMARK Flexibility Score: inf
ROOT
ATOM      1  C   UNL     1      32.690  35.166  21.300  1.00  0.00     0.000 C 
ENDROOT
BRANCH   1   2
ATOM      2  C   UNL     1      32.571  34.225  22.517  1.00  0.00     0.000 C 
BRANCH   2   3
ATOM      3  C   UNL     1      33.130  32.823  22.217  1.00  0.00     0.000 C 
BRANCH   3   4
ATOM      4  C   UNL     1      34.083  32.803  21.009  1.00  0.00     0.000 C 
BRANCH   4   5
ATOM      5  C   UNL     1      33.562  32.030  19.781  1.00  0.00     0.000 C 
BRANCH   5   6
ATOM      6  C   UNL     1      34.042  32.559  18.415  1.00  0.00     0.000 C 
BRANCH   6   7
ATOM      7  C   UNL     1      34.290  34.077  18.357  1.00  0.00     0.000 C 
BRANCH   7   8
ATOM      8  C   UNL     1      33.485  34.770  17.246  1.00  0.00     0.000 C 
BRANCH   8   9
ATOM      9  C   UNL     1      32.490  33.815  16.566  1.00  0.00     0.000 C 
BRANCH   9  10
ATOM     10  C   UNL     1      32.738  33.696  15.052  1.00  0.00     0.006 C 
BRANCH  10  11
ATOM     11  C   UNL     1      33.511  32.421  14.691  1.00  0.00     0.053 C 
BRANCH  11  12
ATOM     12  C   UNL     1      34.944  32.714  14.362  1.00  0.00     0.041 C 
ATOM     13  O   UNL     1      35.785  32.873  15.285  1.00  0.00    -0.550 OA
ATOM     14  O   UNL     1      35.353  32.794  13.036  1.00  0.00    -0.550 OA
ENDBRANCH  11  12
ENDBRANCH  10  11
ENDBRANCH   9  10
ENDBRANCH   8   9
ENDBRANCH   7   8
ENDBRANCH   6   7
ENDBRANCH   5   6
ENDBRANCH   4   5
ENDBRANCH   3   4
ENDBRANCH   2   3
ENDBRANCH   1   2
BRANCH   1  15
ATOM     15  C   UNL     1      31.546  36.187  21.184  1.00  0.00     0.000 C 
BRANCH  15  16
ATOM     16  C   UNL     1      30.328  35.639  20.422  1.00  0.00     0.000 C 
BRANCH  16  17
ATOM     17  C   UNL     1      30.648  34.377  19.599  1.00  0.00     0.000 C 
BRANCH  17  18
ATOM     18  C   UNL     1      29.856  33.118  20.002  1.00  0.00    -0.000 C 
BRANCH  18  19
ATOM     19  C   UNL     1      28.720  33.416  20.997  1.00  0.00    -0.000 C 
BRANCH  19  20
ATOM     20  C   UNL     1      29.000  32.868  22.408  1.00  0.00    -0.000 C 
BRANCH  20  21
ATOM     21  C   UNL     1      28.622  33.814  23.564  1.00  0.00    -0.000 C 
BRANCH  21  22
ATOM     22  C   UNL     1      28.236  35.223  23.086  1.00  0.00    -0.000 C 
BRANCH  22  23
ATOM     23  C   UNL     1      28.864  36.336  23.944  1.00  0.00    -0.000 C 
BRANCH  23  24
ATOM     24  C   UNL     1      30.096  35.876  24.752  1.00  0.00    -0.000 C 
BRANCH  24  25
ATOM     25  C   UNL     1      30.115  36.473  26.167  1.00  0.00    -0.003 C 
ATOM     26  C   UNL     1      28.854  36.099  26.940  1.00  0.00     0.004 C 
ENDBRANCH  24  25
ENDBRANCH  23  24
ENDBRANCH  22  23
ENDBRANCH  21  22
ENDBRANCH  20  21
ENDBRANCH  19  20
ENDBRANCH  18  19
ENDBRANCH  17  18
ENDBRANCH  16  17
ENDBRANCH  15  16
ENDBRANCH   1  15
TORSDOF 22
ENDMDL
MODEL 9
REMARK VINA RESULT:    -3.494      3.794      8.520
REMARK INTER + INTRA:         -11.981
REMARK INTER:                  -8.209
REMARK INTRA:                  -3.772
REMARK UNBOUND:                -3.993
REMARK SMILES CCCCCCCCCCCCCCCCCCCCCCCC(=O)[O-]
REMARK SMILES IDX 13 1 14 2 15 3 16 4 17 5 18 6 19 7 20 8 21 9 22 10 23 11
REMARK SMILES IDX 24 12 25 13 26 14 12 15 11 16 10 17 9 18 8 19 7 20 6 21 5 22
REMARK SMILES IDX 4 23 3 24 2 25 1 26
REMARK H PARENT
REMARK Flexibility Score: inf
ROOT
ATOM      1  C   UNL     1      27.301  34.197  19.969  1.00  0.00     0.000 C 
ENDROOT
BRANCH   1   2
ATOM      2  C   UNL     1      28.013  33.097  20.783  1.00  0.00     0.000 C 
BRANCH   2   3
ATOM      3  C   UNL     1      28.241  33.520  22.245  1.00  0.00     0.000 C 
BRANCH   3   4
ATOM      4  C   UNL     1      29.132  32.536  23.022  1.00  0.00     0.000 C 
BRANCH   4   5
ATOM      5  C   UNL     1      30.634  32.885  23.031  1.00  0.00     0.000 C 
BRANCH   5   6
ATOM      6  C   UNL     1      30.963  34.389  22.949  1.00  0.00     0.000 C 
BRANCH   6   7
ATOM      7  C   UNL     1      31.723  34.821  21.682  1.00  0.00     0.000 C 
BRANCH   7   8
ATOM      8  C   UNL     1      31.782  33.714  20.616  1.00  0.00     0.000 C 
BRANCH   8   9
ATOM      9  C   UNL     1      31.174  34.163  19.277  1.00  0.00     0.000 C 
BRANCH   9  10
ATOM     10  C   UNL     1      32.082  33.820  18.082  1.00  0.00     0.006 C 
BRANCH  10  11
ATOM     11  C   UNL     1      33.000  32.627  18.377  1.00  0.00     0.053 C 
BRANCH  11  12
ATOM     12  C   UNL     1      33.940  32.354  17.241  1.00  0.00     0.041 C 
ATOM     13  O   UNL     1      34.263  31.171  16.958  1.00  0.00    -0.550 OA
ATOM     14  O   UNL     1      34.444  33.406  16.485  1.00  0.00    -0.550 OA
ENDBRANCH  11  12
ENDBRANCH  10  11
ENDBRANCH   9  10
ENDBRANCH   8   9
ENDBRANCH   7   8
ENDBRANCH   6   7
ENDBRANCH   5   6
ENDBRANCH   4   5
ENDBRANCH   3   4
ENDBRANCH   2   3
ENDBRANCH   1   2
BRANCH   1  15
ATOM     15  C   UNL     1      26.780  35.368  20.819  1.00  0.00     0.000 C 
BRANCH  15  16
ATOM     16  C   UNL     1      27.401  36.718  20.426  1.00  0.00     0.000 C 
BRANCH  16  17
ATOM     17  C   UNL     1      28.906  36.807  20.743  1.00  0.00     0.000 C 
BRANCH  17  18
ATOM     18  C   UNL     1      29.259  37.617  22.005  1.00  0.00    -0.000 C 
BRANCH  18  19
ATOM     19  C   UNL     1      28.057  38.388  22.580  1.00  0.00    -0.000 C 
BRANCH  19  20
ATOM     20  C   UNL     1      27.765  38.035  24.049  1.00  0.00    -0.000 C 
BRANCH  20  21
ATOM     21  C   UNL     1      27.219  36.614  24.284  1.00  0.00    -0.000 C 
BRANCH  21  22
ATOM     22  C   UNL     1      28.230  35.689  24.982  1.00  0.00    -0.000 C 
BRANCH  22  23
ATOM     23  C   UNL     1      28.873  36.337  26.220  1.00  0.00    -0.000 C 
BRANCH  23  24
ATOM     24  C   UNL     1      28.122  36.043  27.535  1.00  0.00    -0.000 C 
BRANCH  24  25
ATOM     25  C   UNL     1      27.201  37.201  27.947  1.00  0.00    -0.003 C 
ATOM     26  C   UNL     1      25.733  36.796  27.860  1.00  0.00     0.004 C 
ENDBRANCH  24  25
ENDBRANCH  23  24
ENDBRANCH  22  23
ENDBRANCH  21  22
ENDBRANCH  20  21
ENDBRANCH  19  20
ENDBRANCH  18  19
ENDBRANCH  17  18
ENDBRANCH  16  17
ENDBRANCH  15  16
ENDBRANCH   1  15
TORSDOF 22
ENDMDL
