MODEL 1
REMARK VINA RESULT:    -3.600      0.000      0.000
REMARK INTER + INTRA:          -4.639
REMARK INTER:                  -4.442
REMARK INTRA:                  -0.197
REMARK UNBOUND:                -0.197
REMARK SMILES C=CC[C@@H](C)C(=O)CC
REMARK SMILES IDX 4 1 5 2 6 3 7 4 8 5 9 6 3 7 2 8 1 9
REMARK H PARENT
REMARK Flexibility Score: inf
ROOT
ATOM      1  C   UNL     1      28.515  30.700  24.288  1.00  0.00     0.057 C 
ATOM      2  C   UNL     1      28.996  29.973  23.024  1.00  0.00     0.016 C 
ENDROOT
BRANCH   1   3
ATOM      3  C   UNL     1      28.762  29.860  25.525  1.00  0.00     0.135 C 
ATOM      4  O   UNL     1      28.753  30.385  26.630  1.00  0.00    -0.299 OA
BRANCH   3   5
ATOM      5  C   UNL     1      29.024  28.381  25.421  1.00  0.00     0.072 C 
ATOM      6  C   UNL     1      27.765  27.584  25.749  1.00  0.00     0.012 C 
ENDBRANCH   3   5
ENDBRANCH   1   3
BRANCH   1   7
ATOM      7  C   UNL     1      29.125  32.113  24.424  1.00  0.00     0.038 C 
BRANCH   7   8
ATOM      8  C   UNL     1      28.438  33.148  23.569  1.00  0.00    -0.034 C 
ATOM      9  C   UNL     1      29.037  33.700  22.511  1.00  0.00     0.004 C 
ENDBRANCH   7   8
ENDBRANCH   1   7
TORSDOF 4
ENDMDL
MODEL 2
REMARK VINA RESULT:    -3.377      1.906      4.886
REMARK INTER + INTRA:          -4.363
REMARK INTER:                  -4.101
REMARK INTRA:                  -0.263
REMARK UNBOUND:                -0.197
REMARK SMILES C=CC[C@@H](C)C(=O)CC
REMARK SMILES IDX 4 1 5 2 6 3 7 4 8 5 9 6 3 7 2 8 1 9
REMARK H PARENT
REMARK Flexibility Score: inf
ROOT
ATOM      1  C   UNL     1      28.252  28.864  26.034  1.00  0.00     0.057 C 
ATOM      2  C   UNL     1      28.925  29.998  26.820  1.00  0.00     0.016 C 
ENDROOT
BRANCH   1   3
ATOM      3  C   UNL     1      27.989  29.279  24.599  1.00  0.00     0.135 C 
ATOM      4  O   UNL     1      26.839  29.380  24.195  1.00  0.00    -0.299 OA
BRANCH   3   5
ATOM      5  C   UNL     1      29.125  29.568  23.654  1.00  0.00     0.072 C 
ATOM      6  C   UNL     1      29.087  31.021  23.192  1.00  0.00     0.012 C 
ENDBRANCH   3   5
ENDBRANCH   1   3
BRANCH   1   7
ATOM      7  C   UNL     1      29.044  27.541  26.112  1.00  0.00     0.038 C 
BRANCH   7   8
ATOM      8  C   UNL     1      28.210  26.323  25.804  1.00  0.00    -0.034 C 
ATOM      9  C   UNL     1      28.763  25.164  25.438  1.00  0.00     0.004 C 
ENDBRANCH   7   8
ENDBRANCH   1   7
TORSDOF 4
ENDMDL
MODEL 3
REMARK VINA RESULT:    -3.123      1.118      4.504
REMARK INTER + INTRA:          -4.051
REMARK INTER:                  -3.854
REMARK INTRA:                  -0.196
REMARK UNBOUND:                -0.197
REMARK SMILES C=CC[C@@H](C)C(=O)CC
REMARK SMILES IDX 4 1 5 2 6 3 7 4 8 5 9 6 3 7 2 8 1 9
REMARK H PARENT
REMARK Flexibility Score: inf
ROOT
ATOM      1  C   UNL     1      28.408  29.549  24.182  1.00  0.00     0.057 C 
ATOM      2  C   UNL     1      26.877  29.474  24.270  1.00  0.00     0.016 C 
ENDROOT
BRANCH   1   3
ATOM      3  C   UNL     1      28.903  30.946  24.503  1.00  0.00     0.135 C 
ATOM      4  O   UNL     1      29.125  31.263  25.663  1.00  0.00    -0.299 OA
BRANCH   3   5
ATOM      5  C   UNL     1      29.124  31.961  23.413  1.00  0.00     0.072 C 
ATOM      6  C   UNL     1      28.451  33.284  23.762  1.00  0.00     0.012 C 
ENDBRANCH   3   5
ENDBRANCH   1   3
BRANCH   1   7
ATOM      7  C   UNL     1      29.102  28.481  25.055  1.00  0.00     0.038 C 
BRANCH   7   8
ATOM      8  C   UNL     1      28.137  27.610  25.819  1.00  0.00    -0.034 C 
ATOM      9  C   UNL     1      28.503  26.432  26.331  1.00  0.00     0.004 C 
ENDBRANCH   7   8
ENDBRANCH   1   7
TORSDOF 4
ENDMDL
MODEL 4
REMARK VINA RESULT:    -3.056      1.957      3.050
REMARK INTER + INTRA:          -3.968
REMARK INTER:                  -3.817
REMARK INTRA:                  -0.151
REMARK UNBOUND:                -0.197
REMARK SMILES C=CC[C@@H](C)C(=O)CC
REMARK SMILES IDX 4 1 5 2 6 3 7 4 8 5 9 6 3 7 2 8 1 9
REMARK H PARENT
REMARK Flexibility Score: inf
ROOT
ATOM      1  C   UNL     1      28.710  28.626  25.715  1.00  0.00     0.057 C 
ATOM      2  C   UNL     1      28.747  29.275  27.106  1.00  0.00     0.016 C 
ENDROOT
BRANCH   1   3
ATOM      3  C   UNL     1      28.209  27.197  25.796  1.00  0.00     0.135 C 
ATOM      4  O   UNL     1      27.044  26.975  26.098  1.00  0.00    -0.299 OA
BRANCH   3   5
ATOM      5  C   UNL     1      29.125  26.036  25.515  1.00  0.00     0.072 C 
ATOM      6  C   UNL     1      28.358  24.718  25.562  1.00  0.00     0.012 C 
ENDBRANCH   3   5
ENDBRANCH   1   3
BRANCH   1   7
ATOM      7  C   UNL     1      27.902  29.459  24.697  1.00  0.00     0.038 C 
BRANCH   7   8
ATOM      8  C   UNL     1      28.763  30.160  23.677  1.00  0.00    -0.034 C 
ATOM      9  C   UNL     1      28.791  31.492  23.572  1.00  0.00     0.004 C 
ENDBRANCH   7   8
ENDBRANCH   1   7
TORSDOF 4
ENDMDL
MODEL 5
REMARK VINA RESULT:    -2.921      5.040      7.099
REMARK INTER + INTRA:          -3.800
REMARK INTER:                  -3.550
REMARK INTRA:                  -0.250
REMARK UNBOUND:                -0.197
REMARK SMILES C=CC[C@@H](C)C(=O)CC
REMARK SMILES IDX 4 1 5 2 6 3 7 4 8 5 9 6 3 7 2 8 1 9
REMARK H PARENT
REMARK Flexibility Score: inf
ROOT
ATOM      1  C   UNL     1      26.589  24.376  25.139  1.00  0.00     0.057 C 
ATOM      2  C   UNL     1      26.413  23.618  23.816  1.00  0.00     0.016 C 
ENDROOT
BRANCH   1   3
ATOM      3  C   UNL     1      25.758  23.749  26.241  1.00  0.00     0.135 C 
ATOM      4  O   UNL     1      26.048  23.949  27.412  1.00  0.00    -0.299 OA
BRANCH   3   5
ATOM      5  C   UNL     1      24.575  22.875  25.919  1.00  0.00     0.072 C 
ATOM      6  C   UNL     1      23.539  22.934  27.037  1.00  0.00     0.012 C 
ENDBRANCH   3   5
ENDBRANCH   1   3
BRANCH   1   7
ATOM      7  C   UNL     1      28.072  24.513  25.547  1.00  0.00     0.038 C 
BRANCH   7   8
ATOM      8  C   UNL     1      28.534  25.944  25.659  1.00  0.00    -0.034 C 
ATOM      9  C   UNL     1      27.671  26.964  25.688  1.00  0.00     0.004 C 
ENDBRANCH   7   8
ENDBRANCH   1   7
TORSDOF 4
ENDMDL
MODEL 6
REMARK VINA RESULT:    -2.888      3.295      5.204
REMARK INTER + INTRA:          -3.760
REMARK INTER:                  -3.613
REMARK INTRA:                  -0.146
REMARK UNBOUND:                -0.197
REMARK SMILES C=CC[C@@H](C)C(=O)CC
REMARK SMILES IDX 4 1 5 2 6 3 7 4 8 5 9 6 3 7 2 8 1 9
REMARK H PARENT
REMARK Flexibility Score: inf
ROOT
ATOM      1  C   UNL     1      27.876  26.105  25.456  1.00  0.00     0.057 C 
ATOM      2  C   UNL     1      29.125  25.945  26.333  1.00  0.00     0.016 C 
ENDROOT
BRANCH   1   3
ATOM      3  C   UNL     1      26.986  24.881  25.549  1.00  0.00     0.135 C 
ATOM      4  O   UNL     1      26.143  24.806  26.433  1.00  0.00    -0.299 OA
BRANCH   3   5
ATOM      5  C   UNL     1      27.122  23.745  24.571  1.00  0.00     0.072 C 
ATOM      6  C   UNL     1      25.765  23.372  23.982  1.00  0.00     0.012 C 
ENDBRANCH   3   5
ENDBRANCH   1   3
BRANCH   1   7
ATOM      7  C   UNL     1      27.099  27.403  25.765  1.00  0.00     0.038 C 
BRANCH   7   8
ATOM      8  C   UNL     1      27.957  28.642  25.716  1.00  0.00    -0.034 C 
ATOM      9  C   UNL     1      27.985  29.438  24.644  1.00  0.00     0.004 C 
ENDBRANCH   7   8
ENDBRANCH   1   7
TORSDOF 4
ENDMDL
MODEL 7
REMARK VINA RESULT:    -2.798      4.875      7.852
REMARK INTER + INTRA:          -3.649
REMARK INTER:                  -3.398
REMARK INTRA:                  -0.251
REMARK UNBOUND:                -0.197
REMARK SMILES C=CC[C@@H](C)C(=O)CC
REMARK SMILES IDX 4 1 5 2 6 3 7 4 8 5 9 6 3 7 2 8 1 9
REMARK H PARENT
REMARK Flexibility Score: inf
ROOT
ATOM      1  C   UNL     1      26.731  23.502  24.935  1.00  0.00     0.057 C 
ATOM      2  C   UNL     1      26.139  23.673  23.529  1.00  0.00     0.016 C 
ENDROOT
BRANCH   1   3
ATOM      3  C   UNL     1      27.768  24.569  25.221  1.00  0.00     0.135 C 
ATOM      4  O   UNL     1      28.958  24.311  25.100  1.00  0.00    -0.299 OA
BRANCH   3   5
ATOM      5  C   UNL     1      27.361  25.950  25.660  1.00  0.00     0.072 C 
ATOM      6  C   UNL     1      28.560  26.893  25.662  1.00  0.00     0.012 C 
ENDBRANCH   3   5
ENDBRANCH   1   3
BRANCH   1   7
ATOM      7  C   UNL     1      25.644  23.450  26.030  1.00  0.00     0.038 C 
BRANCH   7   8
ATOM      8  C   UNL     1      26.134  22.876  27.336  1.00  0.00    -0.034 C 
ATOM      9  C   UNL     1      25.563  23.188  28.502  1.00  0.00     0.004 C 
ENDBRANCH   7   8
ENDBRANCH   1   7
TORSDOF 4
ENDMDL
