MODEL 1
REMARK VINA RESULT:     4.204      0.000      0.000
REMARK INTER + INTRA:           8.152
REMARK INTER:                   9.611
REMARK INTRA:                  -1.458
REMARK UNBOUND:                -1.458
REMARK SMILES CCCCCCCCCCCCCCCCCCCCCCCC(=O)[O-]
REMARK SMILES IDX 13 1 14 2 15 3 16 4 17 5 18 6 19 7 20 8 21 9 22 10 23 11
REMARK SMILES IDX 24 12 25 13 26 14 12 15 11 16 10 17 9 18 8 19 7 20 6 21 5 22
REMARK SMILES IDX 4 23 3 24 2 25 1 26
REMARK H PARENT
REMARK Flexibility Score: inf
ROOT
ATOM      1  C   UNL     1      -4.588  50.435   0.691  1.00  0.00     0.000 C 
ENDROOT
BRANCH   1   2
ATOM      2  C   UNL     1      -6.091  50.726   0.543  1.00  0.00     0.000 C 
BRANCH   2   3
ATOM      3  C   UNL     1      -6.358  52.072  -0.154  1.00  0.00     0.000 C 
BRANCH   3   4
ATOM      4  C   UNL     1      -7.629  52.048  -1.018  1.00  0.00     0.000 C 
BRANCH   4   5
ATOM      5  C   UNL     1      -8.193  50.628  -1.202  1.00  0.00     0.000 C 
BRANCH   5   6
ATOM      6  C   UNL     1      -8.249  50.208  -2.686  1.00  0.00     0.000 C 
BRANCH   6   7
ATOM      7  C   UNL     1      -8.014  51.371  -3.667  1.00  0.00     0.000 C 
BRANCH   7   8
ATOM      8  C   UNL     1      -9.123  51.491  -4.724  1.00  0.00     0.000 C 
BRANCH   8   9
ATOM      9  C   UNL     1      -8.623  52.096  -6.046  1.00  0.00     0.000 C 
BRANCH   9  10
ATOM     10  C   UNL     1      -7.140  51.790  -6.322  1.00  0.00     0.006 C 
BRANCH  10  11
ATOM     11  C   UNL     1      -6.774  51.996  -7.798  1.00  0.00     0.053 C 
BRANCH  11  12
ATOM     12  C   UNL     1      -7.397  50.953  -8.674  1.00  0.00     0.041 C 
ATOM     13  O   UNL     1      -7.803  49.868  -8.182  1.00  0.00    -0.550 OA
ATOM     14  O   UNL     1      -7.560  51.197 -10.033  1.00  0.00    -0.550 OA
ENDBRANCH  11  12
ENDBRANCH  10  11
ENDBRANCH   9  10
ENDBRANCH   8   9
ENDBRANCH   7   8
ENDBRANCH   6   7
ENDBRANCH   5   6
ENDBRANCH   4   5
ENDBRANCH   3   4
ENDBRANCH   2   3
ENDBRANCH   1   2
BRANCH   1  15
ATOM     15  C   UNL     1      -3.762  51.711   0.931  1.00  0.00     0.000 C 
BRANCH  15  16
ATOM     16  C   UNL     1      -2.938  52.123  -0.298  1.00  0.00     0.000 C 
BRANCH  16  17
ATOM     17  C   UNL     1      -1.531  51.506  -0.310  1.00  0.00     0.000 C 
BRANCH  17  18
ATOM     18  C   UNL     1      -1.252  50.818  -1.652  1.00  0.00    -0.000 C 
BRANCH  18  19
ATOM     19  C   UNL     1       0.195  51.057  -2.107  1.00  0.00    -0.000 C 
BRANCH  19  20
ATOM     20  C   UNL     1       0.367  50.949  -3.633  1.00  0.00    -0.000 C 
BRANCH  20  21
ATOM     21  C   UNL     1      -0.723  51.651  -4.469  1.00  0.00    -0.000 C 
BRANCH  21  22
ATOM     22  C   UNL     1      -1.194  50.880  -5.716  1.00  0.00    -0.000 C 
BRANCH  22  23
ATOM     23  C   UNL     1      -2.272  51.635  -6.510  1.00  0.00    -0.000 C 
BRANCH  23  24
ATOM     24  C   UNL     1      -3.253  50.692  -7.233  1.00  0.00    -0.000 C 
BRANCH  24  25
ATOM     25  C   UNL     1      -3.672  51.143  -8.644  1.00  0.00    -0.003 C 
ATOM     26  C   UNL     1      -2.685  52.124  -9.276  1.00  0.00     0.004 C 
ENDBRANCH  24  25
ENDBRANCH  23  24
ENDBRANCH  22  23
ENDBRANCH  21  22
ENDBRANCH  20  21
ENDBRANCH  19  20
ENDBRANCH  18  19
ENDBRANCH  17  18
ENDBRANCH  16  17
ENDBRANCH  15  16
ENDBRANCH   1  15
TORSDOF 22
ENDMDL
MODEL 2
REMARK VINA RESULT:     4.375      5.406      8.835
REMARK INTER + INTRA:           8.544
REMARK INTER:                   9.671
REMARK INTRA:                  -1.128
REMARK UNBOUND:                -1.458
REMARK SMILES CCCCCCCCCCCCCCCCCCCCCCCC(=O)[O-]
REMARK SMILES IDX 13 1 14 2 15 3 16 4 17 5 18 6 19 7 20 8 21 9 22 10 23 11
REMARK SMILES IDX 24 12 25 13 26 14 12 15 11 16 10 17 9 18 8 19 7 20 6 21 5 22
REMARK SMILES IDX 4 23 3 24 2 25 1 26
REMARK H PARENT
REMARK Flexibility Score: inf
ROOT
ATOM      1  C   UNL     1      -7.340  48.440  -1.523  1.00  0.00     0.000 C 
ENDROOT
BRANCH   1   2
ATOM      2  C   UNL     1      -7.111  46.966  -1.150  1.00  0.00     0.000 C 
BRANCH   2   3
ATOM      3  C   UNL     1      -6.632  46.129  -2.349  1.00  0.00     0.000 C 
BRANCH   3   4
ATOM      4  C   UNL     1      -6.947  44.633  -2.189  1.00  0.00     0.000 C 
BRANCH   4   5
ATOM      5  C   UNL     1      -5.740  43.736  -2.517  1.00  0.00     0.000 C 
BRANCH   5   6
ATOM      6  C   UNL     1      -5.865  42.333  -1.885  1.00  0.00     0.000 C 
BRANCH   6   7
ATOM      7  C   UNL     1      -5.247  42.231  -0.479  1.00  0.00     0.000 C 
BRANCH   7   8
ATOM      8  C   UNL     1      -4.006  43.121  -0.309  1.00  0.00     0.000 C 
BRANCH   8   9
ATOM      9  C   UNL     1      -2.879  42.766  -1.294  1.00  0.00     0.000 C 
BRANCH   9  10
ATOM     10  C   UNL     1      -2.038  43.986  -1.708  1.00  0.00     0.006 C 
BRANCH  10  11
ATOM     11  C   UNL     1      -0.602  43.596  -2.081  1.00  0.00     0.053 C 
BRANCH  11  12
ATOM     12  C   UNL     1       0.052  44.638  -2.935  1.00  0.00     0.041 C 
ATOM     13  O   UNL     1       0.184  44.455  -4.174  1.00  0.00    -0.550 OA
ATOM     14  O   UNL     1       0.485  45.829  -2.365  1.00  0.00    -0.550 OA
ENDBRANCH  11  12
ENDBRANCH  10  11
ENDBRANCH   9  10
ENDBRANCH   8   9
ENDBRANCH   7   8
ENDBRANCH   6   7
ENDBRANCH   5   6
ENDBRANCH   4   5
ENDBRANCH   3   4
ENDBRANCH   2   3
ENDBRANCH   1   2
BRANCH   1  15
ATOM     15  C   UNL     1      -7.760  48.618  -2.992  1.00  0.00     0.000 C 
BRANCH  15  16
ATOM     16  C   UNL     1      -9.055  49.431  -3.144  1.00  0.00     0.000 C 
BRANCH  16  17
ATOM     17  C   UNL     1      -8.860  50.723  -3.952  1.00  0.00     0.000 C 
BRANCH  17  18
ATOM     18  C   UNL     1      -8.647  51.920  -3.018  1.00  0.00    -0.000 C 
BRANCH  18  19
ATOM     19  C   UNL     1      -8.855  51.521  -1.549  1.00  0.00    -0.000 C 
BRANCH  19  20
ATOM     20  C   UNL     1      -7.792  52.122  -0.612  1.00  0.00    -0.000 C 
BRANCH  20  21
ATOM     21  C   UNL     1      -6.387  51.495  -0.721  1.00  0.00    -0.000 C 
BRANCH  21  22
ATOM     22  C   UNL     1      -5.653  51.285   0.617  1.00  0.00    -0.000 C 
BRANCH  22  23
ATOM     23  C   UNL     1      -4.334  52.069   0.701  1.00  0.00    -0.000 C 
BRANCH  23  24
ATOM     24  C   UNL     1      -3.130  51.271   0.165  1.00  0.00    -0.000 C 
BRANCH  24  25
ATOM     25  C   UNL     1      -1.905  52.120  -0.224  1.00  0.00    -0.003 C 
ATOM     26  C   UNL     1      -0.727  51.946   0.735  1.00  0.00     0.004 C 
ENDBRANCH  24  25
ENDBRANCH  23  24
ENDBRANCH  22  23
ENDBRANCH  21  22
ENDBRANCH  20  21
ENDBRANCH  19  20
ENDBRANCH  18  19
ENDBRANCH  17  18
ENDBRANCH  16  17
ENDBRANCH  15  16
ENDBRANCH   1  15
TORSDOF 22
ENDMDL
MODEL 3
REMARK VINA RESULT:     5.674      5.240      6.710
REMARK INTER + INTRA:          11.512
REMARK INTER:                  13.144
REMARK INTRA:                  -1.632
REMARK UNBOUND:                -1.458
REMARK SMILES CCCCCCCCCCCCCCCCCCCCCCCC(=O)[O-]
REMARK SMILES IDX 13 1 14 2 15 3 16 4 17 5 18 6 19 7 20 8 21 9 22 10 23 11
REMARK SMILES IDX 24 12 25 13 26 14 12 15 11 16 10 17 9 18 8 19 7 20 6 21 5 22
REMARK SMILES IDX 4 23 3 24 2 25 1 26
REMARK H PARENT
REMARK Flexibility Score: inf
ROOT
ATOM      1  C   UNL     1      -6.058  46.041  -1.388  1.00  0.00     0.000 C 
ENDROOT
BRANCH   1   2
ATOM      2  C   UNL     1      -7.068  47.074  -0.860  1.00  0.00     0.000 C 
BRANCH   2   3
ATOM      3  C   UNL     1      -7.485  48.086  -1.942  1.00  0.00     0.000 C 
BRANCH   3   4
ATOM      4  C   UNL     1      -8.089  49.370  -1.348  1.00  0.00     0.000 C 
BRANCH   4   5
ATOM      5  C   UNL     1      -8.831  50.215  -2.398  1.00  0.00     0.000 C 
BRANCH   5   6
ATOM      6  C   UNL     1      -8.246  51.637  -2.525  1.00  0.00     0.000 C 
BRANCH   6   7
ATOM      7  C   UNL     1      -7.596  51.919  -3.892  1.00  0.00     0.000 C 
BRANCH   7   8
ATOM      8  C   UNL     1      -8.523  51.583  -5.071  1.00  0.00     0.000 C 
BRANCH   8   9
ATOM      9  C   UNL     1      -7.754  51.133  -6.324  1.00  0.00     0.000 C 
BRANCH   9  10
ATOM     10  C   UNL     1      -6.644  52.118  -6.731  1.00  0.00     0.006 C 
BRANCH  10  11
ATOM     11  C   UNL     1      -5.248  51.597  -6.364  1.00  0.00     0.053 C 
BRANCH  11  12
ATOM     12  C   UNL     1      -4.312  51.648  -7.532  1.00  0.00     0.041 C 
ATOM     13  O   UNL     1      -3.080  51.443  -7.370  1.00  0.00    -0.550 OA
ATOM     14  O   UNL     1      -4.808  51.891  -8.807  1.00  0.00    -0.550 OA
ENDBRANCH  11  12
ENDBRANCH  10  11
ENDBRANCH   9  10
ENDBRANCH   8   9
ENDBRANCH   7   8
ENDBRANCH   6   7
ENDBRANCH   5   6
ENDBRANCH   4   5
ENDBRANCH   3   4
ENDBRANCH   2   3
ENDBRANCH   1   2
BRANCH   1  15
ATOM     15  C   UNL     1      -6.689  45.059  -2.390  1.00  0.00     0.000 C 
BRANCH  15  16
ATOM     16  C   UNL     1      -5.976  43.698  -2.415  1.00  0.00     0.000 C 
BRANCH  16  17
ATOM     17  C   UNL     1      -6.692  42.632  -1.573  1.00  0.00     0.000 C 
BRANCH  17  18
ATOM     18  C   UNL     1      -5.678  41.790  -0.787  1.00  0.00    -0.000 C 
BRANCH  18  19
ATOM     19  C   UNL     1      -4.561  42.670  -0.207  1.00  0.00    -0.000 C 
BRANCH  19  20
ATOM     20  C   UNL     1      -3.159  42.071  -0.421  1.00  0.00    -0.000 C 
BRANCH  20  21
ATOM     21  C   UNL     1      -2.198  42.930  -1.268  1.00  0.00    -0.000 C 
BRANCH  21  22
ATOM     22  C   UNL     1      -2.637  44.391  -1.483  1.00  0.00    -0.000 C 
BRANCH  22  23
ATOM     23  C   UNL     1      -1.449  45.364  -1.562  1.00  0.00    -0.000 C 
BRANCH  23  24
ATOM     24  C   UNL     1      -0.140  44.675  -1.991  1.00  0.00    -0.000 C 
BRANCH  24  25
ATOM     25  C   UNL     1       0.126  44.667  -3.508  1.00  0.00    -0.003 C 
ATOM     26  C   UNL     1       0.499  43.284  -4.043  1.00  0.00     0.004 C 
ENDBRANCH  24  25
ENDBRANCH  23  24
ENDBRANCH  22  23
ENDBRANCH  21  22
ENDBRANCH  20  21
ENDBRANCH  19  20
ENDBRANCH  18  19
ENDBRANCH  17  18
ENDBRANCH  16  17
ENDBRANCH  15  16
ENDBRANCH   1  15
TORSDOF 22
ENDMDL
MODEL 4
REMARK VINA RESULT:     6.102      5.606      8.295
REMARK INTER + INTRA:          12.492
REMARK INTER:                  13.754
REMARK INTRA:                  -1.262
REMARK UNBOUND:                -1.458
REMARK SMILES CCCCCCCCCCCCCCCCCCCCCCCC(=O)[O-]
REMARK SMILES IDX 13 1 14 2 15 3 16 4 17 5 18 6 19 7 20 8 21 9 22 10 23 11
REMARK SMILES IDX 24 12 25 13 26 14 12 15 11 16 10 17 9 18 8 19 7 20 6 21 5 22
REMARK SMILES IDX 4 23 3 24 2 25 1 26
REMARK H PARENT
REMARK Flexibility Score: inf
ROOT
ATOM      1  C   UNL     1      -6.773  47.060  -2.225  1.00  0.00     0.000 C 
ENDROOT
BRANCH   1   2
ATOM      2  C   UNL     1      -7.021  45.609  -2.667  1.00  0.00     0.000 C 
BRANCH   2   3
ATOM      3  C   UNL     1      -6.553  44.590  -1.613  1.00  0.00     0.000 C 
BRANCH   3   4
ATOM      4  C   UNL     1      -7.432  43.329  -1.578  1.00  0.00     0.000 C 
BRANCH   4   5
ATOM      5  C   UNL     1      -6.609  42.039  -1.416  1.00  0.00     0.000 C 
BRANCH   5   6
ATOM      6  C   UNL     1      -5.121  42.245  -1.772  1.00  0.00     0.000 C 
BRANCH   6   7
ATOM      7  C   UNL     1      -4.157  41.896  -0.624  1.00  0.00     0.000 C 
BRANCH   7   8
ATOM      8  C   UNL     1      -3.349  43.109  -0.137  1.00  0.00     0.000 C 
BRANCH   8   9
ATOM      9  C   UNL     1      -3.392  44.289  -1.122  1.00  0.00     0.000 C 
BRANCH   9  10
ATOM     10  C   UNL     1      -1.997  44.858  -1.436  1.00  0.00     0.006 C 
BRANCH  10  11
ATOM     11  C   UNL     1      -1.062  43.796  -2.029  1.00  0.00     0.053 C 
BRANCH  11  12
ATOM     12  C   UNL     1      -0.087  44.393  -2.997  1.00  0.00     0.041 C 
ATOM     13  O   UNL     1       0.420  43.687  -3.908  1.00  0.00    -0.550 OA
ATOM     14  O   UNL     1       0.235  45.743  -2.912  1.00  0.00    -0.550 OA
ENDBRANCH  11  12
ENDBRANCH  10  11
ENDBRANCH   9  10
ENDBRANCH   8   9
ENDBRANCH   7   8
ENDBRANCH   6   7
ENDBRANCH   5   6
ENDBRANCH   4   5
ENDBRANCH   3   4
ENDBRANCH   2   3
ENDBRANCH   1   2
BRANCH   1  15
ATOM     15  C   UNL     1      -8.080  47.827  -1.959  1.00  0.00     0.000 C 
BRANCH  15  16
ATOM     16  C   UNL     1      -7.921  49.346  -2.128  1.00  0.00     0.000 C 
BRANCH  16  17
ATOM     17  C   UNL     1      -8.308  49.836  -3.532  1.00  0.00     0.000 C 
BRANCH  17  18
ATOM     18  C   UNL     1      -8.660  51.329  -3.507  1.00  0.00    -0.000 C 
BRANCH  18  19
ATOM     19  C   UNL     1      -7.766  52.124  -4.470  1.00  0.00    -0.000 C 
BRANCH  19  20
ATOM     20  C   UNL     1      -8.097  51.856  -5.950  1.00  0.00    -0.000 C 
BRANCH  20  21
ATOM     21  C   UNL     1      -6.945  52.123  -6.941  1.00  0.00    -0.000 C 
BRANCH  21  22
ATOM     22  C   UNL     1      -7.163  51.580  -8.365  1.00  0.00    -0.000 C 
BRANCH  22  23
ATOM     23  C   UNL     1      -5.874  51.027  -8.995  1.00  0.00    -0.000 C 
BRANCH  23  24
ATOM     24  C   UNL     1      -4.724  52.052  -8.999  1.00  0.00    -0.000 C 
BRANCH  24  25
ATOM     25  C   UNL     1      -3.399  51.549  -8.396  1.00  0.00    -0.003 C 
ATOM     26  C   UNL     1      -3.431  51.460  -6.870  1.00  0.00     0.004 C 
ENDBRANCH  24  25
ENDBRANCH  23  24
ENDBRANCH  22  23
ENDBRANCH  21  22
ENDBRANCH  20  21
ENDBRANCH  19  20
ENDBRANCH  18  19
ENDBRANCH  17  18
ENDBRANCH  16  17
ENDBRANCH  15  16
ENDBRANCH   1  15
TORSDOF 22
ENDMDL
MODEL 5
REMARK VINA RESULT:     6.697      6.051      8.795
REMARK INTER + INTRA:          13.852
REMARK INTER:                  14.501
REMARK INTRA:                  -0.649
REMARK UNBOUND:                -1.458
REMARK SMILES CCCCCCCCCCCCCCCCCCCCCCCC(=O)[O-]
REMARK SMILES IDX 13 1 14 2 15 3 16 4 17 5 18 6 19 7 20 8 21 9 22 10 23 11
REMARK SMILES IDX 24 12 25 13 26 14 12 15 11 16 10 17 9 18 8 19 7 20 6 21 5 22
REMARK SMILES IDX 4 23 3 24 2 25 1 26
REMARK H PARENT
REMARK Flexibility Score: inf
ROOT
ATOM      1  C   UNL     1      -6.969  45.676  -1.372  1.00  0.00     0.000 C 
ENDROOT
BRANCH   1   2
ATOM      2  C   UNL     1      -6.015  44.705  -2.088  1.00  0.00     0.000 C 
BRANCH   2   3
ATOM      3  C   UNL     1      -6.305  43.236  -1.734  1.00  0.00     0.000 C 
BRANCH   3   4
ATOM      4  C   UNL     1      -5.023  42.398  -1.595  1.00  0.00     0.000 C 
BRANCH   4   5
ATOM      5  C   UNL     1      -4.058  42.964  -0.538  1.00  0.00     0.000 C 
BRANCH   5   6
ATOM      6  C   UNL     1      -2.639  43.189  -1.103  1.00  0.00     0.000 C 
BRANCH   6   7
ATOM      7  C   UNL     1      -2.376  44.636  -1.556  1.00  0.00     0.000 C 
BRANCH   7   8
ATOM      8  C   UNL     1      -0.882  44.996  -1.560  1.00  0.00     0.000 C 
BRANCH   8   9
ATOM      9  C   UNL     1      -0.237  44.845  -2.948  1.00  0.00     0.000 C 
BRANCH   9  10
ATOM     10  C   UNL     1       0.028  43.378  -3.330  1.00  0.00     0.006 C 
BRANCH  10  11
ATOM     11  C   UNL     1       0.891  43.259  -4.593  1.00  0.00     0.053 C 
BRANCH  11  12
ATOM     12  C   UNL     1       0.797  41.894  -5.202  1.00  0.00     0.041 C 
ATOM     13  O   UNL     1       0.727  40.873  -4.468  1.00  0.00    -0.550 OA
ATOM     14  O   UNL     1       0.753  41.753  -6.584  1.00  0.00    -0.550 OA
ENDBRANCH  11  12
ENDBRANCH  10  11
ENDBRANCH   9  10
ENDBRANCH   8   9
ENDBRANCH   7   8
ENDBRANCH   6   7
ENDBRANCH   5   6
ENDBRANCH   4   5
ENDBRANCH   3   4
ENDBRANCH   2   3
ENDBRANCH   1   2
BRANCH   1  15
ATOM     15  C   UNL     1      -7.181  46.981  -2.160  1.00  0.00     0.000 C 
BRANCH  15  16
ATOM     16  C   UNL     1      -7.352  48.204  -1.246  1.00  0.00     0.000 C 
BRANCH  16  17
ATOM     17  C   UNL     1      -8.423  49.182  -1.748  1.00  0.00     0.000 C 
BRANCH  17  18
ATOM     18  C   UNL     1      -8.045  50.627  -1.400  1.00  0.00    -0.000 C 
BRANCH  18  19
ATOM     19  C   UNL     1      -8.772  51.626  -2.313  1.00  0.00    -0.000 C 
BRANCH  19  20
ATOM     20  C   UNL     1      -7.935  52.032  -3.539  1.00  0.00    -0.000 C 
BRANCH  20  21
ATOM     21  C   UNL     1      -8.464  51.520  -4.895  1.00  0.00    -0.000 C 
BRANCH  21  22
ATOM     22  C   UNL     1      -7.723  52.055  -6.135  1.00  0.00    -0.000 C 
BRANCH  22  23
ATOM     23  C   UNL     1      -6.200  52.124  -5.935  1.00  0.00    -0.000 C 
BRANCH  23  24
ATOM     24  C   UNL     1      -5.413  51.729  -7.199  1.00  0.00    -0.000 C 
BRANCH  24  25
ATOM     25  C   UNL     1      -6.123  52.034  -8.531  1.00  0.00    -0.003 C 
ATOM     26  C   UNL     1      -7.118  50.948  -8.942  1.00  0.00     0.004 C 
ENDBRANCH  24  25
ENDBRANCH  23  24
ENDBRANCH  22  23
ENDBRANCH  21  22
ENDBRANCH  20  21
ENDBRANCH  19  20
ENDBRANCH  18  19
ENDBRANCH  17  18
ENDBRANCH  16  17
ENDBRANCH  15  16
ENDBRANCH   1  15
TORSDOF 22
ENDMDL
MODEL 6
REMARK VINA RESULT:     6.876      5.216      6.371
REMARK INTER + INTRA:          14.262
REMARK INTER:                  15.024
REMARK INTRA:                  -0.762
REMARK UNBOUND:                -1.458
REMARK SMILES CCCCCCCCCCCCCCCCCCCCCCCC(=O)[O-]
REMARK SMILES IDX 13 1 14 2 15 3 16 4 17 5 18 6 19 7 20 8 21 9 22 10 23 11
REMARK SMILES IDX 24 12 25 13 26 14 12 15 11 16 10 17 9 18 8 19 7 20 6 21 5 22
REMARK SMILES IDX 4 23 3 24 2 25 1 26
REMARK H PARENT
REMARK Flexibility Score: inf
ROOT
ATOM      1  C   UNL     1      -6.173  45.824  -2.251  1.00  0.00     0.000 C 
ENDROOT
BRANCH   1   2
ATOM      2  C   UNL     1      -7.087  46.312  -1.114  1.00  0.00     0.000 C 
BRANCH   2   3
ATOM      3  C   UNL     1      -6.893  47.809  -0.812  1.00  0.00     0.000 C 
BRANCH   3   4
ATOM      4  C   UNL     1      -8.121  48.652  -1.191  1.00  0.00     0.000 C 
BRANCH   4   5
ATOM      5  C   UNL     1      -7.966  49.343  -2.557  1.00  0.00     0.000 C 
BRANCH   5   6
ATOM      6  C   UNL     1      -8.865  50.590  -2.688  1.00  0.00     0.000 C 
BRANCH   6   7
ATOM      7  C   UNL     1      -8.152  51.803  -3.312  1.00  0.00     0.000 C 
BRANCH   7   8
ATOM      8  C   UNL     1      -8.655  52.125  -4.728  1.00  0.00     0.000 C 
BRANCH   8   9
ATOM      9  C   UNL     1      -7.528  52.125  -5.775  1.00  0.00     0.000 C 
BRANCH   9  10
ATOM     10  C   UNL     1      -8.048  51.964  -7.214  1.00  0.00     0.006 C 
BRANCH  10  11
ATOM     11  C   UNL     1      -7.487  50.706  -7.892  1.00  0.00     0.053 C 
BRANCH  11  12
ATOM     12  C   UNL     1      -7.832  50.660  -9.348  1.00  0.00     0.041 C 
ATOM     13  O   UNL     1      -7.939  51.726 -10.011  1.00  0.00    -0.550 OA
ATOM     14  O   UNL     1      -8.003  49.435  -9.982  1.00  0.00    -0.550 OA
ENDBRANCH  11  12
ENDBRANCH  10  11
ENDBRANCH   9  10
ENDBRANCH   8   9
ENDBRANCH   7   8
ENDBRANCH   6   7
ENDBRANCH   5   6
ENDBRANCH   4   5
ENDBRANCH   3   4
ENDBRANCH   2   3
ENDBRANCH   1   2
BRANCH   1  15
ATOM     15  C   UNL     1      -6.572  44.432  -2.771  1.00  0.00     0.000 C 
BRANCH  15  16
ATOM     16  C   UNL     1      -6.277  43.314  -1.759  1.00  0.00     0.000 C 
BRANCH  16  17
ATOM     17  C   UNL     1      -5.016  43.581  -0.923  1.00  0.00     0.000 C 
BRANCH  17  18
ATOM     18  C   UNL     1      -4.141  42.323  -0.845  1.00  0.00    -0.000 C 
BRANCH  18  19
ATOM     19  C   UNL     1      -2.670  42.687  -0.596  1.00  0.00    -0.000 C 
BRANCH  19  20
ATOM     20  C   UNL     1      -2.011  43.371  -1.808  1.00  0.00    -0.000 C 
BRANCH  20  21
ATOM     21  C   UNL     1      -1.890  44.906  -1.712  1.00  0.00    -0.000 C 
BRANCH  21  22
ATOM     22  C   UNL     1      -0.574  45.497  -2.251  1.00  0.00    -0.000 C 
BRANCH  22  23
ATOM     23  C   UNL     1       0.497  44.426  -2.512  1.00  0.00    -0.000 C 
BRANCH  23  24
ATOM     24  C   UNL     1       0.495  43.920  -3.967  1.00  0.00    -0.000 C 
BRANCH  24  25
ATOM     25  C   UNL     1       0.077  42.449  -4.146  1.00  0.00    -0.003 C 
ATOM     26  C   UNL     1       0.347  41.916  -5.553  1.00  0.00     0.004 C 
ENDBRANCH  24  25
ENDBRANCH  23  24
ENDBRANCH  22  23
ENDBRANCH  21  22
ENDBRANCH  20  21
ENDBRANCH  19  20
ENDBRANCH  18  19
ENDBRANCH  17  18
ENDBRANCH  16  17
ENDBRANCH  15  16
ENDBRANCH   1  15
TORSDOF 22
ENDMDL
