MODEL 1
REMARK VINA RESULT:    -6.092      0.000      0.000
REMARK INTER + INTRA:         -11.837
REMARK INTER:                 -10.366
REMARK INTRA:                  -1.471
REMARK UNBOUND:                -1.471
REMARK SMILES CCCCCCCCCCCCCC(=O)[O-]
REMARK SMILES IDX 8 1 9 2 10 3 11 4 12 5 13 6 14 7 15 8 16 9 7 10 6 11 5 12
REMARK SMILES IDX 4 13 3 14 2 15 1 16
REMARK H PARENT
REMARK Flexibility Score: inf
ROOT
ATOM      1  C   UNL     1     -15.905  -7.970  -7.917  1.00  0.00     0.000 C 
ENDROOT
BRANCH   1   2
ATOM      2  C   UNL     1     -16.608  -8.650  -9.101  1.00  0.00     0.000 C 
BRANCH   2   3
ATOM      3  C   UNL     1     -17.776  -9.550  -8.662  1.00  0.00     0.000 C 
BRANCH   3   4
ATOM      4  C   UNL     1     -18.966  -9.486  -9.634  1.00  0.00     0.000 C 
BRANCH   4   5
ATOM      5  C   UNL     1     -18.585  -9.898 -11.069  1.00  0.00     0.006 C 
BRANCH   5   6
ATOM      6  C   UNL     1     -19.290 -11.167 -11.573  1.00  0.00     0.053 C 
BRANCH   6   7
ATOM      7  C   UNL     1     -20.298 -10.864 -12.637  1.00  0.00     0.041 C 
ATOM      8  O   UNL     1     -21.027  -9.841 -12.548  1.00  0.00    -0.550 OA
ATOM      9  O   UNL     1     -20.455 -11.730 -13.713  1.00  0.00    -0.550 OA
ENDBRANCH   6   7
ENDBRANCH   5   6
ENDBRANCH   4   5
ENDBRANCH   3   4
ENDBRANCH   2   3
ENDBRANCH   1   2
BRANCH   1  10
ATOM     10  C   UNL     1     -15.419  -9.007  -6.898  1.00  0.00     0.000 C 
BRANCH  10  11
ATOM     11  C   UNL     1     -13.956  -9.395  -7.161  1.00  0.00    -0.000 C 
BRANCH  11  12
ATOM     12  C   UNL     1     -13.736 -10.918  -7.183  1.00  0.00    -0.000 C 
BRANCH  12  13
ATOM     13  C   UNL     1     -15.024 -11.765  -7.253  1.00  0.00    -0.000 C 
BRANCH  13  14
ATOM     14  C   UNL     1     -15.046 -12.828  -8.364  1.00  0.00    -0.000 C 
BRANCH  14  15
ATOM     15  C   UNL     1     -14.538 -12.294  -9.711  1.00  0.00    -0.003 C 
ATOM     16  C   UNL     1     -15.697 -12.000 -10.658  1.00  0.00     0.004 C 
ENDBRANCH  14  15
ENDBRANCH  13  14
ENDBRANCH  12  13
ENDBRANCH  11  12
ENDBRANCH  10  11
ENDBRANCH   1  10
TORSDOF 12
ENDMDL
MODEL 2
REMARK VINA RESULT:    -5.970      0.778      1.419
REMARK INTER + INTRA:         -11.628
REMARK INTER:                 -10.179
REMARK INTRA:                  -1.449
REMARK UNBOUND:                -1.471
REMARK SMILES CCCCCCCCCCCCCC(=O)[O-]
REMARK SMILES IDX 8 1 9 2 10 3 11 4 12 5 13 6 14 7 15 8 16 9 7 10 6 11 5 12
REMARK SMILES IDX 4 13 3 14 2 15 1 16
REMARK H PARENT
REMARK Flexibility Score: inf
ROOT
ATOM      1  C   UNL     1     -17.040  -8.881  -7.252  1.00  0.00     0.000 C 
ENDROOT
BRANCH   1   2
ATOM      2  C   UNL     1     -17.911  -9.828  -8.090  1.00  0.00     0.000 C 
BRANCH   2   3
ATOM      3  C   UNL     1     -18.551  -9.132  -9.303  1.00  0.00     0.000 C 
BRANCH   3   4
ATOM      4  C   UNL     1     -18.043  -9.696 -10.641  1.00  0.00     0.000 C 
BRANCH   4   5
ATOM      5  C   UNL     1     -18.715 -11.031 -11.017  1.00  0.00     0.006 C 
BRANCH   5   6
ATOM      6  C   UNL     1     -18.918 -11.237 -12.526  1.00  0.00     0.053 C 
BRANCH   6   7
ATOM      7  C   UNL     1     -20.346 -11.045 -12.932  1.00  0.00     0.041 C 
ATOM      8  O   UNL     1     -20.913 -11.888 -13.677  1.00  0.00    -0.550 OA
ATOM      9  O   UNL     1     -21.042  -9.918 -12.513  1.00  0.00    -0.550 OA
ENDBRANCH   6   7
ENDBRANCH   5   6
ENDBRANCH   4   5
ENDBRANCH   3   4
ENDBRANCH   2   3
ENDBRANCH   1   2
BRANCH   1  10
ATOM     10  C   UNL     1     -15.849  -8.365  -8.068  1.00  0.00     0.000 C 
BRANCH  10  11
ATOM     11  C   UNL     1     -14.536  -8.523  -7.287  1.00  0.00    -0.000 C 
BRANCH  11  12
ATOM     12  C   UNL     1     -14.431  -9.877  -6.563  1.00  0.00    -0.000 C 
BRANCH  12  13
ATOM     13  C   UNL     1     -13.982 -11.059  -7.448  1.00  0.00    -0.000 C 
BRANCH  13  14
ATOM     14  C   UNL     1     -15.016 -12.188  -7.602  1.00  0.00    -0.000 C 
BRANCH  14  15
ATOM     15  C   UNL     1     -15.005 -12.820  -9.001  1.00  0.00    -0.003 C 
ATOM     16  C   UNL     1     -15.074 -11.752 -10.088  1.00  0.00     0.004 C 
ENDBRANCH  14  15
ENDBRANCH  13  14
ENDBRANCH  12  13
ENDBRANCH  11  12
ENDBRANCH  10  11
ENDBRANCH   1  10
TORSDOF 12
ENDMDL
MODEL 3
REMARK VINA RESULT:    -5.898      2.592      5.237
REMARK INTER + INTRA:         -11.506
REMARK INTER:                 -10.297
REMARK INTRA:                  -1.209
REMARK UNBOUND:                -1.471
REMARK SMILES CCCCCCCCCCCCCC(=O)[O-]
REMARK SMILES IDX 8 1 9 2 10 3 11 4 12 5 13 6 14 7 15 8 16 9 7 10 6 11 5 12
REMARK SMILES IDX 4 13 3 14 2 15 1 16
REMARK H PARENT
REMARK Flexibility Score: inf
ROOT
ATOM      1  C   UNL     1     -16.683  -9.090  -6.511  1.00  0.00     0.000 C 
ENDROOT
BRANCH   1   2
ATOM      2  C   UNL     1     -15.644  -8.175  -7.178  1.00  0.00     0.000 C 
BRANCH   2   3
ATOM      3  C   UNL     1     -14.244  -8.809  -7.237  1.00  0.00     0.000 C 
BRANCH   3   4
ATOM      4  C   UNL     1     -14.147 -10.100  -6.407  1.00  0.00     0.000 C 
BRANCH   4   5
ATOM      5  C   UNL     1     -14.001 -11.360  -7.283  1.00  0.00     0.006 C 
BRANCH   5   6
ATOM      6  C   UNL     1     -14.499 -11.190  -8.727  1.00  0.00     0.053 C 
BRANCH   6   7
ATOM      7  C   UNL     1     -15.085 -12.455  -9.271  1.00  0.00     0.041 C 
ATOM      8  O   UNL     1     -15.564 -12.484 -10.435  1.00  0.00    -0.550 OA
ATOM      9  O   UNL     1     -15.131 -13.597  -8.479  1.00  0.00    -0.550 OA
ENDBRANCH   6   7
ENDBRANCH   5   6
ENDBRANCH   4   5
ENDBRANCH   3   4
ENDBRANCH   2   3
ENDBRANCH   1   2
BRANCH   1  10
ATOM     10  C   UNL     1     -17.675  -9.639  -7.544  1.00  0.00     0.000 C 
BRANCH  10  11
ATOM     11  C   UNL     1     -17.735  -8.735  -8.784  1.00  0.00    -0.000 C 
BRANCH  11  12
ATOM     12  C   UNL     1     -17.544  -9.511 -10.099  1.00  0.00    -0.000 C 
BRANCH  12  13
ATOM     13  C   UNL     1     -18.818 -10.182 -10.654  1.00  0.00    -0.000 C 
BRANCH  13  14
ATOM     14  C   UNL     1     -18.572 -11.286 -11.697  1.00  0.00    -0.000 C 
BRANCH  14  15
ATOM     15  C   UNL     1     -19.729 -11.430 -12.697  1.00  0.00    -0.003 C 
ATOM     16  C   UNL     1     -20.690 -10.249 -12.600  1.00  0.00     0.004 C 
ENDBRANCH  14  15
ENDBRANCH  13  14
ENDBRANCH  12  13
ENDBRANCH  11  12
ENDBRANCH  10  11
ENDBRANCH   1  10
TORSDOF 12
ENDMDL
MODEL 4
REMARK VINA RESULT:    -5.846      0.976      3.219
REMARK INTER + INTRA:         -11.418
REMARK INTER:                 -10.018
REMARK INTRA:                  -1.400
REMARK UNBOUND:                -1.471
REMARK SMILES CCCCCCCCCCCCCC(=O)[O-]
REMARK SMILES IDX 8 1 9 2 10 3 11 4 12 5 13 6 14 7 15 8 16 9 7 10 6 11 5 12
REMARK SMILES IDX 4 13 3 14 2 15 1 16
REMARK H PARENT
REMARK Flexibility Score: inf
ROOT
ATOM      1  C   UNL     1     -14.940 -12.764  -8.870  1.00  0.00     0.000 C 
ENDROOT
BRANCH   1   2
ATOM      2  C   UNL     1     -14.944 -11.823 -10.084  1.00  0.00     0.000 C 
BRANCH   2   3
ATOM      3  C   UNL     1     -16.116 -12.094 -11.043  1.00  0.00     0.000 C 
BRANCH   3   4
ATOM      4  C   UNL     1     -17.343 -11.219 -10.735  1.00  0.00     0.000 C 
BRANCH   4   5
ATOM      5  C   UNL     1     -18.628 -11.739 -11.407  1.00  0.00     0.006 C 
BRANCH   5   6
ATOM      6  C   UNL     1     -18.929 -11.108 -12.776  1.00  0.00     0.053 C 
BRANCH   6   7
ATOM      7  C   UNL     1     -20.399 -11.006 -13.036  1.00  0.00     0.041 C 
ATOM      8  O   UNL     1     -20.990 -11.897 -13.702  1.00  0.00    -0.550 OA
ATOM      9  O   UNL     1     -21.113  -9.909 -12.568  1.00  0.00    -0.550 OA
ENDBRANCH   6   7
ENDBRANCH   5   6
ENDBRANCH   4   5
ENDBRANCH   3   4
ENDBRANCH   2   3
ENDBRANCH   1   2
BRANCH   1  10
ATOM     10  C   UNL     1     -14.817 -11.971  -7.563  1.00  0.00     0.000 C 
BRANCH  10  11
ATOM     11  C   UNL     1     -14.077 -10.645  -7.790  1.00  0.00    -0.000 C 
BRANCH  11  12
ATOM     12  C   UNL     1     -14.369  -9.603  -6.696  1.00  0.00    -0.000 C 
BRANCH  12  13
ATOM     13  C   UNL     1     -15.160  -8.364  -7.167  1.00  0.00    -0.000 C 
BRANCH  13  14
ATOM     14  C   UNL     1     -15.971  -8.561  -8.459  1.00  0.00    -0.000 C 
BRANCH  14  15
ATOM     15  C   UNL     1     -17.487  -8.593  -8.213  1.00  0.00    -0.003 C 
ATOM     16  C   UNL     1     -17.883  -9.806  -7.378  1.00  0.00     0.004 C 
ENDBRANCH  14  15
ENDBRANCH  13  14
ENDBRANCH  12  13
ENDBRANCH  11  12
ENDBRANCH  10  11
ENDBRANCH   1  10
TORSDOF 12
ENDMDL
MODEL 5
REMARK VINA RESULT:    -5.747      4.185      6.498
REMARK INTER + INTRA:         -11.250
REMARK INTER:                 -10.047
REMARK INTRA:                  -1.203
REMARK UNBOUND:                -1.471
REMARK SMILES CCCCCCCCCCCCCC(=O)[O-]
REMARK SMILES IDX 8 1 9 2 10 3 11 4 12 5 13 6 14 7 15 8 16 9 7 10 6 11 5 12
REMARK SMILES IDX 4 13 3 14 2 15 1 16
REMARK H PARENT
REMARK Flexibility Score: inf
ROOT
ATOM      1  C   UNL     1     -16.996  -8.387  -8.110  1.00  0.00     0.000 C 
ENDROOT
BRANCH   1   2
ATOM      2  C   UNL     1     -17.496  -9.564  -7.260  1.00  0.00     0.000 C 
BRANCH   2   3
ATOM      3  C   UNL     1     -16.365 -10.266  -6.491  1.00  0.00     0.000 C 
BRANCH   3   4
ATOM      4  C   UNL     1     -15.729 -11.413  -7.295  1.00  0.00     0.000 C 
BRANCH   4   5
ATOM      5  C   UNL     1     -14.297 -11.089  -7.762  1.00  0.00     0.006 C 
BRANCH   5   6
ATOM      6  C   UNL     1     -13.767  -9.727  -7.289  1.00  0.00     0.053 C 
BRANCH   6   7
ATOM      7  C   UNL     1     -12.484  -9.857  -6.529  1.00  0.00     0.041 C 
ATOM      8  O   UNL     1     -12.416 -10.610  -5.521  1.00  0.00    -0.550 OA
ATOM      9  O   UNL     1     -11.370  -9.121  -6.915  1.00  0.00    -0.550 OA
ENDBRANCH   6   7
ENDBRANCH   5   6
ENDBRANCH   4   5
ENDBRANCH   3   4
ENDBRANCH   2   3
ENDBRANCH   1   2
BRANCH   1  10
ATOM     10  C   UNL     1     -17.003  -8.745  -9.601  1.00  0.00     0.000 C 
BRANCH  10  11
ATOM     11  C   UNL     1     -17.956  -9.916  -9.882  1.00  0.00    -0.000 C 
BRANCH  11  12
ATOM     12  C   UNL     1     -17.266 -11.090 -10.599  1.00  0.00    -0.000 C 
BRANCH  12  13
ATOM     13  C   UNL     1     -18.101 -11.760 -11.711  1.00  0.00    -0.000 C 
BRANCH  13  14
ATOM     14  C   UNL     1     -19.619 -11.530 -11.614  1.00  0.00    -0.000 C 
BRANCH  14  15
ATOM     15  C   UNL     1     -20.192 -10.804 -12.840  1.00  0.00    -0.003 C 
ATOM     16  C   UNL     1     -20.989 -11.759 -13.723  1.00  0.00     0.004 C 
ENDBRANCH  14  15
ENDBRANCH  13  14
ENDBRANCH  12  13
ENDBRANCH  11  12
ENDBRANCH  10  11
ENDBRANCH   1  10
TORSDOF 12
ENDMDL
MODEL 6
REMARK VINA RESULT:    -5.699      1.190      2.157
REMARK INTER + INTRA:         -11.168
REMARK INTER:                  -9.934
REMARK INTRA:                  -1.234
REMARK UNBOUND:                -1.471
REMARK SMILES CCCCCCCCCCCCCC(=O)[O-]
REMARK SMILES IDX 8 1 9 2 10 3 11 4 12 5 13 6 14 7 15 8 16 9 7 10 6 11 5 12
REMARK SMILES IDX 4 13 3 14 2 15 1 16
REMARK H PARENT
REMARK Flexibility Score: inf
ROOT
ATOM      1  C   UNL     1     -15.975  -7.881  -7.867  1.00  0.00     0.000 C 
ENDROOT
BRANCH   1   2
ATOM      2  C   UNL     1     -17.110  -8.435  -8.740  1.00  0.00     0.000 C 
BRANCH   2   3
ATOM      3  C   UNL     1     -16.595  -9.225  -9.955  1.00  0.00     0.000 C 
BRANCH   3   4
ATOM      4  C   UNL     1     -17.444 -10.473 -10.249  1.00  0.00     0.000 C 
BRANCH   4   5
ATOM      5  C   UNL     1     -18.674 -10.164 -11.124  1.00  0.00     0.006 C 
BRANCH   5   6
ATOM      6  C   UNL     1     -19.187 -11.358 -11.945  1.00  0.00     0.053 C 
BRANCH   6   7
ATOM      7  C   UNL     1     -20.374 -10.996 -12.781  1.00  0.00     0.041 C 
ATOM      8  O   UNL     1     -21.024  -9.945 -12.539  1.00  0.00    -0.550 OA
ATOM      9  O   UNL     1     -20.783 -11.837 -13.809  1.00  0.00    -0.550 OA
ENDBRANCH   6   7
ENDBRANCH   5   6
ENDBRANCH   4   5
ENDBRANCH   3   4
ENDBRANCH   2   3
ENDBRANCH   1   2
BRANCH   1  10
ATOM     10  C   UNL     1     -15.937  -8.584  -6.505  1.00  0.00     0.000 C 
BRANCH  10  11
ATOM     11  C   UNL     1     -16.914  -9.768  -6.469  1.00  0.00    -0.000 C 
BRANCH  11  12
ATOM     12  C   UNL     1     -16.211 -11.116  -6.230  1.00  0.00    -0.000 C 
BRANCH  12  13
ATOM     13  C   UNL     1     -15.546 -11.737  -7.476  1.00  0.00    -0.000 C 
BRANCH  13  14
ATOM     14  C   UNL     1     -14.093 -11.298  -7.728  1.00  0.00    -0.000 C 
BRANCH  14  15
ATOM     15  C   UNL     1     -13.370 -10.865  -6.444  1.00  0.00    -0.003 C 
ATOM     16  C   UNL     1     -12.346  -9.771  -6.732  1.00  0.00     0.004 C 
ENDBRANCH  14  15
ENDBRANCH  13  14
ENDBRANCH  12  13
ENDBRANCH  11  12
ENDBRANCH  10  11
ENDBRANCH   1  10
TORSDOF 12
ENDMDL
MODEL 7
REMARK VINA RESULT:    -5.564      3.033      6.007
REMARK INTER + INTRA:         -10.938
REMARK INTER:                  -9.849
REMARK INTRA:                  -1.089
REMARK UNBOUND:                -1.471
REMARK SMILES CCCCCCCCCCCCCC(=O)[O-]
REMARK SMILES IDX 8 1 9 2 10 3 11 4 12 5 13 6 14 7 15 8 16 9 7 10 6 11 5 12
REMARK SMILES IDX 4 13 3 14 2 15 1 16
REMARK H PARENT
REMARK Flexibility Score: inf
ROOT
ATOM      1  C   UNL     1     -18.301  -9.353  -8.984  1.00  0.00     0.000 C 
ENDROOT
BRANCH   1   2
ATOM      2  C   UNL     1     -17.391  -8.734  -7.912  1.00  0.00     0.000 C 
BRANCH   2   3
ATOM      3  C   UNL     1     -15.976  -8.434  -8.434  1.00  0.00     0.000 C 
BRANCH   3   4
ATOM      4  C   UNL     1     -14.940  -8.331  -7.301  1.00  0.00     0.000 C 
BRANCH   4   5
ATOM      5  C   UNL     1     -14.071  -9.596  -7.173  1.00  0.00     0.006 C 
BRANCH   5   6
ATOM      6  C   UNL     1     -14.360 -10.675  -8.229  1.00  0.00     0.053 C 
BRANCH   6   7
ATOM      7  C   UNL     1     -15.088 -11.847  -7.650  1.00  0.00     0.041 C 
ATOM      8  O   UNL     1     -14.974 -12.987  -8.173  1.00  0.00    -0.550 OA
ATOM      9  O   UNL     1     -15.920 -11.675  -6.549  1.00  0.00    -0.550 OA
ENDBRANCH   6   7
ENDBRANCH   5   6
ENDBRANCH   4   5
ENDBRANCH   3   4
ENDBRANCH   2   3
ENDBRANCH   1   2
BRANCH   1  10
ATOM     10  C   UNL     1     -17.548  -9.528 -10.308  1.00  0.00     0.000 C 
BRANCH  10  11
ATOM     11  C   UNL     1     -17.236 -11.008 -10.573  1.00  0.00    -0.000 C 
BRANCH  11  12
ATOM     12  C   UNL     1     -18.384 -11.741 -11.290  1.00  0.00    -0.000 C 
BRANCH  12  13
ATOM     13  C   UNL     1     -18.909 -11.047 -12.564  1.00  0.00    -0.000 C 
BRANCH  13  14
ATOM     14  C   UNL     1     -20.368 -10.565 -12.490  1.00  0.00    -0.000 C 
BRANCH  14  15
ATOM     15  C   UNL     1     -21.222 -11.064 -13.664  1.00  0.00    -0.003 C 
ATOM     16  C   UNL     1     -21.239 -12.588 -13.723  1.00  0.00     0.004 C 
ENDBRANCH  14  15
ENDBRANCH  13  14
ENDBRANCH  12  13
ENDBRANCH  11  12
ENDBRANCH  10  11
ENDBRANCH   1  10
TORSDOF 12
ENDMDL
MODEL 8
REMARK VINA RESULT:    -5.538      3.084      4.849
REMARK INTER + INTRA:         -10.894
REMARK INTER:                  -9.317
REMARK INTRA:                  -1.577
REMARK UNBOUND:                -1.471
REMARK SMILES CCCCCCCCCCCCCC(=O)[O-]
REMARK SMILES IDX 8 1 9 2 10 3 11 4 12 5 13 6 14 7 15 8 16 9 7 10 6 11 5 12
REMARK SMILES IDX 4 13 3 14 2 15 1 16
REMARK H PARENT
REMARK Flexibility Score: inf
ROOT
ATOM      1  C   UNL     1     -16.904 -11.807 -10.318  1.00  0.00     0.000 C 
ENDROOT
BRANCH   1   2
ATOM      2  C   UNL     1     -17.761 -10.809 -11.110  1.00  0.00     0.000 C 
BRANCH   2   3
ATOM      3  C   UNL     1     -18.148  -9.570 -10.285  1.00  0.00     0.000 C 
BRANCH   3   4
ATOM      4  C   UNL     1     -16.929  -8.713  -9.902  1.00  0.00     0.000 C 
BRANCH   4   5
ATOM      5  C   UNL     1     -16.806  -8.499  -8.382  1.00  0.00     0.006 C 
BRANCH   5   6
ATOM      6  C   UNL     1     -17.766  -9.355  -7.540  1.00  0.00     0.053 C 
BRANCH   6   7
ATOM      7  C   UNL     1     -17.087  -9.954  -6.349  1.00  0.00     0.041 C 
ATOM      8  O   UNL     1     -16.199  -9.308  -5.732  1.00  0.00    -0.550 OA
ATOM      9  O   UNL     1     -17.412 -11.241  -5.937  1.00  0.00    -0.550 OA
ENDBRANCH   6   7
ENDBRANCH   5   6
ENDBRANCH   4   5
ENDBRANCH   3   4
ENDBRANCH   2   3
ENDBRANCH   1   2
BRANCH   1  10
ATOM     10  C   UNL     1     -15.477 -11.869 -10.875  1.00  0.00     0.000 C 
BRANCH  10  11
ATOM     11  C   UNL     1     -14.496 -12.400  -9.820  1.00  0.00    -0.000 C 
BRANCH  11  12
ATOM     12  C   UNL     1     -15.105 -12.446  -8.407  1.00  0.00    -0.000 C 
BRANCH  12  13
ATOM     13  C   UNL     1     -14.265 -11.760  -7.310  1.00  0.00    -0.000 C 
BRANCH  13  14
ATOM     14  C   UNL     1     -13.670 -10.396  -7.701  1.00  0.00    -0.000 C 
BRANCH  14  15
ATOM     15  C   UNL     1     -12.796  -9.787  -6.595  1.00  0.00    -0.003 C 
ATOM     16  C   UNL     1     -12.491 -10.812  -5.508  1.00  0.00     0.004 C 
ENDBRANCH  14  15
ENDBRANCH  13  14
ENDBRANCH  12  13
ENDBRANCH  11  12
ENDBRANCH  10  11
ENDBRANCH   1  10
TORSDOF 12
ENDMDL
MODEL 9
REMARK VINA RESULT:    -5.367      2.618      5.673
REMARK INTER + INTRA:         -10.603
REMARK INTER:                  -9.591
REMARK INTRA:                  -1.011
REMARK UNBOUND:                -1.471
REMARK SMILES CCCCCCCCCCCCCC(=O)[O-]
REMARK SMILES IDX 8 1 9 2 10 3 11 4 12 5 13 6 14 7 15 8 16 9 7 10 6 11 5 12
REMARK SMILES IDX 4 13 3 14 2 15 1 16
REMARK H PARENT
REMARK Flexibility Score: inf
ROOT
ATOM      1  C   UNL     1     -14.373 -11.995  -9.433  1.00  0.00     0.000 C 
ENDROOT
BRANCH   1   2
ATOM      2  C   UNL     1     -15.055 -11.863  -8.063  1.00  0.00     0.000 C 
BRANCH   2   3
ATOM      3  C   UNL     1     -14.101 -11.356  -6.969  1.00  0.00     0.000 C 
BRANCH   3   4
ATOM      4  C   UNL     1     -13.524  -9.967  -7.288  1.00  0.00     0.000 C 
BRANCH   4   5
ATOM      5  C   UNL     1     -14.607  -8.872  -7.348  1.00  0.00     0.006 C 
BRANCH   5   6
ATOM      6  C   UNL     1     -15.771  -9.078  -6.365  1.00  0.00     0.053 C 
BRANCH   6   7
ATOM      7  C   UNL     1     -17.099  -9.052  -7.056  1.00  0.00     0.041 C 
ATOM      8  O   UNL     1     -17.939  -9.969  -6.851  1.00  0.00    -0.550 OA
ATOM      9  O   UNL     1     -17.399  -8.031  -7.950  1.00  0.00    -0.550 OA
ENDBRANCH   6   7
ENDBRANCH   5   6
ENDBRANCH   4   5
ENDBRANCH   3   4
ENDBRANCH   2   3
ENDBRANCH   1   2
BRANCH   1  10
ATOM     10  C   UNL     1     -15.375 -11.762 -10.570  1.00  0.00     0.000 C 
BRANCH  10  11
ATOM     11  C   UNL     1     -16.766 -11.421 -10.017  1.00  0.00    -0.000 C 
BRANCH  11  12
ATOM     12  C   UNL     1     -17.327 -10.103 -10.579  1.00  0.00    -0.000 C 
BRANCH  12  13
ATOM     13  C   UNL     1     -18.866 -10.017 -10.636  1.00  0.00    -0.000 C 
BRANCH  13  14
ATOM     14  C   UNL     1     -19.549 -11.103 -11.485  1.00  0.00    -0.000 C 
BRANCH  14  15
ATOM     15  C   UNL     1     -20.216 -10.541 -12.749  1.00  0.00    -0.003 C 
ATOM     16  C   UNL     1     -20.788 -11.660 -13.613  1.00  0.00     0.004 C 
ENDBRANCH  14  15
ENDBRANCH  13  14
ENDBRANCH  12  13
ENDBRANCH  11  12
ENDBRANCH  10  11
ENDBRANCH   1  10
TORSDOF 12
ENDMDL
