MODEL 1
REMARK VINA RESULT:    -7.586      0.000      0.000
REMARK INTER + INTRA:          -8.359
REMARK INTER:                  -8.251
REMARK INTRA:                  -0.108
REMARK UNBOUND:                -0.108
REMARK SMILES CC1(C)CC[C@]2(C(=O)[O-])CC[C@@]3(C)C(=CC[C@H]4[C@]5(C)CC[C@H](O)C(C)(C)[C@@H]5CC[C@]43C)[C@@H]2C1
REMARK SMILES IDX 6 1 5 2 10 3 32 4 4 5 11 6 14 7 33 8 2 9 12 10 15 11 1 12
REMARK SMILES IDX 3 13 13 14 30 15 16 16 17 17 29 18 31 19 18 20 28 21 27 22
REMARK SMILES IDX 20 23 19 24 24 25 21 26 22 27 25 28 26 29 7 30 8 31 9 32
REMARK SMILES IDX 23 33
REMARK H PARENT 23 34
REMARK Flexibility Score: inf
ROOT
ATOM      1  C   UNL     1      -8.477   7.201 -38.237  1.00  0.00     0.017 C 
ATOM      2  C   UNL     1      -9.789   7.748 -37.619  1.00  0.00     0.014 C 
ATOM      3  C   UNL     1      -8.156   5.817 -37.650  1.00  0.00     0.014 C 
ATOM      4  C   UNL     1      -7.268   8.136 -37.938  1.00  0.00     0.028 C 
ATOM      5  C   UNL     1      -9.670   8.104 -36.132  1.00  0.00     0.007 C 
ATOM      6  C   UNL     1      -6.983   5.142 -38.355  1.00  0.00     0.013 C 
ATOM      7  C   UNL     1      -5.917   7.523 -38.340  1.00  0.00    -0.064 C 
ATOM      8  C   UNL     1      -7.195   8.552 -36.437  1.00  0.00     0.015 C 
ATOM      9  C   UNL     1      -8.521   9.100 -35.854  1.00  0.00    -0.035 C 
ATOM     10  C   UNL     1      -5.740   6.055 -38.767  1.00  0.00    -0.006 C 
ATOM     11  C   UNL     1      -4.866   8.356 -38.365  1.00  0.00    -0.027 C 
ATOM     12  C   UNL     1      -8.370   9.254 -34.323  1.00  0.00     0.011 C 
ATOM     13  C   UNL     1      -8.847  10.494 -36.438  1.00  0.00     0.011 C 
ATOM     14  C   UNL     1      -5.674   6.085 -40.337  1.00  0.00     0.017 C 
ATOM     15  C   UNL     1      -4.364   5.481 -38.149  1.00  0.00    -0.020 C 
ATOM     16  C   UNL     1      -3.440   7.908 -38.264  1.00  0.00     0.032 C 
ATOM     17  C   UNL     1      -3.120   6.404 -38.526  1.00  0.00     0.006 C 
ATOM     18  C   UNL     1      -4.437   5.480 -36.597  1.00  0.00     0.008 C 
ATOM     19  C   UNL     1      -4.186   4.023 -38.688  1.00  0.00     0.012 C 
ATOM     20  C   UNL     1      -1.713   5.989 -37.866  1.00  0.00    -0.025 C 
ATOM     21  C   UNL     1      -3.166   4.968 -35.931  1.00  0.00     0.005 C 
ATOM     22  C   UNL     1      -1.866   5.755 -36.295  1.00  0.00     0.003 C 
ATOM     23  C   UNL     1      -1.072   4.750 -38.614  1.00  0.00     0.010 C 
ATOM     24  C   UNL     1      -0.707   7.160 -38.117  1.00  0.00     0.012 C 
ATOM     25  C   UNL     1      -0.558   5.166 -35.563  1.00  0.00    -0.006 C 
ATOM     26  C   UNL     1      -0.521   3.665 -37.670  1.00  0.00     0.033 C 
ATOM     27  C   UNL     1       0.309   4.289 -36.539  1.00  0.00     0.120 C 
ATOM     28  C   UNL     1       0.316   6.336 -35.039  1.00  0.00     0.014 C 
ATOM     29  C   UNL     1      -0.921   4.345 -34.287  1.00  0.00     0.014 C 
ENDROOT
BRANCH   1  30
ATOM     30  C   UNL     1      -8.755   7.083 -39.729  1.00  0.00     0.048 C 
ATOM     31  O   UNL     1      -8.514   8.051 -40.510  1.00  0.00    -0.550 OA
ATOM     32  O   UNL     1      -9.401   5.958 -40.233  1.00  0.00    -0.550 OA
ENDBRANCH   1  30
BRANCH  27  33
ATOM     33  O   UNL     1       1.063   3.308 -35.857  1.00  0.00    -0.393 OA
ATOM     34  H   UNL     1       0.655   3.173 -34.962  1.00  0.00     0.210 HD
ENDBRANCH  27  33
TORSDOF 2
ENDMDL
MODEL 2
REMARK VINA RESULT:    -7.038      4.481      7.074
REMARK INTER + INTRA:          -7.764
REMARK INTER:                  -7.651
REMARK INTRA:                  -0.112
REMARK UNBOUND:                -0.108
REMARK SMILES CC1(C)CC[C@]2(C(=O)[O-])CC[C@@]3(C)C(=CC[C@H]4[C@]5(C)CC[C@H](O)C(C)(C)[C@@H]5CC[C@]43C)[C@@H]2C1
REMARK SMILES IDX 6 1 5 2 10 3 32 4 4 5 11 6 14 7 33 8 2 9 12 10 15 11 1 12
REMARK SMILES IDX 3 13 13 14 30 15 16 16 17 17 29 18 31 19 18 20 28 21 27 22
REMARK SMILES IDX 20 23 19 24 24 25 21 26 22 27 25 28 26 29 7 30 8 31 9 32
REMARK SMILES IDX 23 33
REMARK H PARENT 23 34
REMARK Flexibility Score: inf
ROOT
ATOM      1  C   UNL     1      -4.728   6.655 -37.979  1.00  0.00     0.017 C 
ATOM      2  C   UNL     1      -5.064   5.338 -38.723  1.00  0.00     0.014 C 
ATOM      3  C   UNL     1      -5.004   7.861 -38.892  1.00  0.00     0.014 C 
ATOM      4  C   UNL     1      -3.229   6.710 -37.560  1.00  0.00     0.028 C 
ATOM      5  C   UNL     1      -4.113   5.024 -39.885  1.00  0.00     0.007 C 
ATOM      6  C   UNL     1      -4.874   9.192 -38.155  1.00  0.00     0.013 C 
ATOM      7  C   UNL     1      -2.804   8.084 -37.019  1.00  0.00    -0.064 C 
ATOM      8  C   UNL     1      -2.270   6.320 -38.725  1.00  0.00     0.015 C 
ATOM      9  C   UNL     1      -2.632   4.996 -39.444  1.00  0.00    -0.035 C 
ATOM     10  C   UNL     1      -3.685   9.343 -37.102  1.00  0.00    -0.006 C 
ATOM     11  C   UNL     1      -1.618   8.141 -36.393  1.00  0.00    -0.027 C 
ATOM     12  C   UNL     1      -1.750   4.852 -40.705  1.00  0.00     0.011 C 
ATOM     13  C   UNL     1      -2.353   3.779 -38.531  1.00  0.00     0.011 C 
ATOM     14  C   UNL     1      -4.330   9.493 -35.677  1.00  0.00     0.017 C 
ATOM     15  C   UNL     1      -2.761  10.620 -37.446  1.00  0.00    -0.020 C 
ATOM     16  C   UNL     1      -0.822   9.399 -36.219  1.00  0.00     0.032 C 
ATOM     17  C   UNL     1      -1.549  10.764 -36.419  1.00  0.00     0.006 C 
ATOM     18  C   UNL     1      -2.112  10.447 -38.847  1.00  0.00     0.008 C 
ATOM     19  C   UNL     1      -3.685  11.882 -37.426  1.00  0.00     0.012 C 
ATOM     20  C   UNL     1      -0.495  11.938 -36.736  1.00  0.00    -0.025 C 
ATOM     21  C   UNL     1      -1.205  11.605 -39.243  1.00  0.00     0.005 C 
ATOM     22  C   UNL     1      -0.023  11.886 -38.259  1.00  0.00     0.003 C 
ATOM     23  C   UNL     1      -1.070  13.352 -36.317  1.00  0.00     0.010 C 
ATOM     24  C   UNL     1       0.743  11.727 -35.805  1.00  0.00     0.012 C 
ATOM     25  C   UNL     1       0.897  13.121 -38.730  1.00  0.00    -0.006 C 
ATOM     26  C   UNL     1      -0.859  14.452 -37.374  1.00  0.00     0.033 C 
ATOM     27  C   UNL     1       0.578  14.427 -37.915  1.00  0.00     0.120 C 
ATOM     28  C   UNL     1       2.392  12.762 -38.527  1.00  0.00     0.014 C 
ATOM     29  C   UNL     1       0.764  13.400 -40.260  1.00  0.00     0.014 C 
ENDROOT
BRANCH   1  30
ATOM     30  C   UNL     1      -5.661   6.686 -36.777  1.00  0.00     0.048 C 
ATOM     31  O   UNL     1      -5.296   6.207 -35.662  1.00  0.00    -0.550 OA
ATOM     32  O   UNL     1      -6.975   7.121 -36.923  1.00  0.00    -0.550 OA
ENDBRANCH   1  30
BRANCH  27  33
ATOM     33  O   UNL     1       0.871  15.602 -38.643  1.00  0.00    -0.393 OA
ATOM     34  H   UNL     1       0.030  15.919 -39.065  1.00  0.00     0.210 HD
ENDBRANCH  27  33
TORSDOF 2
ENDMDL
MODEL 3
REMARK VINA RESULT:    -7.031      1.661      7.488
REMARK INTER + INTRA:          -7.756
REMARK INTER:                  -7.660
REMARK INTRA:                  -0.096
REMARK UNBOUND:                -0.108
REMARK SMILES CC1(C)CC[C@]2(C(=O)[O-])CC[C@@]3(C)C(=CC[C@H]4[C@]5(C)CC[C@H](O)C(C)(C)[C@@H]5CC[C@]43C)[C@@H]2C1
REMARK SMILES IDX 6 1 5 2 10 3 32 4 4 5 11 6 14 7 33 8 2 9 12 10 15 11 1 12
REMARK SMILES IDX 3 13 13 14 30 15 16 16 17 17 29 18 31 19 18 20 28 21 27 22
REMARK SMILES IDX 20 23 19 24 24 25 21 26 22 27 25 28 26 29 7 30 8 31 9 32
REMARK SMILES IDX 23 33
REMARK H PARENT 23 34
REMARK Flexibility Score: inf
ROOT
ATOM      1  C   UNL     1      -0.874   5.296 -35.785  1.00  0.00     0.017 C 
ATOM      2  C   UNL     1       0.092   5.616 -34.616  1.00  0.00     0.014 C 
ATOM      3  C   UNL     1      -0.805   6.409 -36.844  1.00  0.00     0.014 C 
ATOM      4  C   UNL     1      -2.350   5.195 -35.299  1.00  0.00     0.028 C 
ATOM      5  C   UNL     1      -0.337   6.823 -33.772  1.00  0.00     0.007 C 
ATOM      6  C   UNL     1      -1.588   6.062 -38.107  1.00  0.00     0.013 C 
ATOM      7  C   UNL     1      -3.360   5.100 -36.452  1.00  0.00    -0.064 C 
ATOM      8  C   UNL     1      -2.758   6.388 -34.382  1.00  0.00     0.015 C 
ATOM      9  C   UNL     1      -1.773   6.676 -33.221  1.00  0.00    -0.035 C 
ATOM     10  C   UNL     1      -2.991   5.322 -37.930  1.00  0.00    -0.006 C 
ATOM     11  C   UNL     1      -4.612   4.743 -36.124  1.00  0.00    -0.027 C 
ATOM     12  C   UNL     1      -2.174   8.006 -32.542  1.00  0.00     0.011 C 
ATOM     13  C   UNL     1      -1.841   5.562 -32.151  1.00  0.00     0.011 C 
ATOM     14  C   UNL     1      -2.850   3.883 -38.544  1.00  0.00     0.017 C 
ATOM     15  C   UNL     1      -4.177   6.138 -38.659  1.00  0.00    -0.020 C 
ATOM     16  C   UNL     1      -5.815   5.037 -36.968  1.00  0.00     0.032 C 
ATOM     17  C   UNL     1      -5.590   5.427 -38.461  1.00  0.00     0.006 C 
ATOM     18  C   UNL     1      -4.320   7.550 -38.026  1.00  0.00     0.008 C 
ATOM     19  C   UNL     1      -3.798   6.256 -40.172  1.00  0.00     0.012 C 
ATOM     20  C   UNL     1      -6.863   6.217 -39.049  1.00  0.00    -0.025 C 
ATOM     21  C   UNL     1      -5.434   8.384 -38.646  1.00  0.00     0.005 C 
ATOM     22  C   UNL     1      -6.857   7.741 -38.578  1.00  0.00     0.003 C 
ATOM     23  C   UNL     1      -6.958   6.057 -40.621  1.00  0.00     0.010 C 
ATOM     24  C   UNL     1      -8.149   5.514 -38.506  1.00  0.00     0.012 C 
ATOM     25  C   UNL     1      -7.990   8.666 -39.252  1.00  0.00    -0.006 C 
ATOM     26  C   UNL     1      -7.250   7.374 -41.367  1.00  0.00     0.033 C 
ATOM     27  C   UNL     1      -8.384   8.153 -40.684  1.00  0.00     0.120 C 
ATOM     28  C   UNL     1      -9.258   8.668 -38.359  1.00  0.00     0.014 C 
ATOM     29  C   UNL     1      -7.557  10.164 -39.321  1.00  0.00     0.014 C 
ENDROOT
BRANCH   1  30
ATOM     30  C   UNL     1      -0.372   3.985 -36.373  1.00  0.00     0.048 C 
ATOM     31  O   UNL     1      -0.771   2.875 -35.911  1.00  0.00    -0.550 OA
ATOM     32  O   UNL     1       0.632   3.990 -37.338  1.00  0.00    -0.550 OA
ENDBRANCH   1  30
BRANCH  27  33
ATOM     33  O   UNL     1      -8.864   9.190 -41.516  1.00  0.00    -0.393 OA
ATOM     34  H   UNL     1      -9.547   9.699 -41.008  1.00  0.00     0.210 HD
ENDBRANCH  27  33
TORSDOF 2
ENDMDL
MODEL 4
REMARK VINA RESULT:    -6.957     11.957     15.860
REMARK INTER + INTRA:          -7.675
REMARK INTER:                  -7.582
REMARK INTRA:                  -0.093
REMARK UNBOUND:                -0.108
REMARK SMILES CC1(C)CC[C@]2(C(=O)[O-])CC[C@@]3(C)C(=CC[C@H]4[C@]5(C)CC[C@H](O)C(C)(C)[C@@H]5CC[C@]43C)[C@@H]2C1
REMARK SMILES IDX 6 1 5 2 10 3 32 4 4 5 11 6 14 7 33 8 2 9 12 10 15 11 1 12
REMARK SMILES IDX 3 13 13 14 30 15 16 16 17 17 29 18 31 19 18 20 28 21 27 22
REMARK SMILES IDX 20 23 19 24 24 25 21 26 22 27 25 28 26 29 7 30 8 31 9 32
REMARK SMILES IDX 23 33
REMARK H PARENT 23 34
REMARK Flexibility Score: inf
ROOT
ATOM      1  C   UNL     1     -11.588   7.678 -27.426  1.00  0.00     0.017 C 
ATOM      2  C   UNL     1     -11.056   6.247 -27.164  1.00  0.00     0.014 C 
ATOM      3  C   UNL     1     -10.419   8.677 -27.458  1.00  0.00     0.014 C 
ATOM      4  C   UNL     1     -12.574   8.137 -26.310  1.00  0.00     0.028 C 
ATOM      5  C   UNL     1     -10.488   6.047 -25.753  1.00  0.00     0.007 C 
ATOM      6  C   UNL     1     -10.855  10.071 -27.899  1.00  0.00     0.013 C 
ATOM      7  C   UNL     1     -12.951   9.623 -26.412  1.00  0.00    -0.064 C 
ATOM      8  C   UNL     1     -12.021   7.865 -24.878  1.00  0.00     0.015 C 
ATOM      9  C   UNL     1     -11.502   6.423 -24.650  1.00  0.00    -0.035 C 
ATOM     10  C   UNL     1     -12.253  10.617 -27.358  1.00  0.00    -0.006 C 
ATOM     11  C   UNL     1     -13.988  10.031 -25.665  1.00  0.00    -0.027 C 
ATOM     12  C   UNL     1     -10.783   6.359 -23.283  1.00  0.00     0.011 C 
ATOM     13  C   UNL     1     -12.675   5.415 -24.613  1.00  0.00     0.011 C 
ATOM     14  C   UNL     1     -13.216  10.761 -28.592  1.00  0.00     0.017 C 
ATOM     15  C   UNL     1     -12.075  12.034 -26.607  1.00  0.00    -0.020 C 
ATOM     16  C   UNL     1     -14.219  11.454 -25.257  1.00  0.00     0.032 C 
ATOM     17  C   UNL     1     -13.461  12.574 -26.033  1.00  0.00     0.006 C 
ATOM     18  C   UNL     1     -11.140  11.871 -25.377  1.00  0.00     0.008 C 
ATOM     19  C   UNL     1     -11.450  13.031 -27.638  1.00  0.00     0.012 C 
ATOM     20  C   UNL     1     -13.381  13.926 -25.163  1.00  0.00    -0.025 C 
ATOM     21  C   UNL     1     -10.932  13.163 -24.597  1.00  0.00     0.005 C 
ATOM     22  C   UNL     1     -12.240  13.824 -24.053  1.00  0.00     0.003 C 
ATOM     23  C   UNL     1     -13.225  15.197 -26.093  1.00  0.00     0.010 C 
ATOM     24  C   UNL     1     -14.766  14.121 -24.462  1.00  0.00     0.012 C 
ATOM     25  C   UNL     1     -11.956  15.186 -23.241  1.00  0.00    -0.006 C 
ATOM     26  C   UNL     1     -12.153  16.195 -25.615  1.00  0.00     0.033 C 
ATOM     27  C   UNL     1     -12.279  16.457 -24.107  1.00  0.00     0.120 C 
ATOM     28  C   UNL     1     -12.833  15.221 -21.962  1.00  0.00     0.014 C 
ATOM     29  C   UNL     1     -10.489  15.258 -22.714  1.00  0.00     0.014 C 
ENDROOT
BRANCH   1  30
ATOM     30  C   UNL     1     -12.257   7.615 -28.791  1.00  0.00     0.048 C 
ATOM     31  O   UNL     1     -13.511   7.461 -28.891  1.00  0.00    -0.550 OA
ATOM     32  O   UNL     1     -11.483   7.590 -29.949  1.00  0.00    -0.550 OA
ENDBRANCH   1  30
BRANCH  27  33
ATOM     33  O   UNL     1     -11.518  17.583 -23.719  1.00  0.00    -0.393 OA
ATOM     34  H   UNL     1     -11.468  18.201 -24.494  1.00  0.00     0.210 HD
ENDBRANCH  27  33
TORSDOF 2
ENDMDL
MODEL 5
REMARK VINA RESULT:    -6.893     13.347     17.200
REMARK INTER + INTRA:          -7.606
REMARK INTER:                  -7.505
REMARK INTRA:                  -0.101
REMARK UNBOUND:                -0.108
REMARK SMILES CC1(C)CC[C@]2(C(=O)[O-])CC[C@@]3(C)C(=CC[C@H]4[C@]5(C)CC[C@H](O)C(C)(C)[C@@H]5CC[C@]43C)[C@@H]2C1
REMARK SMILES IDX 6 1 5 2 10 3 32 4 4 5 11 6 14 7 33 8 2 9 12 10 15 11 1 12
REMARK SMILES IDX 3 13 13 14 30 15 16 16 17 17 29 18 31 19 18 20 28 21 27 22
REMARK SMILES IDX 20 23 19 24 24 25 21 26 22 27 25 28 26 29 7 30 8 31 9 32
REMARK SMILES IDX 23 33
REMARK H PARENT 23 34
REMARK Flexibility Score: inf
ROOT
ATOM      1  C   UNL     1      -8.963  17.825 -24.987  1.00  0.00     0.017 C 
ATOM      2  C   UNL     1      -8.179  19.000 -25.626  1.00  0.00     0.014 C 
ATOM      3  C   UNL     1      -8.334  16.485 -25.404  1.00  0.00     0.014 C 
ATOM      4  C   UNL     1     -10.452  17.813 -25.444  1.00  0.00     0.028 C 
ATOM      5  C   UNL     1      -8.332  19.089 -27.150  1.00  0.00     0.007 C 
ATOM      6  C   UNL     1      -8.941  15.300 -24.658  1.00  0.00     0.013 C 
ATOM      7  C   UNL     1     -11.205  16.545 -25.013  1.00  0.00    -0.064 C 
ATOM      8  C   UNL     1     -10.603  17.977 -26.987  1.00  0.00     0.015 C 
ATOM      9  C   UNL     1      -9.811  19.163 -27.591  1.00  0.00    -0.035 C 
ATOM     10  C   UNL     1     -10.517  15.309 -24.408  1.00  0.00    -0.006 C 
ATOM     11  C   UNL     1     -12.542  16.574 -25.129  1.00  0.00    -0.027 C 
ATOM     12  C   UNL     1      -9.866  19.069 -29.133  1.00  0.00     0.011 C 
ATOM     13  C   UNL     1     -10.442  20.514 -27.179  1.00  0.00     0.011 C 
ATOM     14  C   UNL     1     -10.750  15.421 -22.858  1.00  0.00     0.017 C 
ATOM     15  C   UNL     1     -11.208  13.973 -24.992  1.00  0.00    -0.020 C 
ATOM     16  C   UNL     1     -13.401  15.350 -25.219  1.00  0.00     0.032 C 
ATOM     17  C   UNL     1     -12.788  13.986 -24.778  1.00  0.00     0.006 C 
ATOM     18  C   UNL     1     -10.989  13.889 -26.528  1.00  0.00     0.008 C 
ATOM     19  C   UNL     1     -10.538  12.752 -24.279  1.00  0.00     0.012 C 
ATOM     20  C   UNL     1     -13.594  12.753 -25.427  1.00  0.00    -0.025 C 
ATOM     21  C   UNL     1     -11.628  12.662 -27.166  1.00  0.00     0.005 C 
ATOM     22  C   UNL     1     -13.171  12.531 -26.949  1.00  0.00     0.003 C 
ATOM     23  C   UNL     1     -13.445  11.445 -24.548  1.00  0.00     0.010 C 
ATOM     24  C   UNL     1     -15.118  13.097 -25.360  1.00  0.00     0.012 C 
ATOM     25  C   UNL     1     -13.787  11.215 -27.642  1.00  0.00    -0.006 C 
ATOM     26  C   UNL     1     -13.141  10.174 -25.364  1.00  0.00     0.033 C 
ATOM     27  C   UNL     1     -14.057  10.077 -26.592  1.00  0.00     0.120 C 
ATOM     28  C   UNL     1     -15.125  11.574 -28.340  1.00  0.00     0.014 C 
ATOM     29  C   UNL     1     -12.877  10.678 -28.791  1.00  0.00     0.014 C 
ENDROOT
BRANCH   1  30
ATOM     30  C   UNL     1      -8.826  18.021 -23.484  1.00  0.00     0.048 C 
ATOM     31  O   UNL     1      -9.728  18.618 -22.825  1.00  0.00    -0.550 OA
ATOM     32  O   UNL     1      -7.645  17.665 -22.838  1.00  0.00    -0.550 OA
ENDBRANCH   1  30
BRANCH  27  33
ATOM     33  O   UNL     1     -14.003   8.787 -27.168  1.00  0.00    -0.393 OA
ATOM     34  H   UNL     1     -13.602   8.871 -28.072  1.00  0.00     0.210 HD
ENDBRANCH  27  33
TORSDOF 2
ENDMDL
MODEL 6
REMARK VINA RESULT:    -6.800      2.991      7.753
REMARK INTER + INTRA:          -7.505
REMARK INTER:                  -7.429
REMARK INTRA:                  -0.076
REMARK UNBOUND:                -0.108
REMARK SMILES CC1(C)CC[C@]2(C(=O)[O-])CC[C@@]3(C)C(=CC[C@H]4[C@]5(C)CC[C@H](O)C(C)(C)[C@@H]5CC[C@]43C)[C@@H]2C1
REMARK SMILES IDX 6 1 5 2 10 3 32 4 4 5 11 6 14 7 33 8 2 9 12 10 15 11 1 12
REMARK SMILES IDX 3 13 13 14 30 15 16 16 17 17 29 18 31 19 18 20 28 21 27 22
REMARK SMILES IDX 20 23 19 24 24 25 21 26 22 27 25 28 26 29 7 30 8 31 9 32
REMARK SMILES IDX 23 33
REMARK H PARENT 23 34
REMARK Flexibility Score: inf
ROOT
ATOM      1  C   UNL     1      -7.295   6.535 -39.451  1.00  0.00     0.017 C 
ATOM      2  C   UNL     1      -6.420   5.500 -40.204  1.00  0.00     0.014 C 
ATOM      3  C   UNL     1      -7.377   7.841 -40.259  1.00  0.00     0.014 C 
ATOM      4  C   UNL     1      -6.702   6.878 -38.052  1.00  0.00     0.028 C 
ATOM      5  C   UNL     1      -4.934   5.876 -40.266  1.00  0.00     0.007 C 
ATOM      6  C   UNL     1      -8.376   8.831 -39.666  1.00  0.00     0.013 C 
ATOM      7  C   UNL     1      -7.412   8.057 -37.369  1.00  0.00    -0.064 C 
ATOM      8  C   UNL     1      -5.176   7.189 -38.113  1.00  0.00     0.015 C 
ATOM      9  C   UNL     1      -4.331   6.132 -38.867  1.00  0.00    -0.035 C 
ATOM     10  C   UNL     1      -8.437   8.962 -38.077  1.00  0.00    -0.006 C 
ATOM     11  C   UNL     1      -7.146   8.243 -36.067  1.00  0.00    -0.027 C 
ATOM     12  C   UNL     1      -2.894   6.674 -39.047  1.00  0.00     0.011 C 
ATOM     13  C   UNL     1      -4.241   4.818 -38.057  1.00  0.00     0.011 C 
ATOM     14  C   UNL     1      -9.843   8.440 -37.611  1.00  0.00     0.017 C 
ATOM     15  C   UNL     1      -8.213  10.490 -37.609  1.00  0.00    -0.020 C 
ATOM     16  C   UNL     1      -7.338   9.545 -35.351  1.00  0.00     0.032 C 
ATOM     17  C   UNL     1      -8.238  10.629 -36.021  1.00  0.00     0.006 C 
ATOM     18  C   UNL     1      -6.809  10.984 -38.056  1.00  0.00     0.008 C 
ATOM     19  C   UNL     1      -9.333  11.351 -38.281  1.00  0.00     0.012 C 
ATOM     20  C   UNL     1      -7.909  12.093 -35.439  1.00  0.00    -0.025 C 
ATOM     21  C   UNL     1      -6.508  12.417 -37.637  1.00  0.00     0.005 C 
ATOM     22  C   UNL     1      -6.583  12.685 -36.099  1.00  0.00     0.003 C 
ATOM     23  C   UNL     1      -9.155  13.059 -35.583  1.00  0.00     0.010 C 
ATOM     24  C   UNL     1      -7.699  11.953 -33.896  1.00  0.00     0.012 C 
ATOM     25  C   UNL     1      -6.258  14.216 -35.718  1.00  0.00    -0.006 C 
ATOM     26  C   UNL     1      -8.802  14.458 -36.123  1.00  0.00     0.033 C 
ATOM     27  C   UNL     1      -7.568  15.029 -35.408  1.00  0.00     0.120 C 
ATOM     28  C   UNL     1      -5.341  14.258 -34.468  1.00  0.00     0.014 C 
ATOM     29  C   UNL     1      -5.435  14.934 -36.833  1.00  0.00     0.014 C 
ENDROOT
BRANCH   1  30
ATOM     30  C   UNL     1      -8.673   5.897 -39.349  1.00  0.00     0.048 C 
ATOM     31  O   UNL     1      -9.043   5.325 -38.281  1.00  0.00    -0.550 OA
ATOM     32  O   UNL     1      -9.492   5.818 -40.472  1.00  0.00    -0.550 OA
ENDBRANCH   1  30
BRANCH  27  33
ATOM     33  O   UNL     1      -7.420  16.410 -35.668  1.00  0.00    -0.393 OA
ATOM     34  H   UNL     1      -7.816  16.599 -36.559  1.00  0.00     0.210 HD
ENDBRANCH  27  33
TORSDOF 2
ENDMDL
MODEL 7
REMARK VINA RESULT:    -6.716     12.469     16.155
REMARK INTER + INTRA:          -7.414
REMARK INTER:                  -7.304
REMARK INTRA:                  -0.109
REMARK UNBOUND:                -0.108
REMARK SMILES CC1(C)CC[C@]2(C(=O)[O-])CC[C@@]3(C)C(=CC[C@H]4[C@]5(C)CC[C@H](O)C(C)(C)[C@@H]5CC[C@]43C)[C@@H]2C1
REMARK SMILES IDX 6 1 5 2 10 3 32 4 4 5 11 6 14 7 33 8 2 9 12 10 15 11 1 12
REMARK SMILES IDX 3 13 13 14 30 15 16 16 17 17 29 18 31 19 18 20 28 21 27 22
REMARK SMILES IDX 20 23 19 24 24 25 21 26 22 27 25 28 26 29 7 30 8 31 9 32
REMARK SMILES IDX 23 33
REMARK H PARENT 23 34
REMARK Flexibility Score: inf
ROOT
ATOM      1  C   UNL     1     -12.411  16.644 -24.502  1.00  0.00     0.017 C 
ATOM      2  C   UNL     1     -11.765  17.814 -23.717  1.00  0.00     0.014 C 
ATOM      3  C   UNL     1     -12.943  15.585 -23.522  1.00  0.00     0.014 C 
ATOM      4  C   UNL     1     -11.384  15.948 -25.443  1.00  0.00     0.028 C 
ATOM      5  C   UNL     1     -10.465  17.432 -22.997  1.00  0.00     0.007 C 
ATOM      6  C   UNL     1     -13.758  14.501 -24.222  1.00  0.00     0.013 C 
ATOM      7  C   UNL     1     -11.923  14.652 -26.069  1.00  0.00    -0.064 C 
ATOM      8  C   UNL     1     -10.039  15.627 -24.724  1.00  0.00     0.015 C 
ATOM      9  C   UNL     1      -9.418  16.820 -23.954  1.00  0.00    -0.035 C 
ATOM     10  C   UNL     1     -13.236  13.977 -25.636  1.00  0.00    -0.006 C 
ATOM     11  C   UNL     1     -11.214  14.139 -27.087  1.00  0.00    -0.027 C 
ATOM     12  C   UNL     1      -8.227  16.308 -23.112  1.00  0.00     0.011 C 
ATOM     13  C   UNL     1      -8.878  17.887 -24.935  1.00  0.00     0.011 C 
ATOM     14  C   UNL     1     -14.295  14.398 -26.719  1.00  0.00     0.017 C 
ATOM     15  C   UNL     1     -13.036  12.376 -25.628  1.00  0.00    -0.020 C 
ATOM     16  C   UNL     1     -11.277  12.704 -27.513  1.00  0.00     0.032 C 
ATOM     17  C   UNL     1     -12.483  11.844 -27.025  1.00  0.00     0.006 C 
ATOM     18  C   UNL     1     -11.970  11.978 -24.570  1.00  0.00     0.008 C 
ATOM     19  C   UNL     1     -14.420  11.736 -25.274  1.00  0.00     0.012 C 
ATOM     20  C   UNL     1     -12.137  10.274 -27.092  1.00  0.00    -0.025 C 
ATOM     21  C   UNL     1     -11.706  10.479 -24.509  1.00  0.00     0.005 C 
ATOM     22  C   UNL     1     -11.233   9.835 -25.852  1.00  0.00     0.003 C 
ATOM     23  C   UNL     1     -13.451   9.403 -27.235  1.00  0.00     0.010 C 
ATOM     24  C   UNL     1     -11.351  10.017 -28.419  1.00  0.00     0.012 C 
ATOM     25  C   UNL     1     -10.973   8.251 -25.725  1.00  0.00    -0.006 C 
ATOM     26  C   UNL     1     -13.494   8.176 -26.304  1.00  0.00     0.033 C 
ATOM     27  C   UNL     1     -12.159   7.417 -26.333  1.00  0.00     0.120 C 
ATOM     28  C   UNL     1      -9.668   7.876 -26.474  1.00  0.00     0.014 C 
ATOM     29  C   UNL     1     -10.717   7.816 -24.248  1.00  0.00     0.014 C 
ENDROOT
BRANCH   1  30
ATOM     30  C   UNL     1     -13.566  17.267 -25.273  1.00  0.00     0.048 C 
ATOM     31  O   UNL     1     -13.392  17.718 -26.444  1.00  0.00    -0.550 OA
ATOM     32  O   UNL     1     -14.794  17.471 -24.650  1.00  0.00    -0.550 OA
ENDBRANCH   1  30
BRANCH  27  33
ATOM     33  O   UNL     1     -12.284   6.142 -25.737  1.00  0.00    -0.393 OA
ATOM     34  H   UNL     1     -11.675   6.108 -24.954  1.00  0.00     0.210 HD
ENDBRANCH  27  33
TORSDOF 2
ENDMDL
MODEL 8
REMARK VINA RESULT:    -6.661      1.723      2.780
REMARK INTER + INTRA:          -7.354
REMARK INTER:                  -7.284
REMARK INTRA:                  -0.070
REMARK UNBOUND:                -0.108
REMARK SMILES CC1(C)CC[C@]2(C(=O)[O-])CC[C@@]3(C)C(=CC[C@H]4[C@]5(C)CC[C@H](O)C(C)(C)[C@@H]5CC[C@]43C)[C@@H]2C1
REMARK SMILES IDX 6 1 5 2 10 3 32 4 4 5 11 6 14 7 33 8 2 9 12 10 15 11 1 12
REMARK SMILES IDX 3 13 13 14 30 15 16 16 17 17 29 18 31 19 18 20 28 21 27 22
REMARK SMILES IDX 20 23 19 24 24 25 21 26 22 27 25 28 26 29 7 30 8 31 9 32
REMARK SMILES IDX 23 33
REMARK H PARENT 23 34
REMARK Flexibility Score: inf
ROOT
ATOM      1  C   UNL     1      -8.907   8.212 -36.813  1.00  0.00     0.017 C 
ATOM      2  C   UNL     1      -9.578   9.606 -36.735  1.00  0.00     0.014 C 
ATOM      3  C   UNL     1      -8.071   7.958 -35.547  1.00  0.00     0.014 C 
ATOM      4  C   UNL     1      -7.955   8.100 -38.041  1.00  0.00     0.028 C 
ATOM      5  C   UNL     1      -8.588  10.774 -36.824  1.00  0.00     0.007 C 
ATOM      6  C   UNL     1      -7.539   6.529 -35.476  1.00  0.00     0.013 C 
ATOM      7  C   UNL     1      -7.105   6.820 -38.031  1.00  0.00    -0.064 C 
ATOM      8  C   UNL     1      -7.000   9.327 -38.166  1.00  0.00     0.015 C 
ATOM      9  C   UNL     1      -7.704  10.704 -38.090  1.00  0.00    -0.035 C 
ATOM     10  C   UNL     1      -7.017   5.864 -36.829  1.00  0.00    -0.006 C 
ATOM     11  C   UNL     1      -6.464   6.519 -39.171  1.00  0.00    -0.027 C 
ATOM     12  C   UNL     1      -6.630  11.812 -37.997  1.00  0.00     0.011 C 
ATOM     13  C   UNL     1      -8.543  10.966 -39.362  1.00  0.00     0.011 C 
ATOM     14  C   UNL     1      -7.981   4.673 -37.175  1.00  0.00     0.017 C 
ATOM     15  C   UNL     1      -5.498   5.340 -36.673  1.00  0.00    -0.020 C 
ATOM     16  C   UNL     1      -5.260   5.630 -39.245  1.00  0.00     0.032 C 
ATOM     17  C   UNL     1      -4.953   4.703 -38.029  1.00  0.00     0.006 C 
ATOM     18  C   UNL     1      -4.554   6.533 -36.355  1.00  0.00     0.008 C 
ATOM     19  C   UNL     1      -5.482   4.304 -35.501  1.00  0.00     0.012 C 
ATOM     20  C   UNL     1      -3.408   4.253 -38.022  1.00  0.00    -0.025 C 
ATOM     21  C   UNL     1      -3.093   6.127 -36.209  1.00  0.00     0.005 C 
ATOM     22  C   UNL     1      -2.476   5.418 -37.458  1.00  0.00     0.003 C 
ATOM     23  C   UNL     1      -3.215   2.882 -37.253  1.00  0.00     0.010 C 
ATOM     24  C   UNL     1      -3.001   3.934 -39.498  1.00  0.00     0.012 C 
ATOM     25  C   UNL     1      -0.933   5.012 -37.243  1.00  0.00    -0.006 C 
ATOM     26  C   UNL     1      -2.024   2.875 -36.276  1.00  0.00     0.033 C 
ATOM     27  C   UNL     1      -0.773   3.480 -36.929  1.00  0.00     0.120 C 
ATOM     28  C   UNL     1      -0.125   5.342 -38.526  1.00  0.00     0.014 C 
ATOM     29  C   UNL     1      -0.255   5.860 -36.122  1.00  0.00     0.014 C 
ENDROOT
BRANCH   1  30
ATOM     30  C   UNL     1     -10.056   7.216 -36.886  1.00  0.00     0.048 C 
ATOM     31  O   UNL     1     -10.410   6.719 -37.997  1.00  0.00    -0.550 OA
ATOM     32  O   UNL     1     -10.818   6.942 -35.754  1.00  0.00    -0.550 OA
ENDBRANCH   1  30
BRANCH  27  33
ATOM     33  O   UNL     1       0.385   3.202 -36.168  1.00  0.00    -0.393 OA
ATOM     34  H   UNL     1       0.219   3.502 -35.237  1.00  0.00     0.210 HD
ENDBRANCH  27  33
TORSDOF 2
ENDMDL
MODEL 9
REMARK VINA RESULT:    -6.630     11.969     16.780
REMARK INTER + INTRA:          -7.320
REMARK INTER:                  -7.211
REMARK INTRA:                  -0.109
REMARK UNBOUND:                -0.108
REMARK SMILES CC1(C)CC[C@]2(C(=O)[O-])CC[C@@]3(C)C(=CC[C@H]4[C@]5(C)CC[C@H](O)C(C)(C)[C@@H]5CC[C@]43C)[C@@H]2C1
REMARK SMILES IDX 6 1 5 2 10 3 32 4 4 5 11 6 14 7 33 8 2 9 12 10 15 11 1 12
REMARK SMILES IDX 3 13 13 14 30 15 16 16 17 17 29 18 31 19 18 20 28 21 27 22
REMARK SMILES IDX 20 23 19 24 24 25 21 26 22 27 25 28 26 29 7 30 8 31 9 32
REMARK SMILES IDX 23 33
REMARK H PARENT 23 34
REMARK Flexibility Score: inf
ROOT
ATOM      1  C   UNL     1     -11.361   8.992 -26.712  1.00  0.00     0.017 C 
ATOM      2  C   UNL     1     -10.215   8.091 -27.238  1.00  0.00     0.014 C 
ATOM      3  C   UNL     1     -11.803   9.974 -27.811  1.00  0.00     0.014 C 
ATOM      4  C   UNL     1     -10.912   9.831 -25.479  1.00  0.00     0.028 C 
ATOM      5  C   UNL     1      -8.899   8.840 -27.479  1.00  0.00     0.007 C 
ATOM      6  C   UNL     1     -13.052  10.760 -27.422  1.00  0.00     0.013 C 
ATOM      7  C   UNL     1     -11.940  10.895 -25.066  1.00  0.00    -0.064 C 
ATOM      8  C   UNL     1      -9.538  10.532 -25.704  1.00  0.00     0.015 C 
ATOM      9  C   UNL     1      -8.414   9.600 -26.224  1.00  0.00    -0.035 C 
ATOM     10  C   UNL     1     -13.171  11.266 -25.913  1.00  0.00    -0.006 C 
ATOM     11  C   UNL     1     -11.757  11.471 -23.868  1.00  0.00    -0.027 C 
ATOM     12  C   UNL     1      -7.191  10.460 -26.616  1.00  0.00     0.011 C 
ATOM     13  C   UNL     1      -7.963   8.613 -25.122  1.00  0.00     0.011 C 
ATOM     14  C   UNL     1     -14.375  10.505 -25.250  1.00  0.00     0.017 C 
ATOM     15  C   UNL     1     -13.401  12.862 -25.849  1.00  0.00    -0.020 C 
ATOM     16  C   UNL     1     -12.325  12.804 -23.484  1.00  0.00     0.032 C 
ATOM     17  C   UNL     1     -13.488  13.385 -24.345  1.00  0.00     0.006 C 
ATOM     18  C   UNL     1     -12.192  13.601 -26.486  1.00  0.00     0.008 C 
ATOM     19  C   UNL     1     -14.711  13.174 -26.645  1.00  0.00     0.012 C 
ATOM     20  C   UNL     1     -13.601  14.979 -24.162  1.00  0.00    -0.025 C 
ATOM     21  C   UNL     1     -12.320  15.118 -26.451  1.00  0.00     0.005 C 
ATOM     22  C   UNL     1     -12.491  15.734 -25.025  1.00  0.00     0.003 C 
ATOM     23  C   UNL     1     -15.069  15.487 -24.465  1.00  0.00     0.010 C 
ATOM     24  C   UNL     1     -13.382  15.299 -22.647  1.00  0.00     0.012 C 
ATOM     25  C   UNL     1     -12.625  17.339 -25.052  1.00  0.00    -0.006 C 
ATOM     26  C   UNL     1     -15.125  16.746 -25.353  1.00  0.00     0.033 C 
ATOM     27  C   UNL     1     -14.117  17.801 -24.875  1.00  0.00     0.120 C 
ATOM     28  C   UNL     1     -11.776  17.951 -23.907  1.00  0.00     0.014 C 
ATOM     29  C   UNL     1     -12.027  17.953 -26.356  1.00  0.00     0.014 C 
ENDROOT
BRANCH   1  30
ATOM     30  C   UNL     1     -12.499   8.040 -26.375  1.00  0.00     0.048 C 
ATOM     31  O   UNL     1     -12.607   7.548 -25.213  1.00  0.00    -0.550 OA
ATOM     32  O   UNL     1     -13.358   7.595 -27.376  1.00  0.00    -0.550 OA
ENDBRANCH   1  30
BRANCH  27  33
ATOM     33  O   UNL     1     -14.368  19.056 -25.475  1.00  0.00    -0.393 OA
ATOM     34  H   UNL     1     -14.350  19.746 -24.762  1.00  0.00     0.210 HD
ENDBRANCH  27  33
TORSDOF 2
ENDMDL
