MODEL 1
REMARK VINA RESULT:    -3.996      0.000      0.000
REMARK INTER + INTRA:          -8.301
REMARK INTER:                  -7.500
REMARK INTRA:                  -0.802
REMARK UNBOUND:                -0.802
REMARK SMILES CCCCCCCCC=CCCCCCCCC(=O)[O-]
REMARK SMILES IDX 10 1 9 2 11 3 12 4 13 5 14 6 15 7 16 8 17 9 18 10 19 11
REMARK SMILES IDX 20 12 8 13 7 14 6 15 5 16 4 17 3 18 2 19 1 20
REMARK H PARENT
REMARK Flexibility Score: inf
ROOT
ATOM      1  C   UNL     1      45.807  12.666 -33.070  1.00  0.00    -0.031 C 
ATOM      2  C   UNL     1      46.419  12.810 -31.880  1.00  0.00    -0.031 C 
ENDROOT
BRANCH   1   3
ATOM      3  C   UNL     1      44.333  12.392 -33.249  1.00  0.00     0.027 C 
BRANCH   3   4
ATOM      4  C   UNL     1      43.791  13.003 -34.550  1.00  0.00     0.004 C 
BRANCH   4   5
ATOM      5  C   UNL     1      43.135  11.945 -35.456  1.00  0.00     0.000 C 
BRANCH   5   6
ATOM      6  C   UNL     1      42.286  12.569 -36.575  1.00  0.00     0.000 C 
BRANCH   6   7
ATOM      7  C   UNL     1      42.047  14.072 -36.370  1.00  0.00     0.000 C 
BRANCH   7   8
ATOM      8  C   UNL     1      40.545  14.382 -36.282  1.00  0.00     0.006 C 
BRANCH   8   9
ATOM      9  C   UNL     1      39.770  13.291 -35.532  1.00  0.00     0.053 C 
BRANCH   9  10
ATOM     10  C   UNL     1      38.297  13.564 -35.524  1.00  0.00     0.041 C 
ATOM     11  O   UNL     1      37.497  12.743 -36.046  1.00  0.00    -0.550 OA
ATOM     12  O   UNL     1      37.810  14.739 -34.967  1.00  0.00    -0.550 OA
ENDBRANCH   9  10
ENDBRANCH   8   9
ENDBRANCH   7   8
ENDBRANCH   6   7
ENDBRANCH   5   6
ENDBRANCH   4   5
ENDBRANCH   3   4
ENDBRANCH   1   3
BRANCH   2  13
ATOM     13  C   UNL     1      45.747  12.623 -30.540  1.00  0.00     0.027 C 
BRANCH  13  14
ATOM     14  C   UNL     1      46.693  11.993 -29.507  1.00  0.00     0.004 C 
BRANCH  14  15
ATOM     15  C   UNL     1      46.041  11.884 -28.117  1.00  0.00     0.000 C 
BRANCH  15  16
ATOM     16  C   UNL     1      47.058  12.016 -26.972  1.00  0.00     0.000 C 
BRANCH  16  17
ATOM     17  C   UNL     1      46.408  11.875 -25.585  1.00  0.00    -0.000 C 
BRANCH  17  18
ATOM     18  C   UNL     1      44.874  11.956 -25.641  1.00  0.00    -0.000 C 
BRANCH  18  19
ATOM     19  C   UNL     1      44.285  12.832 -24.526  1.00  0.00    -0.003 C 
ATOM     20  C   UNL     1      45.339  13.776 -23.956  1.00  0.00     0.004 C 
ENDBRANCH  18  19
ENDBRANCH  17  18
ENDBRANCH  16  17
ENDBRANCH  15  16
ENDBRANCH  14  15
ENDBRANCH  13  14
ENDBRANCH   2  13
TORSDOF 15
ENDMDL
MODEL 2
REMARK VINA RESULT:    -2.435      4.394      9.949
REMARK INTER + INTRA:          -5.371
REMARK INTER:                  -4.581
REMARK INTRA:                  -0.790
REMARK UNBOUND:                -0.802
REMARK SMILES CCCCCCCCC=CCCCCCCCC(=O)[O-]
REMARK SMILES IDX 10 1 9 2 11 3 12 4 13 5 14 6 15 7 16 8 17 9 18 10 19 11
REMARK SMILES IDX 20 12 8 13 7 14 6 15 5 16 4 17 3 18 2 19 1 20
REMARK H PARENT
REMARK Flexibility Score: inf
ROOT
ATOM      1  C   UNL     1      44.940  12.819 -32.561  1.00  0.00    -0.031 C 
ATOM      2  C   UNL     1      44.177  12.693 -33.663  1.00  0.00    -0.031 C 
ENDROOT
BRANCH   1   3
ATOM      3  C   UNL     1      46.450  12.802 -32.556  1.00  0.00     0.027 C 
BRANCH   3   4
ATOM      4  C   UNL     1      47.011  12.065 -31.331  1.00  0.00     0.004 C 
BRANCH   4   5
ATOM      5  C   UNL     1      45.950  11.879 -30.232  1.00  0.00     0.000 C 
BRANCH   5   6
ATOM      6  C   UNL     1      46.548  11.937 -28.816  1.00  0.00     0.000 C 
BRANCH   6   7
ATOM      7  C   UNL     1      45.474  11.909 -27.718  1.00  0.00     0.000 C 
BRANCH   7   8
ATOM      8  C   UNL     1      45.870  12.813 -26.542  1.00  0.00     0.006 C 
BRANCH   8   9
ATOM      9  C   UNL     1      46.023  12.029 -25.232  1.00  0.00     0.053 C 
BRANCH   9  10
ATOM     10  C   UNL     1      45.290  12.687 -24.103  1.00  0.00     0.041 C 
ATOM     11  O   UNL     1      45.909  13.414 -23.282  1.00  0.00    -0.550 OA
ATOM     12  O   UNL     1      43.928  12.471 -23.939  1.00  0.00    -0.550 OA
ENDBRANCH   9  10
ENDBRANCH   8   9
ENDBRANCH   7   8
ENDBRANCH   6   7
ENDBRANCH   5   6
ENDBRANCH   4   5
ENDBRANCH   3   4
ENDBRANCH   1   3
BRANCH   2  13
ATOM     13  C   UNL     1      44.709  12.417 -35.049  1.00  0.00     0.027 C 
BRANCH  13  14
ATOM     14  C   UNL     1      43.583  12.087 -36.040  1.00  0.00     0.004 C 
BRANCH  14  15
ATOM     15  C   UNL     1      42.229  12.666 -35.590  1.00  0.00     0.000 C 
BRANCH  15  16
ATOM     16  C   UNL     1      41.032  11.877 -36.145  1.00  0.00     0.000 C 
BRANCH  16  17
ATOM     17  C   UNL     1      39.700  12.627 -35.974  1.00  0.00    -0.000 C 
BRANCH  17  18
ATOM     18  C   UNL     1      39.885  14.152 -35.905  1.00  0.00    -0.000 C 
BRANCH  18  19
ATOM     19  C   UNL     1      38.570  14.897 -35.635  1.00  0.00    -0.003 C 
ATOM     20  C   UNL     1      37.689  14.120 -34.661  1.00  0.00     0.004 C 
ENDBRANCH  18  19
ENDBRANCH  17  18
ENDBRANCH  16  17
ENDBRANCH  15  16
ENDBRANCH  14  15
ENDBRANCH  13  14
ENDBRANCH   2  13
TORSDOF 15
ENDMDL
MODEL 3
REMARK VINA RESULT:    -1.891      4.326      8.548
REMARK INTER + INTRA:          -4.351
REMARK INTER:                  -3.702
REMARK INTRA:                  -0.649
REMARK UNBOUND:                -0.802
REMARK SMILES CCCCCCCCC=CCCCCCCCC(=O)[O-]
REMARK SMILES IDX 10 1 9 2 11 3 12 4 13 5 14 6 15 7 16 8 17 9 18 10 19 11
REMARK SMILES IDX 20 12 8 13 7 14 6 15 5 16 4 17 3 18 2 19 1 20
REMARK H PARENT
REMARK Flexibility Score: inf
ROOT
ATOM      1  C   UNL     1      41.765  14.384 -36.150  1.00  0.00    -0.031 C 
ATOM      2  C   UNL     1      40.760  15.279 -36.192  1.00  0.00    -0.031 C 
ENDROOT
BRANCH   1   3
ATOM      3  C   UNL     1      41.608  12.936 -35.753  1.00  0.00     0.027 C 
BRANCH   3   4
ATOM      4  C   UNL     1      42.569  12.022 -36.526  1.00  0.00     0.004 C 
BRANCH   4   5
ATOM      5  C   UNL     1      44.009  12.564 -36.525  1.00  0.00     0.000 C 
BRANCH   5   6
ATOM      6  C   UNL     1      44.892  11.898 -35.457  1.00  0.00     0.000 C 
BRANCH   6   7
ATOM      7  C   UNL     1      44.659  12.474 -34.052  1.00  0.00     0.000 C 
BRANCH   7   8
ATOM      8  C   UNL     1      45.991  12.838 -33.380  1.00  0.00     0.006 C 
BRANCH   8   9
ATOM      9  C   UNL     1      45.816  13.885 -32.272  1.00  0.00     0.053 C 
BRANCH   9  10
ATOM     10  C   UNL     1      45.512  13.247 -30.950  1.00  0.00     0.041 C 
ATOM     11  O   UNL     1      45.127  13.951 -29.980  1.00  0.00    -0.550 OA
ATOM     12  O   UNL     1      45.685  11.879 -30.782  1.00  0.00    -0.550 OA
ENDBRANCH   9  10
ENDBRANCH   8   9
ENDBRANCH   7   8
ENDBRANCH   6   7
ENDBRANCH   5   6
ENDBRANCH   4   5
ENDBRANCH   3   4
ENDBRANCH   1   3
BRANCH   2  13
ATOM     13  C   UNL     1      39.341  14.999 -35.756  1.00  0.00     0.027 C 
BRANCH  13  14
ATOM     14  C   UNL     1      38.668  13.940 -36.640  1.00  0.00     0.004 C 
BRANCH  14  15
ATOM     15  C   UNL     1      38.334  12.658 -35.854  1.00  0.00     0.000 C 
BRANCH  15  16
ATOM     16  C   UNL     1      36.906  12.666 -35.286  1.00  0.00     0.000 C 
BRANCH  16  17
ATOM     17  C   UNL     1      36.881  12.610 -33.749  1.00  0.00    -0.000 C 
BRANCH  17  18
ATOM     18  C   UNL     1      37.038  13.998 -33.105  1.00  0.00    -0.000 C 
BRANCH  18  19
ATOM     19  C   UNL     1      37.370  13.923 -31.607  1.00  0.00    -0.003 C 
ATOM     20  C   UNL     1      36.921  15.188 -30.883  1.00  0.00     0.004 C 
ENDBRANCH  18  19
ENDBRANCH  17  18
ENDBRANCH  16  17
ENDBRANCH  15  16
ENDBRANCH  14  15
ENDBRANCH  13  14
ENDBRANCH   2  13
TORSDOF 15
ENDMDL
MODEL 4
REMARK VINA RESULT:    -1.700      4.669      8.444
REMARK INTER + INTRA:          -3.993
REMARK INTER:                  -3.090
REMARK INTRA:                  -0.903
REMARK UNBOUND:                -0.802
REMARK SMILES CCCCCCCCC=CCCCCCCCC(=O)[O-]
REMARK SMILES IDX 10 1 9 2 11 3 12 4 13 5 14 6 15 7 16 8 17 9 18 10 19 11
REMARK SMILES IDX 20 12 8 13 7 14 6 15 5 16 4 17 3 18 2 19 1 20
REMARK H PARENT
REMARK Flexibility Score: inf
ROOT
ATOM      1  C   UNL     1      39.991  12.618 -36.439  1.00  0.00    -0.031 C 
ATOM      2  C   UNL     1      38.816  12.176 -36.924  1.00  0.00    -0.031 C 
ENDROOT
BRANCH   1   3
ATOM      3  C   UNL     1      40.267  14.044 -36.026  1.00  0.00     0.027 C 
BRANCH   3   4
ATOM      4  C   UNL     1      41.767  14.301 -35.820  1.00  0.00     0.004 C 
BRANCH   4   5
ATOM      5  C   UNL     1      42.624  13.618 -36.900  1.00  0.00     0.000 C 
BRANCH   5   6
ATOM      6  C   UNL     1      43.244  12.296 -36.416  1.00  0.00     0.000 C 
BRANCH   6   7
ATOM      7  C   UNL     1      43.054  12.070 -34.908  1.00  0.00     0.000 C 
BRANCH   7   8
ATOM      8  C   UNL     1      44.369  12.300 -34.149  1.00  0.00     0.006 C 
BRANCH   8   9
ATOM      9  C   UNL     1      44.144  12.509 -32.646  1.00  0.00     0.053 C 
BRANCH   9  10
ATOM     10  C   UNL     1      45.431  12.763 -31.923  1.00  0.00     0.041 C 
ATOM     11  O   UNL     1      46.268  13.583 -32.386  1.00  0.00    -0.550 OA
ATOM     12  O   UNL     1      45.721  12.071 -30.754  1.00  0.00    -0.550 OA
ENDBRANCH   9  10
ENDBRANCH   8   9
ENDBRANCH   7   8
ENDBRANCH   6   7
ENDBRANCH   5   6
ENDBRANCH   4   5
ENDBRANCH   3   4
ENDBRANCH   1   3
BRANCH   2  13
ATOM     13  C   UNL     1      37.625  13.055 -37.222  1.00  0.00     0.027 C 
BRANCH  13  14
ATOM     14  C   UNL     1      36.878  13.462 -35.944  1.00  0.00     0.004 C 
BRANCH  14  15
ATOM     15  C   UNL     1      36.959  12.375 -34.856  1.00  0.00     0.000 C 
BRANCH  15  16
ATOM     16  C   UNL     1      37.612  12.880 -33.560  1.00  0.00     0.000 C 
BRANCH  16  17
ATOM     17  C   UNL     1      36.953  14.163 -33.027  1.00  0.00    -0.000 C 
BRANCH  17  18
ATOM     18  C   UNL     1      36.875  14.193 -31.491  1.00  0.00    -0.000 C 
BRANCH  18  19
ATOM     19  C   UNL     1      37.600  13.007 -30.838  1.00  0.00    -0.003 C 
ATOM     20  C   UNL     1      36.875  12.548 -29.577  1.00  0.00     0.004 C 
ENDBRANCH  18  19
ENDBRANCH  17  18
ENDBRANCH  16  17
ENDBRANCH  15  16
ENDBRANCH  14  15
ENDBRANCH  13  14
ENDBRANCH   2  13
TORSDOF 15
ENDMDL
MODEL 5
REMARK VINA RESULT:    -1.045      5.182     10.987
REMARK INTER + INTRA:          -2.763
REMARK INTER:                  -2.201
REMARK INTRA:                  -0.562
REMARK UNBOUND:                -0.802
REMARK SMILES CCCCCCCCC=CCCCCCCCC(=O)[O-]
REMARK SMILES IDX 10 1 9 2 11 3 12 4 13 5 14 6 15 7 16 8 17 9 18 10 19 11
REMARK SMILES IDX 20 12 8 13 7 14 6 15 5 16 4 17 3 18 2 19 1 20
REMARK H PARENT
REMARK Flexibility Score: inf
ROOT
ATOM      1  C   UNL     1      46.528  11.888 -28.337  1.00  0.00    -0.031 C 
ATOM      2  C   UNL     1      46.545  11.878 -29.683  1.00  0.00    -0.031 C 
ENDROOT
BRANCH   1   3
ATOM      3  C   UNL     1      45.516  12.627 -27.496  1.00  0.00     0.027 C 
BRANCH   3   4
ATOM      4  C   UNL     1      45.190  11.876 -26.197  1.00  0.00     0.004 C 
BRANCH   4   5
ATOM      5  C   UNL     1      45.927  12.471 -24.985  1.00  0.00     0.000 C 
BRANCH   5   6
ATOM      6  C   UNL     1      45.042  13.424 -24.164  1.00  0.00     0.000 C 
BRANCH   6   7
ATOM      7  C   UNL     1      45.747  13.950 -22.904  1.00  0.00     0.000 C 
BRANCH   7   8
ATOM      8  C   UNL     1      46.583  15.198 -23.225  1.00  0.00     0.006 C 
BRANCH   8   9
ATOM      9  C   UNL     1      45.745  16.483 -23.191  1.00  0.00     0.053 C 
BRANCH   9  10
ATOM     10  C   UNL     1      46.576  17.677 -22.833  1.00  0.00     0.041 C 
ATOM     11  O   UNL     1      46.596  18.685 -23.587  1.00  0.00    -0.550 OA
ATOM     12  O   UNL     1      47.354  17.664 -21.683  1.00  0.00    -0.550 OA
ENDBRANCH   9  10
ENDBRANCH   8   9
ENDBRANCH   7   8
ENDBRANCH   6   7
ENDBRANCH   5   6
ENDBRANCH   4   5
ENDBRANCH   3   4
ENDBRANCH   1   3
BRANCH   2  13
ATOM     13  C   UNL     1      45.614  12.683 -30.559  1.00  0.00     0.027 C 
BRANCH  13  14
ATOM     14  C   UNL     1      45.753  12.306 -32.041  1.00  0.00     0.004 C 
BRANCH  14  15
ATOM     15  C   UNL     1      44.422  12.453 -32.802  1.00  0.00     0.000 C 
BRANCH  15  16
ATOM     16  C   UNL     1      44.615  12.932 -34.249  1.00  0.00     0.000 C 
BRANCH  16  17
ATOM     17  C   UNL     1      43.959  11.992 -35.275  1.00  0.00    -0.000 C 
BRANCH  17  18
ATOM     18  C   UNL     1      42.425  12.091 -35.270  1.00  0.00    -0.000 C 
BRANCH  18  19
ATOM     19  C   UNL     1      41.889  13.048 -36.345  1.00  0.00    -0.003 C 
ATOM     20  C   UNL     1      40.608  13.735 -35.879  1.00  0.00     0.004 C 
ENDBRANCH  18  19
ENDBRANCH  17  18
ENDBRANCH  16  17
ENDBRANCH  15  16
ENDBRANCH  14  15
ENDBRANCH  13  14
ENDBRANCH   2  13
TORSDOF 15
ENDMDL
