MODEL 1
REMARK VINA RESULT:    -3.718      0.000      0.000
REMARK INTER + INTRA:          -6.026
REMARK INTER:                  -5.675
REMARK INTRA:                  -0.351
REMARK UNBOUND:                -0.351
REMARK SMILES CC1=CCC[C@@H](C)C(=O)C[C@H](C(C)C)C(=O)C1
REMARK SMILES IDX 8 1 9 2 6 3 7 4 5 5 4 6 3 7 2 8 1 9 10 11 11 12 15 13 16 14
REMARK SMILES IDX 17 15 12 17 13 18 14 19
REMARK H PARENT
REMARK Flexibility Score: 70.00
ROOT
ATOM      1  C   UNL     1      14.564  -6.512  16.745  1.00  0.00     0.136 C 
ATOM      2  O   UNL     1      14.449  -6.746  15.551  1.00  0.00    -0.299 OA
ENDROOT
BRANCH   1   3
ATOM      3  C   UNL     1      15.597  -5.479  17.177  1.00  0.00     0.053 C 
ATOM      4  C   UNL     1      16.533  -5.097  16.025  1.00  0.00     0.016 C 
BRANCH   3   5
ATOM      5  C   UNL     1      16.401  -5.920  18.419  1.00  0.00     0.015 C 
BRANCH   5   6
ATOM      6  C   UNL     1      17.529  -6.909  18.068  1.00  0.00     0.028 C 
BRANCH   6   7
ATOM      7  C   UNL     1      17.849  -7.879  19.170  1.00  0.00    -0.028 C 
ATOM      8  C   UNL     1      17.147  -8.998  19.482  1.00  0.00    -0.070 CG0
ATOM      9  C   UNL     1      17.547  -9.717  20.750  1.00  0.00     0.039 C 
ATOM     10  G   UNL     1      16.122  -9.681  18.578  1.00  0.00     0.000 G0
ENDBRANCH   6   7
ENDBRANCH   5   6
ENDBRANCH   3   5
ENDBRANCH   1   3
BRANCH   1  11
ATOM     11  C   UNL     1      13.694  -7.293  17.708  1.00  0.00     0.087 C 
BRANCH  11  12
ATOM     12  C   UNL     1      13.815  -8.843  17.647  1.00  0.00     0.066 C 
BRANCH  12  13
ATOM     13  C   UNL     1      14.652  -9.414  18.794  1.00  0.00     0.140 C 
ATOM     14  O   UNL     1      14.109  -9.760  19.832  1.00  0.00    -0.299 OA
BRANCH  13  15
ATOM     15  C   UNL     1      16.125  -9.713  18.583  1.00  0.00     0.106 CG0
ATOM     16  G   UNL     1      17.130  -8.982  19.472  1.00  0.00     0.000 G0
ENDBRANCH  13  15
ENDBRANCH  12  13
BRANCH  12  17
ATOM     17  C   UNL     1      12.394  -9.503  17.620  1.00  0.00    -0.006 C 
ATOM     18  C   UNL     1      11.302  -8.544  18.133  1.00  0.00     0.008 C 
ATOM     19  C   UNL     1      12.003  -9.986  16.211  1.00  0.00     0.008 C 
ENDBRANCH  12  17
ENDBRANCH  11  12
ENDBRANCH   1  11
TORSDOF 1
ENDMDL
MODEL 2
REMARK VINA RESULT:    -3.419      1.632      2.095
REMARK INTER + INTRA:          -5.569
REMARK INTER:                  -5.188
REMARK INTRA:                  -0.381
REMARK UNBOUND:                -0.351
REMARK SMILES CC1=CCC[C@@H](C)C(=O)C[C@H](C(C)C)C(=O)C1
REMARK SMILES IDX 8 1 9 2 6 3 7 4 5 5 4 6 3 7 2 8 1 9 10 11 11 12 15 13 16 14
REMARK SMILES IDX 17 15 12 17 13 18 14 19
REMARK H PARENT
REMARK Flexibility Score: 70.00
ROOT
ATOM      1  C   UNL     1      14.234  -6.038  18.102  1.00  0.00     0.136 C 
ATOM      2  O   UNL     1      13.272  -5.753  17.404  1.00  0.00    -0.299 OA
ENDROOT
BRANCH   1   3
ATOM      3  C   UNL     1      15.389  -5.047  18.169  1.00  0.00     0.053 C 
ATOM      4  C   UNL     1      14.952  -3.707  18.772  1.00  0.00     0.016 C 
BRANCH   3   5
ATOM      5  C   UNL     1      16.080  -4.840  16.805  1.00  0.00     0.015 C 
BRANCH   5   6
ATOM      6  C   UNL     1      16.512  -6.171  16.157  1.00  0.00     0.028 C 
BRANCH   6   7
ATOM      7  C   UNL     1      17.767  -6.751  16.745  1.00  0.00    -0.028 C 
ATOM      8  C   UNL     1      17.896  -7.980  17.307  1.00  0.00    -0.070 CG0
ATOM      9  C   UNL     1      19.206  -8.272  18.001  1.00  0.00     0.039 C 
ATOM     10  G   UNL     1      16.911  -9.136  17.142  1.00  0.00     0.000 G0
ENDBRANCH   6   7
ENDBRANCH   5   6
ENDBRANCH   3   5
ENDBRANCH   1   3
BRANCH   1  11
ATOM     11  C   UNL     1      14.220  -7.372  18.818  1.00  0.00     0.087 C 
BRANCH  11  12
ATOM     12  C   UNL     1      14.445  -8.634  17.936  1.00  0.00     0.066 C 
BRANCH  12  13
ATOM     13  C   UNL     1      15.810  -9.283  18.174  1.00  0.00     0.140 C 
ATOM     14  O   UNL     1      15.974 -10.026  19.131  1.00  0.00    -0.299 OA
BRANCH  13  15
ATOM     15  C   UNL     1      16.907  -9.150  17.135  1.00  0.00     0.106 CG0
ATOM     16  G   UNL     1      17.891  -7.991  17.290  1.00  0.00     0.000 G0
ENDBRANCH  13  15
ENDBRANCH  12  13
BRANCH  12  17
ATOM     17  C   UNL     1      13.293  -9.672  18.160  1.00  0.00    -0.006 C 
ATOM     18  C   UNL     1      12.670  -9.550  19.564  1.00  0.00     0.008 C 
ATOM     19  C   UNL     1      12.174  -9.536  17.110  1.00  0.00     0.008 C 
ENDBRANCH  12  17
ENDBRANCH  11  12
ENDBRANCH   1  11
TORSDOF 1
ENDMDL
MODEL 3
REMARK VINA RESULT:    -3.235      2.309      3.153
REMARK INTER + INTRA:          -5.287
REMARK INTER:                  -5.111
REMARK INTRA:                  -0.177
REMARK UNBOUND:                -0.351
REMARK SMILES CC1=CCC[C@@H](C)C(=O)C[C@H](C(C)C)C(=O)C1
REMARK SMILES IDX 8 1 9 2 6 3 7 4 5 5 4 6 3 7 2 8 1 9 10 11 11 12 15 13 16 14
REMARK SMILES IDX 17 15 12 17 13 18 14 19
REMARK H PARENT
REMARK Flexibility Score: 70.00
ROOT
ATOM      1  C   UNL     1      15.378  -5.390  19.083  1.00  0.00     0.136 C 
ATOM      2  O   UNL     1      15.694  -4.277  19.477  1.00  0.00    -0.299 OA
ENDROOT
BRANCH   1   3
ATOM      3  C   UNL     1      14.840  -5.521  17.664  1.00  0.00     0.053 C 
ATOM      4  C   UNL     1      13.396  -6.036  17.651  1.00  0.00     0.016 C 
BRANCH   3   5
ATOM      5  C   UNL     1      15.743  -6.386  16.759  1.00  0.00     0.015 C 
BRANCH   5   6
ATOM      6  C   UNL     1      17.228  -5.985  16.858  1.00  0.00     0.028 C 
BRANCH   6   7
ATOM      7  C   UNL     1      18.177  -7.145  16.750  1.00  0.00    -0.028 C 
ATOM      8  C   UNL     1      18.876  -7.706  17.769  1.00  0.00    -0.070 CG0
ATOM      9  C   UNL     1      19.912  -8.739  17.391  1.00  0.00     0.039 C 
ATOM     10  G   UNL     1      18.582  -7.514  19.256  1.00  0.00     0.000 G0
ENDBRANCH   6   7
ENDBRANCH   5   6
ENDBRANCH   3   5
ENDBRANCH   1   3
BRANCH   1  11
ATOM     11  C   UNL     1      15.512  -6.548  20.049  1.00  0.00     0.087 C 
BRANCH  11  12
ATOM     12  C   UNL     1      15.982  -7.903  19.444  1.00  0.00     0.066 C 
BRANCH  12  13
ATOM     13  C   UNL     1      17.407  -8.271  19.862  1.00  0.00     0.140 C 
ATOM     14  O   UNL     1      17.604  -9.253  20.561  1.00  0.00    -0.299 OA
BRANCH  13  15
ATOM     15  C   UNL     1      18.589  -7.526  19.268  1.00  0.00     0.106 CG0
ATOM     16  G   UNL     1      18.869  -7.717  17.778  1.00  0.00     0.000 G0
ENDBRANCH  13  15
ENDBRANCH  12  13
BRANCH  12  17
ATOM     17  C   UNL     1      14.983  -9.049  19.824  1.00  0.00    -0.006 C 
ATOM     18  C   UNL     1      13.648  -8.497  20.361  1.00  0.00     0.008 C 
ATOM     19  C   UNL     1      14.687  -9.982  18.635  1.00  0.00     0.008 C 
ENDBRANCH  12  17
ENDBRANCH  11  12
ENDBRANCH   1  11
TORSDOF 1
ENDMDL
MODEL 4
REMARK VINA RESULT:    -3.210      1.510      2.307
REMARK INTER + INTRA:          -5.250
REMARK INTER:                  -4.923
REMARK INTRA:                  -0.327
REMARK UNBOUND:                -0.351
REMARK SMILES CC1=CCC[C@@H](C)C(=O)C[C@H](C(C)C)C(=O)C1
REMARK SMILES IDX 8 1 9 2 6 3 7 4 5 5 4 6 3 7 2 8 1 9 10 11 11 12 15 13 16 14
REMARK SMILES IDX 17 15 12 17 13 18 14 19
REMARK H PARENT
REMARK Flexibility Score: 70.00
ROOT
ATOM      1  C   UNL     1      16.678  -6.507  17.592  1.00  0.00     0.136 C 
ATOM      2  O   UNL     1      16.488  -5.779  16.629  1.00  0.00    -0.299 OA
ENDROOT
BRANCH   1   3
ATOM      3  C   UNL     1      18.015  -7.232  17.690  1.00  0.00     0.053 C 
ATOM      4  C   UNL     1      18.094  -8.410  16.714  1.00  0.00     0.016 C 
BRANCH   3   5
ATOM      5  C   UNL     1      18.346  -7.682  19.129  1.00  0.00     0.015 C 
BRANCH   5   6
ATOM      6  C   UNL     1      18.293  -9.215  19.291  1.00  0.00     0.028 C 
BRANCH   6   7
ATOM      7  C   UNL     1      17.862  -9.664  20.658  1.00  0.00    -0.028 C 
ATOM      8  C   UNL     1      16.583  -9.851  21.074  1.00  0.00    -0.070 CG0
ATOM      9  C   UNL     1      16.383 -10.122  22.547  1.00  0.00     0.039 C 
ATOM     10  G   UNL     1      15.366  -9.987  20.160  1.00  0.00     0.000 G0
ENDBRANCH   6   7
ENDBRANCH   5   6
ENDBRANCH   3   5
ENDBRANCH   1   3
BRANCH   1  11
ATOM     11  C   UNL     1      15.555  -6.662  18.595  1.00  0.00     0.087 C 
BRANCH  11  12
ATOM     12  C   UNL     1      14.726  -7.976  18.509  1.00  0.00     0.066 C 
BRANCH  12  13
ATOM     13  C   UNL     1      14.586  -8.674  19.863  1.00  0.00     0.140 C 
ATOM     14  O   UNL     1      13.751  -8.286  20.666  1.00  0.00    -0.299 OA
BRANCH  13  15
ATOM     15  C   UNL     1      15.356  -9.951  20.143  1.00  0.00     0.106 CG0
ATOM     16  G   UNL     1      16.575  -9.856  21.058  1.00  0.00     0.000 G0
ENDBRANCH  13  15
ENDBRANCH  12  13
BRANCH  12  17
ATOM     17  C   UNL     1      13.316  -7.695  17.885  1.00  0.00    -0.006 C 
ATOM     18  C   UNL     1      13.244  -6.305  17.222  1.00  0.00     0.008 C 
ATOM     19  C   UNL     1      12.917  -8.758  16.844  1.00  0.00     0.008 C 
ENDBRANCH  12  17
ENDBRANCH  11  12
ENDBRANCH   1  11
TORSDOF 1
ENDMDL
MODEL 5
REMARK VINA RESULT:    -3.208      8.507     10.021
REMARK INTER + INTRA:          -5.247
REMARK INTER:                  -4.854
REMARK INTRA:                  -0.394
REMARK UNBOUND:                -0.351
REMARK SMILES CC1=CCC[C@@H](C)C(=O)C[C@H](C(C)C)C(=O)C1
REMARK SMILES IDX 8 1 9 2 6 3 7 4 5 5 4 6 3 7 2 8 1 9 10 11 11 12 15 13 16 14
REMARK SMILES IDX 17 15 12 17 13 18 14 19
REMARK H PARENT
REMARK Flexibility Score: 70.00
ROOT
ATOM      1  C   UNL     1      14.362  -1.314  20.813  1.00  0.00     0.136 C 
ATOM      2  O   UNL     1      13.981  -2.393  21.243  1.00  0.00    -0.299 OA
ENDROOT
BRANCH   1   3
ATOM      3  C   UNL     1      15.513  -1.305  19.816  1.00  0.00     0.053 C 
ATOM      4  C   UNL     1      15.637  -2.644  19.080  1.00  0.00     0.016 C 
BRANCH   3   5
ATOM      5  C   UNL     1      16.858  -0.901  20.458  1.00  0.00     0.015 C 
BRANCH   5   6
ATOM      6  C   UNL     1      17.202   0.582  20.214  1.00  0.00     0.028 C 
BRANCH   6   7
ATOM      7  C   UNL     1      17.591   1.326  21.460  1.00  0.00    -0.028 C 
ATOM      8  C   UNL     1      16.816   2.206  22.143  1.00  0.00    -0.070 CG0
ATOM      9  C   UNL     1      17.487   2.974  23.258  1.00  0.00     0.039 C 
ATOM     10  G   UNL     1      15.302   2.350  21.998  1.00  0.00     0.000 G0
ENDBRANCH   6   7
ENDBRANCH   5   6
ENDBRANCH   3   5
ENDBRANCH   1   3
BRANCH   1  11
ATOM     11  C   UNL     1      13.683  -0.065  21.333  1.00  0.00     0.087 C 
BRANCH  11  12
ATOM     12  C   UNL     1      13.894   0.262  22.840  1.00  0.00     0.066 C 
BRANCH  12  13
ATOM     13  C   UNL     1      14.430   1.678  23.065  1.00  0.00     0.140 C 
ATOM     14  O   UNL     1      14.283   2.220  24.150  1.00  0.00    -0.299 OA
BRANCH  13  15
ATOM     15  C   UNL     1      15.294   2.340  22.008  1.00  0.00     0.106 CG0
ATOM     16  G   UNL     1      16.809   2.198  22.142  1.00  0.00     0.000 G0
ENDBRANCH  13  15
ENDBRANCH  12  13
BRANCH  12  17
ATOM     17  C   UNL     1      12.566   0.041  23.641  1.00  0.00    -0.006 C 
ATOM     18  C   UNL     1      11.321   0.160  22.740  1.00  0.00     0.008 C 
ATOM     19  C   UNL     1      12.533  -1.327  24.348  1.00  0.00     0.008 C 
ENDBRANCH  12  17
ENDBRANCH  11  12
ENDBRANCH   1  11
TORSDOF 1
ENDMDL
MODEL 6
REMARK VINA RESULT:    -3.189      2.494      4.434
REMARK INTER + INTRA:          -5.218
REMARK INTER:                  -5.299
REMARK INTRA:                   0.081
REMARK UNBOUND:                -0.351
REMARK SMILES CC1=CCC[C@@H](C)C(=O)C[C@H](C(C)C)C(=O)C1
REMARK SMILES IDX 8 1 9 2 6 3 7 4 5 5 4 6 3 7 2 8 1 9 10 11 11 12 15 13 16 14
REMARK SMILES IDX 17 15 12 17 13 18 14 19
REMARK H PARENT
REMARK Flexibility Score: 70.00
ROOT
ATOM      1  C   UNL     1      15.077  -6.076  17.051  1.00  0.00     0.136 C 
ATOM      2  O   UNL     1      15.996  -6.454  16.339  1.00  0.00    -0.299 OA
ENDROOT
BRANCH   1   3
ATOM      3  C   UNL     1      13.687  -6.641  16.786  1.00  0.00     0.053 C 
ATOM      4  C   UNL     1      12.596  -5.802  17.461  1.00  0.00     0.016 C 
BRANCH   3   5
ATOM      5  C   UNL     1      13.561  -8.129  17.178  1.00  0.00     0.015 C 
BRANCH   5   6
ATOM      6  C   UNL     1      12.522  -8.357  18.293  1.00  0.00     0.028 C 
BRANCH   6   7
ATOM      7  C   UNL     1      13.007  -9.250  19.400  1.00  0.00    -0.028 C 
ATOM      8  C   UNL     1      13.804  -8.883  20.436  1.00  0.00    -0.070 CG0
ATOM      9  C   UNL     1      14.317  -9.994  21.321  1.00  0.00     0.039 C 
ATOM     10  G   UNL     1      14.072  -7.446  20.880  1.00  0.00     0.000 G0
ENDBRANCH   6   7
ENDBRANCH   5   6
ENDBRANCH   3   5
ENDBRANCH   1   3
BRANCH   1  11
ATOM     11  C   UNL     1      15.384  -5.048  18.118  1.00  0.00     0.087 C 
BRANCH  11  12
ATOM     12  C   UNL     1      14.747  -5.290  19.517  1.00  0.00     0.066 C 
BRANCH  12  13
ATOM     13  C   UNL     1      15.126  -6.649  20.109  1.00  0.00     0.140 C 
ATOM     14  O   UNL     1      16.288  -7.024  20.080  1.00  0.00    -0.299 OA
BRANCH  13  15
ATOM     15  C   UNL     1      14.100  -7.451  20.887  1.00  0.00     0.106 CG0
ATOM     16  G   UNL     1      13.829  -8.885  20.432  1.00  0.00     0.000 G0
ENDBRANCH  13  15
ENDBRANCH  12  13
BRANCH  12  17
ATOM     17  C   UNL     1      15.129  -4.133  20.502  1.00  0.00    -0.006 C 
ATOM     18  C   UNL     1      15.791  -2.948  19.772  1.00  0.00     0.008 C 
ATOM     19  C   UNL     1      13.911  -3.610  21.286  1.00  0.00     0.008 C 
ENDBRANCH  12  17
ENDBRANCH  11  12
ENDBRANCH   1  11
TORSDOF 1
ENDMDL
MODEL 7
REMARK VINA RESULT:    -3.135     11.910     14.240
REMARK INTER + INTRA:          -5.135
REMARK INTER:                  -5.155
REMARK INTRA:                   0.020
REMARK UNBOUND:                -0.351
REMARK SMILES CC1=CCC[C@@H](C)C(=O)C[C@H](C(C)C)C(=O)C1
REMARK SMILES IDX 8 1 9 2 6 3 7 4 5 5 4 6 3 7 2 8 1 9 10 11 11 12 15 13 16 14
REMARK SMILES IDX 17 15 12 17 13 18 14 19
REMARK H PARENT
REMARK Flexibility Score: 70.00
ROOT
ATOM      1  C   UNL     1      26.127  -7.787   7.003  1.00  0.00     0.136 C 
ATOM      2  O   UNL     1      26.377  -8.240   5.896  1.00  0.00    -0.299 OA
ENDROOT
BRANCH   1   3
ATOM      3  C   UNL     1      25.930  -8.768   8.152  1.00  0.00     0.053 C 
ATOM      4  C   UNL     1      27.182  -9.620   8.390  1.00  0.00     0.016 C 
BRANCH   3   5
ATOM      5  C   UNL     1      24.681  -9.657   7.973  1.00  0.00     0.015 C 
BRANCH   5   6
ATOM      6  C   UNL     1      23.369  -8.854   8.079  1.00  0.00     0.028 C 
BRANCH   6   7
ATOM      7  C   UNL     1      22.996  -8.487   9.488  1.00  0.00    -0.028 C 
ATOM      8  C   UNL     1      22.905  -7.230   9.991  1.00  0.00    -0.070 CG0
ATOM      9  C   UNL     1      22.699  -7.112  11.483  1.00  0.00     0.039 C 
ATOM     10  G   UNL     1      22.814  -5.949   9.162  1.00  0.00     0.000 G0
ENDBRANCH   6   7
ENDBRANCH   5   6
ENDBRANCH   3   5
ENDBRANCH   1   3
BRANCH   1  11
ATOM     11  C   UNL     1      25.994  -6.285   7.140  1.00  0.00     0.087 C 
BRANCH  11  12
ATOM     12  C   UNL     1      24.546  -5.720   7.197  1.00  0.00     0.066 C 
BRANCH  12  13
ATOM     13  C   UNL     1      24.109  -5.359   8.619  1.00  0.00     0.140 C 
ATOM     14  O   UNL     1      24.718  -4.505   9.246  1.00  0.00    -0.299 OA
BRANCH  13  15
ATOM     15  C   UNL     1      22.822  -5.930   9.185  1.00  0.00     0.106 CG0
ATOM     16  G   UNL     1      22.914  -7.235   9.974  1.00  0.00     0.000 G0
ENDBRANCH  13  15
ENDBRANCH  12  13
BRANCH  12  17
ATOM     17  C   UNL     1      24.402  -4.482   6.246  1.00  0.00    -0.006 C 
ATOM     18  C   UNL     1      23.040  -3.781   6.412  1.00  0.00     0.008 C 
ATOM     19  C   UNL     1      25.521  -3.446   6.466  1.00  0.00     0.008 C 
ENDBRANCH  12  17
ENDBRANCH  11  12
ENDBRANCH   1  11
TORSDOF 1
ENDMDL
MODEL 8
REMARK VINA RESULT:    -3.079      1.870      4.167
REMARK INTER + INTRA:          -5.050
REMARK INTER:                  -5.111
REMARK INTRA:                   0.061
REMARK UNBOUND:                -0.351
REMARK SMILES CC1=CCC[C@@H](C)C(=O)C[C@H](C(C)C)C(=O)C1
REMARK SMILES IDX 8 1 9 2 6 3 7 4 5 5 4 6 3 7 2 8 1 9 10 11 11 12 15 13 16 14
REMARK SMILES IDX 17 15 12 17 13 18 14 19
REMARK H PARENT
REMARK Flexibility Score: 70.00
ROOT
ATOM      1  C   UNL     1      16.052  -6.092  18.802  1.00  0.00     0.136 C 
ATOM      2  O   UNL     1      16.090  -6.175  20.021  1.00  0.00    -0.299 OA
ENDROOT
BRANCH   1   3
ATOM      3  C   UNL     1      15.232  -4.967  18.186  1.00  0.00     0.053 C 
ATOM      4  C   UNL     1      15.306  -3.685  19.024  1.00  0.00     0.016 C 
BRANCH   3   5
ATOM      5  C   UNL     1      13.766  -5.370  17.921  1.00  0.00     0.015 C 
BRANCH   5   6
ATOM      6  C   UNL     1      13.653  -6.691  17.134  1.00  0.00     0.028 C 
BRANCH   6   7
ATOM      7  C   UNL     1      12.922  -7.776  17.874  1.00  0.00    -0.028 C 
ATOM      8  C   UNL     1      13.356  -9.048  18.064  1.00  0.00    -0.070 CG0
ATOM      9  C   UNL     1      12.368 -10.015  18.674  1.00  0.00     0.039 C 
ATOM     10  G   UNL     1      14.794  -9.529  17.882  1.00  0.00     0.000 G0
ENDBRANCH   6   7
ENDBRANCH   5   6
ENDBRANCH   3   5
ENDBRANCH   1   3
BRANCH   1  11
ATOM     11  C   UNL     1      16.794  -7.138  17.998  1.00  0.00     0.087 C 
BRANCH  11  12
ATOM     12  C   UNL     1      17.073  -8.492  18.712  1.00  0.00     0.066 C 
BRANCH  12  13
ATOM     13  C   UNL     1      15.794  -9.282  18.996  1.00  0.00     0.140 C 
ATOM     14  O   UNL     1      15.502  -9.579  20.145  1.00  0.00    -0.299 OA
BRANCH  13  15
ATOM     15  C   UNL     1      14.799  -9.545  17.880  1.00  0.00     0.106 CG0
ATOM     16  G   UNL     1      13.366  -9.054  18.080  1.00  0.00     0.000 G0
ENDBRANCH  13  15
ENDBRANCH  12  13
BRANCH  12  17
ATOM     17  C   UNL     1      18.080  -9.355  17.877  1.00  0.00    -0.006 C 
ATOM     18  C   UNL     1      18.093  -8.951  16.390  1.00  0.00     0.008 C 
ATOM     19  C   UNL     1      19.517  -9.266  18.425  1.00  0.00     0.008 C 
ENDBRANCH  12  17
ENDBRANCH  11  12
ENDBRANCH   1  11
TORSDOF 1
ENDMDL
MODEL 9
REMARK VINA RESULT:    -2.955      2.003      4.635
REMARK INTER + INTRA:          -4.860
REMARK INTER:                  -5.190
REMARK INTRA:                   0.330
REMARK UNBOUND:                -0.351
REMARK SMILES CC1=CCC[C@@H](C)C(=O)C[C@H](C(C)C)C(=O)C1
REMARK SMILES IDX 8 1 9 2 6 3 7 4 5 5 4 6 3 7 2 8 1 9 10 11 11 12 15 13 16 14
REMARK SMILES IDX 17 15 12 17 13 18 14 19
REMARK H PARENT
REMARK Flexibility Score: 70.00
ROOT
ATOM      1  C   UNL     1      14.232  -8.565  17.434  1.00  0.00     0.136 C 
ATOM      2  O   UNL     1      13.852  -7.715  16.642  1.00  0.00    -0.299 OA
ENDROOT
BRANCH   1   3
ATOM      3  C   UNL     1      13.200  -9.192  18.362  1.00  0.00     0.053 C 
ATOM      4  C   UNL     1      11.892  -9.506  17.627  1.00  0.00     0.016 C 
BRANCH   3   5
ATOM      5  C   UNL     1      12.935  -8.344  19.624  1.00  0.00     0.015 C 
BRANCH   5   6
ATOM      6  C   UNL     1      14.239  -7.918  20.329  1.00  0.00     0.028 C 
BRANCH   6   7
ATOM      7  C   UNL     1      14.489  -6.436  20.295  1.00  0.00    -0.028 C 
ATOM      8  C   UNL     1      15.636  -5.826  19.901  1.00  0.00    -0.070 CG0
ATOM      9  C   UNL     1      15.722  -4.335  20.132  1.00  0.00     0.039 C 
ATOM     10  G   UNL     1      16.755  -6.481  19.094  1.00  0.00     0.000 G0
ENDBRANCH   6   7
ENDBRANCH   5   6
ENDBRANCH   3   5
ENDBRANCH   1   3
BRANCH   1  11
ATOM     11  C   UNL     1      15.708  -8.902  17.458  1.00  0.00     0.087 C 
BRANCH  11  12
ATOM     12  C   UNL     1      16.669  -7.847  16.837  1.00  0.00     0.066 C 
BRANCH  12  13
ATOM     13  C   UNL     1      16.639  -6.512  17.584  1.00  0.00     0.140 C 
ATOM     14  O   UNL     1      16.376  -5.481  16.983  1.00  0.00    -0.299 OA
BRANCH  13  15
ATOM     15  C   UNL     1      16.761  -6.485  19.097  1.00  0.00     0.106 CG0
ATOM     16  G   UNL     1      15.629  -5.830  19.886  1.00  0.00     0.000 G0
ENDBRANCH  13  15
ENDBRANCH  12  13
BRANCH  12  17
ATOM     17  C   UNL     1      18.130  -8.409  16.770  1.00  0.00    -0.006 C 
ATOM     18  C   UNL     1      19.185  -7.291  16.880  1.00  0.00     0.008 C 
ATOM     19  C   UNL     1      18.403  -9.454  17.868  1.00  0.00     0.008 C 
ENDBRANCH  12  17
ENDBRANCH  11  12
ENDBRANCH   1  11
TORSDOF 1
ENDMDL
