MODEL 1
REMARK VINA RESULT:    -3.856      0.000      0.000
REMARK INTER + INTRA:          -5.392
REMARK INTER:                  -4.757
REMARK INTRA:                  -0.635
REMARK UNBOUND:                -0.635
REMARK SMILES C=CC(=C)CCC=C(C)C
REMARK SMILES IDX 5 1 6 2 7 3 9 4 8 5 10 6 3 7 4 8 2 9 1 10
REMARK H PARENT
REMARK Flexibility Score: inf
ROOT
ATOM      1  C   UNL     1      31.879   8.579  33.068  1.00  0.00     0.039 C 
ENDROOT
BRANCH   1   2
ATOM      2  C   UNL     1      30.751   7.989  32.213  1.00  0.00     0.032 C 
BRANCH   2   3
ATOM      3  C   UNL     1      31.314   7.203  31.055  1.00  0.00    -0.028 C 
ATOM      4  C   UNL     1      31.600   6.516  28.713  1.00  0.00     0.039 C 
ATOM      5  C   UNL     1      30.986   7.409  29.760  1.00  0.00    -0.080 C 
ATOM      6  C   UNL     1      30.044   8.513  29.339  1.00  0.00     0.039 C 
ENDBRANCH   2   3
ENDBRANCH   1   2
BRANCH   1   7
ATOM      7  C   UNL     1      32.032  10.060  32.805  1.00  0.00    -0.055 C 
ATOM      8  C   UNL     1      33.124  10.690  33.253  1.00  0.00     0.012 C 
BRANCH   7   9
ATOM      9  C   UNL     1      30.989  10.854  32.104  1.00  0.00    -0.005 C 
ATOM     10  C   UNL     1      31.249  11.766  31.166  1.00  0.00     0.009 C 
ENDBRANCH   7   9
ENDBRANCH   1   7
TORSDOF 4
ENDMDL
MODEL 2
REMARK VINA RESULT:    -3.825      2.464      4.276
REMARK INTER + INTRA:          -5.354
REMARK INTER:                  -4.715
REMARK INTRA:                  -0.639
REMARK UNBOUND:                -0.635
REMARK SMILES C=CC(=C)CCC=C(C)C
REMARK SMILES IDX 5 1 6 2 7 3 9 4 8 5 10 6 3 7 4 8 2 9 1 10
REMARK H PARENT
REMARK Flexibility Score: inf
ROOT
ATOM      1  C   UNL     1      30.955   6.620  34.193  1.00  0.00     0.039 C 
ENDROOT
BRANCH   1   2
ATOM      2  C   UNL     1      31.951   7.227  33.199  1.00  0.00     0.032 C 
BRANCH   2   3
ATOM      3  C   UNL     1      31.281   8.272  32.341  1.00  0.00    -0.028 C 
ATOM      4  C   UNL     1      30.824  10.517  31.453  1.00  0.00     0.039 C 
ATOM      5  C   UNL     1      31.612   9.583  32.334  1.00  0.00    -0.080 C 
ATOM      6  C   UNL     1      32.751  10.125  33.165  1.00  0.00     0.039 C 
ENDBRANCH   2   3
ENDBRANCH   1   2
BRANCH   1   7
ATOM      7  C   UNL     1      31.246   7.092  35.600  1.00  0.00    -0.055 C 
ATOM      8  C   UNL     1      31.718   6.217  36.495  1.00  0.00     0.012 C 
BRANCH   7   9
ATOM      9  C   UNL     1      30.983   8.488  36.039  1.00  0.00    -0.005 C 
ATOM     10  C   UNL     1      31.753   9.158  36.896  1.00  0.00     0.009 C 
ENDBRANCH   7   9
ENDBRANCH   1   7
TORSDOF 4
ENDMDL
MODEL 3
REMARK VINA RESULT:    -3.675      1.072      2.583
REMARK INTER + INTRA:          -5.170
REMARK INTER:                  -4.493
REMARK INTRA:                  -0.677
REMARK UNBOUND:                -0.635
REMARK SMILES C=CC(=C)CCC=C(C)C
REMARK SMILES IDX 5 1 6 2 7 3 9 4 8 5 10 6 3 7 4 8 2 9 1 10
REMARK H PARENT
REMARK Flexibility Score: inf
ROOT
ATOM      1  C   UNL     1      30.590  11.606  30.595  1.00  0.00     0.039 C 
ENDROOT
BRANCH   1   2
ATOM      2  C   UNL     1      29.931  10.310  31.081  1.00  0.00     0.032 C 
BRANCH   2   3
ATOM      3  C   UNL     1      30.272   9.161  30.163  1.00  0.00    -0.028 C 
ATOM      4  C   UNL     1      31.198   6.978  29.520  1.00  0.00     0.039 C 
ATOM      5  C   UNL     1      30.884   8.023  30.559  1.00  0.00    -0.080 C 
ATOM      6  C   UNL     1      31.242   7.767  32.005  1.00  0.00     0.039 C 
ENDBRANCH   2   3
ENDBRANCH   1   2
BRANCH   1   7
ATOM      7  C   UNL     1      31.830  11.913  31.405  1.00  0.00    -0.055 C 
ATOM      8  C   UNL     1      32.795  12.660  30.857  1.00  0.00     0.012 C 
BRANCH   7   9
ATOM      9  C   UNL     1      32.036  11.375  32.775  1.00  0.00    -0.005 C 
ATOM     10  C   UNL     1      33.124  10.706  33.158  1.00  0.00     0.009 C 
ENDBRANCH   7   9
ENDBRANCH   1   7
TORSDOF 4
ENDMDL
MODEL 4
REMARK VINA RESULT:    -3.661      2.494      4.728
REMARK INTER + INTRA:          -5.152
REMARK INTER:                  -4.314
REMARK INTRA:                  -0.838
REMARK UNBOUND:                -0.635
REMARK SMILES C=CC(=C)CCC=C(C)C
REMARK SMILES IDX 5 1 6 2 7 3 9 4 8 5 10 6 3 7 4 8 2 9 1 10
REMARK H PARENT
REMARK Flexibility Score: inf
ROOT
ATOM      1  C   UNL     1      31.750   7.436  33.238  1.00  0.00     0.039 C 
ENDROOT
BRANCH   1   2
ATOM      2  C   UNL     1      30.675   7.301  34.323  1.00  0.00     0.032 C 
BRANCH   2   3
ATOM      3  C   UNL     1      31.210   7.743  35.663  1.00  0.00    -0.028 C 
ATOM      4  C   UNL     1      31.516   9.222  37.600  1.00  0.00     0.039 C 
ATOM      5  C   UNL     1      30.867   8.895  36.281  1.00  0.00    -0.080 C 
ATOM      6  C   UNL     1      29.847   9.844  35.695  1.00  0.00     0.039 C 
ENDBRANCH   2   3
ENDBRANCH   1   2
BRANCH   1   7
ATOM      7  C   UNL     1      31.746   8.829  32.649  1.00  0.00    -0.055 C 
ATOM      8  C   UNL     1      30.875   9.121  31.677  1.00  0.00     0.012 C 
BRANCH   7   9
ATOM      9  C   UNL     1      32.709   9.875  33.082  1.00  0.00    -0.005 C 
ATOM     10  C   UNL     1      32.393  11.161  33.238  1.00  0.00     0.009 C 
ENDBRANCH   7   9
ENDBRANCH   1   7
TORSDOF 4
ENDMDL
MODEL 5
REMARK VINA RESULT:    -3.648      0.859      4.227
REMARK INTER + INTRA:          -5.135
REMARK INTER:                  -4.490
REMARK INTRA:                  -0.645
REMARK UNBOUND:                -0.635
REMARK SMILES C=CC(=C)CCC=C(C)C
REMARK SMILES IDX 5 1 6 2 7 3 9 4 8 5 10 6 3 7 4 8 2 9 1 10
REMARK H PARENT
REMARK Flexibility Score: inf
ROOT
ATOM      1  C   UNL     1      31.437   6.580  30.593  1.00  0.00     0.039 C 
ENDROOT
BRANCH   1   2
ATOM      2  C   UNL     1      30.652   7.377  31.642  1.00  0.00     0.032 C 
BRANCH   2   3
ATOM      3  C   UNL     1      31.581   8.226  32.474  1.00  0.00    -0.028 C 
ATOM      4  C   UNL     1      32.671  10.283  33.259  1.00  0.00     0.039 C 
ATOM      5  C   UNL     1      31.665   9.573  32.392  1.00  0.00    -0.080 C 
ATOM      6  C   UNL     1      30.772  10.376  31.475  1.00  0.00     0.039 C 
ENDBRANCH   2   3
ENDBRANCH   1   2
BRANCH   1   7
ATOM      7  C   UNL     1      31.027   6.983  29.195  1.00  0.00    -0.055 C 
ATOM      8  C   UNL     1      31.816   6.654  28.166  1.00  0.00     0.012 C 
BRANCH   7   9
ATOM      9  C   UNL     1      29.798   7.775  28.926  1.00  0.00    -0.005 C 
ATOM     10  C   UNL     1      29.770   8.879  28.179  1.00  0.00     0.009 C 
ENDBRANCH   7   9
ENDBRANCH   1   7
TORSDOF 4
ENDMDL
MODEL 6
REMARK VINA RESULT:    -3.593      2.199      4.057
REMARK INTER + INTRA:          -5.068
REMARK INTER:                  -4.582
REMARK INTRA:                  -0.486
REMARK UNBOUND:                -0.635
REMARK SMILES C=CC(=C)CCC=C(C)C
REMARK SMILES IDX 5 1 6 2 7 3 9 4 8 5 10 6 3 7 4 8 2 9 1 10
REMARK H PARENT
REMARK Flexibility Score: inf
ROOT
ATOM      1  C   UNL     1      31.673   8.558  32.564  1.00  0.00     0.039 C 
ENDROOT
BRANCH   1   2
ATOM      2  C   UNL     1      30.528   8.243  33.534  1.00  0.00     0.032 C 
BRANCH   2   3
ATOM      3  C   UNL     1      30.920   7.137  34.483  1.00  0.00    -0.028 C 
ATOM      4  C   UNL     1      31.703   6.131  36.583  1.00  0.00     0.039 C 
ATOM      5  C   UNL     1      31.300   7.330  35.766  1.00  0.00    -0.080 C 
ATOM      6  C   UNL     1      31.313   8.702  36.399  1.00  0.00     0.039 C 
ENDBRANCH   2   3
ENDBRANCH   1   2
BRANCH   1   7
ATOM      7  C   UNL     1      32.027  10.027  32.611  1.00  0.00    -0.055 C 
ATOM      8  C   UNL     1      33.059  10.423  33.364  1.00  0.00     0.012 C 
BRANCH   7   9
ATOM      9  C   UNL     1      31.239  11.057  31.884  1.00  0.00    -0.005 C 
ATOM     10  C   UNL     1      31.743  12.212  31.449  1.00  0.00     0.009 C 
ENDBRANCH   7   9
ENDBRANCH   1   7
TORSDOF 4
ENDMDL
MODEL 7
REMARK VINA RESULT:    -3.572      1.361      4.649
REMARK INTER + INTRA:          -5.042
REMARK INTER:                  -4.543
REMARK INTRA:                  -0.500
REMARK UNBOUND:                -0.635
REMARK SMILES C=CC(=C)CCC=C(C)C
REMARK SMILES IDX 5 1 6 2 7 3 9 4 8 5 10 6 3 7 4 8 2 9 1 10
REMARK H PARENT
REMARK Flexibility Score: inf
ROOT
ATOM      1  C   UNL     1      30.436   6.885  31.826  1.00  0.00     0.039 C 
ENDROOT
BRANCH   1   2
ATOM      2  C   UNL     1      31.600   7.003  32.818  1.00  0.00     0.032 C 
BRANCH   2   3
ATOM      3  C   UNL     1      31.234   7.912  33.965  1.00  0.00    -0.028 C 
ATOM      4  C   UNL     1      31.216   9.975  35.300  1.00  0.00     0.039 C 
ATOM      5  C   UNL     1      31.627   9.201  34.075  1.00  0.00    -0.080 C 
ATOM      6  C   UNL     1      32.445   9.882  33.003  1.00  0.00     0.039 C 
ENDBRANCH   2   3
ENDBRANCH   1   2
BRANCH   1   7
ATOM      7  C   UNL     1      30.868   7.309  30.440  1.00  0.00    -0.055 C 
ATOM      8  C   UNL     1      30.492   8.508  29.981  1.00  0.00     0.012 C 
BRANCH   7   9
ATOM      9  C   UNL     1      31.658   6.421  29.548  1.00  0.00    -0.005 C 
ATOM     10  C   UNL     1      31.692   6.536  28.220  1.00  0.00     0.009 C 
ENDBRANCH   7   9
ENDBRANCH   1   7
TORSDOF 4
ENDMDL
MODEL 8
REMARK VINA RESULT:    -3.567      2.542      3.981
REMARK INTER + INTRA:          -5.036
REMARK INTER:                  -4.468
REMARK INTRA:                  -0.568
REMARK UNBOUND:                -0.635
REMARK SMILES C=CC(=C)CCC=C(C)C
REMARK SMILES IDX 5 1 6 2 7 3 9 4 8 5 10 6 3 7 4 8 2 9 1 10
REMARK H PARENT
REMARK Flexibility Score: inf
ROOT
ATOM      1  C   UNL     1      30.999   9.991  34.894  1.00  0.00     0.039 C 
ENDROOT
BRANCH   1   2
ATOM      2  C   UNL     1      32.102   9.779  33.851  1.00  0.00     0.032 C 
BRANCH   2   3
ATOM      3  C   UNL     1      31.506   9.541  32.485  1.00  0.00    -0.028 C 
ATOM      4  C   UNL     1      30.734   8.239  30.550  1.00  0.00     0.039 C 
ATOM      5  C   UNL     1      31.300   8.319  31.943  1.00  0.00    -0.080 C 
ATOM      6  C   UNL     1      31.605   7.047  32.699  1.00  0.00     0.039 C 
ENDBRANCH   2   3
ENDBRANCH   1   2
BRANCH   1   7
ATOM      7  C   UNL     1      31.298   9.214  36.157  1.00  0.00    -0.055 C 
ATOM      8  C   UNL     1      32.073   9.771  37.094  1.00  0.00     0.012 C 
BRANCH   7   9
ATOM      9  C   UNL     1      30.799   7.830  36.374  1.00  0.00    -0.005 C 
ATOM     10  C   UNL     1      31.567   6.742  36.315  1.00  0.00     0.009 C 
ENDBRANCH   7   9
ENDBRANCH   1   7
TORSDOF 4
ENDMDL
MODEL 9
REMARK VINA RESULT:    -3.548      2.442      5.120
REMARK INTER + INTRA:          -5.013
REMARK INTER:                  -4.161
REMARK INTRA:                  -0.851
REMARK UNBOUND:                -0.635
REMARK SMILES C=CC(=C)CCC=C(C)C
REMARK SMILES IDX 5 1 6 2 7 3 9 4 8 5 10 6 3 7 4 8 2 9 1 10
REMARK H PARENT
REMARK Flexibility Score: inf
ROOT
ATOM      1  C   UNL     1      32.394   9.709  33.030  1.00  0.00     0.039 C 
ENDROOT
BRANCH   1   2
ATOM      2  C   UNL     1      31.630  10.501  34.099  1.00  0.00     0.032 C 
BRANCH   2   3
ATOM      3  C   UNL     1      31.877   9.924  35.470  1.00  0.00    -0.028 C 
ATOM      4  C   UNL     1      31.360   8.694  37.534  1.00  0.00     0.039 C 
ATOM      5  C   UNL     1      30.988   9.168  36.153  1.00  0.00    -0.080 C 
ATOM      6  C   UNL     1      29.653   8.777  35.565  1.00  0.00     0.039 C 
ENDBRANCH   2   3
ENDBRANCH   1   2
BRANCH   1   7
ATOM      7  C   UNL     1      31.451   8.835  32.234  1.00  0.00    -0.055 C 
ATOM      8  C   UNL     1      30.666   9.400  31.310  1.00  0.00     0.012 C 
BRANCH   7   9
ATOM      9  C   UNL     1      31.330   7.373  32.475  1.00  0.00    -0.005 C 
ATOM     10  C   UNL     1      31.939   6.729  33.471  1.00  0.00     0.009 C 
ENDBRANCH   7   9
ENDBRANCH   1   7
TORSDOF 4
ENDMDL
