MODEL 1
REMARK VINA RESULT:    -2.688      0.000      0.000
REMARK INTER + INTRA:          -1.082
REMARK INTER:                  -4.416
REMARK INTRA:                   3.335
REMARK UNBOUND:                 3.335
REMARK SMILES C[C@H]1O[C@@H](OC[C@@H]2O[C@H](Oc3c(-c4ccc(O)c(O)c4)oc4cc(O)cc(O)c4c3=O)[C@@H](O)[C@@H](O)[C@@H]2O)[C@H](O)[C@H](O)[C@H]1O
REMARK SMILES IDX 7 1 36 2 34 3 32 4 9 5 8 6 6 7 5 8 4 9 1 10 2 11 42 12 3 13
REMARK SMILES IDX 40 14 38 15 43 16 41 18 39 20 37 22 35 24 10 26 11 27 12 28
REMARK SMILES IDX 30 29 21 30 29 31 31 32 22 33 27 34 23 35 26 36 24 37 13 38
REMARK SMILES IDX 20 39 14 40 18 41 15 42 16 43 19 44 17 46 28 48 25 50 33 52
REMARK H PARENT 43 17 41 19 39 21 37 23 35 25 19 45 17 47 28 49 25 51 33 53
REMARK Flexibility Score: inf
ROOT
ATOM      1  C   UNL     1      -9.391   5.649   7.008  1.00  0.00     0.180 C 
ATOM      2  C   UNL     1     -10.008   5.541   5.568  1.00  0.00     0.177 C 
ATOM      3  C   UNL     1      -9.414   6.540   4.533  1.00  0.00     0.180 C 
ATOM      4  C   UNL     1      -9.009   7.890   5.215  1.00  0.00     0.214 C 
ATOM      5  C   UNL     1      -8.233   7.606   6.519  1.00  0.00     0.339 C 
ATOM      6  O   UNL     1      -9.110   6.964   7.398  1.00  0.00    -0.332 OA
ENDROOT
BRANCH   1   7
ATOM      7  C   UNL     1     -10.248   5.014   8.131  1.00  0.00     0.198 C 
BRANCH   7   8
ATOM      8  O   UNL     1     -11.083   5.958   8.811  1.00  0.00    -0.347 OA
BRANCH   8   9
ATOM      9  C   UNL     1     -12.018   6.583   7.934  1.00  0.00     0.281 C 
ATOM     10  C   UNL     1     -14.370   8.956   8.747  1.00  0.00     0.041 C 
ATOM     11  C   UNL     1     -13.338   8.569   7.673  1.00  0.00     0.150 C 
ATOM     12  C   UNL     1     -13.953   7.782   6.477  1.00  0.00     0.174 C 
ATOM     13  O   UNL     1     -12.218   7.936   8.314  1.00  0.00    -0.344 OA
ATOM     14  C   UNL     1     -14.241   6.300   6.825  1.00  0.00     0.179 C 
ATOM     15  C   UNL     1     -13.351   5.810   7.972  1.00  0.00     0.202 C 
BRANCH  12  16
ATOM     16  O   UNL     1     -15.124   8.382   5.994  1.00  0.00    -0.388 OA
ATOM     17  H   UNL     1     -15.876   7.816   6.308  1.00  0.00     0.211 HD
ENDBRANCH  12  16
BRANCH  14  18
ATOM     18  O   UNL     1     -14.029   5.502   5.688  1.00  0.00    -0.387 OA
ATOM     19  H   UNL     1     -14.905   5.197   5.344  1.00  0.00     0.211 HD
ENDBRANCH  14  18
BRANCH  15  20
ATOM     20  O   UNL     1     -13.133   4.426   7.857  1.00  0.00    -0.385 OA
ATOM     21  H   UNL     1     -13.315   4.172   6.906  1.00  0.00     0.211 HD
ENDBRANCH  15  20
ENDBRANCH   8   9
ENDBRANCH   7   8
ENDBRANCH   1   7
BRANCH   2  22
ATOM     22  O   UNL     1     -11.412   5.590   5.567  1.00  0.00    -0.387 OA
ATOM     23  H   UNL     1     -11.732   5.040   6.332  1.00  0.00     0.211 HD
ENDBRANCH   2  22
BRANCH   3  24
ATOM     24  O   UNL     1      -8.350   5.919   3.851  1.00  0.00    -0.387 OA
ATOM     25  H   UNL     1      -7.897   6.585   3.264  1.00  0.00     0.211 HD
ENDBRANCH   3  24
BRANCH   5  26
ATOM     26  O   UNL     1      -7.860   8.821   7.173  1.00  0.00    -0.454 OA
BRANCH  26  27
ATOM     27  C   UNL     1      -8.476  10.068   7.006  1.00  0.00     0.214 A 
ATOM     28  C   UNL     1      -8.704  10.495   5.679  1.00  0.00     0.180 A 
ATOM     29  C   UNL     1      -7.766  11.074   7.659  1.00  0.00     0.239 A 
ATOM     30  O   UNL     1      -7.586  10.767   4.983  1.00  0.00    -0.452 OA
ATOM     31  C   UNL     1      -6.523  11.356   7.061  1.00  0.00     0.111 A 
ATOM     32  O   UNL     1      -8.334  11.812   8.513  1.00  0.00    -0.285 OA
ATOM     33  C   UNL     1      -6.451  11.088   5.654  1.00  0.00     0.146 A 
ATOM     34  C   UNL     1      -5.381  11.812   7.744  1.00  0.00     0.134 A 
ATOM     35  C   UNL     1      -5.237  11.212   4.985  1.00  0.00     0.094 A 
ATOM     36  C   UNL     1      -4.167  11.929   7.042  1.00  0.00     0.093 A 
ATOM     37  C   UNL     1      -4.085  11.585   5.682  1.00  0.00     0.123 A 
BRANCH  28  38
ATOM     38  C   UNL     1      -9.939  11.266   5.383  1.00  0.00     0.025 A 
ATOM     39  C   UNL     1     -10.648  11.739   6.517  1.00  0.00     0.062 A 
ATOM     40  C   UNL     1     -10.674  11.021   4.205  1.00  0.00     0.016 A 
ATOM     41  C   UNL     1     -12.047  11.663   6.556  1.00  0.00     0.158 A 
ATOM     42  C   UNL     1     -12.075  10.955   4.241  1.00  0.00     0.051 A 
ATOM     43  C   UNL     1     -12.759  11.196   5.441  1.00  0.00     0.157 A 
BRANCH  41  44
ATOM     44  O   UNL     1     -12.727  11.924   7.746  1.00  0.00    -0.504 OA
ATOM     45  H   UNL     1     -12.856  11.203   8.444  1.00  0.00     0.293 HD
ENDBRANCH  41  44
BRANCH  43  46
ATOM     46  O   UNL     1     -14.129  10.875   5.564  1.00  0.00    -0.504 OA
ATOM     47  H   UNL     1     -14.871  11.534   5.319  1.00  0.00     0.293 HD
ENDBRANCH  43  46
ENDBRANCH  28  38
BRANCH  34  48
ATOM     48  O   UNL     1      -5.400  12.125   9.102  1.00  0.00    -0.507 OA
ATOM     49  H   UNL     1      -4.585  12.057   9.710  1.00  0.00     0.293 HD
ENDBRANCH  34  48
BRANCH  37  50
ATOM     50  O   UNL     1      -2.858  11.601   5.025  1.00  0.00    -0.508 OA
ATOM     51  H   UNL     1      -2.803  11.893   4.045  1.00  0.00     0.293 HD
ENDBRANCH  37  50
ENDBRANCH  26  27
ENDBRANCH   5  26
BRANCH   4  52
ATOM     52  O   UNL     1      -8.337   8.749   4.321  1.00  0.00    -0.384 OA
ATOM     53  H   UNL     1      -8.534   8.476   3.377  1.00  0.00     0.211 HD
ENDBRANCH   4  52
TORSDOF 16
ENDMDL
MODEL 2
REMARK VINA RESULT:    -1.956      1.623      5.641
REMARK INTER + INTRA:           0.120
REMARK INTER:                  -1.947
REMARK INTRA:                   2.067
REMARK UNBOUND:                 3.335
REMARK SMILES C[C@H]1O[C@@H](OC[C@@H]2O[C@H](Oc3c(-c4ccc(O)c(O)c4)oc4cc(O)cc(O)c4c3=O)[C@@H](O)[C@@H](O)[C@@H]2O)[C@H](O)[C@H](O)[C@H]1O
REMARK SMILES IDX 7 1 36 2 34 3 32 4 9 5 8 6 6 7 5 8 4 9 1 10 2 11 42 12 3 13
REMARK SMILES IDX 40 14 38 15 43 16 41 18 39 20 37 22 35 24 10 26 11 27 12 28
REMARK SMILES IDX 30 29 21 30 29 31 31 32 22 33 27 34 23 35 26 36 24 37 13 38
REMARK SMILES IDX 20 39 14 40 18 41 15 42 16 43 19 44 17 46 28 48 25 50 33 52
REMARK H PARENT 43 17 41 19 39 21 37 23 35 25 19 45 17 47 28 49 25 51 33 53
REMARK Flexibility Score: inf
ROOT
ATOM      1  C   UNL     1     -13.974   8.967   6.579  1.00  0.00     0.180 C 
ATOM      2  C   UNL     1     -14.149   9.677   7.969  1.00  0.00     0.177 C 
ATOM      3  C   UNL     1     -13.214  10.900   8.193  1.00  0.00     0.180 C 
ATOM      4  C   UNL     1     -11.835  10.699   7.477  1.00  0.00     0.214 C 
ATOM      5  C   UNL     1     -12.062  10.176   6.042  1.00  0.00     0.339 C 
ATOM      6  O   UNL     1     -12.645   8.910   6.144  1.00  0.00    -0.332 OA
ENDROOT
BRANCH   1   7
ATOM      7  C   UNL     1     -14.539   7.526   6.511  1.00  0.00     0.198 C 
BRANCH   7   8
ATOM      8  O   UNL     1     -14.211   6.733   7.657  1.00  0.00    -0.347 OA
BRANCH   8   9
ATOM      9  C   UNL     1     -13.661   5.466   7.299  1.00  0.00     0.281 C 
ATOM     10  C   UNL     1     -10.898   3.937   8.658  1.00  0.00     0.041 C 
ATOM     11  C   UNL     1     -12.327   3.667   8.158  1.00  0.00     0.150 C 
ATOM     12  C   UNL     1     -12.384   3.165   6.683  1.00  0.00     0.174 C 
ATOM     13  O   UNL     1     -13.144   4.813   8.449  1.00  0.00    -0.344 OA
ATOM     14  C   UNL     1     -12.172   4.307   5.658  1.00  0.00     0.179 C 
ATOM     15  C   UNL     1     -12.550   5.669   6.249  1.00  0.00     0.202 C 
BRANCH  12  16
ATOM     16  O   UNL     1     -11.459   2.141   6.436  1.00  0.00    -0.388 OA
ATOM     17  H   UNL     1     -11.288   2.151   5.459  1.00  0.00     0.211 HD
ENDBRANCH  12  16
BRANCH  14  18
ATOM     18  O   UNL     1     -12.947   4.058   4.513  1.00  0.00    -0.387 OA
ATOM     19  H   UNL     1     -13.299   4.917   4.171  1.00  0.00     0.211 HD
ENDBRANCH  14  18
BRANCH  15  20
ATOM     20  O   UNL     1     -12.976   6.537   5.228  1.00  0.00    -0.385 OA
ATOM     21  H   UNL     1     -12.388   6.377   4.435  1.00  0.00     0.211 HD
ENDBRANCH  15  20
ENDBRANCH   8   9
ENDBRANCH   7   8
ENDBRANCH   1   7
BRANCH   2  22
ATOM     22  O   UNL     1     -14.081   8.786   9.053  1.00  0.00    -0.387 OA
ATOM     23  H   UNL     1     -13.967   9.327   9.881  1.00  0.00     0.211 HD
ENDBRANCH   2  22
BRANCH   3  24
ATOM     24  O   UNL     1     -13.883  12.072   7.792  1.00  0.00    -0.387 OA
ATOM     25  H   UNL     1     -14.830  12.037   8.100  1.00  0.00     0.211 HD
ENDBRANCH   3  24
BRANCH   5  26
ATOM     26  O   UNL     1     -10.820   9.969   5.366  1.00  0.00    -0.454 OA
BRANCH  26  27
ATOM     27  C   UNL     1      -9.544  10.072   5.937  1.00  0.00     0.214 A 
ATOM     28  C   UNL     1      -8.452  10.173   5.047  1.00  0.00     0.180 A 
ATOM     29  C   UNL     1      -9.291   9.008   6.800  1.00  0.00     0.239 A 
ATOM     30  O   UNL     1      -8.221   9.063   4.323  1.00  0.00    -0.452 OA
ATOM     31  C   UNL     1      -9.140   7.776   6.137  1.00  0.00     0.111 A 
ATOM     32  O   UNL     1      -8.961   9.220   8.002  1.00  0.00    -0.285 OA
ATOM     33  C   UNL     1      -8.657   7.866   4.790  1.00  0.00     0.146 A 
ATOM     34  C   UNL     1      -9.475   6.519   6.676  1.00  0.00     0.134 A 
ATOM     35  C   UNL     1      -8.588   6.723   3.998  1.00  0.00     0.094 A 
ATOM     36  C   UNL     1      -9.395   5.381   5.853  1.00  0.00     0.093 A 
ATOM     37  C   UNL     1      -8.999   5.489   4.509  1.00  0.00     0.123 A 
BRANCH  28  38
ATOM     38  C   UNL     1      -7.303  11.033   5.426  1.00  0.00     0.025 A 
ATOM     39  C   UNL     1      -6.020  10.479   5.179  1.00  0.00     0.062 A 
ATOM     40  C   UNL     1      -7.421  11.970   6.473  1.00  0.00     0.016 A 
ATOM     41  C   UNL     1      -4.996  10.619   6.126  1.00  0.00     0.158 A 
ATOM     42  C   UNL     1      -6.392  12.119   7.416  1.00  0.00     0.051 A 
ATOM     43  C   UNL     1      -5.209  11.378   7.287  1.00  0.00     0.157 A 
BRANCH  41  44
ATOM     44  O   UNL     1      -3.812   9.897   5.984  1.00  0.00    -0.504 OA
ATOM     45  H   UNL     1      -3.823   8.906   5.782  1.00  0.00     0.293 HD
ENDBRANCH  41  44
BRANCH  43  46
ATOM     46  O   UNL     1      -4.285  11.309   8.352  1.00  0.00    -0.504 OA
ATOM     47  H   UNL     1      -4.498  11.665   9.287  1.00  0.00     0.293 HD
ENDBRANCH  43  46
ENDBRANCH  28  38
BRANCH  34  48
ATOM     48  O   UNL     1      -9.914   6.365   7.989  1.00  0.00    -0.507 OA
ATOM     49  H   UNL     1      -9.609   5.611   8.603  1.00  0.00     0.293 HD
ENDBRANCH  34  48
BRANCH  37  50
ATOM     50  O   UNL     1      -9.027   4.375   3.675  1.00  0.00    -0.508 OA
ATOM     51  H   UNL     1      -8.257   3.701   3.690  1.00  0.00     0.293 HD
ENDBRANCH  37  50
ENDBRANCH  26  27
ENDBRANCH   5  26
BRANCH   4  52
ATOM     52  O   UNL     1     -11.033  11.857   7.547  1.00  0.00    -0.384 OA
ATOM     53  H   UNL     1     -10.566  11.892   8.433  1.00  0.00     0.211 HD
ENDBRANCH   4  52
TORSDOF 16
ENDMDL
MODEL 3
REMARK VINA RESULT:    -1.447      1.729      6.094
REMARK INTER + INTRA:           0.957
REMARK INTER:                  -2.304
REMARK INTRA:                   3.261
REMARK UNBOUND:                 3.335
REMARK SMILES C[C@H]1O[C@@H](OC[C@@H]2O[C@H](Oc3c(-c4ccc(O)c(O)c4)oc4cc(O)cc(O)c4c3=O)[C@@H](O)[C@@H](O)[C@@H]2O)[C@H](O)[C@H](O)[C@H]1O
REMARK SMILES IDX 7 1 36 2 34 3 32 4 9 5 8 6 6 7 5 8 4 9 1 10 2 11 42 12 3 13
REMARK SMILES IDX 40 14 38 15 43 16 41 18 39 20 37 22 35 24 10 26 11 27 12 28
REMARK SMILES IDX 30 29 21 30 29 31 31 32 22 33 27 34 23 35 26 36 24 37 13 38
REMARK SMILES IDX 20 39 14 40 18 41 15 42 16 43 19 44 17 46 28 48 25 50 33 52
REMARK H PARENT 43 17 41 19 39 21 37 23 35 25 19 45 17 47 28 49 25 51 33 53
REMARK Flexibility Score: inf
ROOT
ATOM      1  C   UNL     1     -13.485   6.774   5.160  1.00  0.00     0.180 C 
ATOM      2  C   UNL     1     -14.402   6.356   6.364  1.00  0.00     0.177 C 
ATOM      3  C   UNL     1     -14.196   7.199   7.656  1.00  0.00     0.180 C 
ATOM      4  C   UNL     1     -12.705   7.656   7.805  1.00  0.00     0.214 C 
ATOM      5  C   UNL     1     -12.189   8.205   6.457  1.00  0.00     0.339 C 
ATOM      6  O   UNL     1     -12.191   7.146   5.544  1.00  0.00    -0.332 OA
ENDROOT
BRANCH   1   7
ATOM      7  C   UNL     1     -13.340   5.701   4.051  1.00  0.00     0.198 C 
BRANCH   7   8
ATOM      8  O   UNL     1     -12.408   4.665   4.382  1.00  0.00    -0.347 OA
BRANCH   8   9
ATOM      9  C   UNL     1     -11.794   4.876   5.652  1.00  0.00     0.281 C 
ATOM     10  C   UNL     1      -8.433   5.174   6.314  1.00  0.00     0.041 C 
ATOM     11  C   UNL     1      -9.811   5.756   6.675  1.00  0.00     0.150 C 
ATOM     12  C   UNL     1     -10.426   5.138   7.968  1.00  0.00     0.174 C 
ATOM     13  O   UNL     1     -10.653   5.709   5.512  1.00  0.00    -0.344 OA
ATOM     14  C   UNL     1     -11.013   3.724   7.729  1.00  0.00     0.179 C 
ATOM     15  C   UNL     1     -11.397   3.517   6.260  1.00  0.00     0.202 C 
BRANCH  12  16
ATOM     16  O   UNL     1      -9.502   5.085   9.021  1.00  0.00    -0.388 OA
ATOM     17  H   UNL     1      -9.309   6.026   9.269  1.00  0.00     0.211 HD
ENDBRANCH  12  16
BRANCH  14  18
ATOM     18  O   UNL     1     -12.144   3.545   8.543  1.00  0.00    -0.387 OA
ATOM     19  H   UNL     1     -11.971   2.800   9.172  1.00  0.00     0.211 HD
ENDBRANCH  14  18
BRANCH  15  20
ATOM     20  O   UNL     1     -12.453   2.594   6.163  1.00  0.00    -0.385 OA
ATOM     21  H   UNL     1     -12.052   1.678   6.162  1.00  0.00     0.211 HD
ENDBRANCH  15  20
ENDBRANCH   8   9
ENDBRANCH   7   8
ENDBRANCH   1   7
BRANCH   2  22
ATOM     22  O   UNL     1     -14.346   4.982   6.646  1.00  0.00    -0.387 OA
ATOM     23  H   UNL     1     -15.271   4.679   6.853  1.00  0.00     0.211 HD
ENDBRANCH   2  22
BRANCH   3  24
ATOM     24  O   UNL     1     -15.109   8.270   7.658  1.00  0.00    -0.387 OA
ATOM     25  H   UNL     1     -15.984   7.964   7.291  1.00  0.00     0.211 HD
ENDBRANCH   3  24
BRANCH   5  26
ATOM     26  O   UNL     1     -10.825   8.618   6.556  1.00  0.00    -0.454 OA
BRANCH  26  27
ATOM     27  C   UNL     1     -10.295   9.827   6.085  1.00  0.00     0.214 A 
ATOM     28  C   UNL     1      -9.702  10.680   7.041  1.00  0.00     0.180 A 
ATOM     29  C   UNL     1     -11.255  10.565   5.396  1.00  0.00     0.239 A 
ATOM     30  O   UNL     1     -10.566  11.211   7.924  1.00  0.00    -0.452 OA
ATOM     31  C   UNL     1     -12.269  11.074   6.228  1.00  0.00     0.111 A 
ATOM     32  O   UNL     1     -11.046  10.944   4.208  1.00  0.00    -0.285 OA
ATOM     33  C   UNL     1     -11.876  11.313   7.587  1.00  0.00     0.146 A 
ATOM     34  C   UNL     1     -13.602  11.300   5.837  1.00  0.00     0.134 A 
ATOM     35  C   UNL     1     -12.827  11.699   8.527  1.00  0.00     0.094 A 
ATOM     36  C   UNL     1     -14.541  11.691   6.809  1.00  0.00     0.093 A 
ATOM     37  C   UNL     1     -14.166  11.842   8.155  1.00  0.00     0.123 A 
BRANCH  28  38
ATOM     38  C   UNL     1      -8.506  11.468   6.646  1.00  0.00     0.025 A 
ATOM     39  C   UNL     1      -8.012  11.211   5.341  1.00  0.00     0.062 A 
ATOM     40  C   UNL     1      -7.588  11.918   7.617  1.00  0.00     0.016 A 
ATOM     41  C   UNL     1      -6.632  11.108   5.116  1.00  0.00     0.158 A 
ATOM     42  C   UNL     1      -6.206  11.824   7.390  1.00  0.00     0.051 A 
ATOM     43  C   UNL     1      -5.728  11.340   6.164  1.00  0.00     0.157 A 
BRANCH  41  44
ATOM     44  O   UNL     1      -6.158  10.645   3.889  1.00  0.00    -0.504 OA
ATOM     45  H   UNL     1      -6.283  11.184   3.042  1.00  0.00     0.293 HD
ENDBRANCH  41  44
BRANCH  43  46
ATOM     46  O   UNL     1      -4.369  10.987   6.013  1.00  0.00    -0.504 OA
ATOM     47  H   UNL     1      -4.040  10.383   5.256  1.00  0.00     0.293 HD
ENDBRANCH  43  46
ENDBRANCH  28  38
BRANCH  34  48
ATOM     48  O   UNL     1     -14.033  11.122   4.524  1.00  0.00    -0.507 OA
ATOM     49  H   UNL     1     -14.369  11.879   3.931  1.00  0.00     0.293 HD
ENDBRANCH  34  48
BRANCH  37  50
ATOM     50  O   UNL     1     -15.124  12.122   9.125  1.00  0.00    -0.508 OA
ATOM     51  H   UNL     1     -15.175  11.555   9.976  1.00  0.00     0.293 HD
ENDBRANCH  37  50
ENDBRANCH  26  27
ENDBRANCH   5  26
BRANCH   4  52
ATOM     52  O   UNL     1     -12.533   8.540   8.890  1.00  0.00    -0.384 OA
ATOM     53  H   UNL     1     -13.415   8.944   9.142  1.00  0.00     0.211 HD
ENDBRANCH   4  52
TORSDOF 16
ENDMDL
MODEL 4
REMARK VINA RESULT:    -0.162      2.076      5.890
REMARK INTER + INTRA:           3.069
REMARK INTER:                   3.430
REMARK INTRA:                  -0.360
REMARK UNBOUND:                 3.335
REMARK SMILES C[C@H]1O[C@@H](OC[C@@H]2O[C@H](Oc3c(-c4ccc(O)c(O)c4)oc4cc(O)cc(O)c4c3=O)[C@@H](O)[C@@H](O)[C@@H]2O)[C@H](O)[C@H](O)[C@H]1O
REMARK SMILES IDX 7 1 36 2 34 3 32 4 9 5 8 6 6 7 5 8 4 9 1 10 2 11 42 12 3 13
REMARK SMILES IDX 40 14 38 15 43 16 41 18 39 20 37 22 35 24 10 26 11 27 12 28
REMARK SMILES IDX 30 29 21 30 29 31 31 32 22 33 27 34 23 35 26 36 24 37 13 38
REMARK SMILES IDX 20 39 14 40 18 41 15 42 16 43 19 44 17 46 28 48 25 50 33 52
REMARK H PARENT 43 17 41 19 39 21 37 23 35 25 19 45 17 47 28 49 25 51 33 53
REMARK Flexibility Score: inf
ROOT
ATOM      1  C   UNL     1     -14.160   9.496   6.198  1.00  0.00     0.180 C 
ATOM      2  C   UNL     1     -14.726   8.124   6.711  1.00  0.00     0.177 C 
ATOM      3  C   UNL     1     -13.805   7.382   7.722  1.00  0.00     0.180 C 
ATOM      4  C   UNL     1     -12.292   7.647   7.411  1.00  0.00     0.214 C 
ATOM      5  C   UNL     1     -12.067   9.152   7.152  1.00  0.00     0.339 C 
ATOM      6  O   UNL     1     -12.775   9.489   5.994  1.00  0.00    -0.332 OA
ENDROOT
BRANCH   1   7
ATOM      7  C   UNL     1     -14.810  10.019   4.892  1.00  0.00     0.198 C 
BRANCH   7   8
ATOM      8  O   UNL     1     -14.367  11.330   4.523  1.00  0.00    -0.347 OA
BRANCH   8   9
ATOM      9  C   UNL     1     -13.643  11.329   3.294  1.00  0.00     0.281 C 
ATOM     10  C   UNL     1     -13.528   8.818   0.948  1.00  0.00     0.041 C 
ATOM     11  C   UNL     1     -13.623  10.345   1.106  1.00  0.00     0.150 C 
ATOM     12  C   UNL     1     -12.245  11.067   0.995  1.00  0.00     0.174 C 
ATOM     13  O   UNL     1     -14.378  10.642   2.292  1.00  0.00    -0.344 OA
ATOM     14  C   UNL     1     -11.393  10.922   2.281  1.00  0.00     0.179 C 
ATOM     15  C   UNL     1     -12.271  10.660   3.509  1.00  0.00     0.202 C 
BRANCH  12  16
ATOM     16  O   UNL     1     -11.502  10.623  -0.108  1.00  0.00    -0.388 OA
ATOM     17  H   UNL     1     -11.474   9.634  -0.044  1.00  0.00     0.211 HD
ENDBRANCH  12  16
BRANCH  14  18
ATOM     18  O   UNL     1     -10.641  12.093   2.478  1.00  0.00    -0.387 OA
ATOM     19  H   UNL     1     -10.850  12.733   1.753  1.00  0.00     0.211 HD
ENDBRANCH  14  18
BRANCH  15  20
ATOM     20  O   UNL     1     -11.644  11.158   4.665  1.00  0.00    -0.385 OA
ATOM     21  H   UNL     1     -11.736  12.153   4.650  1.00  0.00     0.211 HD
ENDBRANCH  15  20
ENDBRANCH   8   9
ENDBRANCH   7   8
ENDBRANCH   1   7
BRANCH   2  22
ATOM     22  O   UNL     1     -15.123   7.270   5.670  1.00  0.00    -0.387 OA
ATOM     23  H   UNL     1     -15.872   7.713   5.186  1.00  0.00     0.211 HD
ENDBRANCH   2  22
BRANCH   3  24
ATOM     24  O   UNL     1     -14.175   7.739   9.032  1.00  0.00    -0.387 OA
ATOM     25  H   UNL     1     -15.152   7.933   9.062  1.00  0.00     0.211 HD
ENDBRANCH   3  24
BRANCH   5  26
ATOM     26  O   UNL     1     -10.697   9.425   6.852  1.00  0.00    -0.454 OA
BRANCH  26  27
ATOM     27  C   UNL     1      -9.831   8.594   6.128  1.00  0.00     0.214 A 
ATOM     28  C   UNL     1      -9.090   7.645   6.866  1.00  0.00     0.180 A 
ATOM     29  C   UNL     1      -8.930   9.341   5.371  1.00  0.00     0.239 A 
ATOM     30  O   UNL     1      -8.165   8.177   7.683  1.00  0.00    -0.452 OA
ATOM     31  C   UNL     1      -7.981  10.025   6.152  1.00  0.00     0.111 A 
ATOM     32  O   UNL     1      -8.838   9.165   4.122  1.00  0.00    -0.285 OA
ATOM     33  C   UNL     1      -7.678   9.415   7.414  1.00  0.00     0.146 A 
ATOM     34  C   UNL     1      -7.380  11.251   5.808  1.00  0.00     0.134 A 
ATOM     35  C   UNL     1      -6.848  10.068   8.321  1.00  0.00     0.094 A 
ATOM     36  C   UNL     1      -6.544  11.888   6.743  1.00  0.00     0.093 A 
ATOM     37  C   UNL     1      -6.318  11.324   8.010  1.00  0.00     0.123 A 
BRANCH  28  38
ATOM     38  C   UNL     1      -8.830   6.316   6.256  1.00  0.00     0.025 A 
ATOM     39  C   UNL     1      -8.375   6.342   4.913  1.00  0.00     0.062 A 
ATOM     40  C   UNL     1      -9.538   5.176   6.687  1.00  0.00     0.016 A 
ATOM     41  C   UNL     1      -8.877   5.424   3.980  1.00  0.00     0.158 A 
ATOM     42  C   UNL     1     -10.034   4.251   5.754  1.00  0.00     0.051 A 
ATOM     43  C   UNL     1      -9.771   4.423   4.388  1.00  0.00     0.157 A 
BRANCH  41  44
ATOM     44  O   UNL     1      -8.598   5.585   2.623  1.00  0.00    -0.504 OA
ATOM     45  H   UNL     1      -8.465   4.786   2.017  1.00  0.00     0.293 HD
ENDBRANCH  41  44
BRANCH  43  46
ATOM     46  O   UNL     1     -10.473   3.669   3.422  1.00  0.00    -0.504 OA
ATOM     47  H   UNL     1     -10.123   2.780   3.059  1.00  0.00     0.293 HD
ENDBRANCH  43  46
ENDBRANCH  28  38
BRANCH  34  48
ATOM     48  O   UNL     1      -7.606  11.873   4.582  1.00  0.00    -0.507 OA
ATOM     49  H   UNL     1      -7.994  11.397   3.769  1.00  0.00     0.293 HD
ENDBRANCH  34  48
BRANCH  37  50
ATOM     50  O   UNL     1      -5.579  12.014   8.966  1.00  0.00    -0.508 OA
ATOM     51  H   UNL     1      -6.053  12.603   9.657  1.00  0.00     0.293 HD
ENDBRANCH  37  50
ENDBRANCH  26  27
ENDBRANCH   5  26
BRANCH   4  52
ATOM     52  O   UNL     1     -11.450   7.102   8.402  1.00  0.00    -0.384 OA
ATOM     53  H   UNL     1     -10.635   7.675   8.507  1.00  0.00     0.211 HD
ENDBRANCH   4  52
TORSDOF 16
ENDMDL
MODEL 5
REMARK VINA RESULT:    -0.084      1.581      5.286
REMARK INTER + INTRA:           3.197
REMARK INTER:                   1.566
REMARK INTRA:                   1.631
REMARK UNBOUND:                 3.335
REMARK SMILES C[C@H]1O[C@@H](OC[C@@H]2O[C@H](Oc3c(-c4ccc(O)c(O)c4)oc4cc(O)cc(O)c4c3=O)[C@@H](O)[C@@H](O)[C@@H]2O)[C@H](O)[C@H](O)[C@H]1O
REMARK SMILES IDX 7 1 36 2 34 3 32 4 9 5 8 6 6 7 5 8 4 9 1 10 2 11 42 12 3 13
REMARK SMILES IDX 40 14 38 15 43 16 41 18 39 20 37 22 35 24 10 26 11 27 12 28
REMARK SMILES IDX 30 29 21 30 29 31 31 32 22 33 27 34 23 35 26 36 24 37 13 38
REMARK SMILES IDX 20 39 14 40 18 41 15 42 16 43 19 44 17 46 28 48 25 50 33 52
REMARK H PARENT 43 17 41 19 39 21 37 23 35 25 19 45 17 47 28 49 25 51 33 53
REMARK Flexibility Score: inf
ROOT
ATOM      1  C   UNL     1     -10.437   5.046   7.668  1.00  0.00     0.180 C 
ATOM      2  C   UNL     1      -9.892   4.346   6.372  1.00  0.00     0.177 C 
ATOM      3  C   UNL     1      -9.156   5.297   5.385  1.00  0.00     0.180 C 
ATOM      4  C   UNL     1      -9.778   6.734   5.410  1.00  0.00     0.214 C 
ATOM      5  C   UNL     1      -9.993   7.185   6.871  1.00  0.00     0.339 C 
ATOM      6  O   UNL     1     -10.943   6.331   7.439  1.00  0.00    -0.332 OA
ENDROOT
BRANCH   1   7
ATOM      7  C   UNL     1     -11.533   4.253   8.423  1.00  0.00     0.198 C 
BRANCH   7   8
ATOM      8  O   UNL     1     -12.600   5.077   8.906  1.00  0.00    -0.347 OA
BRANCH   8   9
ATOM      9  C   UNL     1     -13.415   5.581   7.849  1.00  0.00     0.281 C 
ATOM     10  C   UNL     1     -12.676   5.624   4.491  1.00  0.00     0.041 C 
ATOM     11  C   UNL     1     -13.814   5.363   5.493  1.00  0.00     0.150 C 
ATOM     12  C   UNL     1     -14.736   6.599   5.722  1.00  0.00     0.174 C 
ATOM     13  O   UNL     1     -13.257   4.784   6.685  1.00  0.00    -0.344 OA
ATOM     14  C   UNL     1     -14.085   7.664   6.639  1.00  0.00     0.179 C 
ATOM     15  C   UNL     1     -13.026   7.044   7.556  1.00  0.00     0.202 C 
BRANCH  12  16
ATOM     16  O   UNL     1     -15.125   7.199   4.516  1.00  0.00    -0.388 OA
ATOM     17  H   UNL     1     -16.054   7.517   4.651  1.00  0.00     0.211 HD
ENDBRANCH  12  16
BRANCH  14  18
ATOM     18  O   UNL     1     -15.079   8.283   7.416  1.00  0.00    -0.387 OA
ATOM     19  H   UNL     1     -15.143   7.815   8.286  1.00  0.00     0.211 HD
ENDBRANCH  14  18
BRANCH  15  20
ATOM     20  O   UNL     1     -12.924   7.785   8.747  1.00  0.00    -0.385 OA
ATOM     21  H   UNL     1     -13.633   7.452   9.369  1.00  0.00     0.211 HD
ENDBRANCH  15  20
ENDBRANCH   8   9
ENDBRANCH   7   8
ENDBRANCH   1   7
BRANCH   2  22
ATOM     22  O   UNL     1     -10.867   3.586   5.707  1.00  0.00    -0.387 OA
ATOM     23  H   UNL     1     -10.939   2.711   6.177  1.00  0.00     0.211 HD
ENDBRANCH   2  22
BRANCH   3  24
ATOM     24  O   UNL     1      -7.778   5.282   5.670  1.00  0.00    -0.387 OA
ATOM     25  H   UNL     1      -7.261   5.385   4.825  1.00  0.00     0.211 HD
ENDBRANCH   3  24
BRANCH   5  26
ATOM     26  O   UNL     1     -10.573   8.490   6.928  1.00  0.00    -0.454 OA
BRANCH  26  27
ATOM     27  C   UNL     1     -10.051   9.650   6.341  1.00  0.00     0.214 A 
ATOM     28  C   UNL     1      -9.543  10.636   7.215  1.00  0.00     0.180 A 
ATOM     29  C   UNL     1     -10.987  10.261   5.509  1.00  0.00     0.239 A 
ATOM     30  O   UNL     1     -10.476  11.240   7.973  1.00  0.00    -0.452 OA
ATOM     31  C   UNL     1     -12.065  10.833   6.211  1.00  0.00     0.111 A 
ATOM     32  O   UNL     1     -10.715  10.498   4.298  1.00  0.00    -0.285 OA
ATOM     33  C   UNL     1     -11.765  11.252   7.549  1.00  0.00     0.146 A 
ATOM     34  C   UNL     1     -13.377  10.960   5.717  1.00  0.00     0.134 A 
ATOM     35  C   UNL     1     -12.784  11.715   8.377  1.00  0.00     0.094 A 
ATOM     36  C   UNL     1     -14.387  11.432   6.576  1.00  0.00     0.093 A 
ATOM     37  C   UNL     1     -14.101  11.763   7.912  1.00  0.00     0.123 A 
BRANCH  28  38
ATOM     38  C   UNL     1      -8.349  11.412   6.795  1.00  0.00     0.025 A 
ATOM     39  C   UNL     1      -7.847  11.105   5.505  1.00  0.00     0.062 A 
ATOM     40  C   UNL     1      -7.438  11.905   7.752  1.00  0.00     0.016 A 
ATOM     41  C   UNL     1      -6.465  10.999   5.291  1.00  0.00     0.158 A 
ATOM     42  C   UNL     1      -6.055  11.808   7.536  1.00  0.00     0.051 A 
ATOM     43  C   UNL     1      -5.568  11.277   6.334  1.00  0.00     0.157 A 
BRANCH  41  44
ATOM     44  O   UNL     1      -5.982  10.489   4.087  1.00  0.00    -0.504 OA
ATOM     45  H   UNL     1      -6.061   9.505   3.865  1.00  0.00     0.293 HD
ENDBRANCH  41  44
BRANCH  43  46
ATOM     46  O   UNL     1      -4.207  10.924   6.204  1.00  0.00    -0.504 OA
ATOM     47  H   UNL     1      -3.832  10.042   6.562  1.00  0.00     0.293 HD
ENDBRANCH  43  46
ENDBRANCH  28  38
BRANCH  34  48
ATOM     48  O   UNL     1     -13.720  10.605   4.414  1.00  0.00    -0.507 OA
ATOM     49  H   UNL     1     -13.813  11.274   3.652  1.00  0.00     0.293 HD
ENDBRANCH  34  48
BRANCH  37  50
ATOM     50  O   UNL     1     -15.125  12.125   8.781  1.00  0.00    -0.508 OA
ATOM     51  H   UNL     1     -15.549  13.055   8.718  1.00  0.00     0.293 HD
ENDBRANCH  37  50
ENDBRANCH  26  27
ENDBRANCH   5  26
BRANCH   4  52
ATOM     52  O   UNL     1      -9.032   7.643   4.631  1.00  0.00    -0.384 OA
ATOM     53  H   UNL     1      -9.650   8.291   4.182  1.00  0.00     0.211 HD
ENDBRANCH   4  52
TORSDOF 16
ENDMDL
MODEL 6
REMARK VINA RESULT:     0.032      2.026      6.290
REMARK INTER + INTRA:           3.388
REMARK INTER:                   3.642
REMARK INTRA:                  -0.254
REMARK UNBOUND:                 3.335
REMARK SMILES C[C@H]1O[C@@H](OC[C@@H]2O[C@H](Oc3c(-c4ccc(O)c(O)c4)oc4cc(O)cc(O)c4c3=O)[C@@H](O)[C@@H](O)[C@@H]2O)[C@H](O)[C@H](O)[C@H]1O
REMARK SMILES IDX 7 1 36 2 34 3 32 4 9 5 8 6 6 7 5 8 4 9 1 10 2 11 42 12 3 13
REMARK SMILES IDX 40 14 38 15 43 16 41 18 39 20 37 22 35 24 10 26 11 27 12 28
REMARK SMILES IDX 30 29 21 30 29 31 31 32 22 33 27 34 23 35 26 36 24 37 13 38
REMARK SMILES IDX 20 39 14 40 18 41 15 42 16 43 19 44 17 46 28 48 25 50 33 52
REMARK H PARENT 43 17 41 19 39 21 37 23 35 25 19 45 17 47 28 49 25 51 33 53
REMARK Flexibility Score: inf
ROOT
ATOM      1  C   UNL     1     -12.674  10.035   8.060  1.00  0.00     0.180 C 
ATOM      2  C   UNL     1     -14.128   9.513   8.344  1.00  0.00     0.177 C 
ATOM      3  C   UNL     1     -14.383   8.041   7.911  1.00  0.00     0.180 C 
ATOM      4  C   UNL     1     -13.551   7.671   6.636  1.00  0.00     0.214 C 
ATOM      5  C   UNL     1     -12.099   8.169   6.796  1.00  0.00     0.339 C 
ATOM      6  O   UNL     1     -12.137   9.565   6.855  1.00  0.00    -0.332 OA
ENDROOT
BRANCH   1   7
ATOM      7  C   UNL     1     -12.527  11.577   8.053  1.00  0.00     0.198 C 
BRANCH   7   8
ATOM      8  O   UNL     1     -11.667  12.062   7.017  1.00  0.00    -0.347 OA
BRANCH   8   9
ATOM      9  C   UNL     1     -12.325  12.125   5.753  1.00  0.00     0.281 C 
ATOM     10  C   UNL     1     -15.097  10.348   4.759  1.00  0.00     0.041 C 
ATOM     11  C   UNL     1     -14.446  11.741   4.699  1.00  0.00     0.150 C 
ATOM     12  C   UNL     1     -13.634  11.991   3.392  1.00  0.00     0.174 C 
ATOM     13  O   UNL     1     -13.727  11.969   5.922  1.00  0.00    -0.344 OA
ATOM     14  C   UNL     1     -12.259  11.278   3.401  1.00  0.00     0.179 C 
ATOM     15  C   UNL     1     -11.769  11.023   4.830  1.00  0.00     0.202 C 
BRANCH  12  16
ATOM     16  O   UNL     1     -14.347  11.612   2.246  1.00  0.00    -0.388 OA
ATOM     17  H   UNL     1     -13.668  11.369   1.565  1.00  0.00     0.211 HD
ENDBRANCH  12  16
BRANCH  14  18
ATOM     18  O   UNL     1     -11.320  12.065   2.713  1.00  0.00    -0.387 OA
ATOM     19  H   UNL     1     -11.078  11.610   1.868  1.00  0.00     0.211 HD
ENDBRANCH  14  18
BRANCH  15  20
ATOM     20  O   UNL     1     -10.363  11.002   4.862  1.00  0.00    -0.385 OA
ATOM     21  H   UNL     1     -10.045  11.921   4.629  1.00  0.00     0.211 HD
ENDBRANCH  15  20
ENDBRANCH   8   9
ENDBRANCH   7   8
ENDBRANCH   1   7
BRANCH   2  22
ATOM     22  O   UNL     1     -15.125  10.365   7.842  1.00  0.00    -0.387 OA
ATOM     23  H   UNL     1     -15.933   9.812   7.665  1.00  0.00     0.211 HD
ENDBRANCH   2  22
BRANCH   3  24
ATOM     24  O   UNL     1     -14.134   7.189   9.004  1.00  0.00    -0.387 OA
ATOM     25  H   UNL     1     -14.964   6.688   9.233  1.00  0.00     0.211 HD
ENDBRANCH   3  24
BRANCH   5  26
ATOM     26  O   UNL     1     -11.316   7.859   5.641  1.00  0.00    -0.454 OA
BRANCH  26  27
ATOM     27  C   UNL     1     -10.412   6.795   5.521  1.00  0.00     0.214 A 
ATOM     28  C   UNL     1     -10.106   6.081   6.701  1.00  0.00     0.180 A 
ATOM     29  C   UNL     1      -9.210   7.215   4.956  1.00  0.00     0.239 A 
ATOM     30  O   UNL     1      -9.413   6.785   7.613  1.00  0.00    -0.452 OA
ATOM     31  C   UNL     1      -8.459   8.052   5.802  1.00  0.00     0.111 A 
ATOM     32  O   UNL     1      -8.758   6.656   3.916  1.00  0.00    -0.285 OA
ATOM     33  C   UNL     1      -8.673   7.847   7.205  1.00  0.00     0.146 A 
ATOM     34  C   UNL     1      -7.591   9.073   5.370  1.00  0.00     0.134 A 
ATOM     35  C   UNL     1      -8.079   8.701   8.131  1.00  0.00     0.094 A 
ATOM     36  C   UNL     1      -7.003   9.919   6.328  1.00  0.00     0.093 A 
ATOM     37  C   UNL     1      -7.283   9.764   7.697  1.00  0.00     0.123 A 
BRANCH  28  38
ATOM     38  C   UNL     1      -9.883   4.615   6.607  1.00  0.00     0.025 A 
ATOM     39  C   UNL     1      -9.710   4.109   5.293  1.00  0.00     0.062 A 
ATOM     40  C   UNL     1     -10.413   3.744   7.580  1.00  0.00     0.016 A 
ATOM     41  C   UNL     1     -10.326   2.909   4.912  1.00  0.00     0.158 A 
ATOM     42  C   UNL     1     -11.022   2.537   7.201  1.00  0.00     0.051 A 
ATOM     43  C   UNL     1     -11.050   2.160   5.851  1.00  0.00     0.157 A 
BRANCH  41  44
ATOM     44  O   UNL     1     -10.335   2.525   3.571  1.00  0.00    -0.504 OA
ATOM     45  H   UNL     1     -10.927   2.992   2.896  1.00  0.00     0.293 HD
ENDBRANCH  41  44
BRANCH  43  46
ATOM     46  O   UNL     1     -11.879   1.101   5.419  1.00  0.00    -0.504 OA
ATOM     47  H   UNL     1     -12.543   1.204   4.648  1.00  0.00     0.293 HD
ENDBRANCH  43  46
ENDBRANCH  28  38
BRANCH  34  48
ATOM     48  O   UNL     1      -7.315   9.295   4.023  1.00  0.00    -0.507 OA
ATOM     49  H   UNL     1      -7.984   9.128   3.273  1.00  0.00     0.293 HD
ENDBRANCH  34  48
BRANCH  37  50
ATOM     50  O   UNL     1      -6.784  10.673   8.624  1.00  0.00    -0.508 OA
ATOM     51  H   UNL     1      -5.930  11.200   8.420  1.00  0.00     0.293 HD
ENDBRANCH  37  50
ENDBRANCH  26  27
ENDBRANCH   5  26
BRANCH   4  52
ATOM     52  O   UNL     1     -13.659   6.302   6.318  1.00  0.00    -0.384 OA
ATOM     53  H   UNL     1     -13.340   6.146   5.381  1.00  0.00     0.211 HD
ENDBRANCH   4  52
TORSDOF 16
ENDMDL
