MODEL 1
REMARK VINA RESULT:    -4.556      0.000      0.000
REMARK INTER + INTRA:          -9.266
REMARK INTER:                  -6.953
REMARK INTRA:                  -2.313
REMARK UNBOUND:                -2.313
REMARK SMILES CC(=O)CCC=C(C)CCC=C(C)CCC=C(C)C
REMARK SMILES IDX 10 1 11 2 12 3 13 4 14 5 15 6 16 7 18 8 17 9 19 10 9 11 7 12
REMARK SMILES IDX 6 13 8 14 5 15 4 16 2 17 3 18 1 19
REMARK H PARENT
REMARK Flexibility Score: inf
ROOT
ATOM      1  C   UNL     1      53.563  18.103  -5.738  1.00  0.00     0.032 C 
ENDROOT
BRANCH   1   2
ATOM      2  C   UNL     1      53.974  16.795  -5.111  1.00  0.00    -0.028 C 
ATOM      3  C   UNL     1      53.177  16.043  -4.317  1.00  0.00    -0.077 C 
ATOM      4  C   UNL     1      51.794  16.500  -3.916  1.00  0.00     0.039 C 
BRANCH   3   5
ATOM      5  C   UNL     1      53.695  14.719  -3.799  1.00  0.00     0.034 C 
BRANCH   5   6
ATOM      6  C   UNL     1      55.225  14.668  -3.867  1.00  0.00     0.032 C 
BRANCH   6   7
ATOM      7  C   UNL     1      55.822  14.311  -2.528  1.00  0.00    -0.028 C 
ATOM      8  C   UNL     1      56.274  11.965  -3.254  1.00  0.00     0.039 C 
ATOM      9  C   UNL     1      56.302  13.084  -2.239  1.00  0.00    -0.080 C 
ATOM     10  C   UNL     1      56.877  12.834  -0.869  1.00  0.00     0.039 C 
ENDBRANCH   6   7
ENDBRANCH   5   6
ENDBRANCH   3   5
ENDBRANCH   1   2
BRANCH   1  11
ATOM     11  C   UNL     1      53.884  19.273  -4.803  1.00  0.00     0.034 C 
BRANCH  11  12
ATOM     12  C   UNL     1      55.262  19.107  -4.195  1.00  0.00    -0.077 C 
ATOM     13  C   UNL     1      55.463  18.849  -2.881  1.00  0.00    -0.028 C 
ATOM     14  C   UNL     1      56.468  19.306  -5.077  1.00  0.00     0.039 C 
BRANCH  13  15
ATOM     15  C   UNL     1      54.366  18.620  -1.872  1.00  0.00     0.035 C 
BRANCH  15  16
ATOM     16  C   UNL     1      54.606  17.321  -1.093  1.00  0.00     0.079 C 
BRANCH  16  17
ATOM     17  C   UNL     1      53.309  16.774  -0.560  1.00  0.00     0.130 C 
ATOM     18  O   UNL     1      52.344  17.516  -0.447  1.00  0.00    -0.300 OA
ATOM     19  C   UNL     1      53.168  15.332  -0.172  1.00  0.00     0.087 C 
ENDBRANCH  16  17
ENDBRANCH  15  16
ENDBRANCH  13  15
ENDBRANCH  11  12
ENDBRANCH   1  11
TORSDOF 9
ENDMDL
MODEL 2
REMARK VINA RESULT:    -4.406      2.226      4.966
REMARK INTER + INTRA:          -9.038
REMARK INTER:                  -6.272
REMARK INTRA:                  -2.766
REMARK UNBOUND:                -2.313
REMARK SMILES CC(=O)CCC=C(C)CCC=C(C)CCC=C(C)C
REMARK SMILES IDX 10 1 11 2 12 3 13 4 14 5 15 6 16 7 18 8 17 9 19 10 9 11 7 12
REMARK SMILES IDX 6 13 8 14 5 15 4 16 2 17 3 18 1 19
REMARK H PARENT
REMARK Flexibility Score: inf
ROOT
ATOM      1  C   UNL     1      55.009  19.380  -5.091  1.00  0.00     0.032 C 
ENDROOT
BRANCH   1   2
ATOM      2  C   UNL     1      53.717  18.715  -5.495  1.00  0.00    -0.028 C 
ATOM      3  C   UNL     1      52.582  19.378  -5.810  1.00  0.00    -0.077 C 
ATOM      4  C   UNL     1      52.483  20.882  -5.707  1.00  0.00     0.039 C 
BRANCH   3   5
ATOM      5  C   UNL     1      51.370  18.589  -6.257  1.00  0.00     0.034 C 
BRANCH   5   6
ATOM      6  C   UNL     1      50.289  18.588  -5.170  1.00  0.00     0.032 C 
BRANCH   6   7
ATOM      7  C   UNL     1      50.655  17.664  -4.034  1.00  0.00    -0.028 C 
ATOM      8  C   UNL     1      50.992  19.578  -2.467  1.00  0.00     0.039 C 
ATOM      9  C   UNL     1      50.976  18.104  -2.800  1.00  0.00    -0.080 C 
ATOM     10  C   UNL     1      51.326  17.095  -1.737  1.00  0.00     0.039 C 
ENDBRANCH   6   7
ENDBRANCH   5   6
ENDBRANCH   3   5
ENDBRANCH   1   2
BRANCH   1  11
ATOM     11  C   UNL     1      55.866  18.428  -4.251  1.00  0.00     0.034 C 
BRANCH  11  12
ATOM     12  C   UNL     1      55.110  17.980  -3.016  1.00  0.00    -0.077 C 
ATOM     13  C   UNL     1      54.744  16.695  -2.800  1.00  0.00    -0.028 C 
ATOM     14  C   UNL     1      54.684  19.022  -2.014  1.00  0.00     0.039 C 
BRANCH  13  15
ATOM     15  C   UNL     1      55.095  15.537  -3.701  1.00  0.00     0.035 C 
BRANCH  15  16
ATOM     16  C   UNL     1      54.109  14.379  -3.508  1.00  0.00     0.079 C 
BRANCH  16  17
ATOM     17  C   UNL     1      52.865  14.597  -4.327  1.00  0.00     0.130 C 
ATOM     18  O   UNL     1      51.777  14.300  -3.858  1.00  0.00    -0.300 OA
ATOM     19  C   UNL     1      52.930  15.182  -5.707  1.00  0.00     0.087 C 
ENDBRANCH  16  17
ENDBRANCH  15  16
ENDBRANCH  13  15
ENDBRANCH  11  12
ENDBRANCH   1  11
TORSDOF 9
ENDMDL
MODEL 3
REMARK VINA RESULT:    -4.403      1.893      3.519
REMARK INTER + INTRA:          -9.032
REMARK INTER:                  -6.831
REMARK INTRA:                  -2.202
REMARK UNBOUND:                -2.313
REMARK SMILES CC(=O)CCC=C(C)CCC=C(C)CCC=C(C)C
REMARK SMILES IDX 10 1 11 2 12 3 13 4 14 5 15 6 16 7 18 8 17 9 19 10 9 11 7 12
REMARK SMILES IDX 6 13 8 14 5 15 4 16 2 17 3 18 1 19
REMARK H PARENT
REMARK Flexibility Score: inf
ROOT
ATOM      1  C   UNL     1      55.106  19.157  -2.752  1.00  0.00     0.032 C 
ENDROOT
BRANCH   1   2
ATOM      2  C   UNL     1      54.993  17.911  -1.910  1.00  0.00    -0.028 C 
ATOM      3  C   UNL     1      53.827  17.393  -1.464  1.00  0.00    -0.077 C 
ATOM      4  C   UNL     1      52.504  18.080  -1.711  1.00  0.00     0.039 C 
BRANCH   3   5
ATOM      5  C   UNL     1      53.850  16.101  -0.675  1.00  0.00     0.034 C 
BRANCH   5   6
ATOM      6  C   UNL     1      55.235  15.449  -0.739  1.00  0.00     0.032 C 
BRANCH   6   7
ATOM      7  C   UNL     1      55.370  14.565  -1.955  1.00  0.00    -0.028 C 
ATOM      8  C   UNL     1      56.929  13.018  -0.768  1.00  0.00     0.039 C 
ATOM      9  C   UNL     1      56.138  13.456  -1.978  1.00  0.00    -0.080 C 
ATOM     10  C   UNL     1      56.202  12.644  -3.245  1.00  0.00     0.039 C 
ENDBRANCH   6   7
ENDBRANCH   5   6
ENDBRANCH   3   5
ENDBRANCH   1   2
BRANCH   1  11
ATOM     11  C   UNL     1      55.465  18.800  -4.198  1.00  0.00     0.034 C 
BRANCH  11  12
ATOM     12  C   UNL     1      54.224  18.798  -5.069  1.00  0.00    -0.077 C 
ATOM     13  C   UNL     1      53.600  17.662  -5.460  1.00  0.00    -0.028 C 
ATOM     14  C   UNL     1      53.702  20.115  -5.581  1.00  0.00     0.039 C 
BRANCH  13  15
ATOM     15  C   UNL     1      53.995  16.271  -5.032  1.00  0.00     0.035 C 
BRANCH  15  16
ATOM     16  C   UNL     1      52.800  15.530  -4.422  1.00  0.00     0.079 C 
BRANCH  16  17
ATOM     17  C   UNL     1      52.582  14.211  -5.113  1.00  0.00     0.130 C 
ATOM     18  O   UNL     1      52.399  14.188  -6.321  1.00  0.00    -0.300 OA
ATOM     19  C   UNL     1      52.598  12.917  -4.353  1.00  0.00     0.087 C 
ENDBRANCH  16  17
ENDBRANCH  15  16
ENDBRANCH  13  15
ENDBRANCH  11  12
ENDBRANCH   1  11
TORSDOF 9
ENDMDL
MODEL 4
REMARK VINA RESULT:    -4.394      2.263      5.642
REMARK INTER + INTRA:          -9.020
REMARK INTER:                  -6.861
REMARK INTRA:                  -2.159
REMARK UNBOUND:                -2.313
REMARK SMILES CC(=O)CCC=C(C)CCC=C(C)CCC=C(C)C
REMARK SMILES IDX 10 1 11 2 12 3 13 4 14 5 15 6 16 7 18 8 17 9 19 10 9 11 7 12
REMARK SMILES IDX 6 13 8 14 5 15 4 16 2 17 3 18 1 19
REMARK H PARENT
REMARK Flexibility Score: inf
ROOT
ATOM      1  C   UNL     1      55.283  14.181  -3.441  1.00  0.00     0.032 C 
ENDROOT
BRANCH   1   2
ATOM      2  C   UNL     1      55.459  15.531  -2.793  1.00  0.00    -0.028 C 
ATOM      3  C   UNL     1      54.510  16.157  -2.061  1.00  0.00    -0.077 C 
ATOM      4  C   UNL     1      53.125  15.577  -1.889  1.00  0.00     0.039 C 
BRANCH   3   5
ATOM      5  C   UNL     1      54.837  17.486  -1.415  1.00  0.00     0.034 C 
BRANCH   5   6
ATOM      6  C   UNL     1      54.430  18.649  -2.326  1.00  0.00     0.032 C 
BRANCH   6   7
ATOM      7  C   UNL     1      55.602  19.145  -3.138  1.00  0.00    -0.028 C 
ATOM      8  C   UNL     1      54.651  18.209  -5.248  1.00  0.00     0.039 C 
ATOM      9  C   UNL     1      55.712  18.950  -4.469  1.00  0.00    -0.080 C 
ATOM     10  C   UNL     1      56.924  19.487  -5.183  1.00  0.00     0.039 C 
ENDBRANCH   6   7
ENDBRANCH   5   6
ENDBRANCH   3   5
ENDBRANCH   1   2
BRANCH   1  11
ATOM     11  C   UNL     1      56.062  13.108  -2.673  1.00  0.00     0.034 C 
BRANCH  11  12
ATOM     12  C   UNL     1      55.222  12.549  -1.541  1.00  0.00    -0.077 C 
ATOM     13  C   UNL     1      55.467  12.820  -0.238  1.00  0.00    -0.028 C 
ATOM     14  C   UNL     1      54.108  11.592  -1.876  1.00  0.00     0.039 C 
BRANCH  13  15
ATOM     15  C   UNL     1      56.538  13.758   0.261  1.00  0.00     0.035 C 
BRANCH  15  16
ATOM     16  C   UNL     1      55.946  14.800   1.216  1.00  0.00     0.079 C 
BRANCH  16  17
ATOM     17  C   UNL     1      56.904  15.095   2.340  1.00  0.00     0.130 C 
ATOM     18  O   UNL     1      56.834  16.166   2.924  1.00  0.00    -0.300 OA
ATOM     19  C   UNL     1      57.937  14.096   2.770  1.00  0.00     0.087 C 
ENDBRANCH  16  17
ENDBRANCH  15  16
ENDBRANCH  13  15
ENDBRANCH  11  12
ENDBRANCH   1  11
TORSDOF 9
ENDMDL
MODEL 5
REMARK VINA RESULT:    -4.355      1.886      3.415
REMARK INTER + INTRA:          -8.959
REMARK INTER:                  -6.643
REMARK INTRA:                  -2.316
REMARK UNBOUND:                -2.313
REMARK SMILES CC(=O)CCC=C(C)CCC=C(C)CCC=C(C)C
REMARK SMILES IDX 10 1 11 2 12 3 13 4 14 5 15 6 16 7 18 8 17 9 19 10 9 11 7 12
REMARK SMILES IDX 6 13 8 14 5 15 4 16 2 17 3 18 1 19
REMARK H PARENT
REMARK Flexibility Score: inf
ROOT
ATOM      1  C   UNL     1      55.185  18.077  -4.694  1.00  0.00     0.032 C 
ENDROOT
BRANCH   1   2
ATOM      2  C   UNL     1      55.063  17.287  -3.417  1.00  0.00    -0.028 C 
ATOM      3  C   UNL     1      54.981  17.834  -2.183  1.00  0.00    -0.077 C 
ATOM      4  C   UNL     1      55.086  19.326  -1.966  1.00  0.00     0.039 C 
BRANCH   3   5
ATOM      5  C   UNL     1      54.803  16.927  -0.986  1.00  0.00     0.034 C 
BRANCH   5   6
ATOM      6  C   UNL     1      54.429  15.508  -1.429  1.00  0.00     0.032 C 
BRANCH   6   7
ATOM      7  C   UNL     1      55.412  14.491  -0.902  1.00  0.00    -0.028 C 
ATOM      8  C   UNL     1      55.962  13.698  -3.205  1.00  0.00     0.039 C 
ATOM      9  C   UNL     1      56.115  13.663  -1.703  1.00  0.00    -0.080 C 
ATOM     10  C   UNL     1      57.071  12.684  -1.072  1.00  0.00     0.039 C 
ENDBRANCH   6   7
ENDBRANCH   5   6
ENDBRANCH   3   5
ENDBRANCH   1   2
BRANCH   1  11
ATOM     11  C   UNL     1      53.865  18.051  -5.472  1.00  0.00     0.034 C 
BRANCH  11  12
ATOM     12  C   UNL     1      53.004  19.242  -5.101  1.00  0.00    -0.077 C 
ATOM     13  C   UNL     1      51.952  19.156  -4.253  1.00  0.00    -0.028 C 
ATOM     14  C   UNL     1      53.287  20.568  -5.757  1.00  0.00     0.039 C 
BRANCH  13  15
ATOM     15  C   UNL     1      51.541  17.907  -3.515  1.00  0.00     0.035 C 
BRANCH  15  16
ATOM     16  C   UNL     1      50.398  17.194  -4.245  1.00  0.00     0.079 C 
BRANCH  16  17
ATOM     17  C   UNL     1      50.852  15.857  -4.768  1.00  0.00     0.130 C 
ATOM     18  O   UNL     1      50.250  15.339  -5.697  1.00  0.00    -0.300 OA
ATOM     19  C   UNL     1      52.037  15.149  -4.181  1.00  0.00     0.087 C 
ENDBRANCH  16  17
ENDBRANCH  15  16
ENDBRANCH  13  15
ENDBRANCH  11  12
ENDBRANCH   1  11
TORSDOF 9
ENDMDL
MODEL 6
REMARK VINA RESULT:    -4.322      2.097      3.755
REMARK INTER + INTRA:          -8.910
REMARK INTER:                  -6.701
REMARK INTRA:                  -2.209
REMARK UNBOUND:                -2.313
REMARK SMILES CC(=O)CCC=C(C)CCC=C(C)CCC=C(C)C
REMARK SMILES IDX 10 1 11 2 12 3 13 4 14 5 15 6 16 7 18 8 17 9 19 10 9 11 7 12
REMARK SMILES IDX 6 13 8 14 5 15 4 16 2 17 3 18 1 19
REMARK H PARENT
REMARK Flexibility Score: inf
ROOT
ATOM      1  C   UNL     1      54.976  19.082  -2.527  1.00  0.00     0.032 C 
ENDROOT
BRANCH   1   2
ATOM      2  C   UNL     1      54.959  17.938  -1.547  1.00  0.00    -0.028 C 
ATOM      3  C   UNL     1      53.837  17.323  -1.108  1.00  0.00    -0.077 C 
ATOM      4  C   UNL     1      52.460  17.795  -1.515  1.00  0.00     0.039 C 
BRANCH   3   5
ATOM      5  C   UNL     1      53.963  16.145  -0.167  1.00  0.00     0.034 C 
BRANCH   5   6
ATOM      6  C   UNL     1      55.413  15.649  -0.107  1.00  0.00     0.032 C 
BRANCH   6   7
ATOM      7  C   UNL     1      55.873  15.470   1.319  1.00  0.00    -0.028 C 
ATOM      8  C   UNL     1      57.021  13.321   0.773  1.00  0.00     0.039 C 
ATOM      9  C   UNL     1      56.605  14.414   1.730  1.00  0.00    -0.080 C 
ATOM     10  C   UNL     1      57.012  14.333   3.178  1.00  0.00     0.039 C 
ENDBRANCH   6   7
ENDBRANCH   5   6
ENDBRANCH   3   5
ENDBRANCH   1   2
BRANCH   1  11
ATOM     11  C   UNL     1      55.464  18.609  -3.901  1.00  0.00     0.034 C 
BRANCH  11  12
ATOM     12  C   UNL     1      54.296  18.154  -4.753  1.00  0.00    -0.077 C 
ATOM     13  C   UNL     1      54.005  16.850  -4.969  1.00  0.00    -0.028 C 
ATOM     14  C   UNL     1      53.463  19.199  -5.449  1.00  0.00     0.039 C 
BRANCH  13  15
ATOM     15  C   UNL     1      54.737  15.689  -4.344  1.00  0.00     0.035 C 
BRANCH  15  16
ATOM     16  C   UNL     1      53.749  14.635  -3.832  1.00  0.00     0.079 C 
BRANCH  16  17
ATOM     17  C   UNL     1      54.449  13.634  -2.952  1.00  0.00     0.130 C 
ATOM     18  O   UNL     1      53.792  12.945  -2.185  1.00  0.00    -0.300 OA
ATOM     19  C   UNL     1      55.938  13.452  -3.003  1.00  0.00     0.087 C 
ENDBRANCH  16  17
ENDBRANCH  15  16
ENDBRANCH  13  15
ENDBRANCH  11  12
ENDBRANCH   1  11
TORSDOF 9
ENDMDL
MODEL 7
REMARK VINA RESULT:    -4.297      2.255      3.971
REMARK INTER + INTRA:          -8.871
REMARK INTER:                  -6.940
REMARK INTRA:                  -1.931
REMARK UNBOUND:                -2.313
REMARK SMILES CC(=O)CCC=C(C)CCC=C(C)CCC=C(C)C
REMARK SMILES IDX 10 1 11 2 12 3 13 4 14 5 15 6 16 7 18 8 17 9 19 10 9 11 7 12
REMARK SMILES IDX 6 13 8 14 5 15 4 16 2 17 3 18 1 19
REMARK H PARENT
REMARK Flexibility Score: inf
ROOT
ATOM      1  C   UNL     1      55.136  16.763  -3.914  1.00  0.00     0.032 C 
ENDROOT
BRANCH   1   2
ATOM      2  C   UNL     1      54.222  16.567  -2.731  1.00  0.00    -0.028 C 
ATOM      3  C   UNL     1      54.121  17.428  -1.693  1.00  0.00    -0.077 C 
ATOM      4  C   UNL     1      54.996  18.656  -1.588  1.00  0.00     0.039 C 
BRANCH   3   5
ATOM      5  C   UNL     1      53.119  17.141  -0.596  1.00  0.00     0.034 C 
BRANCH   5   6
ATOM      6  C   UNL     1      53.265  15.702  -0.088  1.00  0.00     0.032 C 
BRANCH   6   7
ATOM      7  C   UNL     1      54.374  15.589   0.930  1.00  0.00    -0.028 C 
ATOM      8  C   UNL     1      55.729  14.131  -0.577  1.00  0.00     0.039 C 
ATOM      9  C   UNL     1      55.500  14.876   0.716  1.00  0.00    -0.080 C 
ATOM     10  C   UNL     1      56.545  14.830   1.800  1.00  0.00     0.039 C 
ENDBRANCH   6   7
ENDBRANCH   5   6
ENDBRANCH   3   5
ENDBRANCH   1   2
BRANCH   1  11
ATOM     11  C   UNL     1      54.399  17.473  -5.054  1.00  0.00     0.034 C 
BRANCH  11  12
ATOM     12  C   UNL     1      54.863  18.911  -5.174  1.00  0.00    -0.077 C 
ATOM     13  C   UNL     1      54.024  19.937  -5.450  1.00  0.00    -0.028 C 
ATOM     14  C   UNL     1      56.335  19.206  -5.049  1.00  0.00     0.039 C 
BRANCH  13  15
ATOM     15  C   UNL     1      52.528  19.809  -5.599  1.00  0.00     0.035 C 
BRANCH  15  16
ATOM     16  C   UNL     1      51.830  21.123  -5.228  1.00  0.00     0.079 C 
BRANCH  16  17
ATOM     17  C   UNL     1      51.234  21.036  -3.849  1.00  0.00     0.130 C 
ATOM     18  O   UNL     1      50.438  21.889  -3.484  1.00  0.00    -0.300 OA
ATOM     19  C   UNL     1      51.585  19.918  -2.912  1.00  0.00     0.087 C 
ENDBRANCH  16  17
ENDBRANCH  15  16
ENDBRANCH  13  15
ENDBRANCH  11  12
ENDBRANCH   1  11
TORSDOF 9
ENDMDL
MODEL 8
REMARK VINA RESULT:    -4.283      2.035      4.875
REMARK INTER + INTRA:          -8.850
REMARK INTER:                  -6.522
REMARK INTRA:                  -2.329
REMARK UNBOUND:                -2.313
REMARK SMILES CC(=O)CCC=C(C)CCC=C(C)CCC=C(C)C
REMARK SMILES IDX 10 1 11 2 12 3 13 4 14 5 15 6 16 7 18 8 17 9 19 10 9 11 7 12
REMARK SMILES IDX 6 13 8 14 5 15 4 16 2 17 3 18 1 19
REMARK H PARENT
REMARK Flexibility Score: inf
ROOT
ATOM      1  C   UNL     1      53.180  16.871  -6.099  1.00  0.00     0.032 C 
ENDROOT
BRANCH   1   2
ATOM      2  C   UNL     1      54.331  17.382  -5.271  1.00  0.00    -0.028 C 
ATOM      3  C   UNL     1      54.513  18.678  -4.930  1.00  0.00    -0.077 C 
ATOM      4  C   UNL     1      53.594  19.769  -5.429  1.00  0.00     0.039 C 
BRANCH   3   5
ATOM      5  C   UNL     1      55.682  19.048  -4.043  1.00  0.00     0.034 C 
BRANCH   5   6
ATOM      6  C   UNL     1      55.201  19.421  -2.636  1.00  0.00     0.032 C 
BRANCH   6   7
ATOM      7  C   UNL     1      55.144  18.211  -1.737  1.00  0.00    -0.028 C 
ATOM      8  C   UNL     1      52.648  18.172  -1.797  1.00  0.00     0.039 C 
ATOM      9  C   UNL     1      53.987  17.635  -1.349  1.00  0.00    -0.080 C 
ATOM     10  C   UNL     1      54.044  16.428  -0.448  1.00  0.00     0.039 C 
ENDBRANCH   6   7
ENDBRANCH   5   6
ENDBRANCH   3   5
ENDBRANCH   1   2
BRANCH   1  11
ATOM     11  C   UNL     1      52.923  15.389  -5.810  1.00  0.00     0.034 C 
BRANCH  11  12
ATOM     12  C   UNL     1      52.473  15.197  -4.375  1.00  0.00    -0.077 C 
ATOM     13  C   UNL     1      53.238  14.592  -3.437  1.00  0.00    -0.028 C 
ATOM     14  C   UNL     1      51.083  15.635  -3.991  1.00  0.00     0.039 C 
BRANCH  13  15
ATOM     15  C   UNL     1      54.647  14.103  -3.659  1.00  0.00     0.035 C 
BRANCH  15  16
ATOM     16  C   UNL     1      54.820  12.678  -3.121  1.00  0.00     0.079 C 
BRANCH  16  17
ATOM     17  C   UNL     1      56.086  12.564  -2.315  1.00  0.00     0.130 C 
ATOM     18  O   UNL     1      56.896  11.690  -2.590  1.00  0.00    -0.300 OA
ATOM     19  C   UNL     1      56.385  13.507  -1.187  1.00  0.00     0.087 C 
ENDBRANCH  16  17
ENDBRANCH  15  16
ENDBRANCH  13  15
ENDBRANCH  11  12
ENDBRANCH   1  11
TORSDOF 9
ENDMDL
MODEL 9
REMARK VINA RESULT:    -4.218      2.959      5.814
REMARK INTER + INTRA:          -8.752
REMARK INTER:                  -6.111
REMARK INTRA:                  -2.640
REMARK UNBOUND:                -2.313
REMARK SMILES CC(=O)CCC=C(C)CCC=C(C)CCC=C(C)C
REMARK SMILES IDX 10 1 11 2 12 3 13 4 14 5 15 6 16 7 18 8 17 9 19 10 9 11 7 12
REMARK SMILES IDX 6 13 8 14 5 15 4 16 2 17 3 18 1 19
REMARK H PARENT
REMARK Flexibility Score: inf
ROOT
ATOM      1  C   UNL     1      53.031  17.143  -0.910  1.00  0.00     0.032 C 
ENDROOT
BRANCH   1   2
ATOM      2  C   UNL     1      53.867  18.182  -1.613  1.00  0.00    -0.028 C 
ATOM      3  C   UNL     1      54.777  17.908  -2.575  1.00  0.00    -0.077 C 
ATOM      4  C   UNL     1      55.098  16.490  -2.987  1.00  0.00     0.039 C 
BRANCH   3   5
ATOM      5  C   UNL     1      55.508  19.053  -3.243  1.00  0.00     0.034 C 
BRANCH   5   6
ATOM      6  C   UNL     1      55.347  18.988  -4.766  1.00  0.00     0.032 C 
BRANCH   6   7
ATOM      7  C   UNL     1      53.995  19.504  -5.197  1.00  0.00    -0.028 C 
ATOM      8  C   UNL     1      53.299  17.252  -6.019  1.00  0.00     0.039 C 
ATOM      9  C   UNL     1      53.056  18.722  -5.768  1.00  0.00    -0.080 C 
ATOM     10  C   UNL     1      51.739  19.339  -6.161  1.00  0.00     0.039 C 
ENDBRANCH   6   7
ENDBRANCH   5   6
ENDBRANCH   3   5
ENDBRANCH   1   2
BRANCH   1  11
ATOM     11  C   UNL     1      51.549  17.531  -0.943  1.00  0.00     0.034 C 
BRANCH  11  12
ATOM     12  C   UNL     1      51.053  17.614  -2.373  1.00  0.00    -0.077 C 
ATOM     13  C   UNL     1      50.488  18.728  -2.894  1.00  0.00    -0.028 C 
ATOM     14  C   UNL     1      51.127  16.379  -3.234  1.00  0.00     0.039 C 
BRANCH  13  15
ATOM     15  C   UNL     1      50.344  20.041  -2.167  1.00  0.00     0.035 C 
BRANCH  15  16
ATOM     16  C   UNL     1      51.285  21.097  -2.759  1.00  0.00     0.079 C 
BRANCH  16  17
ATOM     17  C   UNL     1      50.904  22.474  -2.286  1.00  0.00     0.130 C 
ATOM     18  O   UNL     1      51.553  23.440  -2.662  1.00  0.00    -0.300 OA
ATOM     19  C   UNL     1      49.737  22.692  -1.369  1.00  0.00     0.087 C 
ENDBRANCH  16  17
ENDBRANCH  15  16
ENDBRANCH  13  15
ENDBRANCH  11  12
ENDBRANCH   1  11
TORSDOF 9
ENDMDL
