MODEL 1
REMARK VINA RESULT:    -2.338      0.000      0.000
REMARK INTER + INTRA:          -2.338
REMARK INTER:                  -2.338
REMARK INTRA:                   0.000
REMARK UNBOUND:                 0.000
REMARK SMILES CC(=O)[O-]
REMARK SMILES IDX 1 1 2 2 3 3 4 4
REMARK H PARENT
REMARK Flexibility Score: inf
ROOT
ATOM      1  C   UNL     1     -29.275 -21.279 -32.525  1.00  0.00     0.063 C 
ATOM      2  C   UNL     1     -30.343 -21.484 -31.506  1.00  0.00     0.038 C 
ATOM      3  O   UNL     1     -31.143 -20.551 -31.235  1.00  0.00    -0.550 OA
ATOM      4  O   UNL     1     -30.423 -22.684 -30.813  1.00  0.00    -0.550 OA
ENDROOT
TORSDOF 0
ENDMDL
MODEL 2
REMARK VINA RESULT:    -2.177      1.479      1.805
REMARK INTER + INTRA:          -2.177
REMARK INTER:                  -2.177
REMARK INTRA:                   0.000
REMARK UNBOUND:                 0.000
REMARK SMILES CC(=O)[O-]
REMARK SMILES IDX 1 1 2 2 3 3 4 4
REMARK H PARENT
REMARK Flexibility Score: inf
ROOT
ATOM      1  C   UNL     1     -30.421 -22.507 -30.855  1.00  0.00     0.063 C 
ATOM      2  C   UNL     1     -30.218 -21.370 -31.798  1.00  0.00     0.038 C 
ATOM      3  O   UNL     1     -31.103 -20.483 -31.917  1.00  0.00    -0.550 OA
ATOM      4  O   UNL     1     -29.077 -21.317 -32.587  1.00  0.00    -0.550 OA
ENDROOT
TORSDOF 0
ENDMDL
MODEL 3
REMARK VINA RESULT:    -2.153      1.362      2.022
REMARK INTER + INTRA:          -2.153
REMARK INTER:                  -2.153
REMARK INTRA:                   0.000
REMARK UNBOUND:                 0.000
REMARK SMILES CC(=O)[O-]
REMARK SMILES IDX 1 1 2 2 3 3 4 4
REMARK H PARENT
REMARK Flexibility Score: inf
ROOT
ATOM      1  C   UNL     1     -31.021 -20.303 -31.092  1.00  0.00     0.063 C 
ATOM      2  C   UNL     1     -30.204 -21.514 -31.387  1.00  0.00     0.038 C 
ATOM      3  O   UNL     1     -30.397 -22.579 -30.744  1.00  0.00    -0.550 OA
ATOM      4  O   UNL     1     -29.189 -21.455 -32.334  1.00  0.00    -0.550 OA
ENDROOT
TORSDOF 0
ENDMDL
MODEL 4
REMARK VINA RESULT:    -2.111      9.988     10.212
REMARK INTER + INTRA:          -2.111
REMARK INTER:                  -2.111
REMARK INTRA:                   0.000
REMARK UNBOUND:                 0.000
REMARK SMILES CC(=O)[O-]
REMARK SMILES IDX 1 1 2 2 3 3 4 4
REMARK H PARENT
REMARK Flexibility Score: inf
ROOT
ATOM      1  C   UNL     1     -34.122 -28.921 -38.897  1.00  0.00     0.063 C 
ATOM      2  C   UNL     1     -32.908 -28.114 -38.584  1.00  0.00     0.038 C 
ATOM      3  O   UNL     1     -33.014 -27.038 -37.938  1.00  0.00    -0.550 OA
ATOM      4  O   UNL     1     -31.664 -28.517 -39.053  1.00  0.00    -0.550 OA
ENDROOT
TORSDOF 0
ENDMDL
MODEL 5
REMARK VINA RESULT:    -2.068     22.548     23.105
REMARK INTER + INTRA:          -2.068
REMARK INTER:                  -2.068
REMARK INTRA:                   0.000
REMARK UNBOUND:                 0.000
REMARK SMILES CC(=O)[O-]
REMARK SMILES IDX 1 1 2 2 3 3 4 4
REMARK H PARENT
REMARK Flexibility Score: inf
ROOT
ATOM      1  C   UNL     1     -17.644 -38.678 -37.233  1.00  0.00     0.063 C 
ATOM      2  C   UNL     1     -16.530 -38.725 -38.222  1.00  0.00     0.038 C 
ATOM      3  O   UNL     1     -15.723 -37.763 -38.311  1.00  0.00    -0.550 OA
ATOM      4  O   UNL     1     -16.412 -39.806 -39.086  1.00  0.00    -0.550 OA
ENDROOT
TORSDOF 0
ENDMDL
MODEL 6
REMARK VINA RESULT:    -2.054     21.618     22.041
REMARK INTER + INTRA:          -2.054
REMARK INTER:                  -2.054
REMARK INTRA:                   0.000
REMARK UNBOUND:                 0.000
REMARK SMILES CC(=O)[O-]
REMARK SMILES IDX 1 1 2 2 3 3 4 4
REMARK H PARENT
REMARK Flexibility Score: inf
ROOT
ATOM      1  C   UNL     1     -19.054 -39.744 -38.386  1.00  0.00     0.063 C 
ATOM      2  C   UNL     1     -18.169 -38.641 -37.916  1.00  0.00     0.038 C 
ATOM      3  O   UNL     1     -18.244 -37.502 -38.447  1.00  0.00    -0.550 OA
ATOM      4  O   UNL     1     -17.221 -38.882 -36.931  1.00  0.00    -0.550 OA
ENDROOT
TORSDOF 0
ENDMDL
MODEL 7
REMARK VINA RESULT:    -2.044     21.663     22.151
REMARK INTER + INTRA:          -2.044
REMARK INTER:                  -2.044
REMARK INTRA:                   0.000
REMARK UNBOUND:                 0.000
REMARK SMILES CC(=O)[O-]
REMARK SMILES IDX 1 1 2 2 3 3 4 4
REMARK H PARENT
REMARK Flexibility Score: inf
ROOT
ATOM      1  C   UNL     1     -18.937 -39.864 -38.365  1.00  0.00     0.063 C 
ATOM      2  C   UNL     1     -18.087 -38.735 -37.892  1.00  0.00     0.038 C 
ATOM      3  O   UNL     1     -17.263 -38.913 -36.957  1.00  0.00    -0.550 OA
ATOM      4  O   UNL     1     -18.241 -37.469 -38.444  1.00  0.00    -0.550 OA
ENDROOT
TORSDOF 0
ENDMDL
MODEL 8
REMARK VINA RESULT:    -2.001      5.608      5.693
REMARK INTER + INTRA:          -2.001
REMARK INTER:                  -2.001
REMARK INTRA:                   0.000
REMARK UNBOUND:                 0.000
REMARK SMILES CC(=O)[O-]
REMARK SMILES IDX 1 1 2 2 3 3 4 4
REMARK H PARENT
REMARK Flexibility Score: inf
ROOT
ATOM      1  C   UNL     1     -32.087 -22.948 -34.837  1.00  0.00     0.063 C 
ATOM      2  C   UNL     1     -32.135 -23.502 -36.220  1.00  0.00     0.038 C 
ATOM      3  O   UNL     1     -33.237 -23.836 -36.729  1.00  0.00    -0.550 OA
ATOM      4  O   UNL     1     -30.958 -23.704 -36.930  1.00  0.00    -0.550 OA
ENDROOT
TORSDOF 0
ENDMDL
MODEL 9
REMARK VINA RESULT:    -1.485     22.071     22.762
REMARK INTER + INTRA:          -1.485
REMARK INTER:                  -1.485
REMARK INTRA:                   0.000
REMARK UNBOUND:                 0.000
REMARK SMILES CC(=O)[O-]
REMARK SMILES IDX 1 1 2 2 3 3 4 4
REMARK H PARENT
REMARK Flexibility Score: inf
ROOT
ATOM      1  C   UNL     1     -16.977 -37.456 -39.125  1.00  0.00     0.063 C 
ATOM      2  C   UNL     1     -16.963 -38.660 -38.246  1.00  0.00     0.038 C 
ATOM      3  O   UNL     1     -16.385 -39.712 -38.625  1.00  0.00    -0.550 OA
ATOM      4  O   UNL     1     -17.635 -38.641 -37.030  1.00  0.00    -0.550 OA
ENDROOT
TORSDOF 0
ENDMDL
