MODEL 1
REMARK VINA RESULT:    -3.490      0.000      0.000
REMARK INTER + INTRA:          -8.172
REMARK INTER:                  -6.040
REMARK INTRA:                  -2.132
REMARK UNBOUND:                -2.132
REMARK SMILES OC[C@H]1O[C@@H](O[C@@H]2[C@H](O)[C@@H](O)[C@H](O[C@@H]3[C@@H](O)[C@H](O)[C@@H](O)O[C@@H]3CO)O[C@@H]2CO)[C@H](O)[C@@H](O)[C@H]1O
REMARK SMILES IDX 7 1 26 2 25 3 12 4 10 5 8 6 6 7 5 8 3 9 33 10 4 11 31 12
REMARK SMILES IDX 29 13 2 14 1 15 34 17 32 19 30 21 27 23 28 24 9 26 11 28
REMARK SMILES IDX 13 30 14 31 22 32 15 33 21 34 17 35 19 36 23 37 24 38 16 40
REMARK SMILES IDX 18 42 20 44
REMARK H PARENT 1 16 34 18 32 20 30 22 28 25 9 27 11 29 24 39 16 41 18 43
REMARK H PARENT 20 45
REMARK Flexibility Score: inf
ROOT
ATOM      1  C   UNL     1      17.206  30.500  31.928  1.00  0.00     0.184 C 
ATOM      2  C   UNL     1      18.224  30.436  30.757  1.00  0.00     0.178 C 
ATOM      3  O   UNL     1      17.942  29.355  29.875  1.00  0.00    -0.341 OA
ATOM      4  C   UNL     1      17.860  28.079  30.502  1.00  0.00     0.282 C 
ATOM      5  C   UNL     1      16.813  28.030  31.654  1.00  0.00     0.202 C 
ATOM      6  C   UNL     1      17.033  29.161  32.685  1.00  0.00     0.180 C 
ENDROOT
BRANCH   1   7
ATOM      7  O   UNL     1      17.193  31.735  32.643  1.00  0.00    -0.341 OA
BRANCH   7   8
ATOM      8  C   UNL     1      16.556  31.843  33.911  1.00  0.00     0.282 C 
ATOM      9  C   UNL     1      16.864  31.816  36.227  1.00  0.00     0.178 C 
ATOM     10  C   UNL     1      15.302  31.942  36.353  1.00  0.00     0.177 C 
ATOM     11  O   UNL     1      17.281  31.269  34.981  1.00  0.00    -0.341 OA
ATOM     12  C   UNL     1      14.537  31.086  35.308  1.00  0.00     0.179 C 
ATOM     13  C   UNL     1      15.114  31.281  33.873  1.00  0.00     0.202 C 
BRANCH   9  14
ATOM     14  C   UNL     1      17.534  31.028  37.366  1.00  0.00     0.191 C 
BRANCH  14  15
ATOM     15  O   UNL     1      16.953  29.765  37.535  1.00  0.00    -0.394 OA
ATOM     16  H   UNL     1      17.112  29.259  36.698  1.00  0.00     0.210 HD
ENDBRANCH  14  15
ENDBRANCH   9  14
BRANCH  10  17
ATOM     17  O   UNL     1      14.828  31.743  37.666  1.00  0.00    -0.387 OA
ATOM     18  H   UNL     1      15.566  31.933  38.297  1.00  0.00     0.211 HD
ENDBRANCH  10  17
BRANCH  12  19
ATOM     19  O   UNL     1      14.523  29.726  35.667  1.00  0.00    -0.387 OA
ATOM     20  H   UNL     1      14.936  29.645  36.561  1.00  0.00     0.211 HD
ENDBRANCH  12  19
BRANCH  13  21
ATOM     21  O   UNL     1      14.283  32.113  33.099  1.00  0.00    -0.385 OA
ATOM     22  H   UNL     1      14.831  32.487  32.360  1.00  0.00     0.211 HD
ENDBRANCH  13  21
ENDBRANCH   7   8
ENDBRANCH   1   7
BRANCH   2  23
ATOM     23  C   UNL     1      19.718  30.497  31.117  1.00  0.00     0.191 C 
BRANCH  23  24
ATOM     24  O   UNL     1      20.486  30.655  29.955  1.00  0.00    -0.394 OA
ATOM     25  H   UNL     1      19.889  31.067  29.277  1.00  0.00     0.210 HD
ENDBRANCH  23  24
ENDBRANCH   2  23
BRANCH   6  26
ATOM     26  O   UNL     1      18.150  28.855  33.471  1.00  0.00    -0.387 OA
ATOM     27  H   UNL     1      18.505  27.987  33.146  1.00  0.00     0.211 HD
ENDBRANCH   6  26
BRANCH   5  28
ATOM     28  O   UNL     1      15.494  28.059  31.158  1.00  0.00    -0.385 OA
ATOM     29  H   UNL     1      15.346  28.922  30.693  1.00  0.00     0.211 HD
ENDBRANCH   5  28
BRANCH   4  30
ATOM     30  O   UNL     1      19.145  27.659  30.947  1.00  0.00    -0.341 OA
BRANCH  30  31
ATOM     31  C   UNL     1      19.520  26.392  30.414  1.00  0.00     0.184 C 
ATOM     32  C   UNL     1      21.045  26.158  30.569  1.00  0.00     0.178 C 
ATOM     33  C   UNL     1      18.751  25.279  31.150  1.00  0.00     0.180 C 
ATOM     34  O   UNL     1      21.422  26.099  31.936  1.00  0.00    -0.342 OA
ATOM     35  C   UNL     1      19.303  25.036  32.571  1.00  0.00     0.201 C 
ATOM     36  C   UNL     1      20.851  24.976  32.586  1.00  0.00     0.279 C 
BRANCH  32  37
ATOM     37  C   UNL     1      21.874  27.250  29.875  1.00  0.00     0.191 C 
BRANCH  37  38
ATOM     38  O   UNL     1      22.209  28.265  30.782  1.00  0.00    -0.394 OA
ATOM     39  H   UNL     1      21.440  28.892  30.789  1.00  0.00     0.210 HD
ENDBRANCH  37  38
ENDBRANCH  32  37
BRANCH  33  40
ATOM     40  O   UNL     1      18.833  24.090  30.402  1.00  0.00    -0.387 OA
ATOM     41  H   UNL     1      17.990  24.014  29.882  1.00  0.00     0.211 HD
ENDBRANCH  33  40
BRANCH  35  42
ATOM     42  O   UNL     1      18.816  26.006  33.466  1.00  0.00    -0.385 OA
ATOM     43  H   UNL     1      17.963  25.681  33.856  1.00  0.00     0.211 HD
ENDBRANCH  35  42
BRANCH  36  44
ATOM     44  O   UNL     1      21.322  23.779  32.016  1.00  0.00    -0.366 OA
ATOM     45  H   UNL     1      20.554  23.150  31.991  1.00  0.00     0.213 HD
ENDBRANCH  36  44
ENDBRANCH  30  31
ENDBRANCH   4  30
TORSDOF 18
ENDMDL
MODEL 2
REMARK VINA RESULT:    -2.462      3.041      8.627
REMARK INTER + INTRA:          -6.393
REMARK INTER:                  -5.345
REMARK INTRA:                  -1.049
REMARK UNBOUND:                -2.132
REMARK SMILES OC[C@H]1O[C@@H](O[C@@H]2[C@H](O)[C@@H](O)[C@H](O[C@@H]3[C@@H](O)[C@H](O)[C@@H](O)O[C@@H]3CO)O[C@@H]2CO)[C@H](O)[C@@H](O)[C@H]1O
REMARK SMILES IDX 7 1 26 2 25 3 12 4 10 5 8 6 6 7 5 8 3 9 33 10 4 11 31 12
REMARK SMILES IDX 29 13 2 14 1 15 34 17 32 19 30 21 27 23 28 24 9 26 11 28
REMARK SMILES IDX 13 30 14 31 22 32 15 33 21 34 17 35 19 36 23 37 24 38 16 40
REMARK SMILES IDX 18 42 20 44
REMARK H PARENT 1 16 34 18 32 20 30 22 28 25 9 27 11 29 24 39 16 41 18 43
REMARK H PARENT 20 45
REMARK Flexibility Score: inf
ROOT
ATOM      1  C   UNL     1      17.795  30.509  35.853  1.00  0.00     0.184 C 
ATOM      2  C   UNL     1      17.474  31.855  36.558  1.00  0.00     0.178 C 
ATOM      3  O   UNL     1      18.387  32.125  37.616  1.00  0.00    -0.341 OA
ATOM      4  C   UNL     1      18.494  31.092  38.591  1.00  0.00     0.282 C 
ATOM      5  C   UNL     1      18.877  29.712  37.979  1.00  0.00     0.202 C 
ATOM      6  C   UNL     1      17.937  29.310  36.821  1.00  0.00     0.180 C 
ENDROOT
BRANCH   1   7
ATOM      7  O   UNL     1      17.171  30.335  34.582  1.00  0.00    -0.341 OA
BRANCH   7   8
ATOM      8  C   UNL     1      17.468  29.208  33.765  1.00  0.00     0.282 C 
ATOM      9  C   UNL     1      19.028  27.536  33.289  1.00  0.00     0.178 C 
ATOM     10  C   UNL     1      18.081  27.102  32.112  1.00  0.00     0.177 C 
ATOM     11  O   UNL     1      18.844  28.891  33.684  1.00  0.00    -0.341 OA
ATOM     12  C   UNL     1      17.456  28.307  31.359  1.00  0.00     0.179 C 
ATOM     13  C   UNL     1      16.864  29.356  32.349  1.00  0.00     0.202 C 
BRANCH   9  14
ATOM     14  C   UNL     1      20.525  27.294  33.025  1.00  0.00     0.191 C 
BRANCH  14  15
ATOM     15  O   UNL     1      20.857  25.937  33.123  1.00  0.00    -0.394 OA
ATOM     16  H   UNL     1      20.834  25.702  34.085  1.00  0.00     0.210 HD
ENDBRANCH  14  15
ENDBRANCH   9  14
BRANCH  10  17
ATOM     17  O   UNL     1      18.667  26.164  31.237  1.00  0.00    -0.387 OA
ATOM     18  H   UNL     1      17.993  25.470  31.027  1.00  0.00     0.211 HD
ENDBRANCH  10  17
BRANCH  12  19
ATOM     19  O   UNL     1      18.381  28.904  30.483  1.00  0.00    -0.387 OA
ATOM     20  H   UNL     1      18.472  28.315  29.695  1.00  0.00     0.211 HD
ENDBRANCH  12  19
BRANCH  13  21
ATOM     21  O   UNL     1      15.459  29.270  32.402  1.00  0.00    -0.385 OA
ATOM     22  H   UNL     1      15.142  29.898  33.104  1.00  0.00     0.211 HD
ENDBRANCH  13  21
ENDBRANCH   7   8
ENDBRANCH   1   7
BRANCH   2  23
ATOM     23  C   UNL     1      16.018  32.092  36.994  1.00  0.00     0.191 C 
BRANCH  23  24
ATOM     24  O   UNL     1      15.165  31.205  36.324  1.00  0.00    -0.394 OA
ATOM     25  H   UNL     1      15.685  30.374  36.171  1.00  0.00     0.210 HD
ENDBRANCH  23  24
ENDBRANCH   2  23
BRANCH   6  26
ATOM     26  O   UNL     1      16.701  28.914  37.349  1.00  0.00    -0.387 OA
ATOM     27  H   UNL     1      16.769  28.991  38.336  1.00  0.00     0.211 HD
ENDBRANCH   6  26
BRANCH   5  28
ATOM     28  O   UNL     1      20.222  29.686  37.560  1.00  0.00    -0.385 OA
ATOM     29  H   UNL     1      20.541  28.747  37.568  1.00  0.00     0.211 HD
ENDBRANCH   5  28
BRANCH   4  30
ATOM     30  O   UNL     1      17.299  31.008  39.360  1.00  0.00    -0.341 OA
BRANCH  30  31
ATOM     31  C   UNL     1      17.457  30.208  40.528  1.00  0.00     0.184 C 
ATOM     32  C   UNL     1      18.323  30.941  41.585  1.00  0.00     0.178 C 
ATOM     33  C   UNL     1      16.072  29.895  41.125  1.00  0.00     0.180 C 
ATOM     34  O   UNL     1      17.688  32.125  42.043  1.00  0.00    -0.342 OA
ATOM     35  C   UNL     1      15.458  31.119  41.838  1.00  0.00     0.201 C 
ATOM     36  C   UNL     1      16.490  31.836  42.745  1.00  0.00     0.279 C 
BRANCH  32  37
ATOM     37  C   UNL     1      19.714  31.305  41.045  1.00  0.00     0.191 C 
BRANCH  37  38
ATOM     38  O   UNL     1      20.578  30.203  41.127  1.00  0.00    -0.394 OA
ATOM     39  H   UNL     1      20.368  29.631  40.345  1.00  0.00     0.210 HD
ENDBRANCH  37  38
ENDBRANCH  32  37
BRANCH  33  40
ATOM     40  O   UNL     1      16.192  28.829  42.036  1.00  0.00    -0.387 OA
ATOM     41  H   UNL     1      15.535  28.991  42.763  1.00  0.00     0.211 HD
ENDBRANCH  33  40
BRANCH  35  42
ATOM     42  O   UNL     1      14.889  32.004  40.905  1.00  0.00    -0.385 OA
ATOM     43  H   UNL     1      14.568  32.812  41.385  1.00  0.00     0.211 HD
ENDBRANCH  35  42
BRANCH  36  44
ATOM     44  O   UNL     1      16.762  31.085  43.903  1.00  0.00    -0.366 OA
ATOM     45  H   UNL     1      16.365  30.185  43.762  1.00  0.00     0.213 HD
ENDBRANCH  36  44
ENDBRANCH  30  31
ENDBRANCH   4  30
TORSDOF 18
ENDMDL
MODEL 3
REMARK VINA RESULT:    -2.211      2.699      5.857
REMARK INTER + INTRA:          -5.959
REMARK INTER:                  -4.676
REMARK INTRA:                  -1.283
REMARK UNBOUND:                -2.132
REMARK SMILES OC[C@H]1O[C@@H](O[C@@H]2[C@H](O)[C@@H](O)[C@H](O[C@@H]3[C@@H](O)[C@H](O)[C@@H](O)O[C@@H]3CO)O[C@@H]2CO)[C@H](O)[C@@H](O)[C@H]1O
REMARK SMILES IDX 7 1 26 2 25 3 12 4 10 5 8 6 6 7 5 8 3 9 33 10 4 11 31 12
REMARK SMILES IDX 29 13 2 14 1 15 34 17 32 19 30 21 27 23 28 24 9 26 11 28
REMARK SMILES IDX 13 30 14 31 22 32 15 33 21 34 17 35 19 36 23 37 24 38 16 40
REMARK SMILES IDX 18 42 20 44
REMARK H PARENT 1 16 34 18 32 20 30 22 28 25 9 27 11 29 24 39 16 41 18 43
REMARK H PARENT 20 45
REMARK Flexibility Score: inf
ROOT
ATOM      1  C   UNL     1      16.225  31.130  37.425  1.00  0.00     0.184 C 
ATOM      2  C   UNL     1      15.138  30.873  36.346  1.00  0.00     0.178 C 
ATOM      3  O   UNL     1      15.372  29.657  35.644  1.00  0.00    -0.341 OA
ATOM      4  C   UNL     1      16.663  29.548  35.052  1.00  0.00     0.282 C 
ATOM      5  C   UNL     1      17.821  29.729  36.076  1.00  0.00     0.202 C 
ATOM      6  C   UNL     1      17.675  31.034  36.892  1.00  0.00     0.180 C 
ENDROOT
BRANCH   1   7
ATOM      7  O   UNL     1      15.882  32.115  38.398  1.00  0.00    -0.341 OA
BRANCH   7   8
ATOM      8  C   UNL     1      16.381  32.039  39.728  1.00  0.00     0.282 C 
ATOM      9  C   UNL     1      18.293  31.851  41.058  1.00  0.00     0.178 C 
ATOM     10  C   UNL     1      17.325  31.782  42.295  1.00  0.00     0.177 C 
ATOM     11  O   UNL     1      17.669  31.465  39.838  1.00  0.00    -0.341 OA
ATOM     12  C   UNL     1      16.053  30.935  42.025  1.00  0.00     0.179 C 
ATOM     13  C   UNL     1      15.386  31.319  40.669  1.00  0.00     0.202 C 
BRANCH   9  14
ATOM     14  C   UNL     1      19.598  31.051  41.223  1.00  0.00     0.191 C 
BRANCH  14  15
ATOM     15  O   UNL     1      20.207  30.790  39.989  1.00  0.00    -0.394 OA
ATOM     16  H   UNL     1      20.240  29.805  39.885  1.00  0.00     0.210 HD
ENDBRANCH  14  15
ENDBRANCH   9  14
BRANCH  10  17
ATOM     17  O   UNL     1      17.973  31.417  43.493  1.00  0.00    -0.387 OA
ATOM     18  H   UNL     1      17.842  32.144  44.153  1.00  0.00     0.211 HD
ENDBRANCH  10  17
BRANCH  12  19
ATOM     19  O   UNL     1      16.329  29.557  42.081  1.00  0.00    -0.387 OA
ATOM     20  H   UNL     1      16.614  29.270  41.178  1.00  0.00     0.211 HD
ENDBRANCH  12  19
BRANCH  13  21
ATOM     21  O   UNL     1      14.240  32.111  40.872  1.00  0.00    -0.385 OA
ATOM     22  H   UNL     1      14.157  32.730  40.099  1.00  0.00     0.211 HD
ENDBRANCH  13  21
ENDBRANCH   7   8
ENDBRANCH   1   7
BRANCH   2  23
ATOM     23  C   UNL     1      14.814  32.028  35.383  1.00  0.00     0.191 C 
BRANCH  23  24
ATOM     24  O   UNL     1      13.875  31.609  34.430  1.00  0.00    -0.394 OA
ATOM     25  H   UNL     1      13.951  32.237  33.665  1.00  0.00     0.210 HD
ENDBRANCH  23  24
ENDBRANCH   2  23
BRANCH   6  26
ATOM     26  O   UNL     1      18.008  32.124  36.079  1.00  0.00    -0.387 OA
ATOM     27  H   UNL     1      18.727  31.820  35.466  1.00  0.00     0.211 HD
ENDBRANCH   6  26
BRANCH   5  28
ATOM     28  O   UNL     1      17.936  28.617  36.933  1.00  0.00    -0.385 OA
ATOM     29  H   UNL     1      17.117  28.556  37.490  1.00  0.00     0.211 HD
ENDBRANCH   5  28
BRANCH   4  30
ATOM     30  O   UNL     1      16.786  30.450  33.958  1.00  0.00    -0.341 OA
BRANCH  30  31
ATOM     31  C   UNL     1      16.493  29.834  32.708  1.00  0.00     0.184 C 
ATOM     32  C   UNL     1      16.868  30.771  31.530  1.00  0.00     0.178 C 
ATOM     33  C   UNL     1      17.283  28.517  32.588  1.00  0.00     0.180 C 
ATOM     34  O   UNL     1      18.265  31.018  31.491  1.00  0.00    -0.342 OA
ATOM     35  C   UNL     1      18.782  28.763  32.310  1.00  0.00     0.201 C 
ATOM     36  C   UNL     1      18.996  29.836  31.213  1.00  0.00     0.279 C 
BRANCH  32  37
ATOM     37  C   UNL     1      16.130  32.117  31.602  1.00  0.00     0.191 C 
BRANCH  37  38
ATOM     38  O   UNL     1      14.778  31.921  31.919  1.00  0.00    -0.394 OA
ATOM     39  H   UNL     1      14.281  32.012  31.065  1.00  0.00     0.210 HD
ENDBRANCH  37  38
ENDBRANCH  32  37
BRANCH  33  40
ATOM     40  O   UNL     1      16.732  27.741  31.552  1.00  0.00    -0.387 OA
ATOM     41  H   UNL     1      17.489  27.311  31.074  1.00  0.00     0.211 HD
ENDBRANCH  33  40
BRANCH  35  42
ATOM     42  O   UNL     1      19.459  29.097  33.497  1.00  0.00    -0.385 OA
ATOM     43  H   UNL     1      20.039  28.335  33.759  1.00  0.00     0.211 HD
ENDBRANCH  35  42
BRANCH  36  44
ATOM     44  O   UNL     1      18.668  29.337  29.939  1.00  0.00    -0.366 OA
ATOM     45  H   UNL     1      19.511  29.005  29.534  1.00  0.00     0.213 HD
ENDBRANCH  36  44
ENDBRANCH  30  31
ENDBRANCH   4  30
TORSDOF 18
ENDMDL
MODEL 4
REMARK VINA RESULT:    -2.199      1.212      2.077
REMARK INTER + INTRA:          -5.938
REMARK INTER:                  -5.619
REMARK INTRA:                  -0.319
REMARK UNBOUND:                -2.132
REMARK SMILES OC[C@H]1O[C@@H](O[C@@H]2[C@H](O)[C@@H](O)[C@H](O[C@@H]3[C@@H](O)[C@H](O)[C@@H](O)O[C@@H]3CO)O[C@@H]2CO)[C@H](O)[C@@H](O)[C@H]1O
REMARK SMILES IDX 7 1 26 2 25 3 12 4 10 5 8 6 6 7 5 8 3 9 33 10 4 11 31 12
REMARK SMILES IDX 29 13 2 14 1 15 34 17 32 19 30 21 27 23 28 24 9 26 11 28
REMARK SMILES IDX 13 30 14 31 22 32 15 33 21 34 17 35 19 36 23 37 24 38 16 40
REMARK SMILES IDX 18 42 20 44
REMARK H PARENT 1 16 34 18 32 20 30 22 28 25 9 27 11 29 24 39 16 41 18 43
REMARK H PARENT 20 45
REMARK Flexibility Score: inf
ROOT
ATOM      1  C   UNL     1      17.135  30.753  31.900  1.00  0.00     0.184 C 
ATOM      2  C   UNL     1      18.107  30.842  30.694  1.00  0.00     0.178 C 
ATOM      3  O   UNL     1      18.038  29.679  29.876  1.00  0.00    -0.341 OA
ATOM      4  C   UNL     1      18.249  28.451  30.565  1.00  0.00     0.282 C 
ATOM      5  C   UNL     1      17.272  28.245  31.760  1.00  0.00     0.202 C 
ATOM      6  C   UNL     1      17.275  29.451  32.726  1.00  0.00     0.180 C 
ENDROOT
BRANCH   1   7
ATOM      7  O   UNL     1      16.878  31.994  32.556  1.00  0.00    -0.341 OA
BRANCH   7   8
ATOM      8  C   UNL     1      16.369  32.032  33.884  1.00  0.00     0.282 C 
ATOM      9  C   UNL     1      16.917  32.015  36.155  1.00  0.00     0.178 C 
ATOM     10  C   UNL     1      15.372  31.994  36.443  1.00  0.00     0.177 C 
ATOM     11  O   UNL     1      17.252  31.519  34.864  1.00  0.00    -0.341 OA
ATOM     12  C   UNL     1      14.584  31.079  35.468  1.00  0.00     0.179 C 
ATOM     13  C   UNL     1      14.990  31.339  33.985  1.00  0.00     0.202 C 
BRANCH   9  14
ATOM     14  C   UNL     1      17.772  31.283  37.206  1.00  0.00     0.191 C 
BRANCH  14  15
ATOM     15  O   UNL     1      17.310  29.981  37.434  1.00  0.00    -0.394 OA
ATOM     16  H   UNL     1      18.023  29.505  37.932  1.00  0.00     0.210 HD
ENDBRANCH  14  15
ENDBRANCH   9  14
BRANCH  10  17
ATOM     17  O   UNL     1      15.057  31.741  37.794  1.00  0.00    -0.387 OA
ATOM     18  H   UNL     1      15.716  32.214  38.363  1.00  0.00     0.211 HD
ENDBRANCH  10  17
BRANCH  12  19
ATOM     19  O   UNL     1      14.732  29.721  35.801  1.00  0.00    -0.387 OA
ATOM     20  H   UNL     1      14.983  29.233  34.978  1.00  0.00     0.211 HD
ENDBRANCH  12  19
BRANCH  13  21
ATOM     21  O   UNL     1      14.009  32.096  33.315  1.00  0.00    -0.385 OA
ATOM     22  H   UNL     1      14.024  33.015  33.693  1.00  0.00     0.211 HD
ENDBRANCH  13  21
ENDBRANCH   7   8
ENDBRANCH   1   7
BRANCH   2  23
ATOM     23  C   UNL     1      19.564  31.239  30.989  1.00  0.00     0.191 C 
BRANCH  23  24
ATOM     24  O   UNL     1      20.371  30.967  29.875  1.00  0.00    -0.394 OA
ATOM     25  H   UNL     1      21.307  30.954  30.203  1.00  0.00     0.210 HD
ENDBRANCH  23  24
ENDBRANCH   2  23
BRANCH   6  26
ATOM     26  O   UNL     1      18.455  29.433  33.480  1.00  0.00    -0.387 OA
ATOM     27  H   UNL     1      18.676  30.376  33.697  1.00  0.00     0.211 HD
ENDBRANCH   6  26
BRANCH   5  28
ATOM     28  O   UNL     1      15.964  27.965  31.317  1.00  0.00    -0.385 OA
ATOM     29  H   UNL     1      15.797  28.464  30.477  1.00  0.00     0.211 HD
ENDBRANCH   5  28
BRANCH   4  30
ATOM     30  O   UNL     1      19.607  28.339  30.977  1.00  0.00    -0.341 OA
BRANCH  30  31
ATOM     31  C   UNL     1      19.774  27.440  32.069  1.00  0.00     0.184 C 
ATOM     32  C   UNL     1      20.503  26.149  31.615  1.00  0.00     0.178 C 
ATOM     33  C   UNL     1      20.590  28.129  33.179  1.00  0.00     0.180 C 
ATOM     34  O   UNL     1      21.823  26.430  31.175  1.00  0.00    -0.342 OA
ATOM     35  C   UNL     1      22.087  28.236  32.816  1.00  0.00     0.201 C 
ATOM     36  C   UNL     1      22.635  26.908  32.234  1.00  0.00     0.279 C 
BRANCH  32  37
ATOM     37  C   UNL     1      19.752  25.423  30.489  1.00  0.00     0.191 C 
BRANCH  37  38
ATOM     38  O   UNL     1      18.462  25.066  30.909  1.00  0.00    -0.394 OA
ATOM     39  H   UNL     1      18.291  25.583  31.738  1.00  0.00     0.210 HD
ENDBRANCH  37  38
ENDBRANCH  32  37
BRANCH  33  40
ATOM     40  O   UNL     1      20.446  27.404  34.376  1.00  0.00    -0.387 OA
ATOM     41  H   UNL     1      20.241  26.465  34.126  1.00  0.00     0.211 HD
ENDBRANCH  33  40
BRANCH  35  42
ATOM     42  O   UNL     1      22.310  29.314  31.941  1.00  0.00    -0.385 OA
ATOM     43  H   UNL     1      22.784  30.033  32.434  1.00  0.00     0.211 HD
ENDBRANCH  35  42
BRANCH  36  44
ATOM     44  O   UNL     1      22.774  25.929  33.236  1.00  0.00    -0.366 OA
ATOM     45  H   UNL     1      22.976  26.410  34.081  1.00  0.00     0.213 HD
ENDBRANCH  36  44
ENDBRANCH  30  31
ENDBRANCH   4  30
TORSDOF 18
ENDMDL
MODEL 5
REMARK VINA RESULT:    -2.196      2.984      5.491
REMARK INTER + INTRA:          -5.932
REMARK INTER:                  -3.499
REMARK INTRA:                  -2.432
REMARK UNBOUND:                -2.132
REMARK SMILES OC[C@H]1O[C@@H](O[C@@H]2[C@H](O)[C@@H](O)[C@H](O[C@@H]3[C@@H](O)[C@H](O)[C@@H](O)O[C@@H]3CO)O[C@@H]2CO)[C@H](O)[C@@H](O)[C@H]1O
REMARK SMILES IDX 7 1 26 2 25 3 12 4 10 5 8 6 6 7 5 8 3 9 33 10 4 11 31 12
REMARK SMILES IDX 29 13 2 14 1 15 34 17 32 19 30 21 27 23 28 24 9 26 11 28
REMARK SMILES IDX 13 30 14 31 22 32 15 33 21 34 17 35 19 36 23 37 24 38 16 40
REMARK SMILES IDX 18 42 20 44
REMARK H PARENT 1 16 34 18 32 20 30 22 28 25 9 27 11 29 24 39 16 41 18 43
REMARK H PARENT 20 45
REMARK Flexibility Score: inf
ROOT
ATOM      1  C   UNL     1      16.005  31.398  37.126  1.00  0.00     0.184 C 
ATOM      2  C   UNL     1      16.596  32.071  35.857  1.00  0.00     0.178 C 
ATOM      3  O   UNL     1      15.996  31.568  34.668  1.00  0.00    -0.341 OA
ATOM      4  C   UNL     1      16.051  30.152  34.524  1.00  0.00     0.282 C 
ATOM      5  C   UNL     1      15.421  29.391  35.727  1.00  0.00     0.202 C 
ATOM      6  C   UNL     1      16.012  29.852  37.079  1.00  0.00     0.180 C 
ENDROOT
BRANCH   1   7
ATOM      7  O   UNL     1      16.281  32.081  38.348  1.00  0.00    -0.341 OA
BRANCH   7   8
ATOM      8  C   UNL     1      16.284  31.388  39.592  1.00  0.00     0.282 C 
ATOM      9  C   UNL     1      15.065  30.897  41.523  1.00  0.00     0.178 C 
ATOM     10  C   UNL     1      16.343  30.139  42.037  1.00  0.00     0.177 C 
ATOM     11  O   UNL     1      15.359  31.883  40.540  1.00  0.00    -0.341 OA
ATOM     12  C   UNL     1      17.666  30.877  41.697  1.00  0.00     0.179 C 
ATOM     13  C   UNL     1      17.704  31.325  40.204  1.00  0.00     0.202 C 
BRANCH   9  14
ATOM     14  C   UNL     1      14.215  31.540  42.634  1.00  0.00     0.191 C 
BRANCH  14  15
ATOM     15  O   UNL     1      13.876  30.616  43.630  1.00  0.00    -0.394 OA
ATOM     16  H   UNL     1      13.447  29.846  43.175  1.00  0.00     0.210 HD
ENDBRANCH  14  15
ENDBRANCH   9  14
BRANCH  10  17
ATOM     17  O   UNL     1      16.266  29.768  43.395  1.00  0.00    -0.387 OA
ATOM     18  H   UNL     1      16.997  30.220  43.885  1.00  0.00     0.211 HD
ENDBRANCH  10  17
BRANCH  12  19
ATOM     19  O   UNL     1      17.885  31.967  42.558  1.00  0.00    -0.387 OA
ATOM     20  H   UNL     1      17.984  32.777  42.000  1.00  0.00     0.211 HD
ENDBRANCH  12  19
BRANCH  13  21
ATOM     21  O   UNL     1      18.532  30.481  39.440  1.00  0.00    -0.385 OA
ATOM     22  H   UNL     1      19.104  29.967  40.069  1.00  0.00     0.211 HD
ENDBRANCH  13  21
ENDBRANCH   7   8
ENDBRANCH   1   7
BRANCH   2  23
ATOM     23  C   UNL     1      18.128  32.125  35.737  1.00  0.00     0.191 C 
BRANCH  23  24
ATOM     24  O   UNL     1      18.715  32.011  37.005  1.00  0.00    -0.394 OA
ATOM     25  H   UNL     1      19.549  32.548  36.979  1.00  0.00     0.210 HD
ENDBRANCH  23  24
ENDBRANCH   2  23
BRANCH   6  26
ATOM     26  O   UNL     1      17.304  29.328  37.218  1.00  0.00    -0.387 OA
ATOM     27  H   UNL     1      17.297  28.749  38.023  1.00  0.00     0.211 HD
ENDBRANCH   6  26
BRANCH   5  28
ATOM     28  O   UNL     1      14.016  29.503  35.735  1.00  0.00    -0.385 OA
ATOM     29  H   UNL     1      13.770  30.414  36.042  1.00  0.00     0.211 HD
ENDBRANCH   5  28
BRANCH   4  30
ATOM     30  O   UNL     1      17.388  29.729  34.281  1.00  0.00    -0.341 OA
BRANCH  30  31
ATOM     31  C   UNL     1      17.488  28.855  33.160  1.00  0.00     0.184 C 
ATOM     32  C   UNL     1      18.107  29.589  31.943  1.00  0.00     0.178 C 
ATOM     33  C   UNL     1      18.365  27.644  33.532  1.00  0.00     0.180 C 
ATOM     34  O   UNL     1      19.443  29.990  32.206  1.00  0.00    -0.342 OA
ATOM     35  C   UNL     1      19.863  28.011  33.596  1.00  0.00     0.201 C 
ATOM     36  C   UNL     1      20.298  28.873  32.384  1.00  0.00     0.279 C 
BRANCH  32  37
ATOM     37  C   UNL     1      17.292  30.824  31.533  1.00  0.00     0.191 C 
BRANCH  37  38
ATOM     38  O   UNL     1      17.738  31.960  32.225  1.00  0.00    -0.394 OA
ATOM     39  H   UNL     1      16.988  32.609  32.199  1.00  0.00     0.210 HD
ENDBRANCH  37  38
ENDBRANCH  32  37
BRANCH  33  40
ATOM     40  O   UNL     1      18.169  26.624  32.582  1.00  0.00    -0.387 OA
ATOM     41  H   UNL     1      18.600  26.924  31.739  1.00  0.00     0.211 HD
ENDBRANCH  33  40
BRANCH  35  42
ATOM     42  O   UNL     1      20.167  28.644  34.815  1.00  0.00    -0.385 OA
ATOM     43  H   UNL     1      19.905  28.044  35.561  1.00  0.00     0.211 HD
ENDBRANCH  35  42
BRANCH  36  44
ATOM     44  O   UNL     1      20.363  28.105  31.207  1.00  0.00    -0.366 OA
ATOM     45  H   UNL     1      21.183  27.548  31.272  1.00  0.00     0.213 HD
ENDBRANCH  36  44
ENDBRANCH  30  31
ENDBRANCH   4  30
TORSDOF 18
ENDMDL
MODEL 6
REMARK VINA RESULT:    -2.060     10.727     15.248
REMARK INTER + INTRA:          -5.698
REMARK INTER:                  -3.725
REMARK INTRA:                  -1.973
REMARK UNBOUND:                -2.132
REMARK SMILES OC[C@H]1O[C@@H](O[C@@H]2[C@H](O)[C@@H](O)[C@H](O[C@@H]3[C@@H](O)[C@H](O)[C@@H](O)O[C@@H]3CO)O[C@@H]2CO)[C@H](O)[C@@H](O)[C@H]1O
REMARK SMILES IDX 7 1 26 2 25 3 12 4 10 5 8 6 6 7 5 8 3 9 33 10 4 11 31 12
REMARK SMILES IDX 29 13 2 14 1 15 34 17 32 19 30 21 27 23 28 24 9 26 11 28
REMARK SMILES IDX 13 30 14 31 22 32 15 33 21 34 17 35 19 36 23 37 24 38 16 40
REMARK SMILES IDX 18 42 20 44
REMARK H PARENT 1 16 34 18 32 20 30 22 28 25 9 27 11 29 24 39 16 41 18 43
REMARK H PARENT 20 45
REMARK Flexibility Score: inf
ROOT
ATOM      1  C   UNL     1      21.747  30.476  45.920  1.00  0.00     0.184 C 
ATOM      2  C   UNL     1      21.115  31.152  44.674  1.00  0.00     0.178 C 
ATOM      3  O   UNL     1      20.142  32.125  45.041  1.00  0.00    -0.341 OA
ATOM      4  C   UNL     1      19.109  31.643  45.895  1.00  0.00     0.282 C 
ATOM      5  C   UNL     1      19.650  31.001  47.206  1.00  0.00     0.202 C 
ATOM      6  C   UNL     1      20.713  29.915  46.924  1.00  0.00     0.180 C 
ENDROOT
BRANCH   1   7
ATOM      7  O   UNL     1      22.959  29.766  45.666  1.00  0.00    -0.341 OA
BRANCH   7   8
ATOM      8  C   UNL     1      24.044  29.812  46.585  1.00  0.00     0.282 C 
ATOM      9  C   UNL     1      25.270  28.618  48.176  1.00  0.00     0.178 C 
ATOM     10  C   UNL     1      26.070  29.946  48.436  1.00  0.00     0.177 C 
ATOM     11  O   UNL     1      23.982  28.843  47.613  1.00  0.00    -0.341 OA
ATOM     12  C   UNL     1      25.170  31.210  48.424  1.00  0.00     0.179 C 
ATOM     13  C   UNL     1      24.221  31.227  47.187  1.00  0.00     0.202 C 
BRANCH   9  14
ATOM     14  C   UNL     1      25.121  27.711  49.411  1.00  0.00     0.191 C 
BRANCH  14  15
ATOM     15  O   UNL     1      25.114  26.355  49.061  1.00  0.00    -0.394 OA
ATOM     16  H   UNL     1      25.755  26.246  48.313  1.00  0.00     0.210 HD
ENDBRANCH  14  15
ENDBRANCH   9  14
BRANCH  10  17
ATOM     17  O   UNL     1      26.902  29.886  49.572  1.00  0.00    -0.387 OA
ATOM     18  H   UNL     1      26.586  29.148  50.152  1.00  0.00     0.211 HD
ENDBRANCH  10  17
BRANCH  12  19
ATOM     19  O   UNL     1      24.442  31.337  49.621  1.00  0.00    -0.387 OA
ATOM     20  H   UNL     1      24.448  32.292  49.878  1.00  0.00     0.211 HD
ENDBRANCH  12  19
BRANCH  13  21
ATOM     21  O   UNL     1      24.681  32.125  46.205  1.00  0.00    -0.385 OA
ATOM     22  H   UNL     1      25.580  32.445  46.483  1.00  0.00     0.211 HD
ENDBRANCH  13  21
ENDBRANCH   7   8
ENDBRANCH   1   7
BRANCH   2  23
ATOM     23  C   UNL     1      20.598  30.230  43.557  1.00  0.00     0.191 C 
BRANCH  23  24
ATOM     24  O   UNL     1      20.201  30.993  42.450  1.00  0.00    -0.394 OA
ATOM     25  H   UNL     1      20.846  31.743  42.379  1.00  0.00     0.210 HD
ENDBRANCH  23  24
ENDBRANCH   2  23
BRANCH   6  26
ATOM     26  O   UNL     1      20.076  28.767  46.435  1.00  0.00    -0.387 OA
ATOM     27  H   UNL     1      19.684  29.005  45.556  1.00  0.00     0.211 HD
ENDBRANCH   6  26
BRANCH   5  28
ATOM     28  O   UNL     1      20.157  31.975  48.090  1.00  0.00    -0.385 OA
ATOM     29  H   UNL     1      20.920  31.586  48.591  1.00  0.00     0.211 HD
ENDBRANCH   5  28
BRANCH   4  30
ATOM     30  O   UNL     1      18.257  30.748  45.189  1.00  0.00    -0.341 OA
BRANCH  30  31
ATOM     31  C   UNL     1      16.930  31.249  45.057  1.00  0.00     0.184 C 
ATOM     32  C   UNL     1      16.164  30.494  43.940  1.00  0.00     0.178 C 
ATOM     33  C   UNL     1      16.184  31.083  46.395  1.00  0.00     0.180 C 
ATOM     34  O   UNL     1      16.000  29.122  44.263  1.00  0.00    -0.342 OA
ATOM     35  C   UNL     1      15.788  29.614  46.659  1.00  0.00     0.201 C 
ATOM     36  C   UNL     1      15.173  28.949  45.402  1.00  0.00     0.279 C 
BRANCH  32  37
ATOM     37  C   UNL     1      16.868  30.600  42.579  1.00  0.00     0.191 C 
BRANCH  37  38
ATOM     38  O   UNL     1      17.451  31.866  42.423  1.00  0.00    -0.394 OA
ATOM     39  H   UNL     1      17.268  32.357  43.266  1.00  0.00     0.210 HD
ENDBRANCH  37  38
ENDBRANCH  32  37
BRANCH  33  40
ATOM     40  O   UNL     1      15.031  31.889  46.384  1.00  0.00    -0.387 OA
ATOM     41  H   UNL     1      14.945  32.262  45.468  1.00  0.00     0.211 HD
ENDBRANCH  33  40
BRANCH  35  42
ATOM     42  O   UNL     1      16.886  28.882  47.144  1.00  0.00    -0.385 OA
ATOM     43  H   UNL     1      16.657  27.916  47.131  1.00  0.00     0.211 HD
ENDBRANCH  35  42
BRANCH  36  44
ATOM     44  O   UNL     1      13.875  29.432  45.150  1.00  0.00    -0.366 OA
ATOM     45  H   UNL     1      13.965  30.394  44.923  1.00  0.00     0.213 HD
ENDBRANCH  36  44
ENDBRANCH  30  31
ENDBRANCH   4  30
TORSDOF 18
ENDMDL
MODEL 7
REMARK VINA RESULT:    -1.421      6.597     12.269
REMARK INTER + INTRA:          -4.591
REMARK INTER:                  -3.864
REMARK INTRA:                  -0.727
REMARK UNBOUND:                -2.132
REMARK SMILES OC[C@H]1O[C@@H](O[C@@H]2[C@H](O)[C@@H](O)[C@H](O[C@@H]3[C@@H](O)[C@H](O)[C@@H](O)O[C@@H]3CO)O[C@@H]2CO)[C@H](O)[C@@H](O)[C@H]1O
REMARK SMILES IDX 7 1 26 2 25 3 12 4 10 5 8 6 6 7 5 8 3 9 33 10 4 11 31 12
REMARK SMILES IDX 29 13 2 14 1 15 34 17 32 19 30 21 27 23 28 24 9 26 11 28
REMARK SMILES IDX 13 30 14 31 22 32 15 33 21 34 17 35 19 36 23 37 24 38 16 40
REMARK SMILES IDX 18 42 20 44
REMARK H PARENT 1 16 34 18 32 20 30 22 28 25 9 27 11 29 24 39 16 41 18 43
REMARK H PARENT 20 45
REMARK Flexibility Score: inf
ROOT
ATOM      1  C   UNL     1      16.487  31.382  41.514  1.00  0.00     0.184 C 
ATOM      2  C   UNL     1      16.021  32.106  42.806  1.00  0.00     0.178 C 
ATOM      3  O   UNL     1      17.045  32.125  43.795  1.00  0.00    -0.341 OA
ATOM      4  C   UNL     1      17.573  30.846  44.132  1.00  0.00     0.282 C 
ATOM      5  C   UNL     1      18.124  30.069  42.901  1.00  0.00     0.202 C 
ATOM      6  C   UNL     1      17.084  29.976  41.761  1.00  0.00     0.180 C 
ENDROOT
BRANCH   1   7
ATOM      7  O   UNL     1      15.675  31.625  40.366  1.00  0.00    -0.341 OA
BRANCH   7   8
ATOM      8  C   UNL     1      16.222  31.570  39.053  1.00  0.00     0.282 C 
ATOM      9  C   UNL     1      15.741  31.399  36.774  1.00  0.00     0.178 C 
ATOM     10  C   UNL     1      17.293  31.352  36.534  1.00  0.00     0.177 C 
ATOM     11  O   UNL     1      15.366  30.994  38.086  1.00  0.00    -0.341 OA
ATOM     12  C   UNL     1      18.047  30.504  37.592  1.00  0.00     0.179 C 
ATOM     13  C   UNL     1      17.601  30.866  39.041  1.00  0.00     0.202 C 
BRANCH   9  14
ATOM     14  C   UNL     1      14.913  30.599  35.752  1.00  0.00     0.191 C 
BRANCH  14  15
ATOM     15  O   UNL     1      15.495  29.357  35.469  1.00  0.00    -0.394 OA
ATOM     16  H   UNL     1      15.536  28.856  36.323  1.00  0.00     0.210 HD
ENDBRANCH  14  15
ENDBRANCH   9  14
BRANCH  10  17
ATOM     17  O   UNL     1      17.646  31.006  35.213  1.00  0.00    -0.387 OA
ATOM     18  H   UNL     1      17.762  30.024  35.168  1.00  0.00     0.211 HD
ENDBRANCH  10  17
BRANCH  12  19
ATOM     19  O   UNL     1      17.901  29.126  37.348  1.00  0.00    -0.387 OA
ATOM     20  H   UNL     1      16.935  28.934  37.274  1.00  0.00     0.211 HD
ENDBRANCH  12  19
BRANCH  13  21
ATOM     21  O   UNL     1      18.565  31.664  39.686  1.00  0.00    -0.385 OA
ATOM     22  H   UNL     1      19.342  31.757  39.073  1.00  0.00     0.211 HD
ENDBRANCH  13  21
ENDBRANCH   7   8
ENDBRANCH   1   7
BRANCH   2  23
ATOM     23  C   UNL     1      14.668  31.685  43.402  1.00  0.00     0.191 C 
BRANCH  23  24
ATOM     24  O   UNL     1      13.976  30.871  42.495  1.00  0.00    -0.394 OA
ATOM     25  H   UNL     1      14.193  31.211  41.588  1.00  0.00     0.210 HD
ENDBRANCH  23  24
ENDBRANCH   2  23
BRANCH   6  26
ATOM     26  O   UNL     1      16.100  29.043  42.112  1.00  0.00    -0.387 OA
ATOM     27  H   UNL     1      15.241  29.536  42.177  1.00  0.00     0.211 HD
ENDBRANCH   6  26
BRANCH   5  28
ATOM     28  O   UNL     1      19.328  30.628  42.430  1.00  0.00    -0.385 OA
ATOM     29  H   UNL     1      19.149  31.548  42.106  1.00  0.00     0.211 HD
ENDBRANCH   5  28
BRANCH   4  30
ATOM     30  O   UNL     1      16.606  30.080  44.843  1.00  0.00    -0.341 OA
BRANCH  30  31
ATOM     31  C   UNL     1      16.108  30.762  45.991  1.00  0.00     0.184 C 
ATOM     32  C   UNL     1      15.060  29.895  46.735  1.00  0.00     0.178 C 
ATOM     33  C   UNL     1      17.276  31.087  46.941  1.00  0.00     0.180 C 
ATOM     34  O   UNL     1      15.643  28.707  47.247  1.00  0.00    -0.342 OA
ATOM     35  C   UNL     1      17.778  29.834  47.691  1.00  0.00     0.201 C 
ATOM     36  C   UNL     1      16.606  28.988  48.250  1.00  0.00     0.279 C 
BRANCH  32  37
ATOM     37  C   UNL     1      13.875  29.514  45.834  1.00  0.00     0.191 C 
BRANCH  37  38
ATOM     38  O   UNL     1      14.305  28.714  44.766  1.00  0.00    -0.394 OA
ATOM     39  H   UNL     1      13.589  28.043  44.620  1.00  0.00     0.210 HD
ENDBRANCH  37  38
ENDBRANCH  32  37
BRANCH  33  40
ATOM     40  O   UNL     1      16.859  32.057  47.870  1.00  0.00    -0.387 OA
ATOM     41  H   UNL     1      17.670  32.368  48.352  1.00  0.00     0.211 HD
ENDBRANCH  33  40
BRANCH  35  42
ATOM     42  O   UNL     1      18.621  29.066  46.867  1.00  0.00    -0.385 OA
ATOM     43  H   UNL     1      19.565  29.259  47.109  1.00  0.00     0.211 HD
ENDBRANCH  35  42
BRANCH  36  44
ATOM     44  O   UNL     1      16.003  29.616  49.355  1.00  0.00    -0.366 OA
ATOM     45  H   UNL     1      16.258  30.575  49.315  1.00  0.00     0.213 HD
ENDBRANCH  36  44
ENDBRANCH  30  31
ENDBRANCH   4  30
TORSDOF 18
ENDMDL
MODEL 8
REMARK VINA RESULT:    -1.356      0.880      2.087
REMARK INTER + INTRA:          -4.478
REMARK INTER:                  -5.690
REMARK INTRA:                   1.211
REMARK UNBOUND:                -2.132
REMARK SMILES OC[C@H]1O[C@@H](O[C@@H]2[C@H](O)[C@@H](O)[C@H](O[C@@H]3[C@@H](O)[C@H](O)[C@@H](O)O[C@@H]3CO)O[C@@H]2CO)[C@H](O)[C@@H](O)[C@H]1O
REMARK SMILES IDX 7 1 26 2 25 3 12 4 10 5 8 6 6 7 5 8 3 9 33 10 4 11 31 12
REMARK SMILES IDX 29 13 2 14 1 15 34 17 32 19 30 21 27 23 28 24 9 26 11 28
REMARK SMILES IDX 13 30 14 31 22 32 15 33 21 34 17 35 19 36 23 37 24 38 16 40
REMARK SMILES IDX 18 42 20 44
REMARK H PARENT 1 16 34 18 32 20 30 22 28 25 9 27 11 29 24 39 16 41 18 43
REMARK H PARENT 20 45
REMARK Flexibility Score: inf
ROOT
ATOM      1  C   UNL     1      18.259  30.472  32.274  1.00  0.00     0.184 C 
ATOM      2  C   UNL     1      18.076  29.023  32.801  1.00  0.00     0.178 C 
ATOM      3  O   UNL     1      19.268  28.259  32.660  1.00  0.00    -0.341 OA
ATOM      4  C   UNL     1      19.800  28.219  31.340  1.00  0.00     0.282 C 
ATOM      5  C   UNL     1      20.076  29.633  30.750  1.00  0.00     0.202 C 
ATOM      6  C   UNL     1      18.836  30.551  30.840  1.00  0.00     0.180 C 
ENDROOT
BRANCH   1   7
ATOM      7  O   UNL     1      17.254  31.394  32.695  1.00  0.00    -0.341 OA
BRANCH   7   8
ATOM      8  C   UNL     1      16.872  31.490  34.062  1.00  0.00     0.282 C 
ATOM      9  C   UNL     1      17.575  31.247  36.277  1.00  0.00     0.178 C 
ATOM     10  C   UNL     1      16.095  31.571  36.695  1.00  0.00     0.177 C 
ATOM     11  O   UNL     1      17.683  30.745  34.950  1.00  0.00    -0.341 OA
ATOM     12  C   UNL     1      15.042  30.908  35.768  1.00  0.00     0.179 C 
ATOM     13  C   UNL     1      15.381  31.132  34.263  1.00  0.00     0.202 C 
BRANCH   9  14
ATOM     14  C   UNL     1      18.313  30.292  37.232  1.00  0.00     0.191 C 
BRANCH  14  15
ATOM     15  O   UNL     1      17.593  29.109  37.442  1.00  0.00    -0.394 OA
ATOM     16  H   UNL     1      18.104  28.379  37.009  1.00  0.00     0.210 HD
ENDBRANCH  14  15
ENDBRANCH   9  14
BRANCH  10  17
ATOM     17  O   UNL     1      15.835  31.339  38.062  1.00  0.00    -0.387 OA
ATOM     18  H   UNL     1      15.072  31.907  38.336  1.00  0.00     0.211 HD
ENDBRANCH  10  17
BRANCH  12  19
ATOM     19  O   UNL     1      14.893  29.538  36.055  1.00  0.00    -0.387 OA
ATOM     20  H   UNL     1      15.117  29.404  37.008  1.00  0.00     0.211 HD
ENDBRANCH  12  19
BRANCH  13  21
ATOM     21  O   UNL     1      14.556  32.124  33.698  1.00  0.00    -0.385 OA
ATOM     22  H   UNL     1      14.631  32.938  34.263  1.00  0.00     0.211 HD
ENDBRANCH  13  21
ENDBRANCH   7   8
ENDBRANCH   1   7
BRANCH   2  23
ATOM     23  C   UNL     1      16.844  28.244  32.310  1.00  0.00     0.191 C 
BRANCH  23  24
ATOM     24  O   UNL     1      15.985  29.098  31.604  1.00  0.00    -0.394 OA
ATOM     25  H   UNL     1      15.483  28.527  30.966  1.00  0.00     0.210 HD
ENDBRANCH  23  24
ENDBRANCH   2  23
BRANCH   6  26
ATOM     26  O   UNL     1      17.900  30.155  29.875  1.00  0.00    -0.387 OA
ATOM     27  H   UNL     1      18.228  29.303  29.486  1.00  0.00     0.211 HD
ENDBRANCH   6  26
BRANCH   5  28
ATOM     28  O   UNL     1      21.191  30.242  31.360  1.00  0.00    -0.385 OA
ATOM     29  H   UNL     1      21.940  30.261  30.711  1.00  0.00     0.211 HD
ENDBRANCH   5  28
BRANCH   4  30
ATOM     30  O   UNL     1      18.956  27.453  30.487  1.00  0.00    -0.341 OA
BRANCH  30  31
ATOM     31  C   UNL     1      19.580  26.254  30.036  1.00  0.00     0.184 C 
ATOM     32  C   UNL     1      21.061  26.197  30.495  1.00  0.00     0.178 C 
ATOM     33  C   UNL     1      18.820  25.038  30.598  1.00  0.00     0.180 C 
ATOM     34  O   UNL     1      21.161  26.145  31.909  1.00  0.00    -0.342 OA
ATOM     35  C   UNL     1      19.101  24.823  32.101  1.00  0.00     0.201 C 
ATOM     36  C   UNL     1      20.612  24.945  32.428  1.00  0.00     0.279 C 
BRANCH  32  37
ATOM     37  C   UNL     1      21.873  27.397  29.986  1.00  0.00     0.191 C 
BRANCH  37  38
ATOM     38  O   UNL     1      22.972  27.639  30.823  1.00  0.00    -0.394 OA
ATOM     39  H   UNL     1      23.772  27.620  30.237  1.00  0.00     0.210 HD
ENDBRANCH  37  38
ENDBRANCH  32  37
BRANCH  33  40
ATOM     40  O   UNL     1      19.192  23.888  29.878  1.00  0.00    -0.387 OA
ATOM     41  H   UNL     1      18.567  23.808  29.112  1.00  0.00     0.211 HD
ENDBRANCH  33  40
BRANCH  35  42
ATOM     42  O   UNL     1      18.332  25.704  32.882  1.00  0.00    -0.385 OA
ATOM     43  H   UNL     1      18.659  25.667  33.819  1.00  0.00     0.211 HD
ENDBRANCH  35  42
BRANCH  36  44
ATOM     44  O   UNL     1      21.328  23.828  31.960  1.00  0.00    -0.366 OA
ATOM     45  H   UNL     1      22.237  24.149  31.719  1.00  0.00     0.213 HD
ENDBRANCH  36  44
ENDBRANCH  30  31
ENDBRANCH   4  30
TORSDOF 18
ENDMDL
