MODEL 1
REMARK VINA RESULT:    -6.848      0.000      0.000
REMARK INTER + INTRA:          -8.349
REMARK INTER:                  -8.049
REMARK INTRA:                  -0.300
REMARK UNBOUND:                -0.300
REMARK SMILES O=c1cc(-c2ccc(O)c(O)c2)oc2cc(O)cc(O)c12
REMARK SMILES IDX 4 1 3 2 2 3 1 4 21 5 19 6 18 7 16 8 15 9 14 10 13 11 5 12
REMARK SMILES IDX 6 13 7 14 8 15 12 16 10 17 9 18 11 20 20 22 17 24
REMARK H PARENT 9 19 11 21 20 23 17 25
REMARK Flexibility Score: inf
ROOT
ATOM      1  C   UNL     1     169.338 143.841 153.474  1.00  0.00     0.138 A 
ATOM      2  C   UNL     1     169.440 145.167 153.034  1.00  0.00     0.100 A 
ATOM      3  C   UNL     1     169.894 145.433 151.741  1.00  0.00     0.197 A 
ATOM      4  O   UNL     1     170.028 146.635 151.396  1.00  0.00    -0.289 OA
ATOM      5  C   UNL     1     170.212 144.361 150.873  1.00  0.00     0.107 A 
ATOM      6  C   UNL     1     170.651 144.511 149.522  1.00  0.00     0.134 A 
ATOM      7  C   UNL     1     171.032 143.378 148.792  1.00  0.00     0.093 A 
ATOM      8  C   UNL     1     170.934 142.100 149.340  1.00  0.00     0.123 A 
ATOM      9  C   UNL     1     170.459 141.938 150.642  1.00  0.00     0.094 A 
ATOM     10  C   UNL     1     170.104 143.051 151.408  1.00  0.00     0.146 A 
ATOM     11  O   UNL     1     169.673 142.854 152.650  1.00  0.00    -0.456 OA
ENDROOT
BRANCH   1  12
ATOM     12  C   UNL     1     168.858 143.501 154.837  1.00  0.00     0.021 A 
ATOM     13  C   UNL     1     169.209 144.274 155.961  1.00  0.00     0.016 A 
ATOM     14  C   UNL     1     168.751 143.924 157.233  1.00  0.00     0.051 A 
ATOM     15  C   UNL     1     167.943 142.793 157.408  1.00  0.00     0.157 A 
ATOM     16  C   UNL     1     168.057 142.359 155.024  1.00  0.00     0.062 A 
ATOM     17  C   UNL     1     167.597 142.008 156.302  1.00  0.00     0.158 A 
BRANCH  15  18
ATOM     18  O   UNL     1     167.484 142.442 158.676  1.00  0.00    -0.504 OA
ATOM     19  H   UNL     1     167.195 143.143 159.348  1.00  0.00     0.293 HD
ENDBRANCH  15  18
BRANCH  17  20
ATOM     20  O   UNL     1     166.796 140.881 156.478  1.00  0.00    -0.504 OA
ATOM     21  H   UNL     1     166.342 140.685 157.362  1.00  0.00     0.293 HD
ENDBRANCH  17  20
ENDBRANCH   1  12
BRANCH   6  22
ATOM     22  O   UNL     1     170.712 145.734 148.848  1.00  0.00    -0.507 OA
ATOM     23  H   UNL     1     170.296 146.595 149.170  1.00  0.00     0.293 HD
ENDBRANCH   6  22
BRANCH   8  24
ATOM     24  O   UNL     1     171.307 140.995 148.577  1.00  0.00    -0.508 OA
ATOM     25  H   UNL     1     171.285 140.056 148.959  1.00  0.00     0.293 HD
ENDBRANCH   8  24
TORSDOF 5
ENDMDL
MODEL 2
REMARK VINA RESULT:    -6.843      1.554      3.125
REMARK INTER + INTRA:          -8.343
REMARK INTER:                  -8.050
REMARK INTRA:                  -0.293
REMARK UNBOUND:                -0.300
REMARK SMILES O=c1cc(-c2ccc(O)c(O)c2)oc2cc(O)cc(O)c12
REMARK SMILES IDX 4 1 3 2 2 3 1 4 21 5 19 6 18 7 16 8 15 9 14 10 13 11 5 12
REMARK SMILES IDX 6 13 7 14 8 15 12 16 10 17 9 18 11 20 20 22 17 24
REMARK H PARENT 9 19 11 21 20 23 17 25
REMARK Flexibility Score: inf
ROOT
ATOM      1  C   UNL     1     170.130 143.560 152.078  1.00  0.00     0.138 A 
ATOM      2  C   UNL     1     170.663 142.301 151.774  1.00  0.00     0.100 A 
ATOM      3  C   UNL     1     171.382 142.123 150.591  1.00  0.00     0.197 A 
ATOM      4  O   UNL     1     171.799 140.968 150.319  1.00  0.00    -0.289 OA
ATOM      5  C   UNL     1     171.598 143.223 149.727  1.00  0.00     0.107 A 
ATOM      6  C   UNL     1     172.346 143.169 148.511  1.00  0.00     0.134 A 
ATOM      7  C   UNL     1     172.408 144.301 147.689  1.00  0.00     0.093 A 
ATOM      8  C   UNL     1     171.802 145.499 148.064  1.00  0.00     0.123 A 
ATOM      9  C   UNL     1     171.111 145.578 149.275  1.00  0.00     0.094 A 
ATOM     10  C   UNL     1     171.002 144.456 150.100  1.00  0.00     0.146 A 
ATOM     11  O   UNL     1     170.321 144.569 151.235  1.00  0.00    -0.456 OA
ENDROOT
BRANCH   1  12
ATOM     12  C   UNL     1     169.360 143.806 153.324  1.00  0.00     0.021 A 
ATOM     13  C   UNL     1     169.084 145.109 153.779  1.00  0.00     0.016 A 
ATOM     14  C   UNL     1     168.365 145.310 154.961  1.00  0.00     0.051 A 
ATOM     15  C   UNL     1     167.919 144.216 155.711  1.00  0.00     0.157 A 
ATOM     16  C   UNL     1     168.919 142.713 154.092  1.00  0.00     0.062 A 
ATOM     17  C   UNL     1     168.198 142.914 155.278  1.00  0.00     0.158 A 
BRANCH  15  18
ATOM     18  O   UNL     1     167.201 144.413 156.890  1.00  0.00    -0.504 OA
ATOM     19  H   UNL     1     166.334 143.921 157.071  1.00  0.00     0.293 HD
ENDBRANCH  15  18
BRANCH  17  20
ATOM     20  O   UNL     1     167.756 141.826 156.028  1.00  0.00    -0.504 OA
ATOM     21  H   UNL     1     167.141 141.945 156.824  1.00  0.00     0.293 HD
ENDBRANCH  17  20
ENDBRANCH   1  12
BRANCH   6  22
ATOM     22  O   UNL     1     173.057 142.047 148.077  1.00  0.00    -0.507 OA
ATOM     23  H   UNL     1     173.845 142.066 147.448  1.00  0.00     0.293 HD
ENDBRANCH   6  22
BRANCH   8  24
ATOM     24  O   UNL     1     171.898 146.609 147.228  1.00  0.00    -0.508 OA
ATOM     25  H   UNL     1     171.714 147.546 147.568  1.00  0.00     0.293 HD
ENDBRANCH   8  24
TORSDOF 5
ENDMDL
MODEL 3
REMARK VINA RESULT:    -6.691      1.602      7.049
REMARK INTER + INTRA:          -8.165
REMARK INTER:                  -7.873
REMARK INTRA:                  -0.291
REMARK UNBOUND:                -0.300
REMARK SMILES O=c1cc(-c2ccc(O)c(O)c2)oc2cc(O)cc(O)c12
REMARK SMILES IDX 4 1 3 2 2 3 1 4 21 5 19 6 18 7 16 8 15 9 14 10 13 11 5 12
REMARK SMILES IDX 6 13 7 14 8 15 12 16 10 17 9 18 11 20 20 22 17 24
REMARK H PARENT 9 19 11 21 20 23 17 25
REMARK Flexibility Score: inf
ROOT
ATOM      1  C   UNL     1     170.054 144.550 152.432  1.00  0.00     0.138 A 
ATOM      2  C   UNL     1     170.559 145.518 153.311  1.00  0.00     0.100 A 
ATOM      3  C   UNL     1     170.253 145.442 154.670  1.00  0.00     0.197 A 
ATOM      4  O   UNL     1     170.673 146.358 155.424  1.00  0.00    -0.289 OA
ATOM      5  C   UNL     1     169.466 144.370 155.157  1.00  0.00     0.107 A 
ATOM      6  C   UNL     1     169.119 144.171 156.527  1.00  0.00     0.134 A 
ATOM      7  C   UNL     1     168.252 143.128 156.874  1.00  0.00     0.093 A 
ATOM      8  C   UNL     1     167.768 142.242 155.913  1.00  0.00     0.123 A 
ATOM      9  C   UNL     1     168.141 142.397 154.577  1.00  0.00     0.094 A 
ATOM     10  C   UNL     1     168.977 143.449 154.194  1.00  0.00     0.146 A 
ATOM     11  O   UNL     1     169.293 143.571 152.909  1.00  0.00    -0.456 OA
ENDROOT
BRANCH   1  12
ATOM     12  C   UNL     1     170.351 144.580 150.978  1.00  0.00     0.021 A 
ATOM     13  C   UNL     1     170.174 143.445 150.162  1.00  0.00     0.016 A 
ATOM     14  C   UNL     1     170.472 143.500 148.798  1.00  0.00     0.051 A 
ATOM     15  C   UNL     1     170.958 144.683 148.227  1.00  0.00     0.157 A 
ATOM     16  C   UNL     1     170.853 145.759 150.398  1.00  0.00     0.062 A 
ATOM     17  C   UNL     1     171.152 145.814 149.029  1.00  0.00     0.158 A 
BRANCH  15  18
ATOM     18  O   UNL     1     171.255 144.741 146.867  1.00  0.00    -0.504 OA
ATOM     19  H   UNL     1     171.222 145.614 146.353  1.00  0.00     0.293 HD
ENDBRANCH  15  18
BRANCH  17  20
ATOM     20  O   UNL     1     171.639 146.989 148.460  1.00  0.00    -0.504 OA
ATOM     21  H   UNL     1     172.606 147.078 148.173  1.00  0.00     0.293 HD
ENDBRANCH  17  20
ENDBRANCH   1  12
BRANCH   6  22
ATOM     22  O   UNL     1     169.609 144.948 157.581  1.00  0.00    -0.507 OA
ATOM     23  H   UNL     1     170.155 145.790 157.476  1.00  0.00     0.293 HD
ENDBRANCH   6  22
BRANCH   8  24
ATOM     24  O   UNL     1     166.921 141.205 156.298  1.00  0.00    -0.508 OA
ATOM     25  H   UNL     1     166.734 140.418 155.687  1.00  0.00     0.293 HD
ENDBRANCH   8  24
TORSDOF 5
ENDMDL
MODEL 4
REMARK VINA RESULT:    -6.680      1.748      7.403
REMARK INTER + INTRA:          -8.151
REMARK INTER:                  -7.857
REMARK INTRA:                  -0.295
REMARK UNBOUND:                -0.300
REMARK SMILES O=c1cc(-c2ccc(O)c(O)c2)oc2cc(O)cc(O)c12
REMARK SMILES IDX 4 1 3 2 2 3 1 4 21 5 19 6 18 7 16 8 15 9 14 10 13 11 5 12
REMARK SMILES IDX 6 13 7 14 8 15 12 16 10 17 9 18 11 20 20 22 17 24
REMARK H PARENT 9 19 11 21 20 23 17 25
REMARK Flexibility Score: inf
ROOT
ATOM      1  C   UNL     1     169.676 143.698 153.834  1.00  0.00     0.138 A 
ATOM      2  C   UNL     1     168.636 142.856 154.252  1.00  0.00     0.100 A 
ATOM      3  C   UNL     1     168.358 142.725 155.613  1.00  0.00     0.197 A 
ATOM      4  O   UNL     1     167.456 141.919 155.959  1.00  0.00    -0.289 OA
ATOM      5  C   UNL     1     169.102 143.471 156.558  1.00  0.00     0.107 A 
ATOM      6  C   UNL     1     168.884 143.446 157.969  1.00  0.00     0.134 A 
ATOM      7  C   UNL     1     169.750 144.152 158.813  1.00  0.00     0.093 A 
ATOM      8  C   UNL     1     170.786 144.928 158.298  1.00  0.00     0.123 A 
ATOM      9  C   UNL     1     170.978 145.001 156.917  1.00  0.00     0.094 A 
ATOM     10  C   UNL     1     170.152 144.280 156.050  1.00  0.00     0.146 A 
ATOM     11  O   UNL     1     170.380 144.363 154.744  1.00  0.00    -0.456 OA
ENDROOT
BRANCH   1  12
ATOM     12  C   UNL     1     170.013 143.876 152.399  1.00  0.00     0.021 A 
ATOM     13  C   UNL     1     170.086 142.784 151.514  1.00  0.00     0.016 A 
ATOM     14  C   UNL     1     170.416 142.981 150.170  1.00  0.00     0.051 A 
ATOM     15  C   UNL     1     170.686 144.268 149.691  1.00  0.00     0.157 A 
ATOM     16  C   UNL     1     170.299 145.164 151.911  1.00  0.00     0.062 A 
ATOM     17  C   UNL     1     170.630 145.362 150.562  1.00  0.00     0.158 A 
BRANCH  15  18
ATOM     18  O   UNL     1     171.014 144.469 148.351  1.00  0.00    -0.504 OA
ATOM     19  H   UNL     1     171.863 144.088 147.950  1.00  0.00     0.293 HD
ENDBRANCH  15  18
BRANCH  17  20
ATOM     20  O   UNL     1     170.902 146.642 150.084  1.00  0.00    -0.504 OA
ATOM     21  H   UNL     1     171.557 146.798 149.327  1.00  0.00     0.293 HD
ENDBRANCH  17  20
ENDBRANCH   1  12
BRANCH   6  22
ATOM     22  O   UNL     1     167.830 142.767 158.588  1.00  0.00    -0.507 OA
ATOM     23  H   UNL     1     166.860 142.836 158.322  1.00  0.00     0.293 HD
ENDBRANCH   6  22
BRANCH   8  24
ATOM     24  O   UNL     1     171.618 145.630 159.168  1.00  0.00    -0.508 OA
ATOM     25  H   UNL     1     171.673 146.643 159.147  1.00  0.00     0.293 HD
ENDBRANCH   8  24
TORSDOF 5
ENDMDL
MODEL 5
REMARK VINA RESULT:    -6.647      1.851      2.309
REMARK INTER + INTRA:          -8.113
REMARK INTER:                  -7.823
REMARK INTRA:                  -0.291
REMARK UNBOUND:                -0.300
REMARK SMILES O=c1cc(-c2ccc(O)c(O)c2)oc2cc(O)cc(O)c12
REMARK SMILES IDX 4 1 3 2 2 3 1 4 21 5 19 6 18 7 16 8 15 9 14 10 13 11 5 12
REMARK SMILES IDX 6 13 7 14 8 15 12 16 10 17 9 18 11 20 20 22 17 24
REMARK H PARENT 9 19 11 21 20 23 17 25
REMARK Flexibility Score: inf
ROOT
ATOM      1  C   UNL     1     170.075 143.806 152.180  1.00  0.00     0.138 A 
ATOM      2  C   UNL     1     169.714 144.501 151.018  1.00  0.00     0.100 A 
ATOM      3  C   UNL     1     170.464 144.334 149.853  1.00  0.00     0.197 A 
ATOM      4  O   UNL     1     170.149 145.015 148.843  1.00  0.00    -0.289 OA
ATOM      5  C   UNL     1     171.559 143.437 149.844  1.00  0.00     0.107 A 
ATOM      6  C   UNL     1     172.374 143.159 148.705  1.00  0.00     0.134 A 
ATOM      7  C   UNL     1     173.492 142.327 148.843  1.00  0.00     0.093 A 
ATOM      8  C   UNL     1     173.790 141.716 150.060  1.00  0.00     0.123 A 
ATOM      9  C   UNL     1     172.971 141.941 151.168  1.00  0.00     0.094 A 
ATOM     10  C   UNL     1     171.869 142.793 151.071  1.00  0.00     0.146 A 
ATOM     11  O   UNL     1     171.126 142.994 152.154  1.00  0.00    -0.456 OA
ENDROOT
BRANCH   1  12
ATOM     12  C   UNL     1     169.311 143.945 153.446  1.00  0.00     0.021 A 
ATOM     13  C   UNL     1     168.960 145.205 153.967  1.00  0.00     0.016 A 
ATOM     14  C   UNL     1     168.249 145.304 155.165  1.00  0.00     0.051 A 
ATOM     15  C   UNL     1     167.884 144.150 155.869  1.00  0.00     0.157 A 
ATOM     16  C   UNL     1     168.951 142.791 154.167  1.00  0.00     0.062 A 
ATOM     17  C   UNL     1     168.238 142.891 155.370  1.00  0.00     0.158 A 
BRANCH  15  18
ATOM     18  O   UNL     1     167.174 144.246 157.064  1.00  0.00    -0.504 OA
ATOM     19  H   UNL     1     167.645 144.392 157.950  1.00  0.00     0.293 HD
ENDBRANCH  15  18
BRANCH  17  20
ATOM     20  O   UNL     1     167.877 141.743 156.073  1.00  0.00    -0.504 OA
ATOM     21  H   UNL     1     168.255 140.834 155.835  1.00  0.00     0.293 HD
ENDBRANCH  17  20
ENDBRANCH   1  12
BRANCH   6  22
ATOM     22  O   UNL     1     172.122 143.652 147.421  1.00  0.00    -0.507 OA
ATOM     23  H   UNL     1     171.947 143.085 146.606  1.00  0.00     0.293 HD
ENDBRANCH   6  22
BRANCH   8  24
ATOM     24  O   UNL     1     174.901 140.881 150.156  1.00  0.00    -0.508 OA
ATOM     25  H   UNL     1     175.785 141.215 150.524  1.00  0.00     0.293 HD
ENDBRANCH   8  24
TORSDOF 5
ENDMDL
MODEL 6
REMARK VINA RESULT:    -6.582      1.853      6.918
REMARK INTER + INTRA:          -8.036
REMARK INTER:                  -7.767
REMARK INTRA:                  -0.269
REMARK UNBOUND:                -0.300
REMARK SMILES O=c1cc(-c2ccc(O)c(O)c2)oc2cc(O)cc(O)c12
REMARK SMILES IDX 4 1 3 2 2 3 1 4 21 5 19 6 18 7 16 8 15 9 14 10 13 11 5 12
REMARK SMILES IDX 6 13 7 14 8 15 12 16 10 17 9 18 11 20 20 22 17 24
REMARK H PARENT 9 19 11 21 20 23 17 25
REMARK Flexibility Score: inf
ROOT
ATOM      1  C   UNL     1     170.157 143.922 153.512  1.00  0.00     0.138 A 
ATOM      2  C   UNL     1     171.174 144.634 154.161  1.00  0.00     0.100 A 
ATOM      3  C   UNL     1     171.138 144.779 155.548  1.00  0.00     0.197 A 
ATOM      4  O   UNL     1     172.034 145.472 156.095  1.00  0.00    -0.289 OA
ATOM      5  C   UNL     1     170.095 144.176 156.293  1.00  0.00     0.107 A 
ATOM      6  C   UNL     1     169.975 144.228 157.714  1.00  0.00     0.134 A 
ATOM      7  C   UNL     1     168.845 143.676 158.331  1.00  0.00     0.093 A 
ATOM      8  C   UNL     1     167.863 143.024 157.586  1.00  0.00     0.123 A 
ATOM      9  C   UNL     1     167.996 142.924 156.200  1.00  0.00     0.094 A 
ATOM     10  C   UNL     1     169.094 143.494 155.552  1.00  0.00     0.146 A 
ATOM     11  O   UNL     1     169.173 143.392 154.230  1.00  0.00    -0.456 OA
ENDROOT
BRANCH   1  12
ATOM     12  C   UNL     1     170.147 143.734 152.039  1.00  0.00     0.021 A 
ATOM     13  C   UNL     1     169.805 144.780 151.160  1.00  0.00     0.016 A 
ATOM     14  C   UNL     1     169.795 144.571 149.779  1.00  0.00     0.051 A 
ATOM     15  C   UNL     1     170.118 143.314 149.252  1.00  0.00     0.157 A 
ATOM     16  C   UNL     1     170.457 142.472 151.501  1.00  0.00     0.062 A 
ATOM     17  C   UNL     1     170.447 142.262 150.114  1.00  0.00     0.158 A 
BRANCH  15  18
ATOM     18  O   UNL     1     170.110 143.103 147.874  1.00  0.00    -0.504 OA
ATOM     19  H   UNL     1     170.957 143.168 147.323  1.00  0.00     0.293 HD
ENDBRANCH  15  18
BRANCH  17  20
ATOM     20  O   UNL     1     170.764 141.011 149.588  1.00  0.00    -0.504 OA
ATOM     21  H   UNL     1     170.045 140.364 149.287  1.00  0.00     0.293 HD
ENDBRANCH  17  20
ENDBRANCH   1  12
BRANCH   6  22
ATOM     22  O   UNL     1     170.936 144.785 158.563  1.00  0.00    -0.507 OA
ATOM     23  H   UNL     1     171.074 145.772 158.714  1.00  0.00     0.293 HD
ENDBRANCH   6  22
BRANCH   8  24
ATOM     24  O   UNL     1     166.761 142.473 158.236  1.00  0.00    -0.508 OA
ATOM     25  H   UNL     1     165.816 142.773 158.023  1.00  0.00     0.293 HD
ENDBRANCH   8  24
TORSDOF 5
ENDMDL
MODEL 7
REMARK VINA RESULT:    -6.475      3.584      7.847
REMARK INTER + INTRA:          -7.910
REMARK INTER:                  -7.626
REMARK INTRA:                  -0.284
REMARK UNBOUND:                -0.300
REMARK SMILES O=c1cc(-c2ccc(O)c(O)c2)oc2cc(O)cc(O)c12
REMARK SMILES IDX 4 1 3 2 2 3 1 4 21 5 19 6 18 7 16 8 15 9 14 10 13 11 5 12
REMARK SMILES IDX 6 13 7 14 8 15 12 16 10 17 9 18 11 20 20 22 17 24
REMARK H PARENT 9 19 11 21 20 23 17 25
REMARK Flexibility Score: inf
ROOT
ATOM      1  C   UNL     1     170.595 144.722 155.809  1.00  0.00     0.138 A 
ATOM      2  C   UNL     1     169.738 144.209 156.791  1.00  0.00     0.100 A 
ATOM      3  C   UNL     1     170.061 144.363 158.140  1.00  0.00     0.197 A 
ATOM      4  O   UNL     1     169.300 143.842 158.995  1.00  0.00    -0.289 OA
ATOM      5  C   UNL     1     171.233 145.069 158.506  1.00  0.00     0.107 A 
ATOM      6  C   UNL     1     171.645 145.319 159.850  1.00  0.00     0.134 A 
ATOM      7  C   UNL     1     172.876 145.943 160.088  1.00  0.00     0.093 A 
ATOM      8  C   UNL     1     173.680 146.378 159.036  1.00  0.00     0.123 A 
ATOM      9  C   UNL     1     173.262 146.184 157.718  1.00  0.00     0.094 A 
ATOM     10  C   UNL     1     172.056 145.534 157.447  1.00  0.00     0.146 A 
ATOM     11  O   UNL     1     171.704 145.353 156.179  1.00  0.00    -0.456 OA
ENDROOT
BRANCH   1  12
ATOM     12  C   UNL     1     170.299 144.589 154.360  1.00  0.00     0.021 A 
ATOM     13  C   UNL     1     170.053 143.336 153.766  1.00  0.00     0.016 A 
ATOM     14  C   UNL     1     169.786 143.241 152.398  1.00  0.00     0.051 A 
ATOM     15  C   UNL     1     169.769 144.391 151.599  1.00  0.00     0.157 A 
ATOM     16  C   UNL     1     170.293 145.737 153.547  1.00  0.00     0.062 A 
ATOM     17  C   UNL     1     170.025 145.641 152.174  1.00  0.00     0.158 A 
BRANCH  15  18
ATOM     18  O   UNL     1     169.503 144.299 150.234  1.00  0.00    -0.504 OA
ATOM     19  H   UNL     1     168.946 143.543 149.852  1.00  0.00     0.293 HD
ENDBRANCH  15  18
BRANCH  17  20
ATOM     20  O   UNL     1     170.012 146.784 151.376  1.00  0.00    -0.504 OA
ATOM     21  H   UNL     1     170.489 147.632 151.656  1.00  0.00     0.293 HD
ENDBRANCH  17  20
ENDBRANCH   1  12
BRANCH   6  22
ATOM     22  O   UNL     1     170.883 144.997 160.977  1.00  0.00    -0.507 OA
ATOM     23  H   UNL     1     170.136 144.319 160.999  1.00  0.00     0.293 HD
ENDBRANCH   6  22
BRANCH   8  24
ATOM     24  O   UNL     1     174.891 147.010 159.312  1.00  0.00    -0.508 OA
ATOM     25  H   UNL     1     174.928 147.980 159.605  1.00  0.00     0.293 HD
ENDBRANCH   8  24
TORSDOF 5
ENDMDL
MODEL 8
REMARK VINA RESULT:    -6.416      2.455      7.496
REMARK INTER + INTRA:          -7.841
REMARK INTER:                  -7.560
REMARK INTRA:                  -0.281
REMARK UNBOUND:                -0.300
REMARK SMILES O=c1cc(-c2ccc(O)c(O)c2)oc2cc(O)cc(O)c12
REMARK SMILES IDX 4 1 3 2 2 3 1 4 21 5 19 6 18 7 16 8 15 9 14 10 13 11 5 12
REMARK SMILES IDX 6 13 7 14 8 15 12 16 10 17 9 18 11 20 20 22 17 24
REMARK H PARENT 9 19 11 21 20 23 17 25
REMARK Flexibility Score: inf
ROOT
ATOM      1  C   UNL     1     170.287 144.951 151.659  1.00  0.00     0.138 A 
ATOM      2  C   UNL     1     168.988 144.601 152.051  1.00  0.00     0.100 A 
ATOM      3  C   UNL     1     168.642 144.635 153.403  1.00  0.00     0.197 A 
ATOM      4  O   UNL     1     167.486 144.260 153.728  1.00  0.00    -0.289 OA
ATOM      5  C   UNL     1     169.593 145.057 154.363  1.00  0.00     0.107 A 
ATOM      6  C   UNL     1     169.342 145.165 155.764  1.00  0.00     0.134 A 
ATOM      7  C   UNL     1     170.392 145.500 156.628  1.00  0.00     0.093 A 
ATOM      8  C   UNL     1     171.665 145.788 156.139  1.00  0.00     0.123 A 
ATOM      9  C   UNL     1     171.909 145.735 154.766  1.00  0.00     0.094 A 
ATOM     10  C   UNL     1     170.892 145.370 153.881  1.00  0.00     0.146 A 
ATOM     11  O   UNL     1     171.170 145.314 152.583  1.00  0.00    -0.456 OA
ENDROOT
BRANCH   1  12
ATOM     12  C   UNL     1     170.708 144.935 150.236  1.00  0.00     0.021 A 
ATOM     13  C   UNL     1     170.622 143.770 149.449  1.00  0.00     0.016 A 
ATOM     14  C   UNL     1     171.035 143.783 148.115  1.00  0.00     0.051 A 
ATOM     15  C   UNL     1     171.549 144.954 147.546  1.00  0.00     0.157 A 
ATOM     16  C   UNL     1     171.239 146.104 149.658  1.00  0.00     0.062 A 
ATOM     17  C   UNL     1     171.654 146.116 148.319  1.00  0.00     0.158 A 
BRANCH  15  18
ATOM     18  O   UNL     1     171.961 144.971 146.214  1.00  0.00    -0.504 OA
ATOM     19  H   UNL     1     172.606 144.279 145.850  1.00  0.00     0.293 HD
ENDBRANCH  15  18
BRANCH  17  20
ATOM     20  O   UNL     1     172.169 147.280 147.751  1.00  0.00    -0.504 OA
ATOM     21  H   UNL     1     172.604 147.999 148.317  1.00  0.00     0.293 HD
ENDBRANCH  17  20
ENDBRANCH   1  12
BRANCH   6  22
ATOM     22  O   UNL     1     168.089 144.977 156.353  1.00  0.00    -0.507 OA
ATOM     23  H   UNL     1     167.221 145.356 156.005  1.00  0.00     0.293 HD
ENDBRANCH   6  22
BRANCH   8  24
ATOM     24  O   UNL     1     172.681 146.133 157.028  1.00  0.00    -0.508 OA
ATOM     25  H   UNL     1     172.503 146.725 157.832  1.00  0.00     0.293 HD
ENDBRANCH   8  24
TORSDOF 5
ENDMDL
MODEL 9
REMARK VINA RESULT:    -6.386      2.549      3.717
REMARK INTER + INTRA:          -7.807
REMARK INTER:                  -7.497
REMARK INTRA:                  -0.310
REMARK UNBOUND:                -0.300
REMARK SMILES O=c1cc(-c2ccc(O)c(O)c2)oc2cc(O)cc(O)c12
REMARK SMILES IDX 4 1 3 2 2 3 1 4 21 5 19 6 18 7 16 8 15 9 14 10 13 11 5 12
REMARK SMILES IDX 6 13 7 14 8 15 12 16 10 17 9 18 11 20 20 22 17 24
REMARK H PARENT 9 19 11 21 20 23 17 25
REMARK Flexibility Score: inf
ROOT
ATOM      1  C   UNL     1     170.626 143.946 153.218  1.00  0.00     0.138 A 
ATOM      2  C   UNL     1     170.404 142.592 152.939  1.00  0.00     0.100 A 
ATOM      3  C   UNL     1     170.326 142.163 151.613  1.00  0.00     0.197 A 
ATOM      4  O   UNL     1     170.069 140.951 151.396  1.00  0.00    -0.289 OA
ATOM      5  C   UNL     1     170.509 143.093 150.561  1.00  0.00     0.107 A 
ATOM      6  C   UNL     1     170.486 142.764 149.172  1.00  0.00     0.134 A 
ATOM      7  C   UNL     1     170.580 143.788 148.220  1.00  0.00     0.093 A 
ATOM      8  C   UNL     1     170.756 145.116 148.604  1.00  0.00     0.123 A 
ATOM      9  C   UNL     1     170.831 145.442 149.960  1.00  0.00     0.094 A 
ATOM     10  C   UNL     1     170.705 144.449 150.934  1.00  0.00     0.146 A 
ATOM     11  O   UNL     1     170.763 144.804 152.212  1.00  0.00    -0.456 OA
ENDROOT
BRANCH   1  12
ATOM     12  C   UNL     1     170.721 144.456 154.609  1.00  0.00     0.021 A 
ATOM     13  C   UNL     1     171.077 143.617 155.683  1.00  0.00     0.016 A 
ATOM     14  C   UNL     1     171.148 144.123 156.984  1.00  0.00     0.051 A 
ATOM     15  C   UNL     1     170.858 145.469 157.236  1.00  0.00     0.157 A 
ATOM     16  C   UNL     1     170.419 145.804 154.874  1.00  0.00     0.062 A 
ATOM     17  C   UNL     1     170.490 146.311 156.180  1.00  0.00     0.158 A 
BRANCH  15  18
ATOM     18  O   UNL     1     170.929 145.977 158.532  1.00  0.00    -0.504 OA
ATOM     19  H   UNL     1     170.992 146.973 158.709  1.00  0.00     0.293 HD
ENDBRANCH  15  18
BRANCH  17  20
ATOM     20  O   UNL     1     170.199 147.650 156.433  1.00  0.00    -0.504 OA
ATOM     21  H   UNL     1     169.330 148.071 156.129  1.00  0.00     0.293 HD
ENDBRANCH  17  20
ENDBRANCH   1  12
BRANCH   6  22
ATOM     22  O   UNL     1     170.394 141.461 148.675  1.00  0.00    -0.507 OA
ATOM     23  H   UNL     1     169.660 141.120 148.073  1.00  0.00     0.293 HD
ENDBRANCH   6  22
BRANCH   8  24
ATOM     24  O   UNL     1     170.863 146.105 147.629  1.00  0.00    -0.508 OA
ATOM     25  H   UNL     1     171.333 146.984 147.815  1.00  0.00     0.293 HD
ENDBRANCH   8  24
TORSDOF 5
ENDMDL
