MODEL 1
REMARK VINA RESULT:    -6.785      0.000      0.000
REMARK INTER + INTRA:          -8.478
REMARK INTER:                  -8.173
REMARK INTRA:                  -0.305
REMARK UNBOUND:                -0.305
REMARK SMILES O=c1c(O)c(-c2ccc(O)c(O)c2)oc2cc(O)cc(O)c12
REMARK SMILES IDX 5 1 3 2 2 3 1 4 22 5 20 6 19 7 17 8 16 9 15 10 14 11 6 12
REMARK SMILES IDX 7 13 8 14 9 15 13 16 11 17 10 18 12 20 4 22 21 24 18 26
REMARK H PARENT 10 19 12 21 4 23 21 25 18 27
REMARK Flexibility Score: inf
ROOT
ATOM      1  C   UNL     1      18.884  -1.614 -17.161  1.00  0.00     0.180 A 
ATOM      2  C   UNL     1      18.114  -0.913 -16.217  1.00  0.00     0.208 A 
ATOM      3  C   UNL     1      17.388  -1.637 -15.258  1.00  0.00     0.238 A 
ATOM      4  O   UNL     1      16.657  -1.006 -14.450  1.00  0.00    -0.285 OA
ATOM      5  C   UNL     1      17.453  -3.051 -15.243  1.00  0.00     0.111 A 
ATOM      6  C   UNL     1      16.790  -3.883 -14.293  1.00  0.00     0.134 A 
ATOM      7  C   UNL     1      16.820  -5.274 -14.454  1.00  0.00     0.093 A 
ATOM      8  C   UNL     1      17.540  -5.865 -15.490  1.00  0.00     0.123 A 
ATOM      9  C   UNL     1      18.241  -5.062 -16.392  1.00  0.00     0.094 A 
ATOM     10  C   UNL     1      18.201  -3.671 -16.279  1.00  0.00     0.146 A 
ATOM     11  O   UNL     1      18.873  -2.943 -17.162  1.00  0.00    -0.452 OA
ENDROOT
BRANCH   1  12
ATOM     12  C   UNL     1      19.697  -0.922 -18.186  1.00  0.00     0.025 A 
ATOM     13  C   UNL     1      19.234  -0.863 -19.510  1.00  0.00     0.016 A 
ATOM     14  C   UNL     1      19.995  -0.232 -20.498  1.00  0.00     0.051 A 
ATOM     15  C   UNL     1      21.235   0.336 -20.181  1.00  0.00     0.157 A 
ATOM     16  C   UNL     1      20.952  -0.368 -17.876  1.00  0.00     0.062 A 
ATOM     17  C   UNL     1      21.718   0.262 -18.863  1.00  0.00     0.158 A 
BRANCH  15  18
ATOM     18  O   UNL     1      21.991   0.966 -21.168  1.00  0.00    -0.504 OA
ATOM     19  H   UNL     1      22.886   0.597 -21.468  1.00  0.00     0.293 HD
ENDBRANCH  15  18
BRANCH  17  20
ATOM     20  O   UNL     1      22.956   0.805 -18.518  1.00  0.00    -0.504 OA
ATOM     21  H   UNL     1      23.227   0.957 -17.554  1.00  0.00     0.293 HD
ENDBRANCH  17  20
ENDBRANCH   1  12
BRANCH   2  22
ATOM     22  O   UNL     1      18.047   0.482 -16.262  1.00  0.00    -0.502 OA
ATOM     23  H   UNL     1      18.869   1.068 -16.198  1.00  0.00     0.293 HD
ENDBRANCH   2  22
BRANCH   6  24
ATOM     24  O   UNL     1      16.119  -3.399 -13.166  1.00  0.00    -0.507 OA
ATOM     25  H   UNL     1      16.383  -3.592 -12.213  1.00  0.00     0.293 HD
ENDBRANCH   6  24
BRANCH   8  26
ATOM     26  O   UNL     1      17.560  -7.252 -15.611  1.00  0.00    -0.508 OA
ATOM     27  H   UNL     1      18.422  -7.779 -15.532  1.00  0.00     0.293 HD
ENDBRANCH   8  26
TORSDOF 6
ENDMDL
MODEL 2
REMARK VINA RESULT:    -6.245      1.220      2.837
REMARK INTER + INTRA:          -7.828
REMARK INTER:                  -7.624
REMARK INTRA:                  -0.204
REMARK UNBOUND:                -0.305
REMARK SMILES O=c1c(O)c(-c2ccc(O)c(O)c2)oc2cc(O)cc(O)c12
REMARK SMILES IDX 5 1 3 2 2 3 1 4 22 5 20 6 19 7 17 8 16 9 15 10 14 11 6 12
REMARK SMILES IDX 7 13 8 14 9 15 13 16 11 17 10 18 12 20 4 22 21 24 18 26
REMARK H PARENT 10 19 12 21 4 23 21 25 18 27
REMARK Flexibility Score: inf
ROOT
ATOM      1  C   UNL     1      18.941  -2.353 -17.456  1.00  0.00     0.180 A 
ATOM      2  C   UNL     1      18.859  -3.735 -17.702  1.00  0.00     0.208 A 
ATOM      3  C   UNL     1      18.198  -4.555 -16.774  1.00  0.00     0.238 A 
ATOM      4  O   UNL     1      18.176  -5.798 -16.972  1.00  0.00    -0.285 OA
ATOM      5  C   UNL     1      17.611  -3.981 -15.620  1.00  0.00     0.111 A 
ATOM      6  C   UNL     1      16.883  -4.711 -14.634  1.00  0.00     0.134 A 
ATOM      7  C   UNL     1      16.459  -4.061 -13.467  1.00  0.00     0.093 A 
ATOM      8  C   UNL     1      16.680  -2.698 -13.281  1.00  0.00     0.123 A 
ATOM      9  C   UNL     1      17.340  -1.962 -14.267  1.00  0.00     0.094 A 
ATOM     10  C   UNL     1      17.806  -2.588 -15.424  1.00  0.00     0.146 A 
ATOM     11  O   UNL     1      18.438  -1.855 -16.333  1.00  0.00    -0.452 OA
ENDROOT
BRANCH   1  12
ATOM     12  C   UNL     1      19.599  -1.422 -18.400  1.00  0.00     0.025 A 
ATOM     13  C   UNL     1      19.021  -1.190 -19.658  1.00  0.00     0.016 A 
ATOM     14  C   UNL     1      19.637  -0.331 -20.572  1.00  0.00     0.051 A 
ATOM     15  C   UNL     1      20.845   0.298 -20.248  1.00  0.00     0.157 A 
ATOM     16  C   UNL     1      20.823  -0.804 -18.086  1.00  0.00     0.062 A 
ATOM     17  C   UNL     1      21.443   0.055 -18.999  1.00  0.00     0.158 A 
BRANCH  15  18
ATOM     18  O   UNL     1      21.456   1.157 -21.161  1.00  0.00    -0.504 OA
ATOM     19  H   UNL     1      22.381   0.969 -21.529  1.00  0.00     0.293 HD
ENDBRANCH  15  18
BRANCH  17  20
ATOM     20  O   UNL     1      22.654   0.655 -18.652  1.00  0.00    -0.504 OA
ATOM     21  H   UNL     1      22.715   1.372 -17.940  1.00  0.00     0.293 HD
ENDBRANCH  17  20
ENDBRANCH   1  12
BRANCH   2  22
ATOM     22  O   UNL     1      19.464  -4.284 -18.837  1.00  0.00    -0.502 OA
ATOM     23  H   UNL     1      19.116  -4.118 -19.772  1.00  0.00     0.293 HD
ENDBRANCH   2  22
BRANCH   6  24
ATOM     24  O   UNL     1      16.528  -6.057 -14.763  1.00  0.00    -0.507 OA
ATOM     25  H   UNL     1      16.148  -6.624 -14.021  1.00  0.00     0.293 HD
ENDBRANCH   6  24
BRANCH   8  26
ATOM     26  O   UNL     1      16.231  -2.081 -12.115  1.00  0.00    -0.508 OA
ATOM     27  H   UNL     1      16.045  -1.085 -12.080  1.00  0.00     0.293 HD
ENDBRANCH   8  26
TORSDOF 6
ENDMDL
MODEL 3
REMARK VINA RESULT:    -5.923      9.102     12.649
REMARK INTER + INTRA:          -7.439
REMARK INTER:                  -7.171
REMARK INTRA:                  -0.268
REMARK UNBOUND:                -0.305
REMARK SMILES O=c1c(O)c(-c2ccc(O)c(O)c2)oc2cc(O)cc(O)c12
REMARK SMILES IDX 5 1 3 2 2 3 1 4 22 5 20 6 19 7 17 8 16 9 15 10 14 11 6 12
REMARK SMILES IDX 7 13 8 14 9 15 13 16 11 17 10 18 12 20 4 22 21 24 18 26
REMARK H PARENT 10 19 12 21 4 23 21 25 18 27
REMARK Flexibility Score: inf
ROOT
ATOM      1  C   UNL     1      10.522  -6.340  -9.729  1.00  0.00     0.180 A 
ATOM      2  C   UNL     1      10.522  -6.422  -8.326  1.00  0.00     0.208 A 
ATOM      3  C   UNL     1       9.494  -5.791  -7.607  1.00  0.00     0.238 A 
ATOM      4  O   UNL     1       9.530  -5.822  -6.348  1.00  0.00    -0.285 OA
ATOM      5  C   UNL     1       8.470  -5.101  -8.299  1.00  0.00     0.111 A 
ATOM      6  C   UNL     1       7.360  -4.461  -7.674  1.00  0.00     0.134 A 
ATOM      7  C   UNL     1       6.478  -3.697  -8.449  1.00  0.00     0.093 A 
ATOM      8  C   UNL     1       6.628  -3.603  -9.831  1.00  0.00     0.123 A 
ATOM      9  C   UNL     1       7.678  -4.275 -10.460  1.00  0.00     0.094 A 
ATOM     10  C   UNL     1       8.594  -5.015  -9.711  1.00  0.00     0.146 A 
ATOM     11  O   UNL     1       9.584  -5.630 -10.346  1.00  0.00    -0.452 OA
ENDROOT
BRANCH   1  12
ATOM     12  C   UNL     1      11.557  -6.999 -10.558  1.00  0.00     0.025 A 
ATOM     13  C   UNL     1      11.518  -8.391 -10.734  1.00  0.00     0.016 A 
ATOM     14  C   UNL     1      12.496  -9.037 -11.494  1.00  0.00     0.051 A 
ATOM     15  C   UNL     1      13.536  -8.302 -12.078  1.00  0.00     0.157 A 
ATOM     16  C   UNL     1      12.613  -6.268 -11.129  1.00  0.00     0.062 A 
ATOM     17  C   UNL     1      13.596  -6.911 -11.890  1.00  0.00     0.158 A 
BRANCH  15  18
ATOM     18  O   UNL     1      14.509  -8.948 -12.839  1.00  0.00    -0.504 OA
ATOM     19  H   UNL     1      15.234  -9.509 -12.407  1.00  0.00     0.293 HD
ENDBRANCH  15  18
BRANCH  17  20
ATOM     20  O   UNL     1      14.627  -6.153 -12.446  1.00  0.00    -0.504 OA
ATOM     21  H   UNL     1      15.180  -5.509 -11.894  1.00  0.00     0.293 HD
ENDBRANCH  17  20
ENDBRANCH   1  12
BRANCH   2  22
ATOM     22  O   UNL     1      11.555  -7.090  -7.661  1.00  0.00    -0.502 OA
ATOM     23  H   UNL     1      11.500  -7.338  -6.682  1.00  0.00     0.293 HD
ENDBRANCH   2  22
BRANCH   6  24
ATOM     24  O   UNL     1       7.063  -4.566  -6.311  1.00  0.00    -0.507 OA
ATOM     25  H   UNL     1       7.612  -4.157  -5.571  1.00  0.00     0.293 HD
ENDBRANCH   6  24
BRANCH   8  26
ATOM     26  O   UNL     1       5.723  -2.847 -10.572  1.00  0.00    -0.508 OA
ATOM     27  H   UNL     1       5.897  -1.872 -10.786  1.00  0.00     0.293 HD
ENDBRANCH   8  26
TORSDOF 6
ENDMDL
MODEL 4
REMARK VINA RESULT:    -5.874      1.274      2.998
REMARK INTER + INTRA:          -7.381
REMARK INTER:                  -7.200
REMARK INTRA:                  -0.181
REMARK UNBOUND:                -0.305
REMARK SMILES O=c1c(O)c(-c2ccc(O)c(O)c2)oc2cc(O)cc(O)c12
REMARK SMILES IDX 5 1 3 2 2 3 1 4 22 5 20 6 19 7 17 8 16 9 15 10 14 11 6 12
REMARK SMILES IDX 7 13 8 14 9 15 13 16 11 17 10 18 12 20 4 22 21 24 18 26
REMARK H PARENT 10 19 12 21 4 23 21 25 18 27
REMARK Flexibility Score: inf
ROOT
ATOM      1  C   UNL     1      19.044  -1.542 -17.434  1.00  0.00     0.180 A 
ATOM      2  C   UNL     1      18.881  -2.939 -17.452  1.00  0.00     0.208 A 
ATOM      3  C   UNL     1      18.152  -3.553 -16.421  1.00  0.00     0.238 A 
ATOM      4  O   UNL     1      18.056  -4.808 -16.413  1.00  0.00    -0.285 OA
ATOM      5  C   UNL     1      17.581  -2.762 -15.394  1.00  0.00     0.111 A 
ATOM      6  C   UNL     1      16.790  -3.275 -14.324  1.00  0.00     0.134 A 
ATOM      7  C   UNL     1      16.386  -2.417 -13.292  1.00  0.00     0.093 A 
ATOM      8  C   UNL     1      16.688  -1.057 -13.326  1.00  0.00     0.123 A 
ATOM      9  C   UNL     1      17.411  -0.534 -14.400  1.00  0.00     0.094 A 
ATOM     10  C   UNL     1      17.858  -1.370 -15.424  1.00  0.00     0.146 A 
ATOM     11  O   UNL     1      18.552  -0.836 -16.422  1.00  0.00    -0.452 OA
ENDROOT
BRANCH   1  12
ATOM     12  C   UNL     1      19.777  -0.820 -18.498  1.00  0.00     0.025 A 
ATOM     13  C   UNL     1      19.260  -0.803 -19.803  1.00  0.00     0.016 A 
ATOM     14  C   UNL     1      19.946  -0.145 -20.828  1.00  0.00     0.051 A 
ATOM     15  C   UNL     1      21.166   0.493 -20.566  1.00  0.00     0.157 A 
ATOM     16  C   UNL     1      21.011  -0.196 -18.244  1.00  0.00     0.062 A 
ATOM     17  C   UNL     1      21.702   0.462 -19.267  1.00  0.00     0.158 A 
BRANCH  15  18
ATOM     18  O   UNL     1      21.847   1.150 -21.589  1.00  0.00    -0.504 OA
ATOM     19  H   UNL     1      22.829   1.387 -21.505  1.00  0.00     0.293 HD
ENDBRANCH  15  18
BRANCH  17  20
ATOM     20  O   UNL     1      22.922   1.074 -18.977  1.00  0.00    -0.504 OA
ATOM     21  H   UNL     1      22.981   1.922 -18.426  1.00  0.00     0.293 HD
ENDBRANCH  17  20
ENDBRANCH   1  12
BRANCH   2  22
ATOM     22  O   UNL     1      19.472  -3.702 -18.463  1.00  0.00    -0.502 OA
ATOM     23  H   UNL     1      20.468  -3.876 -18.501  1.00  0.00     0.293 HD
ENDBRANCH   2  22
BRANCH   6  24
ATOM     24  O   UNL     1      16.353  -4.600 -14.240  1.00  0.00    -0.507 OA
ATOM     25  H   UNL     1      16.757  -5.301 -13.638  1.00  0.00     0.293 HD
ENDBRANCH   6  24
BRANCH   8  26
ATOM     26  O   UNL     1      16.256  -0.230 -12.291  1.00  0.00    -0.508 OA
ATOM     27  H   UNL     1      15.442  -0.460 -11.733  1.00  0.00     0.293 HD
ENDBRANCH   8  26
TORSDOF 6
ENDMDL
MODEL 5
REMARK VINA RESULT:    -5.871      1.694      2.431
REMARK INTER + INTRA:          -7.377
REMARK INTER:                  -7.088
REMARK INTRA:                  -0.289
REMARK UNBOUND:                -0.305
REMARK SMILES O=c1c(O)c(-c2ccc(O)c(O)c2)oc2cc(O)cc(O)c12
REMARK SMILES IDX 5 1 3 2 2 3 1 4 22 5 20 6 19 7 17 8 16 9 15 10 14 11 6 12
REMARK SMILES IDX 7 13 8 14 9 15 13 16 11 17 10 18 12 20 4 22 21 24 18 26
REMARK H PARENT 10 19 12 21 4 23 21 25 18 27
REMARK Flexibility Score: inf
ROOT
ATOM      1  C   UNL     1      18.000  -1.098 -15.988  1.00  0.00     0.180 A 
ATOM      2  C   UNL     1      17.315  -0.087 -15.291  1.00  0.00     0.208 A 
ATOM      3  C   UNL     1      16.439  -0.448 -14.255  1.00  0.00     0.238 A 
ATOM      4  O   UNL     1      15.789   0.458 -13.670  1.00  0.00    -0.285 OA
ATOM      5  C   UNL     1      16.270  -1.812 -13.917  1.00  0.00     0.111 A 
ATOM      6  C   UNL     1      15.439  -2.288 -12.860  1.00  0.00     0.134 A 
ATOM      7  C   UNL     1      15.246  -3.666 -12.701  1.00  0.00     0.093 A 
ATOM      8  C   UNL     1      15.903  -4.585 -13.518  1.00  0.00     0.123 A 
ATOM      9  C   UNL     1      16.765  -4.131 -14.518  1.00  0.00     0.094 A 
ATOM     10  C   UNL     1      16.950  -2.763 -14.724  1.00  0.00     0.146 A 
ATOM     11  O   UNL     1      17.770  -2.372 -15.692  1.00  0.00    -0.452 OA
ENDROOT
BRANCH   1  12
ATOM     12  C   UNL     1      18.958  -0.796 -17.075  1.00  0.00     0.025 A 
ATOM     13  C   UNL     1      20.250  -0.350 -16.753  1.00  0.00     0.016 A 
ATOM     14  C   UNL     1      21.164  -0.039 -17.763  1.00  0.00     0.051 A 
ATOM     15  C   UNL     1      20.797  -0.155 -19.109  1.00  0.00     0.157 A 
ATOM     16  C   UNL     1      18.587  -0.892 -18.428  1.00  0.00     0.062 A 
ATOM     17  C   UNL     1      19.499  -0.580 -19.442  1.00  0.00     0.158 A 
BRANCH  15  18
ATOM     18  O   UNL     1      21.711   0.153 -20.115  1.00  0.00    -0.504 OA
ATOM     19  H   UNL     1      21.886  -0.482 -20.885  1.00  0.00     0.293 HD
ENDBRANCH  15  18
BRANCH  17  20
ATOM     20  O   UNL     1      19.097  -0.692 -20.774  1.00  0.00    -0.504 OA
ATOM     21  H   UNL     1      18.794   0.109 -21.313  1.00  0.00     0.293 HD
ENDBRANCH  17  20
ENDBRANCH   1  12
BRANCH   2  22
ATOM     22  O   UNL     1      17.480   1.253 -15.654  1.00  0.00    -0.502 OA
ATOM     23  H   UNL     1      16.706   1.901 -15.705  1.00  0.00     0.293 HD
ENDBRANCH   2  22
BRANCH   6  24
ATOM     24  O   UNL     1      14.809  -1.458 -11.929  1.00  0.00    -0.507 OA
ATOM     25  H   UNL     1      14.185  -0.701 -12.164  1.00  0.00     0.293 HD
ENDBRANCH   6  24
BRANCH   8  26
ATOM     26  O   UNL     1      15.699  -5.949 -13.321  1.00  0.00    -0.508 OA
ATOM     27  H   UNL     1      16.383  -6.524 -12.842  1.00  0.00     0.293 HD
ENDBRANCH   8  26
TORSDOF 6
ENDMDL
MODEL 6
REMARK VINA RESULT:    -5.869      9.026     12.837
REMARK INTER + INTRA:          -7.375
REMARK INTER:                  -7.916
REMARK INTRA:                   0.541
REMARK UNBOUND:                -0.305
REMARK SMILES O=c1c(O)c(-c2ccc(O)c(O)c2)oc2cc(O)cc(O)c12
REMARK SMILES IDX 5 1 3 2 2 3 1 4 22 5 20 6 19 7 17 8 16 9 15 10 14 11 6 12
REMARK SMILES IDX 7 13 8 14 9 15 13 16 11 17 10 18 12 20 4 22 21 24 18 26
REMARK H PARENT 10 19 12 21 4 23 21 25 18 27
REMARK Flexibility Score: inf
ROOT
ATOM      1  C   UNL     1      10.877  -6.655  -9.115  1.00  0.00     0.180 A 
ATOM      2  C   UNL     1      10.129  -7.844  -9.164  1.00  0.00     0.208 A 
ATOM      3  C   UNL     1       9.091  -8.035  -8.239  1.00  0.00     0.238 A 
ATOM      4  O   UNL     1       8.461  -9.125  -8.253  1.00  0.00    -0.285 OA
ATOM      5  C   UNL     1       8.802  -7.028  -7.286  1.00  0.00     0.111 A 
ATOM      6  C   UNL     1       7.748  -7.099  -6.328  1.00  0.00     0.134 A 
ATOM      7  C   UNL     1       7.637  -6.103  -5.349  1.00  0.00     0.093 A 
ATOM      8  C   UNL     1       8.499  -5.009  -5.333  1.00  0.00     0.123 A 
ATOM      9  C   UNL     1       9.498  -4.899  -6.303  1.00  0.00     0.094 A 
ATOM     10  C   UNL     1       9.656  -5.894  -7.269  1.00  0.00     0.146 A 
ATOM     11  O   UNL     1      10.624  -5.758  -8.168  1.00  0.00    -0.452 OA
ENDROOT
BRANCH   1  12
ATOM     12  C   UNL     1      11.970  -6.369 -10.072  1.00  0.00     0.025 A 
ATOM     13  C   UNL     1      12.360  -7.358 -10.989  1.00  0.00     0.016 A 
ATOM     14  C   UNL     1      13.403  -7.118 -11.888  1.00  0.00     0.051 A 
ATOM     15  C   UNL     1      14.080  -5.892 -11.874  1.00  0.00     0.157 A 
ATOM     16  C   UNL     1      12.664  -5.147 -10.048  1.00  0.00     0.062 A 
ATOM     17  C   UNL     1      13.710  -4.903 -10.945  1.00  0.00     0.158 A 
BRANCH  15  18
ATOM     18  O   UNL     1      15.118  -5.653 -12.773  1.00  0.00    -0.504 OA
ATOM     19  H   UNL     1      15.909  -6.282 -12.848  1.00  0.00     0.293 HD
ENDBRANCH  15  18
BRANCH  17  20
ATOM     20  O   UNL     1      14.374  -3.677 -10.896  1.00  0.00    -0.504 OA
ATOM     21  H   UNL     1      13.899  -2.800 -11.071  1.00  0.00     0.293 HD
ENDBRANCH  17  20
ENDBRANCH   1  12
BRANCH   2  22
ATOM     22  O   UNL     1      10.446  -8.834 -10.099  1.00  0.00    -0.502 OA
ATOM     23  H   UNL     1       9.956  -9.718 -10.141  1.00  0.00     0.293 HD
ENDBRANCH   2  22
BRANCH   6  24
ATOM     24  O   UNL     1       6.774  -8.103  -6.311  1.00  0.00    -0.507 OA
ATOM     25  H   UNL     1       6.952  -9.078  -6.494  1.00  0.00     0.293 HD
ENDBRANCH   6  24
BRANCH   8  26
ATOM     26  O   UNL     1       8.350  -4.029  -4.354  1.00  0.00    -0.508 OA
ATOM     27  H   UNL     1       7.696  -3.263  -4.466  1.00  0.00     0.293 HD
ENDBRANCH   8  26
TORSDOF 6
ENDMDL
MODEL 7
REMARK VINA RESULT:    -5.853      8.378     13.411
REMARK INTER + INTRA:          -7.356
REMARK INTER:                  -7.097
REMARK INTRA:                  -0.259
REMARK UNBOUND:                -0.305
REMARK SMILES O=c1c(O)c(-c2ccc(O)c(O)c2)oc2cc(O)cc(O)c12
REMARK SMILES IDX 5 1 3 2 2 3 1 4 22 5 20 6 19 7 17 8 16 9 15 10 14 11 6 12
REMARK SMILES IDX 7 13 8 14 9 15 13 16 11 17 10 18 12 20 4 22 21 24 18 26
REMARK H PARENT 10 19 12 21 4 23 21 25 18 27
REMARK Flexibility Score: inf
ROOT
ATOM      1  C   UNL     1      10.545  -6.200  -9.120  1.00  0.00     0.180 A 
ATOM      2  C   UNL     1      10.369  -7.462  -9.714  1.00  0.00     0.208 A 
ATOM      3  C   UNL     1      11.304  -7.905 -10.662  1.00  0.00     0.238 A 
ATOM      4  O   UNL     1      11.111  -9.012 -11.229  1.00  0.00    -0.285 OA
ATOM      5  C   UNL     1      12.413  -7.090 -10.993  1.00  0.00     0.111 A 
ATOM      6  C   UNL     1      13.443  -7.457 -11.909  1.00  0.00     0.134 A 
ATOM      7  C   UNL     1      14.422  -6.518 -12.259  1.00  0.00     0.093 A 
ATOM      8  C   UNL     1      14.447  -5.252 -11.678  1.00  0.00     0.123 A 
ATOM      9  C   UNL     1      13.478  -4.903 -10.735  1.00  0.00     0.094 A 
ATOM     10  C   UNL     1      12.468  -5.804 -10.393  1.00  0.00     0.146 A 
ATOM     11  O   UNL     1      11.560  -5.431  -9.500  1.00  0.00    -0.452 OA
ENDROOT
BRANCH   1  12
ATOM     12  C   UNL     1       9.616  -5.673  -8.094  1.00  0.00     0.025 A 
ATOM     13  C   UNL     1       9.990  -5.706  -6.742  1.00  0.00     0.016 A 
ATOM     14  C   UNL     1       9.121  -5.233  -5.755  1.00  0.00     0.051 A 
ATOM     15  C   UNL     1       7.859  -4.735  -6.105  1.00  0.00     0.157 A 
ATOM     16  C   UNL     1       8.341  -5.191  -8.439  1.00  0.00     0.062 A 
ATOM     17  C   UNL     1       7.467  -4.719  -7.454  1.00  0.00     0.158 A 
BRANCH  15  18
ATOM     18  O   UNL     1       6.994  -4.263  -5.119  1.00  0.00    -0.504 OA
ATOM     19  H   UNL     1       6.839  -3.271  -4.981  1.00  0.00     0.293 HD
ENDBRANCH  15  18
BRANCH  17  20
ATOM     20  O   UNL     1       6.211  -4.243  -7.833  1.00  0.00    -0.504 OA
ATOM     21  H   UNL     1       6.096  -3.546  -8.559  1.00  0.00     0.293 HD
ENDBRANCH  17  20
ENDBRANCH   1  12
BRANCH   2  22
ATOM     22  O   UNL     1       9.254  -8.241  -9.389  1.00  0.00    -0.502 OA
ATOM     23  H   UNL     1       8.333  -7.844  -9.261  1.00  0.00     0.293 HD
ENDBRANCH   2  22
BRANCH   6  24
ATOM     24  O   UNL     1      13.565  -8.728 -12.478  1.00  0.00    -0.507 OA
ATOM     25  H   UNL     1      14.433  -9.140 -12.783  1.00  0.00     0.293 HD
ENDBRANCH   6  24
BRANCH   8  26
ATOM     26  O   UNL     1      15.445  -4.349 -12.038  1.00  0.00    -0.508 OA
ATOM     27  H   UNL     1      15.911  -3.771 -11.348  1.00  0.00     0.293 HD
ENDBRANCH   8  26
TORSDOF 6
ENDMDL
MODEL 8
REMARK VINA RESULT:    -5.832      6.444      9.067
REMARK INTER + INTRA:          -7.330
REMARK INTER:                  -7.017
REMARK INTRA:                  -0.312
REMARK UNBOUND:                -0.305
REMARK SMILES O=c1c(O)c(-c2ccc(O)c(O)c2)oc2cc(O)cc(O)c12
REMARK SMILES IDX 5 1 3 2 2 3 1 4 22 5 20 6 19 7 17 8 16 9 15 10 14 11 6 12
REMARK SMILES IDX 7 13 8 14 9 15 13 16 11 17 10 18 12 20 4 22 21 24 18 26
REMARK H PARENT 10 19 12 21 4 23 21 25 18 27
REMARK Flexibility Score: inf
ROOT
ATOM      1  C   UNL     1      18.013  -1.824  -9.150  1.00  0.00     0.180 A 
ATOM      2  C   UNL     1      17.216  -0.666  -9.121  1.00  0.00     0.208 A 
ATOM      3  C   UNL     1      16.172  -0.534 -10.051  1.00  0.00     0.238 A 
ATOM      4  O   UNL     1      15.497   0.528 -10.055  1.00  0.00    -0.285 OA
ATOM      5  C   UNL     1      15.927  -1.568 -10.987  1.00  0.00     0.111 A 
ATOM      6  C   UNL     1      14.872  -1.558 -11.947  1.00  0.00     0.134 A 
ATOM      7  C   UNL     1      14.804  -2.574 -12.909  1.00  0.00     0.093 A 
ATOM      8  C   UNL     1      15.712  -3.632 -12.905  1.00  0.00     0.123 A 
ATOM      9  C   UNL     1      16.713  -3.682 -11.933  1.00  0.00     0.094 A 
ATOM     10  C   UNL     1      16.828  -2.666 -10.983  1.00  0.00     0.146 A 
ATOM     11  O   UNL     1      17.799  -2.746 -10.082  1.00  0.00    -0.452 OA
ENDROOT
BRANCH   1  12
ATOM     12  C   UNL     1      19.115  -2.046  -8.187  1.00  0.00     0.025 A 
ATOM     13  C   UNL     1      20.442  -1.838  -8.596  1.00  0.00     0.016 A 
ATOM     14  C   UNL     1      21.499  -2.062  -7.709  1.00  0.00     0.051 A 
ATOM     15  C   UNL     1      21.246  -2.512  -6.407  1.00  0.00     0.157 A 
ATOM     16  C   UNL     1      18.867  -2.517  -6.885  1.00  0.00     0.062 A 
ATOM     17  C   UNL     1      19.922  -2.744  -5.996  1.00  0.00     0.158 A 
BRANCH  15  18
ATOM     18  O   UNL     1      22.302  -2.732  -5.524  1.00  0.00    -0.504 OA
ATOM     19  H   UNL     1      23.066  -2.073  -5.436  1.00  0.00     0.293 HD
ENDBRANCH  15  18
BRANCH  17  20
ATOM     20  O   UNL     1      19.638  -3.206  -4.710  1.00  0.00    -0.504 OA
ATOM     21  H   UNL     1      20.205  -2.952  -3.910  1.00  0.00     0.293 HD
ENDBRANCH  17  20
ENDBRANCH   1  12
BRANCH   2  22
ATOM     22  O   UNL     1      17.489   0.352  -8.203  1.00  0.00    -0.502 OA
ATOM     23  H   UNL     1      16.773   0.763  -7.618  1.00  0.00     0.293 HD
ENDBRANCH   2  22
BRANCH   6  24
ATOM     24  O   UNL     1      13.857  -0.597 -11.981  1.00  0.00    -0.507 OA
ATOM     25  H   UNL     1      13.535  -0.073 -11.183  1.00  0.00     0.293 HD
ENDBRANCH   6  24
BRANCH   8  26
ATOM     26  O   UNL     1      15.605  -4.633 -13.867  1.00  0.00    -0.508 OA
ATOM     27  H   UNL     1      16.422  -5.007 -14.337  1.00  0.00     0.293 HD
ENDBRANCH   8  26
TORSDOF 6
ENDMDL
MODEL 9
REMARK VINA RESULT:    -5.709     10.697     12.118
REMARK INTER + INTRA:          -7.181
REMARK INTER:                  -6.889
REMARK INTRA:                  -0.293
REMARK UNBOUND:                -0.305
REMARK SMILES O=c1c(O)c(-c2ccc(O)c(O)c2)oc2cc(O)cc(O)c12
REMARK SMILES IDX 5 1 3 2 2 3 1 4 22 5 20 6 19 7 17 8 16 9 15 10 14 11 6 12
REMARK SMILES IDX 7 13 8 14 9 15 13 16 11 17 10 18 12 20 4 22 21 24 18 26
REMARK H PARENT 10 19 12 21 4 23 21 25 18 27
REMARK Flexibility Score: inf
ROOT
ATOM      1  C   UNL     1       9.432   3.424 -18.871  1.00  0.00     0.180 A 
ATOM      2  C   UNL     1       8.955   2.692 -19.973  1.00  0.00     0.208 A 
ATOM      3  C   UNL     1       7.574   2.470 -20.096  1.00  0.00     0.238 A 
ATOM      4  O   UNL     1       7.158   1.769 -21.055  1.00  0.00    -0.285 OA
ATOM      5  C   UNL     1       6.686   2.996 -19.126  1.00  0.00     0.111 A 
ATOM      6  C   UNL     1       5.267   2.865 -19.174  1.00  0.00     0.134 A 
ATOM      7  C   UNL     1       4.496   3.312 -18.092  1.00  0.00     0.093 A 
ATOM      8  C   UNL     1       5.087   3.941 -16.997  1.00  0.00     0.123 A 
ATOM      9  C   UNL     1       6.470   4.126 -16.968  1.00  0.00     0.094 A 
ATOM     10  C   UNL     1       7.268   3.660 -18.015  1.00  0.00     0.146 A 
ATOM     11  O   UNL     1       8.580   3.847 -17.944  1.00  0.00    -0.452 OA
ENDROOT
BRANCH   1  12
ATOM     12  C   UNL     1      10.871   3.721 -18.686  1.00  0.00     0.025 A 
ATOM     13  C   UNL     1      11.378   4.964 -19.096  1.00  0.00     0.016 A 
ATOM     14  C   UNL     1      12.736   5.258 -18.949  1.00  0.00     0.051 A 
ATOM     15  C   UNL     1      13.610   4.309 -18.404  1.00  0.00     0.157 A 
ATOM     16  C   UNL     1      11.754   2.763 -18.157  1.00  0.00     0.062 A 
ATOM     17  C   UNL     1      13.115   3.053 -18.010  1.00  0.00     0.158 A 
BRANCH  15  18
ATOM     18  O   UNL     1      14.964   4.605 -18.256  1.00  0.00    -0.504 OA
ATOM     19  H   UNL     1      15.344   5.502 -18.533  1.00  0.00     0.293 HD
ENDBRANCH  15  18
BRANCH  17  20
ATOM     20  O   UNL     1      13.962   2.080 -17.478  1.00  0.00    -0.504 OA
ATOM     21  H   UNL     1      13.707   1.101 -17.451  1.00  0.00     0.293 HD
ENDBRANCH  17  20
ENDBRANCH   1  12
BRANCH   2  22
ATOM     22  O   UNL     1       9.851   2.164 -20.907  1.00  0.00    -0.502 OA
ATOM     23  H   UNL     1      10.035   2.611 -21.796  1.00  0.00     0.293 HD
ENDBRANCH   2  22
BRANCH   6  24
ATOM     24  O   UNL     1       4.567   2.335 -20.262  1.00  0.00    -0.507 OA
ATOM     25  H   UNL     1       4.080   2.883 -20.953  1.00  0.00     0.293 HD
ENDBRANCH   6  24
BRANCH   8  26
ATOM     26  O   UNL     1       4.288   4.386 -15.946  1.00  0.00    -0.508 OA
ATOM     27  H   UNL     1       4.468   4.108 -14.989  1.00  0.00     0.293 HD
ENDBRANCH   8  26
TORSDOF 6
ENDMDL
