MODEL 1
REMARK VINA RESULT:    -4.953      0.000      0.000
REMARK INTER + INTRA:         -16.717
REMARK INTER:                 -13.061
REMARK INTRA:                  -3.656
REMARK UNBOUND:                -3.656
REMARK SMILES CCCCCCCCCCCCCCCCCCCCCCCCCCCCCC(=O)[O-]
REMARK SMILES IDX 16 1 17 2 18 3 19 4 20 5 21 6 22 7 23 8 24 9 25 10 26 11
REMARK SMILES IDX 27 12 28 13 29 14 30 15 31 16 32 17 15 18 14 19 13 20 12 21
REMARK SMILES IDX 11 22 10 23 9 24 8 25 7 26 6 27 5 28 4 29 3 30 2 31 1 32
REMARK H PARENT
REMARK Flexibility Score: inf
ROOT
ATOM      1  C   UNL     1      62.677  29.718  23.879  1.00  0.00     0.000 C 
ENDROOT
BRANCH   1   2
ATOM      2  C   UNL     1      63.386  31.034  24.230  1.00  0.00     0.000 C 
BRANCH   2   3
ATOM      3  C   UNL     1      64.436  31.446  23.183  1.00  0.00     0.000 C 
BRANCH   3   4
ATOM      4  C   UNL     1      64.089  32.710  22.373  1.00  0.00     0.000 C 
BRANCH   4   5
ATOM      5  C   UNL     1      65.239  33.268  21.511  1.00  0.00     0.000 C 
BRANCH   5   6
ATOM      6  C   UNL     1      64.794  34.162  20.341  1.00  0.00     0.000 C 
BRANCH   6   7
ATOM      7  C   UNL     1      64.708  33.398  19.010  1.00  0.00     0.000 C 
BRANCH   7   8
ATOM      8  C   UNL     1      63.452  33.790  18.223  1.00  0.00     0.000 C 
BRANCH   8   9
ATOM      9  C   UNL     1      62.178  33.486  19.026  1.00  0.00     0.000 C 
BRANCH   9  10
ATOM     10  C   UNL     1      60.908  33.523  18.162  1.00  0.00     0.000 C 
BRANCH  10  11
ATOM     11  C   UNL     1      61.128  32.943  16.755  1.00  0.00     0.000 C 
BRANCH  11  12
ATOM     12  C   UNL     1      60.423  33.766  15.664  1.00  0.00     0.000 C 
BRANCH  12  13
ATOM     13  C   UNL     1      60.203  32.965  14.369  1.00  0.00     0.006 C 
BRANCH  13  14
ATOM     14  C   UNL     1      59.533  31.609  14.630  1.00  0.00     0.053 C 
BRANCH  14  15
ATOM     15  C   UNL     1      59.952  30.575  13.630  1.00  0.00     0.041 C 
ATOM     16  O   UNL     1      60.637  29.581  13.991  1.00  0.00    -0.550 OA
ATOM     17  O   UNL     1      59.592  30.713  12.294  1.00  0.00    -0.550 OA
ENDBRANCH  14  15
ENDBRANCH  13  14
ENDBRANCH  12  13
ENDBRANCH  11  12
ENDBRANCH  10  11
ENDBRANCH   9  10
ENDBRANCH   8   9
ENDBRANCH   7   8
ENDBRANCH   6   7
ENDBRANCH   5   6
ENDBRANCH   4   5
ENDBRANCH   3   4
ENDBRANCH   2   3
ENDBRANCH   1   2
BRANCH   1  18
ATOM     18  C   UNL     1      61.658  29.330  24.958  1.00  0.00     0.000 C 
BRANCH  18  19
ATOM     19  C   UNL     1      61.193  27.877  24.773  1.00  0.00     0.000 C 
BRANCH  19  20
ATOM     20  C   UNL     1      60.317  27.373  25.938  1.00  0.00     0.000 C 
BRANCH  20  21
ATOM     21  C   UNL     1      61.077  27.198  27.268  1.00  0.00     0.000 C 
BRANCH  21  22
ATOM     22  C   UNL     1      60.830  28.296  28.320  1.00  0.00     0.000 C 
BRANCH  22  23
ATOM     23  C   UNL     1      62.100  28.897  28.951  1.00  0.00     0.000 C 
BRANCH  23  24
ATOM     24  C   UNL     1      62.382  30.331  28.478  1.00  0.00    -0.000 C 
BRANCH  24  25
ATOM     25  C   UNL     1      63.802  30.454  27.906  1.00  0.00    -0.000 C 
BRANCH  25  26
ATOM     26  C   UNL     1      64.292  29.151  27.252  1.00  0.00    -0.000 C 
BRANCH  26  27
ATOM     27  C   UNL     1      65.564  29.349  26.414  1.00  0.00    -0.000 C 
BRANCH  27  28
ATOM     28  C   UNL     1      65.670  28.283  25.315  1.00  0.00    -0.000 C 
BRANCH  28  29
ATOM     29  C   UNL     1      64.728  27.088  25.547  1.00  0.00    -0.000 C 
BRANCH  29  30
ATOM     30  C   UNL     1      64.737  26.017  24.436  1.00  0.00    -0.000 C 
BRANCH  30  31
ATOM     31  C   UNL     1      64.344  26.526  23.038  1.00  0.00    -0.003 C 
ATOM     32  C   UNL     1      65.531  26.606  22.079  1.00  0.00     0.004 C 
ENDBRANCH  30  31
ENDBRANCH  29  30
ENDBRANCH  28  29
ENDBRANCH  27  28
ENDBRANCH  26  27
ENDBRANCH  25  26
ENDBRANCH  24  25
ENDBRANCH  23  24
ENDBRANCH  22  23
ENDBRANCH  21  22
ENDBRANCH  20  21
ENDBRANCH  19  20
ENDBRANCH  18  19
ENDBRANCH   1  18
TORSDOF 28
ENDMDL
MODEL 2
REMARK VINA RESULT:    -4.879      1.331      2.814
REMARK INTER + INTRA:         -16.520
REMARK INTER:                 -13.444
REMARK INTRA:                  -3.076
REMARK UNBOUND:                -3.656
REMARK SMILES CCCCCCCCCCCCCCCCCCCCCCCCCCCCCC(=O)[O-]
REMARK SMILES IDX 16 1 17 2 18 3 19 4 20 5 21 6 22 7 23 8 24 9 25 10 26 11
REMARK SMILES IDX 27 12 28 13 29 14 30 15 31 16 32 17 15 18 14 19 13 20 12 21
REMARK SMILES IDX 11 22 10 23 9 24 8 25 7 26 6 27 5 28 4 29 3 30 2 31 1 32
REMARK H PARENT
REMARK Flexibility Score: inf
ROOT
ATOM      1  C   UNL     1      66.382  29.522  24.992  1.00  0.00     0.000 C 
ENDROOT
BRANCH   1   2
ATOM      2  C   UNL     1      65.511  30.172  23.908  1.00  0.00     0.000 C 
BRANCH   2   3
ATOM      3  C   UNL     1      66.335  30.926  22.850  1.00  0.00     0.000 C 
BRANCH   3   4
ATOM      4  C   UNL     1      65.604  32.099  22.168  1.00  0.00     0.000 C 
BRANCH   4   5
ATOM      5  C   UNL     1      64.191  32.389  22.708  1.00  0.00     0.000 C 
BRANCH   5   6
ATOM      6  C   UNL     1      63.386  33.418  21.895  1.00  0.00     0.000 C 
BRANCH   6   7
ATOM      7  C   UNL     1      64.106  33.851  20.608  1.00  0.00     0.000 C 
BRANCH   7   8
ATOM      8  C   UNL     1      63.260  33.545  19.366  1.00  0.00     0.000 C 
BRANCH   8   9
ATOM      9  C   UNL     1      61.761  33.541  19.705  1.00  0.00     0.000 C 
BRANCH   9  10
ATOM     10  C   UNL     1      60.878  33.889  18.497  1.00  0.00     0.000 C 
BRANCH  10  11
ATOM     11  C   UNL     1      61.632  33.790  17.160  1.00  0.00     0.000 C 
BRANCH  11  12
ATOM     12  C   UNL     1      60.716  33.370  16.000  1.00  0.00     0.000 C 
BRANCH  12  13
ATOM     13  C   UNL     1      61.495  32.756  14.824  1.00  0.00     0.006 C 
BRANCH  13  14
ATOM     14  C   UNL     1      60.649  32.667  13.547  1.00  0.00     0.053 C 
BRANCH  14  15
ATOM     15  C   UNL     1      59.728  31.484  13.566  1.00  0.00     0.041 C 
ATOM     16  O   UNL     1      58.631  31.542  14.181  1.00  0.00    -0.550 OA
ATOM     17  O   UNL     1      60.087  30.313  12.909  1.00  0.00    -0.550 OA
ENDBRANCH  14  15
ENDBRANCH  13  14
ENDBRANCH  12  13
ENDBRANCH  11  12
ENDBRANCH  10  11
ENDBRANCH   9  10
ENDBRANCH   8   9
ENDBRANCH   7   8
ENDBRANCH   6   7
ENDBRANCH   5   6
ENDBRANCH   4   5
ENDBRANCH   3   4
ENDBRANCH   2   3
ENDBRANCH   1   2
BRANCH   1  18
ATOM     18  C   UNL     1      65.545  29.121  26.213  1.00  0.00     0.000 C 
BRANCH  18  19
ATOM     19  C   UNL     1      64.157  29.779  26.163  1.00  0.00     0.000 C 
BRANCH  19  20
ATOM     20  C   UNL     1      63.525  29.956  27.559  1.00  0.00     0.000 C 
BRANCH  20  21
ATOM     21  C   UNL     1      62.001  29.727  27.594  1.00  0.00     0.000 C 
BRANCH  21  22
ATOM     22  C   UNL     1      61.555  28.296  27.950  1.00  0.00     0.000 C 
BRANCH  22  23
ATOM     23  C   UNL     1      60.625  27.625  26.922  1.00  0.00     0.000 C 
BRANCH  23  24
ATOM     24  C   UNL     1      61.256  27.519  25.526  1.00  0.00    -0.000 C 
BRANCH  24  25
ATOM     25  C   UNL     1      62.373  26.464  25.504  1.00  0.00    -0.000 C 
BRANCH  25  26
ATOM     26  C   UNL     1      63.434  26.750  24.428  1.00  0.00    -0.000 C 
BRANCH  26  27
ATOM     27  C   UNL     1      64.672  25.849  24.561  1.00  0.00    -0.000 C 
BRANCH  27  28
ATOM     28  C   UNL     1      65.503  25.863  23.270  1.00  0.00    -0.000 C 
BRANCH  28  29
ATOM     29  C   UNL     1      65.108  27.004  22.315  1.00  0.00    -0.000 C 
BRANCH  29  30
ATOM     30  C   UNL     1      66.046  27.205  21.107  1.00  0.00    -0.000 C 
BRANCH  30  31
ATOM     31  C   UNL     1      66.397  25.923  20.333  1.00  0.00    -0.003 C 
ATOM     32  C   UNL     1      65.730  25.853  18.961  1.00  0.00     0.004 C 
ENDBRANCH  30  31
ENDBRANCH  29  30
ENDBRANCH  28  29
ENDBRANCH  27  28
ENDBRANCH  26  27
ENDBRANCH  25  26
ENDBRANCH  24  25
ENDBRANCH  23  24
ENDBRANCH  22  23
ENDBRANCH  21  22
ENDBRANCH  20  21
ENDBRANCH  19  20
ENDBRANCH  18  19
ENDBRANCH   1  18
TORSDOF 28
ENDMDL
MODEL 3
REMARK VINA RESULT:    -4.870      1.208      3.165
REMARK INTER + INTRA:         -16.497
REMARK INTER:                 -13.451
REMARK INTRA:                  -3.046
REMARK UNBOUND:                -3.656
REMARK SMILES CCCCCCCCCCCCCCCCCCCCCCCCCCCCCC(=O)[O-]
REMARK SMILES IDX 16 1 17 2 18 3 19 4 20 5 21 6 22 7 23 8 24 9 25 10 26 11
REMARK SMILES IDX 27 12 28 13 29 14 30 15 31 16 32 17 15 18 14 19 13 20 12 21
REMARK SMILES IDX 11 22 10 23 9 24 8 25 7 26 6 27 5 28 4 29 3 30 2 31 1 32
REMARK H PARENT
REMARK Flexibility Score: inf
ROOT
ATOM      1  C   UNL     1      66.312  30.424  22.493  1.00  0.00     0.000 C 
ENDROOT
BRANCH   1   2
ATOM      2  C   UNL     1      66.480  31.950  22.490  1.00  0.00     0.000 C 
BRANCH   2   3
ATOM      3  C   UNL     1      65.969  32.607  21.195  1.00  0.00     0.000 C 
BRANCH   3   4
ATOM      4  C   UNL     1      64.586  33.278  21.306  1.00  0.00     0.000 C 
BRANCH   4   5
ATOM      5  C   UNL     1      64.214  34.201  20.130  1.00  0.00     0.000 C 
BRANCH   5   6
ATOM      6  C   UNL     1      63.449  33.513  18.986  1.00  0.00     0.000 C 
BRANCH   6   7
ATOM      7  C   UNL     1      61.929  33.498  19.213  1.00  0.00     0.000 C 
BRANCH   7   8
ATOM      8  C   UNL     1      61.183  34.125  18.029  1.00  0.00     0.000 C 
BRANCH   8   9
ATOM      9  C   UNL     1      61.758  33.634  16.690  1.00  0.00     0.000 C 
BRANCH   9  10
ATOM     10  C   UNL     1      60.987  32.436  16.117  1.00  0.00     0.000 C 
BRANCH  10  11
ATOM     11  C   UNL     1      60.230  32.777  14.823  1.00  0.00     0.000 C 
BRANCH  11  12
ATOM     12  C   UNL     1      61.120  32.663  13.575  1.00  0.00     0.000 C 
BRANCH  12  13
ATOM     13  C   UNL     1      61.030  31.279  12.909  1.00  0.00     0.006 C 
BRANCH  13  14
ATOM     14  C   UNL     1      59.623  30.676  13.008  1.00  0.00     0.053 C 
BRANCH  14  15
ATOM     15  C   UNL     1      59.641  29.184  12.862  1.00  0.00     0.041 C 
ATOM     16  O   UNL     1      58.972  28.627  11.952  1.00  0.00    -0.550 OA
ATOM     17  O   UNL     1      60.393  28.408  13.736  1.00  0.00    -0.550 OA
ENDBRANCH  14  15
ENDBRANCH  13  14
ENDBRANCH  12  13
ENDBRANCH  11  12
ENDBRANCH  10  11
ENDBRANCH   9  10
ENDBRANCH   8   9
ENDBRANCH   7   8
ENDBRANCH   6   7
ENDBRANCH   5   6
ENDBRANCH   4   5
ENDBRANCH   3   4
ENDBRANCH   2   3
ENDBRANCH   1   2
BRANCH   1  18
ATOM     18  C   UNL     1      65.583  29.946  23.755  1.00  0.00     0.000 C 
BRANCH  18  19
ATOM     19  C   UNL     1      66.566  29.779  24.923  1.00  0.00     0.000 C 
BRANCH  19  20
ATOM     20  C   UNL     1      65.870  29.387  26.243  1.00  0.00     0.000 C 
BRANCH  20  21
ATOM     21  C   UNL     1      64.350  29.646  26.254  1.00  0.00     0.000 C 
BRANCH  21  22
ATOM     22  C   UNL     1      63.833  30.496  27.431  1.00  0.00     0.000 C 
BRANCH  22  23
ATOM     23  C   UNL     1      62.501  30.025  28.043  1.00  0.00     0.000 C 
BRANCH  23  24
ATOM     24  C   UNL     1      62.618  28.673  28.762  1.00  0.00    -0.000 C 
BRANCH  24  25
ATOM     25  C   UNL     1      61.727  27.614  28.095  1.00  0.00    -0.000 C 
BRANCH  25  26
ATOM     26  C   UNL     1      60.748  28.222  27.076  1.00  0.00    -0.000 C 
BRANCH  26  27
ATOM     27  C   UNL     1      60.715  27.448  25.750  1.00  0.00    -0.000 C 
BRANCH  27  28
ATOM     28  C   UNL     1      61.355  28.266  24.620  1.00  0.00    -0.000 C 
BRANCH  28  29
ATOM     29  C   UNL     1      62.552  27.551  23.966  1.00  0.00    -0.000 C 
BRANCH  29  30
ATOM     30  C   UNL     1      62.997  26.246  24.658  1.00  0.00    -0.000 C 
BRANCH  30  31
ATOM     31  C   UNL     1      64.506  26.140  24.940  1.00  0.00    -0.003 C 
ATOM     32  C   UNL     1      65.352  26.154  23.669  1.00  0.00     0.004 C 
ENDBRANCH  30  31
ENDBRANCH  29  30
ENDBRANCH  28  29
ENDBRANCH  27  28
ENDBRANCH  26  27
ENDBRANCH  25  26
ENDBRANCH  24  25
ENDBRANCH  23  24
ENDBRANCH  22  23
ENDBRANCH  21  22
ENDBRANCH  20  21
ENDBRANCH  19  20
ENDBRANCH  18  19
ENDBRANCH   1  18
TORSDOF 28
ENDMDL
MODEL 4
REMARK VINA RESULT:    -4.854      2.676     10.050
REMARK INTER + INTRA:         -16.455
REMARK INTER:                 -13.193
REMARK INTRA:                  -3.261
REMARK UNBOUND:                -3.656
REMARK SMILES CCCCCCCCCCCCCCCCCCCCCCCCCCCCCC(=O)[O-]
REMARK SMILES IDX 16 1 17 2 18 3 19 4 20 5 21 6 22 7 23 8 24 9 25 10 26 11
REMARK SMILES IDX 27 12 28 13 29 14 30 15 31 16 32 17 15 18 14 19 13 20 12 21
REMARK SMILES IDX 11 22 10 23 9 24 8 25 7 26 6 27 5 28 4 29 3 30 2 31 1 32
REMARK H PARENT
REMARK Flexibility Score: inf
ROOT
ATOM      1  C   UNL     1      65.148  29.788  23.923  1.00  0.00     0.000 C 
ENDROOT
BRANCH   1   2
ATOM      2  C   UNL     1      66.013  29.317  25.101  1.00  0.00     0.000 C 
BRANCH   2   3
ATOM      3  C   UNL     1      65.266  29.358  26.446  1.00  0.00     0.000 C 
BRANCH   3   4
ATOM      4  C   UNL     1      63.961  30.179  26.443  1.00  0.00     0.000 C 
BRANCH   4   5
ATOM      5  C   UNL     1      63.068  29.988  27.684  1.00  0.00     0.000 C 
BRANCH   5   6
ATOM      6  C   UNL     1      61.719  29.301  27.409  1.00  0.00     0.000 C 
BRANCH   6   7
ATOM      7  C   UNL     1      61.459  29.081  25.910  1.00  0.00     0.000 C 
BRANCH   7   8
ATOM      8  C   UNL     1      61.228  27.599  25.596  1.00  0.00     0.000 C 
BRANCH   8   9
ATOM      9  C   UNL     1      62.368  27.032  24.735  1.00  0.00     0.000 C 
BRANCH   9  10
ATOM     10  C   UNL     1      63.465  26.358  25.572  1.00  0.00     0.000 C 
BRANCH  10  11
ATOM     11  C   UNL     1      64.669  25.909  24.728  1.00  0.00     0.000 C 
BRANCH  11  12
ATOM     12  C   UNL     1      64.460  26.163  23.226  1.00  0.00     0.000 C 
BRANCH  12  13
ATOM     13  C   UNL     1      65.687  25.772  22.385  1.00  0.00     0.006 C 
BRANCH  13  14
ATOM     14  C   UNL     1      66.301  26.975  21.656  1.00  0.00     0.053 C 
BRANCH  14  15
ATOM     15  C   UNL     1      66.405  26.743  20.179  1.00  0.00     0.041 C 
ATOM     16  O   UNL     1      66.825  27.656  19.420  1.00  0.00    -0.550 OA
ATOM     17  O   UNL     1      66.031  25.517  19.640  1.00  0.00    -0.550 OA
ENDBRANCH  14  15
ENDBRANCH  13  14
ENDBRANCH  12  13
ENDBRANCH  11  12
ENDBRANCH  10  11
ENDBRANCH   9  10
ENDBRANCH   8   9
ENDBRANCH   7   8
ENDBRANCH   6   7
ENDBRANCH   5   6
ENDBRANCH   4   5
ENDBRANCH   3   4
ENDBRANCH   2   3
ENDBRANCH   1   2
BRANCH   1  18
ATOM     18  C   UNL     1      65.873  30.852  23.091  1.00  0.00     0.000 C 
BRANCH  18  19
ATOM     19  C   UNL     1      64.925  32.007  22.733  1.00  0.00     0.000 C 
BRANCH  19  20
ATOM     20  C   UNL     1      65.364  32.777  21.471  1.00  0.00     0.000 C 
BRANCH  20  21
ATOM     21  C   UNL     1      64.288  33.725  20.905  1.00  0.00     0.000 C 
BRANCH  21  22
ATOM     22  C   UNL     1      64.335  33.943  19.381  1.00  0.00     0.000 C 
BRANCH  22  23
ATOM     23  C   UNL     1      63.081  33.482  18.614  1.00  0.00     0.000 C 
BRANCH  23  24
ATOM     24  C   UNL     1      63.261  33.527  17.090  1.00  0.00    -0.000 C 
BRANCH  24  25
ATOM     25  C   UNL     1      62.118  32.788  16.377  1.00  0.00    -0.000 C 
BRANCH  25  26
ATOM     26  C   UNL     1      62.531  32.253  14.996  1.00  0.00    -0.000 C 
BRANCH  26  27
ATOM     27  C   UNL     1      61.591  32.718  13.874  1.00  0.00    -0.000 C 
BRANCH  27  28
ATOM     28  C   UNL     1      60.142  32.808  14.373  1.00  0.00    -0.000 C 
BRANCH  28  29
ATOM     29  C   UNL     1      59.275  31.622  13.913  1.00  0.00    -0.000 C 
BRANCH  29  30
ATOM     30  C   UNL     1      59.850  30.802  12.740  1.00  0.00    -0.000 C 
BRANCH  30  31
ATOM     31  C   UNL     1      59.989  29.293  13.005  1.00  0.00    -0.003 C 
ATOM     32  C   UNL     1      60.994  28.972  14.109  1.00  0.00     0.004 C 
ENDBRANCH  30  31
ENDBRANCH  29  30
ENDBRANCH  28  29
ENDBRANCH  27  28
ENDBRANCH  26  27
ENDBRANCH  25  26
ENDBRANCH  24  25
ENDBRANCH  23  24
ENDBRANCH  22  23
ENDBRANCH  21  22
ENDBRANCH  20  21
ENDBRANCH  19  20
ENDBRANCH  18  19
ENDBRANCH   1  18
TORSDOF 28
ENDMDL
MODEL 5
REMARK VINA RESULT:    -4.816      1.101      2.975
REMARK INTER + INTRA:         -16.355
REMARK INTER:                 -13.281
REMARK INTRA:                  -3.075
REMARK UNBOUND:                -3.656
REMARK SMILES CCCCCCCCCCCCCCCCCCCCCCCCCCCCCC(=O)[O-]
REMARK SMILES IDX 16 1 17 2 18 3 19 4 20 5 21 6 22 7 23 8 24 9 25 10 26 11
REMARK SMILES IDX 27 12 28 13 29 14 30 15 31 16 32 17 15 18 14 19 13 20 12 21
REMARK SMILES IDX 11 22 10 23 9 24 8 25 7 26 6 27 5 28 4 29 3 30 2 31 1 32
REMARK H PARENT
REMARK Flexibility Score: inf
ROOT
ATOM      1  C   UNL     1      66.276  29.341  23.923  1.00  0.00     0.000 C 
ENDROOT
BRANCH   1   2
ATOM      2  C   UNL     1      65.504  30.567  23.412  1.00  0.00     0.000 C 
BRANCH   2   3
ATOM      3  C   UNL     1      66.423  31.641  22.802  1.00  0.00     0.000 C 
BRANCH   3   4
ATOM      4  C   UNL     1      65.786  32.480  21.677  1.00  0.00     0.000 C 
BRANCH   4   5
ATOM      5  C   UNL     1      64.414  33.093  22.018  1.00  0.00     0.000 C 
BRANCH   5   6
ATOM      6  C   UNL     1      63.731  33.835  20.855  1.00  0.00     0.000 C 
BRANCH   6   7
ATOM      7  C   UNL     1      64.468  33.651  19.519  1.00  0.00     0.000 C 
BRANCH   7   8
ATOM      8  C   UNL     1      63.505  33.762  18.332  1.00  0.00     0.000 C 
BRANCH   8   9
ATOM      9  C   UNL     1      62.049  33.552  18.778  1.00  0.00     0.000 C 
BRANCH   9  10
ATOM     10  C   UNL     1      61.035  33.906  17.680  1.00  0.00     0.000 C 
BRANCH  10  11
ATOM     11  C   UNL     1      61.531  33.542  16.271  1.00  0.00     0.000 C 
BRANCH  11  12
ATOM     12  C   UNL     1      60.671  32.454  15.609  1.00  0.00     0.000 C 
BRANCH  12  13
ATOM     13  C   UNL     1      60.105  32.895  14.248  1.00  0.00     0.006 C 
BRANCH  13  14
ATOM     14  C   UNL     1      59.619  31.707  13.407  1.00  0.00     0.053 C 
BRANCH  14  15
ATOM     15  C   UNL     1      60.691  30.677  13.218  1.00  0.00     0.041 C 
ATOM     16  O   UNL     1      61.703  30.935  12.513  1.00  0.00    -0.550 OA
ATOM     17  O   UNL     1      60.569  29.428  13.816  1.00  0.00    -0.550 OA
ENDBRANCH  14  15
ENDBRANCH  13  14
ENDBRANCH  12  13
ENDBRANCH  11  12
ENDBRANCH  10  11
ENDBRANCH   9  10
ENDBRANCH   8   9
ENDBRANCH   7   8
ENDBRANCH   6   7
ENDBRANCH   5   6
ENDBRANCH   4   5
ENDBRANCH   3   4
ENDBRANCH   2   3
ENDBRANCH   1   2
BRANCH   1  18
ATOM     18  C   UNL     1      66.822  29.576  25.336  1.00  0.00     0.000 C 
BRANCH  18  19
ATOM     19  C   UNL     1      65.720  29.374  26.388  1.00  0.00     0.000 C 
BRANCH  19  20
ATOM     20  C   UNL     1      65.894  30.283  27.623  1.00  0.00     0.000 C 
BRANCH  20  21
ATOM     21  C   UNL     1      64.640  30.384  28.513  1.00  0.00     0.000 C 
BRANCH  21  22
ATOM     22  C   UNL     1      63.483  29.438  28.134  1.00  0.00     0.000 C 
BRANCH  22  23
ATOM     23  C   UNL     1      62.086  29.896  28.593  1.00  0.00     0.000 C 
BRANCH  23  24
ATOM     24  C   UNL     1      61.030  28.786  28.490  1.00  0.00    -0.000 C 
BRANCH  24  25
ATOM     25  C   UNL     1      61.487  27.677  27.529  1.00  0.00    -0.000 C 
BRANCH  25  26
ATOM     26  C   UNL     1      60.338  27.137  26.661  1.00  0.00    -0.000 C 
BRANCH  26  27
ATOM     27  C   UNL     1      60.480  27.524  25.181  1.00  0.00    -0.000 C 
BRANCH  27  28
ATOM     28  C   UNL     1      61.224  28.859  25.032  1.00  0.00    -0.000 C 
BRANCH  28  29
ATOM     29  C   UNL     1      62.591  28.710  24.341  1.00  0.00    -0.000 C 
BRANCH  29  30
ATOM     30  C   UNL     1      62.982  27.267  23.961  1.00  0.00    -0.000 C 
BRANCH  30  31
ATOM     31  C   UNL     1      64.020  26.607  24.886  1.00  0.00    -0.003 C 
ATOM     32  C   UNL     1      65.066  25.795  24.125  1.00  0.00     0.004 C 
ENDBRANCH  30  31
ENDBRANCH  29  30
ENDBRANCH  28  29
ENDBRANCH  27  28
ENDBRANCH  26  27
ENDBRANCH  25  26
ENDBRANCH  24  25
ENDBRANCH  23  24
ENDBRANCH  22  23
ENDBRANCH  21  22
ENDBRANCH  20  21
ENDBRANCH  19  20
ENDBRANCH  18  19
ENDBRANCH   1  18
TORSDOF 28
ENDMDL
MODEL 6
REMARK VINA RESULT:    -4.773      6.467     11.844
REMARK INTER + INTRA:         -16.242
REMARK INTER:                 -11.787
REMARK INTRA:                  -4.456
REMARK UNBOUND:                -3.656
REMARK SMILES CCCCCCCCCCCCCCCCCCCCCCCCCCCCCC(=O)[O-]
REMARK SMILES IDX 16 1 17 2 18 3 19 4 20 5 21 6 22 7 23 8 24 9 25 10 26 11
REMARK SMILES IDX 27 12 28 13 29 14 30 15 31 16 32 17 15 18 14 19 13 20 12 21
REMARK SMILES IDX 11 22 10 23 9 24 8 25 7 26 6 27 5 28 4 29 3 30 2 31 1 32
REMARK H PARENT
REMARK Flexibility Score: inf
ROOT
ATOM      1  C   UNL     1      61.132  28.119   8.934  1.00  0.00     0.000 C 
ENDROOT
BRANCH   1   2
ATOM      2  C   UNL     1      60.204  29.302   9.246  1.00  0.00     0.000 C 
BRANCH   2   3
ATOM      3  C   UNL     1      59.267  29.030  10.437  1.00  0.00     0.000 C 
BRANCH   3   4
ATOM      4  C   UNL     1      59.663  29.731  11.752  1.00  0.00     0.000 C 
BRANCH   4   5
ATOM      5  C   UNL     1      59.596  28.842  13.009  1.00  0.00     0.000 C 
BRANCH   5   6
ATOM      6  C   UNL     1      60.941  28.634  13.725  1.00  0.00     0.000 C 
BRANCH   6   7
ATOM      7  C   UNL     1      62.132  28.600  12.754  1.00  0.00     0.000 C 
BRANCH   7   8
ATOM      8  C   UNL     1      63.415  29.104  13.427  1.00  0.00     0.000 C 
BRANCH   8   9
ATOM      9  C   UNL     1      63.097  30.132  14.524  1.00  0.00     0.000 C 
BRANCH   9  10
ATOM     10  C   UNL     1      63.904  31.430  14.372  1.00  0.00     0.000 C 
BRANCH  10  11
ATOM     11  C   UNL     1      63.016  32.660  14.122  1.00  0.00     0.000 C 
BRANCH  11  12
ATOM     12  C   UNL     1      61.850  32.357  13.167  1.00  0.00     0.000 C 
BRANCH  12  13
ATOM     13  C   UNL     1      60.490  32.799  13.735  1.00  0.00     0.006 C 
BRANCH  13  14
ATOM     14  C   UNL     1      60.349  32.472  15.227  1.00  0.00     0.053 C 
BRANCH  14  15
ATOM     15  C   UNL     1      60.486  33.693  16.084  1.00  0.00     0.041 C 
ATOM     16  O   UNL     1      59.705  34.669  15.930  1.00  0.00    -0.550 OA
ATOM     17  O   UNL     1      61.483  33.756  17.051  1.00  0.00    -0.550 OA
ENDBRANCH  14  15
ENDBRANCH  13  14
ENDBRANCH  12  13
ENDBRANCH  11  12
ENDBRANCH  10  11
ENDBRANCH   9  10
ENDBRANCH   8   9
ENDBRANCH   7   8
ENDBRANCH   6   7
ENDBRANCH   5   6
ENDBRANCH   4   5
ENDBRANCH   3   4
ENDBRANCH   2   3
ENDBRANCH   1   2
BRANCH   1  18
ATOM     18  C   UNL     1      62.595  28.463   9.243  1.00  0.00     0.000 C 
BRANCH  18  19
ATOM     19  C   UNL     1      62.787  29.983   9.354  1.00  0.00     0.000 C 
BRANCH  19  20
ATOM     20  C   UNL     1      64.142  30.374   9.979  1.00  0.00     0.000 C 
BRANCH  20  21
ATOM     21  C   UNL     1      64.804  31.605   9.330  1.00  0.00     0.000 C 
BRANCH  21  22
ATOM     22  C   UNL     1      65.816  32.356  10.217  1.00  0.00     0.000 C 
BRANCH  22  23
ATOM     23  C   UNL     1      65.206  33.105  11.416  1.00  0.00     0.000 C 
BRANCH  23  24
ATOM     24  C   UNL     1      65.937  34.418  11.735  1.00  0.00    -0.000 C 
BRANCH  24  25
ATOM     25  C   UNL     1      66.550  34.380  13.143  1.00  0.00    -0.000 C 
BRANCH  25  26
ATOM     26  C   UNL     1      65.708  35.148  14.176  1.00  0.00    -0.000 C 
BRANCH  26  27
ATOM     27  C   UNL     1      66.331  35.131  15.580  1.00  0.00    -0.000 C 
BRANCH  27  28
ATOM     28  C   UNL     1      65.800  33.949  16.402  1.00  0.00    -0.000 C 
BRANCH  28  29
ATOM     29  C   UNL     1      64.881  34.387  17.557  1.00  0.00    -0.000 C 
BRANCH  29  30
ATOM     30  C   UNL     1      64.608  33.309  18.627  1.00  0.00    -0.000 C 
BRANCH  30  31
ATOM     31  C   UNL     1      64.383  33.846  20.051  1.00  0.00    -0.003 C 
ATOM     32  C   UNL     1      65.176  35.119  20.339  1.00  0.00     0.004 C 
ENDBRANCH  30  31
ENDBRANCH  29  30
ENDBRANCH  28  29
ENDBRANCH  27  28
ENDBRANCH  26  27
ENDBRANCH  25  26
ENDBRANCH  24  25
ENDBRANCH  23  24
ENDBRANCH  22  23
ENDBRANCH  21  22
ENDBRANCH  20  21
ENDBRANCH  19  20
ENDBRANCH  18  19
ENDBRANCH   1  18
TORSDOF 28
ENDMDL
MODEL 7
REMARK VINA RESULT:    -4.761      3.212     10.324
REMARK INTER + INTRA:         -16.211
REMARK INTER:                 -13.428
REMARK INTRA:                  -2.783
REMARK UNBOUND:                -3.656
REMARK SMILES CCCCCCCCCCCCCCCCCCCCCCCCCCCCCC(=O)[O-]
REMARK SMILES IDX 16 1 17 2 18 3 19 4 20 5 21 6 22 7 23 8 24 9 25 10 26 11
REMARK SMILES IDX 27 12 28 13 29 14 30 15 31 16 32 17 15 18 14 19 13 20 12 21
REMARK SMILES IDX 11 22 10 23 9 24 8 25 7 26 6 27 5 28 4 29 3 30 2 31 1 32
REMARK H PARENT
REMARK Flexibility Score: inf
ROOT
ATOM      1  C   UNL     1      65.280  30.197  23.566  1.00  0.00     0.000 C 
ENDROOT
BRANCH   1   2
ATOM      2  C   UNL     1      66.471  29.527  24.266  1.00  0.00     0.000 C 
BRANCH   2   3
ATOM      3  C   UNL     1      66.275  29.395  25.787  1.00  0.00     0.000 C 
BRANCH   3   4
ATOM      4  C   UNL     1      64.841  29.049  26.232  1.00  0.00     0.000 C 
BRANCH   4   5
ATOM      5  C   UNL     1      64.305  29.886  27.410  1.00  0.00     0.000 C 
BRANCH   5   6
ATOM      6  C   UNL     1      62.780  30.093  27.414  1.00  0.00     0.000 C 
BRANCH   6   7
ATOM      7  C   UNL     1      62.073  29.275  28.507  1.00  0.00     0.000 C 
BRANCH   7   8
ATOM      8  C   UNL     1      60.759  28.676  27.992  1.00  0.00     0.000 C 
BRANCH   8   9
ATOM      9  C   UNL     1      60.898  27.166  27.746  1.00  0.00     0.000 C 
BRANCH   9  10
ATOM     10  C   UNL     1      60.596  26.772  26.292  1.00  0.00     0.000 C 
BRANCH  10  11
ATOM     11  C   UNL     1      60.459  27.988  25.361  1.00  0.00     0.000 C 
BRANCH  11  12
ATOM     12  C   UNL     1      61.635  28.109  24.377  1.00  0.00     0.000 C 
BRANCH  12  13
ATOM     13  C   UNL     1      62.553  26.875  24.399  1.00  0.00     0.006 C 
BRANCH  13  14
ATOM     14  C   UNL     1      63.668  26.960  23.349  1.00  0.00     0.053 C 
BRANCH  14  15
ATOM     15  C   UNL     1      64.811  26.045  23.669  1.00  0.00     0.041 C 
ATOM     16  O   UNL     1      65.192  25.897  24.860  1.00  0.00    -0.550 OA
ATOM     17  O   UNL     1      65.460  25.360  22.649  1.00  0.00    -0.550 OA
ENDBRANCH  14  15
ENDBRANCH  13  14
ENDBRANCH  12  13
ENDBRANCH  11  12
ENDBRANCH  10  11
ENDBRANCH   9  10
ENDBRANCH   8   9
ENDBRANCH   7   8
ENDBRANCH   6   7
ENDBRANCH   5   6
ENDBRANCH   4   5
ENDBRANCH   3   4
ENDBRANCH   2   3
ENDBRANCH   1   2
BRANCH   1  18
ATOM     18  C   UNL     1      65.722  31.439  22.783  1.00  0.00     0.000 C 
BRANCH  18  19
ATOM     19  C   UNL     1      64.548  32.413  22.594  1.00  0.00     0.000 C 
BRANCH  19  20
ATOM     20  C   UNL     1      64.643  33.222  21.284  1.00  0.00     0.000 C 
BRANCH  20  21
ATOM     21  C   UNL     1      63.336  33.939  20.890  1.00  0.00     0.000 C 
BRANCH  21  22
ATOM     22  C   UNL     1      62.715  33.494  19.552  1.00  0.00     0.000 C 
BRANCH  22  23
ATOM     23  C   UNL     1      61.233  33.867  19.363  1.00  0.00     0.000 C 
BRANCH  23  24
ATOM     24  C   UNL     1      60.811  33.907  17.887  1.00  0.00    -0.000 C 
BRANCH  24  25
ATOM     25  C   UNL     1      61.919  33.348  16.981  1.00  0.00    -0.000 C 
BRANCH  25  26
ATOM     26  C   UNL     1      61.391  32.320  15.966  1.00  0.00    -0.000 C 
BRANCH  26  27
ATOM     27  C   UNL     1      61.354  32.866  14.531  1.00  0.00    -0.000 C 
BRANCH  27  28
ATOM     28  C   UNL     1      59.955  32.710  13.919  1.00  0.00    -0.000 C 
BRANCH  28  29
ATOM     29  C   UNL     1      59.633  31.257  13.524  1.00  0.00    -0.000 C 
BRANCH  29  30
ATOM     30  C   UNL     1      60.589  30.630  12.487  1.00  0.00    -0.000 C 
BRANCH  30  31
ATOM     31  C   UNL     1      60.641  29.093  12.495  1.00  0.00    -0.003 C 
ATOM     32  C   UNL     1      62.040  28.543  12.224  1.00  0.00     0.004 C 
ENDBRANCH  30  31
ENDBRANCH  29  30
ENDBRANCH  28  29
ENDBRANCH  27  28
ENDBRANCH  26  27
ENDBRANCH  25  26
ENDBRANCH  24  25
ENDBRANCH  23  24
ENDBRANCH  22  23
ENDBRANCH  21  22
ENDBRANCH  20  21
ENDBRANCH  19  20
ENDBRANCH  18  19
ENDBRANCH   1  18
TORSDOF 28
ENDMDL
MODEL 8
REMARK VINA RESULT:    -4.740      1.466      3.756
REMARK INTER + INTRA:         -16.154
REMARK INTER:                 -13.364
REMARK INTRA:                  -2.790
REMARK UNBOUND:                -3.656
REMARK SMILES CCCCCCCCCCCCCCCCCCCCCCCCCCCCCC(=O)[O-]
REMARK SMILES IDX 16 1 17 2 18 3 19 4 20 5 21 6 22 7 23 8 24 9 25 10 26 11
REMARK SMILES IDX 27 12 28 13 29 14 30 15 31 16 32 17 15 18 14 19 13 20 12 21
REMARK SMILES IDX 11 22 10 23 9 24 8 25 7 26 6 27 5 28 4 29 3 30 2 31 1 32
REMARK H PARENT
REMARK Flexibility Score: inf
ROOT
ATOM      1  C   UNL     1      65.477  32.029  22.080  1.00  0.00     0.000 C 
ENDROOT
BRANCH   1   2
ATOM      2  C   UNL     1      64.147  32.409  22.746  1.00  0.00     0.000 C 
BRANCH   2   3
ATOM      3  C   UNL     1      63.293  33.354  21.881  1.00  0.00     0.000 C 
BRANCH   3   4
ATOM      4  C   UNL     1      63.991  33.888  20.614  1.00  0.00     0.000 C 
BRANCH   4   5
ATOM      5  C   UNL     1      63.280  33.554  19.289  1.00  0.00     0.000 C 
BRANCH   5   6
ATOM      6  C   UNL     1      61.743  33.596  19.352  1.00  0.00     0.000 C 
BRANCH   6   7
ATOM      7  C   UNL     1      61.081  33.002  18.098  1.00  0.00     0.000 C 
BRANCH   7   8
ATOM      8  C   UNL     1      61.245  33.930  16.889  1.00  0.00     0.000 C 
BRANCH   8   9
ATOM      9  C   UNL     1      60.550  33.349  15.647  1.00  0.00     0.000 C 
BRANCH   9  10
ATOM     10  C   UNL     1      61.547  32.849  14.590  1.00  0.00     0.000 C 
BRANCH  10  11
ATOM     11  C   UNL     1      61.033  31.620  13.821  1.00  0.00     0.000 C 
BRANCH  11  12
ATOM     12  C   UNL     1      61.802  30.339  14.182  1.00  0.00     0.000 C 
BRANCH  12  13
ATOM     13  C   UNL     1      61.521  29.186  13.203  1.00  0.00     0.006 C 
BRANCH  13  14
ATOM     14  C   UNL     1      60.305  28.350  13.621  1.00  0.00     0.053 C 
BRANCH  14  15
ATOM     15  C   UNL     1      59.182  28.462  12.634  1.00  0.00     0.041 C 
ATOM     16  O   UNL     1      59.247  29.290  11.688  1.00  0.00    -0.550 OA
ATOM     17  O   UNL     1      58.059  27.653  12.765  1.00  0.00    -0.550 OA
ENDBRANCH  14  15
ENDBRANCH  13  14
ENDBRANCH  12  13
ENDBRANCH  11  12
ENDBRANCH  10  11
ENDBRANCH   9  10
ENDBRANCH   8   9
ENDBRANCH   7   8
ENDBRANCH   6   7
ENDBRANCH   5   6
ENDBRANCH   4   5
ENDBRANCH   3   4
ENDBRANCH   2   3
ENDBRANCH   1   2
BRANCH   1  18
ATOM     18  C   UNL     1      66.448  31.408  23.091  1.00  0.00     0.000 C 
BRANCH  18  19
ATOM     19  C   UNL     1      66.012  29.981  23.461  1.00  0.00     0.000 C 
BRANCH  19  20
ATOM     20  C   UNL     1      66.590  29.508  24.811  1.00  0.00     0.000 C 
BRANCH  20  21
ATOM     21  C   UNL     1      65.551  28.863  25.749  1.00  0.00     0.000 C 
BRANCH  21  22
ATOM     22  C   UNL     1      65.061  29.756  26.906  1.00  0.00     0.000 C 
BRANCH  22  23
ATOM     23  C   UNL     1      63.569  30.136  26.853  1.00  0.00     0.000 C 
BRANCH  23  24
ATOM     24  C   UNL     1      62.959  30.354  28.245  1.00  0.00    -0.000 C 
BRANCH  24  25
ATOM     25  C   UNL     1      61.801  29.376  28.500  1.00  0.00    -0.000 C 
BRANCH  25  26
ATOM     26  C   UNL     1      62.201  27.911  28.258  1.00  0.00    -0.000 C 
BRANCH  26  27
ATOM     27  C   UNL     1      61.149  27.134  27.453  1.00  0.00    -0.000 C 
BRANCH  27  28
ATOM     28  C   UNL     1      60.523  28.021  26.367  1.00  0.00    -0.000 C 
BRANCH  28  29
ATOM     29  C   UNL     1      60.779  27.496  24.943  1.00  0.00    -0.000 C 
BRANCH  29  30
ATOM     30  C   UNL     1      61.890  28.227  24.162  1.00  0.00    -0.000 C 
BRANCH  30  31
ATOM     31  C   UNL     1      63.059  27.338  23.706  1.00  0.00    -0.003 C 
ATOM     32  C   UNL     1      63.156  26.032  24.492  1.00  0.00     0.004 C 
ENDBRANCH  30  31
ENDBRANCH  29  30
ENDBRANCH  28  29
ENDBRANCH  27  28
ENDBRANCH  26  27
ENDBRANCH  25  26
ENDBRANCH  24  25
ENDBRANCH  23  24
ENDBRANCH  22  23
ENDBRANCH  21  22
ENDBRANCH  20  21
ENDBRANCH  19  20
ENDBRANCH  18  19
ENDBRANCH   1  18
TORSDOF 28
ENDMDL
MODEL 9
REMARK VINA RESULT:    -4.724      3.435     11.649
REMARK INTER + INTRA:         -16.113
REMARK INTER:                 -12.405
REMARK INTRA:                  -3.708
REMARK UNBOUND:                -3.656
REMARK SMILES CCCCCCCCCCCCCCCCCCCCCCCCCCCCCC(=O)[O-]
REMARK SMILES IDX 16 1 17 2 18 3 19 4 20 5 21 6 22 7 23 8 24 9 25 10 26 11
REMARK SMILES IDX 27 12 28 13 29 14 30 15 31 16 32 17 15 18 14 19 13 20 12 21
REMARK SMILES IDX 11 22 10 23 9 24 8 25 7 26 6 27 5 28 4 29 3 30 2 31 1 32
REMARK H PARENT
REMARK Flexibility Score: inf
ROOT
ATOM      1  C   UNL     1      61.166  33.320  16.441  1.00  0.00     0.000 C 
ENDROOT
BRANCH   1   2
ATOM      2  C   UNL     1      61.160  34.221  17.685  1.00  0.00     0.000 C 
BRANCH   2   3
ATOM      3  C   UNL     1      61.152  33.424  19.002  1.00  0.00     0.000 C 
BRANCH   3   4
ATOM      4  C   UNL     1      62.468  33.473  19.803  1.00  0.00     0.000 C 
BRANCH   4   5
ATOM      5  C   UNL     1      63.687  33.999  19.021  1.00  0.00     0.000 C 
BRANCH   5   6
ATOM      6  C   UNL     1      65.051  33.672  19.654  1.00  0.00     0.000 C 
BRANCH   6   7
ATOM      7  C   UNL     1      64.952  33.384  21.161  1.00  0.00     0.000 C 
BRANCH   7   8
ATOM      8  C   UNL     1      66.056  32.424  21.618  1.00  0.00     0.000 C 
BRANCH   8   9
ATOM      9  C   UNL     1      65.589  31.570  22.807  1.00  0.00     0.000 C 
BRANCH   9  10
ATOM     10  C   UNL     1      66.677  30.610  23.312  1.00  0.00     0.000 C 
BRANCH  10  11
ATOM     11  C   UNL     1      66.234  29.800  24.542  1.00  0.00     0.000 C 
BRANCH  11  12
ATOM     12  C   UNL     1      66.229  28.286  24.276  1.00  0.00     0.000 C 
BRANCH  12  13
ATOM     13  C   UNL     1      64.890  27.625  24.647  1.00  0.00     0.006 C 
BRANCH  13  14
ATOM     14  C   UNL     1      63.859  28.643  25.154  1.00  0.00     0.053 C 
BRANCH  14  15
ATOM     15  C   UNL     1      62.664  28.725  24.254  1.00  0.00     0.041 C 
ATOM     16  O   UNL     1      62.701  28.222  23.100  1.00  0.00    -0.550 OA
ATOM     17  O   UNL     1      61.509  29.365  24.689  1.00  0.00    -0.550 OA
ENDBRANCH  14  15
ENDBRANCH  13  14
ENDBRANCH  12  13
ENDBRANCH  11  12
ENDBRANCH  10  11
ENDBRANCH   9  10
ENDBRANCH   8   9
ENDBRANCH   7   8
ENDBRANCH   6   7
ENDBRANCH   5   6
ENDBRANCH   4   5
ENDBRANCH   3   4
ENDBRANCH   2   3
ENDBRANCH   1   2
BRANCH   1  18
ATOM     18  C   UNL     1      62.451  33.506  15.626  1.00  0.00     0.000 C 
BRANCH  18  19
ATOM     19  C   UNL     1      63.397  32.311  15.818  1.00  0.00     0.000 C 
BRANCH  19  20
ATOM     20  C   UNL     1      63.926  31.743  14.485  1.00  0.00     0.000 C 
BRANCH  20  21
ATOM     21  C   UNL     1      63.844  32.730  13.303  1.00  0.00     0.000 C 
BRANCH  21  22
ATOM     22  C   UNL     1      63.942  32.094  11.903  1.00  0.00     0.000 C 
BRANCH  22  23
ATOM     23  C   UNL     1      63.474  30.629  11.815  1.00  0.00     0.000 C 
BRANCH  23  24
ATOM     24  C   UNL     1      63.216  30.169  10.373  1.00  0.00    -0.000 C 
BRANCH  24  25
ATOM     25  C   UNL     1      62.273  28.956  10.341  1.00  0.00    -0.000 C 
BRANCH  25  26
ATOM     26  C   UNL     1      60.845  29.305  10.793  1.00  0.00    -0.000 C 
BRANCH  26  27
ATOM     27  C   UNL     1      60.102  28.102  11.393  1.00  0.00    -0.000 C 
BRANCH  27  28
ATOM     28  C   UNL     1      59.733  28.360  12.860  1.00  0.00    -0.000 C 
BRANCH  28  29
ATOM     29  C   UNL     1      60.898  28.946  13.677  1.00  0.00    -0.000 C 
BRANCH  29  30
ATOM     30  C   UNL     1      60.575  30.242  14.450  1.00  0.00    -0.000 C 
BRANCH  30  31
ATOM     31  C   UNL     1      59.559  31.173  13.764  1.00  0.00    -0.003 C 
ATOM     32  C   UNL     1      60.222  32.267  12.930  1.00  0.00     0.004 C 
ENDBRANCH  30  31
ENDBRANCH  29  30
ENDBRANCH  28  29
ENDBRANCH  27  28
ENDBRANCH  26  27
ENDBRANCH  25  26
ENDBRANCH  24  25
ENDBRANCH  23  24
ENDBRANCH  22  23
ENDBRANCH  21  22
ENDBRANCH  20  21
ENDBRANCH  19  20
ENDBRANCH  18  19
ENDBRANCH   1  18
TORSDOF 28
ENDMDL
