MODEL 1
REMARK VINA RESULT:    -4.420      0.000      0.000
REMARK INTER + INTRA:          -4.420
REMARK INTER:                  -4.420
REMARK INTRA:                   0.000
REMARK UNBOUND:                 0.000
REMARK SMILES O=c1ccc2ccccc2o1
REMARK SMILES IDX 7 1 8 2 9 3 10 4 5 5 6 6 4 7 3 8 2 9 1 10 11 11
REMARK H PARENT
REMARK Flexibility Score: inf
ROOT
ATOM      1  C   UNL     1       9.378  -8.999  -4.713  1.00  0.00     0.001 A 
ATOM      2  C   UNL     1      10.125  -9.725  -5.647  1.00  0.00     0.004 A 
ATOM      3  C   UNL     1       9.633  -9.925  -6.940  1.00  0.00     0.048 A 
ATOM      4  C   UNL     1       8.389  -9.399  -7.305  1.00  0.00     0.138 A 
ATOM      5  C   UNL     1       7.633  -8.666  -6.363  1.00  0.00     0.018 A 
ATOM      6  C   UNL     1       8.133  -8.469  -5.067  1.00  0.00     0.012 A 
ATOM      7  C   UNL     1       6.393  -8.152  -6.756  1.00  0.00     0.019 A 
ATOM      8  C   UNL     1       5.942  -8.376  -8.057  1.00  0.00     0.094 A 
ATOM      9  C   UNL     1       6.744  -9.112  -8.937  1.00  0.00     0.336 A 
ATOM     10  O   UNL     1       6.353  -9.323 -10.114  1.00  0.00    -0.246 OA
ATOM     11  O   UNL     1       7.920  -9.589  -8.537  1.00  0.00    -0.423 OA
ENDROOT
TORSDOF 0
ENDMDL
MODEL 2
REMARK VINA RESULT:    -3.928      2.091      4.631
REMARK INTER + INTRA:          -3.928
REMARK INTER:                  -3.928
REMARK INTRA:                   0.000
REMARK UNBOUND:                 0.000
REMARK SMILES O=c1ccc2ccccc2o1
REMARK SMILES IDX 7 1 8 2 9 3 10 4 5 5 6 6 4 7 3 8 2 9 1 10 11 11
REMARK H PARENT
REMARK Flexibility Score: inf
ROOT
ATOM      1  C   UNL     1       4.191  -9.654  -9.945  1.00  0.00     0.001 A 
ATOM      2  C   UNL     1       3.592 -10.125  -8.772  1.00  0.00     0.004 A 
ATOM      3  C   UNL     1       4.304 -10.123  -7.568  1.00  0.00     0.048 A 
ATOM      4  C   UNL     1       5.620  -9.651  -7.533  1.00  0.00     0.138 A 
ATOM      5  C   UNL     1       6.227  -9.175  -8.717  1.00  0.00     0.018 A 
ATOM      6  C   UNL     1       5.507  -9.179  -9.921  1.00  0.00     0.012 A 
ATOM      7  C   UNL     1       7.543  -8.708  -8.652  1.00  0.00     0.019 A 
ATOM      8  C   UNL     1       8.215  -8.726  -7.429  1.00  0.00     0.094 A 
ATOM      9  C   UNL     1       7.551  -9.212  -6.297  1.00  0.00     0.336 A 
ATOM     10  O   UNL     1       8.141  -9.235  -5.185  1.00  0.00    -0.246 OA
ATOM     11  O   UNL     1       6.297  -9.650  -6.387  1.00  0.00    -0.423 OA
ENDROOT
TORSDOF 0
ENDMDL
MODEL 3
REMARK VINA RESULT:    -3.886      2.530      3.357
REMARK INTER + INTRA:          -3.886
REMARK INTER:                  -3.886
REMARK INTRA:                   0.000
REMARK UNBOUND:                 0.000
REMARK SMILES O=c1ccc2ccccc2o1
REMARK SMILES IDX 7 1 8 2 9 3 10 4 5 5 6 6 4 7 3 8 2 9 1 10 11 11
REMARK H PARENT
REMARK Flexibility Score: inf
ROOT
ATOM      1  C   UNL     1       8.239  -9.791  -7.288  1.00  0.00     0.001 A 
ATOM      2  C   UNL     1       7.871  -9.344  -6.014  1.00  0.00     0.004 A 
ATOM      3  C   UNL     1       7.098  -8.188  -5.869  1.00  0.00     0.048 A 
ATOM      4  C   UNL     1       6.689  -7.472  -7.000  1.00  0.00     0.138 A 
ATOM      5  C   UNL     1       7.060  -7.922  -8.287  1.00  0.00     0.018 A 
ATOM      6  C   UNL     1       7.835  -9.082  -8.425  1.00  0.00     0.012 A 
ATOM      7  C   UNL     1       6.637  -7.187  -9.399  1.00  0.00     0.019 A 
ATOM      8  C   UNL     1       5.867  -6.039  -9.206  1.00  0.00     0.094 A 
ATOM      9  C   UNL     1       5.538  -5.653  -7.902  1.00  0.00     0.336 A 
ATOM     10  O   UNL     1       4.844  -4.621  -7.709  1.00  0.00    -0.246 OA
ATOM     11  O   UNL     1       5.954  -6.371  -6.862  1.00  0.00    -0.423 OA
ENDROOT
TORSDOF 0
ENDMDL
MODEL 4
REMARK VINA RESULT:    -3.597      1.186      2.125
REMARK INTER + INTRA:          -3.597
REMARK INTER:                  -3.597
REMARK INTRA:                   0.000
REMARK UNBOUND:                 0.000
REMARK SMILES O=c1ccc2ccccc2o1
REMARK SMILES IDX 7 1 8 2 9 3 10 4 5 5 6 6 4 7 3 8 2 9 1 10 11 11
REMARK H PARENT
REMARK Flexibility Score: inf
ROOT
ATOM      1  C   UNL     1      10.124  -9.740  -5.290  1.00  0.00     0.001 A 
ATOM      2  C   UNL     1       9.293  -8.948  -4.490  1.00  0.00     0.004 A 
ATOM      3  C   UNL     1       8.133  -8.380  -5.025  1.00  0.00     0.048 A 
ATOM      4  C   UNL     1       7.798  -8.602  -6.365  1.00  0.00     0.138 A 
ATOM      5  C   UNL     1       8.636  -9.401  -7.174  1.00  0.00     0.018 A 
ATOM      6  C   UNL     1       9.798  -9.968  -6.632  1.00  0.00     0.012 A 
ATOM      7  C   UNL     1       8.276  -9.606  -8.510  1.00  0.00     0.019 A 
ATOM      8  C   UNL     1       7.109  -9.019  -9.001  1.00  0.00     0.094 A 
ATOM      9  C   UNL     1       6.328  -8.239  -8.142  1.00  0.00     0.336 A 
ATOM     10  O   UNL     1       5.272  -7.703  -8.567  1.00  0.00    -0.246 OA
ATOM     11  O   UNL     1       6.693  -8.061  -6.874  1.00  0.00    -0.423 OA
ENDROOT
TORSDOF 0
ENDMDL
MODEL 5
REMARK VINA RESULT:    -1.732     21.697     22.277
REMARK INTER + INTRA:          -1.732
REMARK INTER:                  -1.732
REMARK INTRA:                   0.000
REMARK UNBOUND:                 0.000
REMARK SMILES O=c1ccc2ccccc2o1
REMARK SMILES IDX 7 1 8 2 9 3 10 4 5 5 6 6 4 7 3 8 2 9 1 10 11 11
REMARK H PARENT
REMARK Flexibility Score: inf
ROOT
ATOM      1  C   UNL     1       0.235   9.195   4.139  1.00  0.00     0.001 A 
ATOM      2  C   UNL     1       0.267   9.470   2.768  1.00  0.00     0.004 A 
ATOM      3  C   UNL     1       1.485   9.713   2.127  1.00  0.00     0.048 A 
ATOM      4  C   UNL     1       2.679   9.683   2.856  1.00  0.00     0.138 A 
ATOM      5  C   UNL     1       2.648   9.406   4.241  1.00  0.00     0.018 A 
ATOM      6  C   UNL     1       1.423   9.162   4.878  1.00  0.00     0.012 A 
ATOM      7  C   UNL     1       3.857   9.382   4.944  1.00  0.00     0.019 A 
ATOM      8  C   UNL     1       5.049   9.630   4.263  1.00  0.00     0.094 A 
ATOM      9  C   UNL     1       5.003   9.899   2.890  1.00  0.00     0.336 A 
ATOM     10  O   UNL     1       6.068  10.125   2.259  1.00  0.00    -0.246 OA
ATOM     11  O   UNL     1       3.839   9.915   2.245  1.00  0.00    -0.423 OA
ENDROOT
TORSDOF 0
ENDMDL
MODEL 6
REMARK VINA RESULT:    -1.597     20.680     21.364
REMARK INTER + INTRA:          -1.597
REMARK INTER:                  -1.597
REMARK INTRA:                   0.000
REMARK UNBOUND:                 0.000
REMARK SMILES O=c1ccc2ccccc2o1
REMARK SMILES IDX 7 1 8 2 9 3 10 4 5 5 6 6 4 7 3 8 2 9 1 10 11 11
REMARK H PARENT
REMARK Flexibility Score: inf
ROOT
ATOM      1  C   UNL     1       6.399   9.526   3.037  1.00  0.00     0.001 A 
ATOM      2  C   UNL     1       6.375   8.367   3.820  1.00  0.00     0.004 A 
ATOM      3  C   UNL     1       5.155   7.798   4.198  1.00  0.00     0.048 A 
ATOM      4  C   UNL     1       3.952   8.387   3.794  1.00  0.00     0.138 A 
ATOM      5  C   UNL     1       3.975   9.558   3.004  1.00  0.00     0.018 A 
ATOM      6  C   UNL     1       5.202  10.124   2.628  1.00  0.00     0.012 A 
ATOM      7  C   UNL     1       2.757  10.125   2.615  1.00  0.00     0.019 A 
ATOM      8  C   UNL     1       1.564   9.522   3.016  1.00  0.00     0.094 A 
ATOM      9  C   UNL     1       1.618   8.364   3.799  1.00  0.00     0.336 A 
ATOM     10  O   UNL     1       0.552   7.807   4.169  1.00  0.00    -0.246 OA
ATOM     11  O   UNL     1       2.790   7.845   4.154  1.00  0.00    -0.423 OA
ENDROOT
TORSDOF 0
ENDMDL
