MODEL 1
REMARK VINA RESULT:    -5.960      0.000      0.000
REMARK INTER + INTRA:         -10.580
REMARK INTER:                  -8.050
REMARK INTRA:                  -2.530
REMARK UNBOUND:                -2.530
REMARK SMILES CC[C@H](CC[C@@H](C)[C@@H]1CC[C@H]2[C@@H]3CC(=O)C4=CC(=O)CC[C@@]4(C)[C@H]3CC[C@]21C)C(C)C
REMARK SMILES IDX 4 1 3 2 2 3 1 4 29 5 30 6 31 7 5 8 6 9 7 10 8 11 9 12 27 13
REMARK SMILES IDX 10 14 11 15 26 16 28 17 12 18 25 19 24 20 13 21 22 22 14 23
REMARK SMILES IDX 16 24 21 25 23 26 15 27 17 28 20 29 18 30 19 31
REMARK H PARENT
REMARK Flexibility Score: inf
ROOT
ATOM      1  C   UNL     1      12.987 -11.489 -43.438  1.00  0.00     0.004 C 
ENDROOT
BRANCH   1   2
ATOM      2  C   UNL     1      11.755 -10.888 -44.185  1.00  0.00    -0.009 C 
BRANCH   2   3
ATOM      3  C   UNL     1      10.491 -11.750 -43.903  1.00  0.00     0.000 C 
ATOM      4  C   UNL     1      10.694 -12.841 -42.845  1.00  0.00     0.004 C 
ENDBRANCH   2   3
BRANCH   2   5
ATOM      5  C   UNL     1      11.537  -9.366 -43.866  1.00  0.00    -0.014 C 
ATOM      6  C   UNL     1      12.371  -8.455 -44.785  1.00  0.00     0.007 C 
ATOM      7  C   UNL     1      10.056  -8.957 -43.989  1.00  0.00     0.007 C 
ENDBRANCH   2   5
ENDBRANCH   1   2
BRANCH   1   8
ATOM      8  C   UNL     1      14.314 -11.408 -44.235  1.00  0.00     0.004 C 
BRANCH   8   9
ATOM      9  C   UNL     1      14.679 -12.710 -44.999  1.00  0.00    -0.011 C 
ATOM     10  C   UNL     1      16.091 -13.185 -44.596  1.00  0.00     0.008 C 
BRANCH   9  11
ATOM     11  C   UNL     1      13.554 -13.794 -44.800  1.00  0.00    -0.002 C 
ATOM     12  C   UNL     1      13.900 -14.971 -43.895  1.00  0.00     0.005 C 
ATOM     13  C   UNL     1      12.945 -14.439 -46.076  1.00  0.00    -0.026 C 
ATOM     14  C   UNL     1      12.766 -15.962 -44.114  1.00  0.00     0.005 C 
ATOM     15  C   UNL     1      12.191 -15.699 -45.527  1.00  0.00    -0.001 C 
ATOM     16  C   UNL     1      11.992 -13.437 -46.795  1.00  0.00     0.007 C 
ATOM     17  C   UNL     1      14.042 -14.910 -47.070  1.00  0.00     0.012 C 
ATOM     18  C   UNL     1      10.642 -15.531 -45.501  1.00  0.00     0.004 C 
ATOM     19  C   UNL     1      10.987 -14.162 -47.692  1.00  0.00     0.005 C 
ATOM     20  C   UNL     1      10.068 -15.126 -46.892  1.00  0.00     0.003 C 
ATOM     21  C   UNL     1       9.945 -16.839 -45.050  1.00  0.00     0.085 C 
ATOM     22  C   UNL     1       8.558 -14.667 -46.773  1.00  0.00    -0.000 C 
ATOM     23  C   UNL     1       8.453 -16.759 -45.211  1.00  0.00     0.159 C 
ATOM     24  C   UNL     1       7.820 -15.530 -45.740  1.00  0.00     0.005 C 
ATOM     25  C   UNL     1       8.423 -13.176 -46.325  1.00  0.00     0.020 C 
ATOM     26  C   UNL     1       7.876 -14.873 -48.151  1.00  0.00     0.017 C 
ATOM     27  O   UNL     1       7.745 -17.745 -44.872  1.00  0.00    -0.295 OA
ATOM     28  C   UNL     1       6.642 -15.131 -45.229  1.00  0.00     0.055 C 
ATOM     29  C   UNL     1       6.954 -12.737 -46.169  1.00  0.00     0.081 C 
ATOM     30  C   UNL     1       6.118 -13.779 -45.479  1.00  0.00     0.156 C 
ATOM     31  O   UNL     1       4.952 -13.488 -45.101  1.00  0.00    -0.295 OA
ENDBRANCH   9  11
ENDBRANCH   8   9
ENDBRANCH   1   8
TORSDOF 6
ENDMDL
MODEL 2
REMARK VINA RESULT:    -5.947      8.493     12.001
REMARK INTER + INTRA:         -10.563
REMARK INTER:                  -7.645
REMARK INTRA:                  -2.918
REMARK UNBOUND:                -2.530
REMARK SMILES CC[C@H](CC[C@@H](C)[C@@H]1CC[C@H]2[C@@H]3CC(=O)C4=CC(=O)CC[C@@]4(C)[C@H]3CC[C@]21C)C(C)C
REMARK SMILES IDX 4 1 3 2 2 3 1 4 29 5 30 6 31 7 5 8 6 9 7 10 8 11 9 12 27 13
REMARK SMILES IDX 10 14 11 15 26 16 28 17 12 18 25 19 24 20 13 21 22 22 14 23
REMARK SMILES IDX 16 24 21 25 23 26 15 27 17 28 20 29 18 30 19 31
REMARK H PARENT
REMARK Flexibility Score: inf
ROOT
ATOM      1  C   UNL     1       7.199 -22.036 -36.175  1.00  0.00     0.004 C 
ENDROOT
BRANCH   1   2
ATOM      2  C   UNL     1       8.403 -23.028 -36.156  1.00  0.00    -0.009 C 
BRANCH   2   3
ATOM      3  C   UNL     1       8.545 -23.719 -37.542  1.00  0.00     0.000 C 
ATOM      4  C   UNL     1       8.875 -25.214 -37.472  1.00  0.00     0.004 C 
ENDBRANCH   2   3
BRANCH   2   5
ATOM      5  C   UNL     1       9.736 -22.353 -35.673  1.00  0.00    -0.014 C 
ATOM      6  C   UNL     1      10.775 -22.244 -36.804  1.00  0.00     0.007 C 
ATOM      7  C   UNL     1       9.494 -20.945 -35.096  1.00  0.00     0.007 C 
ENDBRANCH   2   5
ENDBRANCH   1   2
BRANCH   1   8
ATOM      8  C   UNL     1       6.607 -21.784 -37.585  1.00  0.00     0.004 C 
BRANCH   8   9
ATOM      9  C   UNL     1       6.780 -20.328 -38.098  1.00  0.00    -0.011 C 
ATOM     10  C   UNL     1       6.063 -19.342 -37.153  1.00  0.00     0.008 C 
BRANCH   9  11
ATOM     11  C   UNL     1       8.304 -20.007 -38.329  1.00  0.00    -0.002 C 
ATOM     12  C   UNL     1       8.797 -18.658 -37.818  1.00  0.00     0.005 C 
ATOM     13  C   UNL     1       8.846 -20.104 -39.783  1.00  0.00    -0.026 C 
ATOM     14  C   UNL     1      10.189 -18.513 -38.416  1.00  0.00     0.005 C 
ATOM     15  C   UNL     1      10.224 -19.361 -39.712  1.00  0.00    -0.001 C 
ATOM     16  C   UNL     1       8.992 -21.595 -40.215  1.00  0.00     0.007 C 
ATOM     17  C   UNL     1       7.932 -19.362 -40.795  1.00  0.00     0.012 C 
ATOM     18  C   UNL     1      11.449 -20.323 -39.742  1.00  0.00     0.004 C 
ATOM     19  C   UNL     1       9.991 -21.753 -41.361  1.00  0.00     0.005 C 
ATOM     20  C   UNL     1      11.419 -21.280 -40.971  1.00  0.00     0.003 C 
ATOM     21  C   UNL     1      12.781 -19.532 -39.774  1.00  0.00     0.085 C 
ATOM     22  C   UNL     1      12.488 -22.436 -40.819  1.00  0.00    -0.000 C 
ATOM     23  C   UNL     1      13.959 -20.436 -40.006  1.00  0.00     0.159 C 
ATOM     24  C   UNL     1      13.767 -21.895 -40.165  1.00  0.00     0.005 C 
ATOM     25  C   UNL     1      11.969 -23.616 -39.936  1.00  0.00     0.020 C 
ATOM     26  C   UNL     1      12.853 -22.952 -42.237  1.00  0.00     0.017 C 
ATOM     27  O   UNL     1      15.117 -19.938 -40.044  1.00  0.00    -0.295 OA
ATOM     28  C   UNL     1      14.676 -22.734 -39.638  1.00  0.00     0.055 C 
ATOM     29  C   UNL     1      13.022 -24.725 -39.753  1.00  0.00     0.081 C 
ATOM     30  C   UNL     1      14.394 -24.170 -39.486  1.00  0.00     0.156 C 
ATOM     31  O   UNL     1      15.316 -24.946 -39.117  1.00  0.00    -0.295 OA
ENDBRANCH   9  11
ENDBRANCH   8   9
ENDBRANCH   1   8
TORSDOF 6
ENDMDL
MODEL 3
REMARK VINA RESULT:    -5.910      8.323     11.226
REMARK INTER + INTRA:         -10.513
REMARK INTER:                  -7.681
REMARK INTRA:                  -2.832
REMARK UNBOUND:                -2.530
REMARK SMILES CC[C@H](CC[C@@H](C)[C@@H]1CC[C@H]2[C@@H]3CC(=O)C4=CC(=O)CC[C@@]4(C)[C@H]3CC[C@]21C)C(C)C
REMARK SMILES IDX 4 1 3 2 2 3 1 4 29 5 30 6 31 7 5 8 6 9 7 10 8 11 9 12 27 13
REMARK SMILES IDX 10 14 11 15 26 16 28 17 12 18 25 19 24 20 13 21 22 22 14 23
REMARK SMILES IDX 16 24 21 25 23 26 15 27 17 28 20 29 18 30 19 31
REMARK H PARENT
REMARK Flexibility Score: inf
ROOT
ATOM      1  C   UNL     1       4.020 -17.882 -37.189  1.00  0.00     0.004 C 
ENDROOT
BRANCH   1   2
ATOM      2  C   UNL     1       4.281 -17.021 -35.914  1.00  0.00    -0.009 C 
BRANCH   2   3
ATOM      3  C   UNL     1       5.611 -17.463 -35.238  1.00  0.00     0.000 C 
ATOM      4  C   UNL     1       6.329 -18.615 -35.950  1.00  0.00     0.004 C 
ENDBRANCH   2   3
BRANCH   2   5
ATOM      5  C   UNL     1       4.229 -15.479 -36.203  1.00  0.00    -0.014 C 
ATOM      6  C   UNL     1       3.133 -14.771 -35.387  1.00  0.00     0.007 C 
ATOM      7  C   UNL     1       5.576 -14.791 -35.910  1.00  0.00     0.007 C 
ENDBRANCH   2   5
ENDBRANCH   1   2
BRANCH   1   8
ATOM      8  C   UNL     1       3.361 -17.104 -38.356  1.00  0.00     0.004 C 
BRANCH   8   9
ATOM      9  C   UNL     1       4.270 -16.938 -39.605  1.00  0.00    -0.011 C 
ATOM     10  C   UNL     1       3.993 -15.583 -40.288  1.00  0.00     0.008 C 
BRANCH   9  11
ATOM     11  C   UNL     1       5.778 -17.168 -39.218  1.00  0.00    -0.002 C 
ATOM     12  C   UNL     1       6.668 -15.930 -39.198  1.00  0.00     0.005 C 
ATOM     13  C   UNL     1       6.578 -18.219 -40.037  1.00  0.00    -0.026 C 
ATOM     14  C   UNL     1       8.081 -16.483 -39.075  1.00  0.00     0.005 C 
ATOM     15  C   UNL     1       8.070 -17.911 -39.675  1.00  0.00    -0.001 C 
ATOM     16  C   UNL     1       6.151 -19.665 -39.638  1.00  0.00     0.007 C 
ATOM     17  C   UNL     1       6.388 -18.031 -41.567  1.00  0.00     0.012 C 
ATOM     18  C   UNL     1       8.700 -18.953 -38.702  1.00  0.00     0.004 C 
ATOM     19  C   UNL     1       7.235 -20.686 -39.983  1.00  0.00     0.005 C 
ATOM     20  C   UNL     1       8.568 -20.412 -39.232  1.00  0.00     0.003 C 
ATOM     21  C   UNL     1      10.201 -18.657 -38.461  1.00  0.00     0.085 C 
ATOM     22  C   UNL     1       8.930 -21.462 -38.106  1.00  0.00    -0.000 C 
ATOM     23  C   UNL     1      10.869 -19.761 -37.690  1.00  0.00     0.159 C 
ATOM     24  C   UNL     1      10.096 -20.945 -37.252  1.00  0.00     0.005 C 
ATOM     25  C   UNL     1       7.730 -21.743 -37.145  1.00  0.00     0.020 C 
ATOM     26  C   UNL     1       9.381 -22.778 -38.793  1.00  0.00     0.017 C 
ATOM     27  O   UNL     1      12.093 -19.658 -37.405  1.00  0.00    -0.295 OA
ATOM     28  C   UNL     1      10.365 -21.492 -36.054  1.00  0.00     0.055 C 
ATOM     29  C   UNL     1       8.091 -22.734 -36.023  1.00  0.00     0.081 C 
ATOM     30  C   UNL     1       9.444 -22.455 -35.429  1.00  0.00     0.156 C 
ATOM     31  O   UNL     1       9.793 -23.049 -34.374  1.00  0.00    -0.295 OA
ENDBRANCH   9  11
ENDBRANCH   8   9
ENDBRANCH   1   8
TORSDOF 6
ENDMDL
MODEL 4
REMARK VINA RESULT:    -5.762      8.371     10.834
REMARK INTER + INTRA:         -10.313
REMARK INTER:                  -7.471
REMARK INTRA:                  -2.842
REMARK UNBOUND:                -2.530
REMARK SMILES CC[C@H](CC[C@@H](C)[C@@H]1CC[C@H]2[C@@H]3CC(=O)C4=CC(=O)CC[C@@]4(C)[C@H]3CC[C@]21C)C(C)C
REMARK SMILES IDX 4 1 3 2 2 3 1 4 29 5 30 6 31 7 5 8 6 9 7 10 8 11 9 12 27 13
REMARK SMILES IDX 10 14 11 15 26 16 28 17 12 18 25 19 24 20 13 21 22 22 14 23
REMARK SMILES IDX 16 24 21 25 23 26 15 27 17 28 20 29 18 30 19 31
REMARK H PARENT
REMARK Flexibility Score: inf
ROOT
ATOM      1  C   UNL     1      10.999 -20.765 -39.959  1.00  0.00     0.004 C 
ENDROOT
BRANCH   1   2
ATOM      2  C   UNL     1      12.091 -19.742 -39.513  1.00  0.00    -0.009 C 
BRANCH   2   3
ATOM      3  C   UNL     1      11.475 -18.704 -38.531  1.00  0.00     0.000 C 
ATOM      4  C   UNL     1       9.988 -18.415 -38.769  1.00  0.00     0.004 C 
ENDBRANCH   2   3
BRANCH   2   5
ATOM      5  C   UNL     1      13.373 -20.439 -38.935  1.00  0.00    -0.014 C 
ATOM      6  C   UNL     1      14.629 -20.128 -39.769  1.00  0.00     0.007 C 
ATOM      7  C   UNL     1      13.645 -20.030 -37.474  1.00  0.00     0.007 C 
ENDBRANCH   2   5
ENDBRANCH   1   2
BRANCH   1   8
ATOM      8  C   UNL     1      11.413 -22.249 -39.787  1.00  0.00     0.004 C 
BRANCH   8   9
ATOM      9  C   UNL     1      10.771 -22.950 -38.559  1.00  0.00    -0.011 C 
ATOM     10  C   UNL     1      11.841 -23.742 -37.779  1.00  0.00     0.008 C 
BRANCH   9  11
ATOM     11  C   UNL     1       9.979 -21.907 -37.686  1.00  0.00    -0.002 C 
ATOM     12  C   UNL     1      10.568 -21.584 -36.317  1.00  0.00     0.005 C 
ATOM     13  C   UNL     1       8.475 -22.193 -37.414  1.00  0.00    -0.026 C 
ATOM     14  C   UNL     1       9.474 -20.794 -35.612  1.00  0.00     0.005 C 
ATOM     15  C   UNL     1       8.123 -21.221 -36.237  1.00  0.00    -0.001 C 
ATOM     16  C   UNL     1       7.626 -21.918 -38.693  1.00  0.00     0.007 C 
ATOM     17  C   UNL     1       8.236 -23.653 -36.942  1.00  0.00     0.012 C 
ATOM     18  C   UNL     1       7.275 -19.991 -36.682  1.00  0.00     0.004 C 
ATOM     19  C   UNL     1       6.159 -21.656 -38.347  1.00  0.00     0.005 C 
ATOM     20  C   UNL     1       5.979 -20.408 -37.439  1.00  0.00     0.003 C 
ATOM     21  C   UNL     1       6.869 -19.121 -35.466  1.00  0.00     0.085 C 
ATOM     22  C   UNL     1       5.303 -19.162 -38.140  1.00  0.00    -0.000 C 
ATOM     23  C   UNL     1       5.889 -18.049 -35.851  1.00  0.00     0.159 C 
ATOM     24  C   UNL     1       5.433 -17.917 -37.252  1.00  0.00     0.005 C 
ATOM     25  C   UNL     1       5.955 -18.828 -39.520  1.00  0.00     0.020 C 
ATOM     26  C   UNL     1       3.793 -19.467 -38.325  1.00  0.00     0.017 C 
ATOM     27  O   UNL     1       5.474 -17.250 -34.968  1.00  0.00    -0.295 OA
ATOM     28  C   UNL     1       5.235 -16.687 -37.760  1.00  0.00     0.055 C 
ATOM     29  C   UNL     1       5.325 -17.590 -40.187  1.00  0.00     0.081 C 
ATOM     30  C   UNL     1       5.090 -16.474 -39.209  1.00  0.00     0.156 C 
ATOM     31  O   UNL     1       4.769 -15.332 -39.636  1.00  0.00    -0.295 OA
ENDBRANCH   9  11
ENDBRANCH   8   9
ENDBRANCH   1   8
TORSDOF 6
ENDMDL
MODEL 5
REMARK VINA RESULT:    -5.631      8.188     11.656
REMARK INTER + INTRA:         -10.135
REMARK INTER:                  -7.069
REMARK INTRA:                  -3.067
REMARK UNBOUND:                -2.530
REMARK SMILES CC[C@H](CC[C@@H](C)[C@@H]1CC[C@H]2[C@@H]3CC(=O)C4=CC(=O)CC[C@@]4(C)[C@H]3CC[C@]21C)C(C)C
REMARK SMILES IDX 4 1 3 2 2 3 1 4 29 5 30 6 31 7 5 8 6 9 7 10 8 11 9 12 27 13
REMARK SMILES IDX 10 14 11 15 26 16 28 17 12 18 25 19 24 20 13 21 22 22 14 23
REMARK SMILES IDX 16 24 21 25 23 26 15 27 17 28 20 29 18 30 19 31
REMARK H PARENT
REMARK Flexibility Score: inf
ROOT
ATOM      1  C   UNL     1       6.693 -19.839 -39.855  1.00  0.00     0.004 C 
ENDROOT
BRANCH   1   2
ATOM      2  C   UNL     1       7.763 -18.803 -40.321  1.00  0.00    -0.009 C 
BRANCH   2   3
ATOM      3  C   UNL     1       7.922 -17.686 -39.250  1.00  0.00     0.000 C 
ATOM      4  C   UNL     1       9.374 -17.284 -38.968  1.00  0.00     0.004 C 
ENDBRANCH   2   3
BRANCH   2   5
ATOM      5  C   UNL     1       9.129 -19.476 -40.705  1.00  0.00    -0.014 C 
ATOM      6  C   UNL     1       9.023 -21.010 -40.773  1.00  0.00     0.007 C 
ATOM      7  C   UNL     1       9.664 -18.964 -42.056  1.00  0.00     0.007 C 
ENDBRANCH   2   5
ENDBRANCH   1   2
BRANCH   1   8
ATOM      8  C   UNL     1       6.105 -19.556 -38.449  1.00  0.00     0.004 C 
BRANCH   8   9
ATOM      9  C   UNL     1       6.150 -20.771 -37.483  1.00  0.00    -0.011 C 
ATOM     10  C   UNL     1       4.814 -21.540 -37.532  1.00  0.00     0.008 C 
BRANCH   9  11
ATOM     11  C   UNL     1       7.416 -21.658 -37.779  1.00  0.00    -0.002 C 
ATOM     12  C   UNL     1       7.166 -23.150 -37.973  1.00  0.00     0.005 C 
ATOM     13  C   UNL     1       8.599 -21.581 -36.774  1.00  0.00    -0.026 C 
ATOM     14  C   UNL     1       8.556 -23.770 -37.960  1.00  0.00     0.005 C 
ATOM     15  C   UNL     1       9.471 -22.831 -37.135  1.00  0.00    -0.001 C 
ATOM     16  C   UNL     1       9.376 -20.240 -36.945  1.00  0.00     0.007 C 
ATOM     17  C   UNL     1       8.122 -21.715 -35.302  1.00  0.00     0.012 C 
ATOM     18  C   UNL     1      10.778 -22.474 -37.904  1.00  0.00     0.004 C 
ATOM     19  C   UNL     1      10.802 -20.343 -36.404  1.00  0.00     0.005 C 
ATOM     20  C   UNL     1      11.641 -21.420 -37.147  1.00  0.00     0.003 C 
ATOM     21  C   UNL     1      11.649 -23.733 -38.143  1.00  0.00     0.085 C 
ATOM     22  C   UNL     1      12.789 -20.851 -38.075  1.00  0.00    -0.000 C 
ATOM     23  C   UNL     1      12.999 -23.379 -38.702  1.00  0.00     0.159 C 
ATOM     24  C   UNL     1      13.355 -21.966 -38.964  1.00  0.00     0.005 C 
ATOM     25  C   UNL     1      12.285 -19.708 -39.014  1.00  0.00     0.020 C 
ATOM     26  C   UNL     1      13.934 -20.329 -37.168  1.00  0.00     0.017 C 
ATOM     27  O   UNL     1      13.817 -24.301 -38.962  1.00  0.00    -0.295 OA
ATOM     28  C   UNL     1      14.094 -21.671 -40.048  1.00  0.00     0.055 C 
ATOM     29  C   UNL     1      13.391 -19.180 -39.947  1.00  0.00     0.081 C 
ATOM     30  C   UNL     1      14.218 -20.288 -40.535  1.00  0.00     0.156 C 
ATOM     31  O   UNL     1      15.027 -20.032 -41.468  1.00  0.00    -0.295 OA
ENDBRANCH   9  11
ENDBRANCH   8   9
ENDBRANCH   1   8
TORSDOF 6
ENDMDL
MODEL 6
REMARK VINA RESULT:    -5.564      8.235     10.857
REMARK INTER + INTRA:         -10.045
REMARK INTER:                  -7.292
REMARK INTRA:                  -2.753
REMARK UNBOUND:                -2.530
REMARK SMILES CC[C@H](CC[C@@H](C)[C@@H]1CC[C@H]2[C@@H]3CC(=O)C4=CC(=O)CC[C@@]4(C)[C@H]3CC[C@]21C)C(C)C
REMARK SMILES IDX 4 1 3 2 2 3 1 4 29 5 30 6 31 7 5 8 6 9 7 10 8 11 9 12 27 13
REMARK SMILES IDX 10 14 11 15 26 16 28 17 12 18 25 19 24 20 13 21 22 22 14 23
REMARK SMILES IDX 16 24 21 25 23 26 15 27 17 28 20 29 18 30 19 31
REMARK H PARENT
REMARK Flexibility Score: inf
ROOT
ATOM      1  C   UNL     1       8.242 -20.906 -35.613  1.00  0.00     0.004 C 
ENDROOT
BRANCH   1   2
ATOM      2  C   UNL     1       7.740 -22.343 -35.962  1.00  0.00    -0.009 C 
BRANCH   2   3
ATOM      3  C   UNL     1       6.594 -22.265 -37.010  1.00  0.00     0.000 C 
ATOM      4  C   UNL     1       5.864 -20.917 -37.048  1.00  0.00     0.004 C 
ENDBRANCH   2   3
BRANCH   2   5
ATOM      5  C   UNL     1       8.904 -23.300 -36.403  1.00  0.00    -0.014 C 
ATOM      6  C   UNL     1       9.371 -24.214 -35.257  1.00  0.00     0.007 C 
ATOM      7  C   UNL     1       8.502 -24.184 -37.599  1.00  0.00     0.007 C 
ENDBRANCH   2   5
ENDBRANCH   1   2
BRANCH   1   8
ATOM      8  C   UNL     1       9.785 -20.756 -35.612  1.00  0.00     0.004 C 
BRANCH   8   9
ATOM      9  C   UNL     1      10.366 -20.135 -36.911  1.00  0.00    -0.011 C 
ATOM     10  C   UNL     1      11.642 -20.890 -37.338  1.00  0.00     0.008 C 
BRANCH   9  11
ATOM     11  C   UNL     1       9.256 -20.065 -38.026  1.00  0.00    -0.002 C 
ATOM     12  C   UNL     1       9.455 -20.970 -39.237  1.00  0.00     0.005 C 
ATOM     13  C   UNL     1       8.926 -18.668 -38.624  1.00  0.00    -0.026 C 
ATOM     14  C   UNL     1       8.415 -20.492 -40.241  1.00  0.00     0.005 C 
ATOM     15  C   UNL     1       8.119 -19.005 -39.923  1.00  0.00    -0.001 C 
ATOM     16  C   UNL     1       8.102 -17.819 -37.609  1.00  0.00     0.007 C 
ATOM     17  C   UNL     1      10.209 -17.889 -39.024  1.00  0.00     0.012 C 
ATOM     18  C   UNL     1       6.589 -18.735 -39.789  1.00  0.00     0.004 C 
ATOM     19  C   UNL     1       7.312 -16.714 -38.312  1.00  0.00     0.005 C 
ATOM     20  C   UNL     1       6.284 -17.278 -39.332  1.00  0.00     0.003 C 
ATOM     21  C   UNL     1       5.857 -18.987 -41.131  1.00  0.00     0.085 C 
ATOM     22  C   UNL     1       4.768 -17.119 -38.910  1.00  0.00    -0.000 C 
ATOM     23  C   UNL     1       4.424 -18.541 -41.075  1.00  0.00     0.159 C 
ATOM     24  C   UNL     1       3.869 -17.950 -39.837  1.00  0.00     0.005 C 
ATOM     25  C   UNL     1       4.503 -17.594 -37.445  1.00  0.00     0.020 C 
ATOM     26  C   UNL     1       4.372 -15.627 -39.066  1.00  0.00     0.017 C 
ATOM     27  O   UNL     1       3.693 -18.693 -42.091  1.00  0.00    -0.295 OA
ATOM     28  C   UNL     1       2.602 -18.237 -39.488  1.00  0.00     0.055 C 
ATOM     29  C   UNL     1       3.020 -17.478 -37.046  1.00  0.00     0.081 C 
ATOM     30  C   UNL     1       2.098 -17.947 -38.136  1.00  0.00     0.156 C 
ATOM     31  O   UNL     1       0.872 -18.102 -37.888  1.00  0.00    -0.295 OA
ENDBRANCH   9  11
ENDBRANCH   8   9
ENDBRANCH   1   8
TORSDOF 6
ENDMDL
MODEL 7
REMARK VINA RESULT:    -5.505      8.652     11.791
REMARK INTER + INTRA:          -9.966
REMARK INTER:                  -7.354
REMARK INTRA:                  -2.611
REMARK UNBOUND:                -2.530
REMARK SMILES CC[C@H](CC[C@@H](C)[C@@H]1CC[C@H]2[C@@H]3CC(=O)C4=CC(=O)CC[C@@]4(C)[C@H]3CC[C@]21C)C(C)C
REMARK SMILES IDX 4 1 3 2 2 3 1 4 29 5 30 6 31 7 5 8 6 9 7 10 8 11 9 12 27 13
REMARK SMILES IDX 10 14 11 15 26 16 28 17 12 18 25 19 24 20 13 21 22 22 14 23
REMARK SMILES IDX 16 24 21 25 23 26 15 27 17 28 20 29 18 30 19 31
REMARK H PARENT
REMARK Flexibility Score: inf
ROOT
ATOM      1  C   UNL     1       3.387 -17.041 -35.961  1.00  0.00     0.004 C 
ENDROOT
BRANCH   1   2
ATOM      2  C   UNL     1       4.367 -15.899 -35.547  1.00  0.00    -0.009 C 
BRANCH   2   3
ATOM      3  C   UNL     1       3.881 -15.233 -34.229  1.00  0.00     0.000 C 
ATOM      4  C   UNL     1       4.879 -15.327 -33.068  1.00  0.00     0.004 C 
ENDBRANCH   2   3
BRANCH   2   5
ATOM      5  C   UNL     1       5.860 -16.381 -35.471  1.00  0.00    -0.014 C 
ATOM      6  C   UNL     1       5.994 -17.896 -35.710  1.00  0.00     0.007 C 
ATOM      7  C   UNL     1       6.757 -15.646 -36.485  1.00  0.00     0.007 C 
ENDBRANCH   2   5
ENDBRANCH   1   2
BRANCH   1   8
ATOM      8  C   UNL     1       2.212 -16.574 -36.858  1.00  0.00     0.004 C 
BRANCH   8   9
ATOM      9  C   UNL     1       2.418 -16.849 -38.373  1.00  0.00    -0.011 C 
ATOM     10  C   UNL     1       1.827 -15.695 -39.208  1.00  0.00     0.008 C 
BRANCH   9  11
ATOM     11  C   UNL     1       3.934 -17.151 -38.672  1.00  0.00    -0.002 C 
ATOM     12  C   UNL     1       4.712 -16.055 -39.392  1.00  0.00     0.005 C 
ATOM     13  C   UNL     1       4.267 -18.453 -39.452  1.00  0.00    -0.026 C 
ATOM     14  C   UNL     1       6.024 -16.720 -39.786  1.00  0.00     0.005 C 
ATOM     15  C   UNL     1       5.750 -18.240 -39.909  1.00  0.00    -0.001 C 
ATOM     16  C   UNL     1       4.097 -19.701 -38.533  1.00  0.00     0.007 C 
ATOM     17  C   UNL     1       3.376 -18.619 -40.714  1.00  0.00     0.012 C 
ATOM     18  C   UNL     1       6.777 -19.082 -39.093  1.00  0.00     0.004 C 
ATOM     19  C   UNL     1       4.904 -20.893 -39.049  1.00  0.00     0.005 C 
ATOM     20  C   UNL     1       6.429 -20.600 -39.094  1.00  0.00     0.003 C 
ATOM     21  C   UNL     1       8.211 -18.911 -39.654  1.00  0.00     0.085 C 
ATOM     22  C   UNL     1       7.292 -21.382 -38.023  1.00  0.00    -0.000 C 
ATOM     23  C   UNL     1       9.177 -19.866 -39.010  1.00  0.00     0.159 C 
ATOM     24  C   UNL     1       8.717 -20.813 -37.970  1.00  0.00     0.005 C 
ATOM     25  C   UNL     1       6.690 -21.284 -36.585  1.00  0.00     0.020 C 
ATOM     26  C   UNL     1       7.383 -22.868 -38.462  1.00  0.00     0.017 C 
ATOM     27  O   UNL     1      10.389 -19.838 -39.354  1.00  0.00    -0.295 OA
ATOM     28  C   UNL     1       9.525 -21.082 -36.930  1.00  0.00     0.055 C 
ATOM     29  C   UNL     1       7.550 -22.011 -35.534  1.00  0.00     0.081 C 
ATOM     30  C   UNL     1       9.019 -21.754 -35.722  1.00  0.00     0.156 C 
ATOM     31  O   UNL     1       9.831 -22.112 -34.828  1.00  0.00    -0.295 OA
ENDBRANCH   9  11
ENDBRANCH   8   9
ENDBRANCH   1   8
TORSDOF 6
ENDMDL
MODEL 8
REMARK VINA RESULT:    -5.468      8.649     11.218
REMARK INTER + INTRA:          -9.916
REMARK INTER:                  -8.042
REMARK INTRA:                  -1.874
REMARK UNBOUND:                -2.530
REMARK SMILES CC[C@H](CC[C@@H](C)[C@@H]1CC[C@H]2[C@@H]3CC(=O)C4=CC(=O)CC[C@@]4(C)[C@H]3CC[C@]21C)C(C)C
REMARK SMILES IDX 4 1 3 2 2 3 1 4 29 5 30 6 31 7 5 8 6 9 7 10 8 11 9 12 27 13
REMARK SMILES IDX 10 14 11 15 26 16 28 17 12 18 25 19 24 20 13 21 22 22 14 23
REMARK SMILES IDX 16 24 21 25 23 26 15 27 17 28 20 29 18 30 19 31
REMARK H PARENT
REMARK Flexibility Score: inf
ROOT
ATOM      1  C   UNL     1      11.576 -19.910 -36.741  1.00  0.00     0.004 C 
ENDROOT
BRANCH   1   2
ATOM      2  C   UNL     1      11.902 -20.871 -37.927  1.00  0.00    -0.009 C 
BRANCH   2   3
ATOM      3  C   UNL     1      11.821 -20.097 -39.274  1.00  0.00     0.000 C 
ATOM      4  C   UNL     1      11.630 -18.583 -39.122  1.00  0.00     0.004 C 
ENDBRANCH   2   3
BRANCH   2   5
ATOM      5  C   UNL     1      13.266 -21.624 -37.739  1.00  0.00    -0.014 C 
ATOM      6  C   UNL     1      13.144 -23.130 -38.032  1.00  0.00     0.007 C 
ATOM      7  C   UNL     1      14.376 -21.042 -38.636  1.00  0.00     0.007 C 
ENDBRANCH   2   5
ENDBRANCH   1   2
BRANCH   1   8
ATOM      8  C   UNL     1      10.388 -20.373 -35.858  1.00  0.00     0.004 C 
BRANCH   8   9
ATOM      9  C   UNL     1       9.599 -21.581 -36.433  1.00  0.00    -0.011 C 
ATOM     10  C   UNL     1       9.824 -22.830 -35.556  1.00  0.00     0.008 C 
BRANCH   9  11
ATOM     11  C   UNL     1       8.085 -21.199 -36.635  1.00  0.00    -0.002 C 
ATOM     12  C   UNL     1       7.083 -22.346 -36.566  1.00  0.00     0.005 C 
ATOM     13  C   UNL     1       7.708 -20.417 -37.925  1.00  0.00    -0.026 C 
ATOM     14  C   UNL     1       5.779 -21.738 -37.065  1.00  0.00     0.005 C 
ATOM     15  C   UNL     1       6.149 -20.557 -37.996  1.00  0.00    -0.001 C 
ATOM     16  C   UNL     1       8.172 -18.933 -37.821  1.00  0.00     0.007 C 
ATOM     17  C   UNL     1       8.323 -21.062 -39.197  1.00  0.00     0.012 C 
ATOM     18  C   UNL     1       5.392 -19.252 -37.605  1.00  0.00     0.004 C 
ATOM     19  C   UNL     1       7.378 -18.029 -38.766  1.00  0.00     0.005 C 
ATOM     20  C   UNL     1       5.858 -18.024 -38.443  1.00  0.00     0.003 C 
ATOM     21  C   UNL     1       3.862 -19.415 -37.793  1.00  0.00     0.085 C 
ATOM     22  C   UNL     1       5.309 -16.674 -37.828  1.00  0.00    -0.000 C 
ATOM     23  C   UNL     1       3.138 -18.111 -37.614  1.00  0.00     0.159 C 
ATOM     24  C   UNL     1       3.885 -16.874 -37.292  1.00  0.00     0.005 C 
ATOM     25  C   UNL     1       6.190 -16.154 -36.647  1.00  0.00     0.020 C 
ATOM     26  C   UNL     1       5.254 -15.612 -38.958  1.00  0.00     0.017 C 
ATOM     27  O   UNL     1       1.882 -18.085 -37.724  1.00  0.00    -0.295 OA
ATOM     28  C   UNL     1       3.339 -15.985 -36.444  1.00  0.00     0.055 C 
ATOM     29  C   UNL     1       5.635 -14.861 -36.020  1.00  0.00     0.081 C 
ATOM     30  C   UNL     1       4.143 -14.908 -35.845  1.00  0.00     0.156 C 
ATOM     31  O   UNL     1       3.570 -14.014 -35.166  1.00  0.00    -0.295 OA
ENDBRANCH   9  11
ENDBRANCH   8   9
ENDBRANCH   1   8
TORSDOF 6
ENDMDL
MODEL 9
REMARK VINA RESULT:    -5.402      8.493     11.251
REMARK INTER + INTRA:          -9.827
REMARK INTER:                  -6.725
REMARK INTRA:                  -3.102
REMARK UNBOUND:                -2.530
REMARK SMILES CC[C@H](CC[C@@H](C)[C@@H]1CC[C@H]2[C@@H]3CC(=O)C4=CC(=O)CC[C@@]4(C)[C@H]3CC[C@]21C)C(C)C
REMARK SMILES IDX 4 1 3 2 2 3 1 4 29 5 30 6 31 7 5 8 6 9 7 10 8 11 9 12 27 13
REMARK SMILES IDX 10 14 11 15 26 16 28 17 12 18 25 19 24 20 13 21 22 22 14 23
REMARK SMILES IDX 16 24 21 25 23 26 15 27 17 28 20 29 18 30 19 31
REMARK H PARENT
REMARK Flexibility Score: inf
ROOT
ATOM      1  C   UNL     1      12.444 -23.384 -41.001  1.00  0.00     0.004 C 
ENDROOT
BRANCH   1   2
ATOM      2  C   UNL     1      11.300 -24.314 -40.487  1.00  0.00    -0.009 C 
BRANCH   2   3
ATOM      3  C   UNL     1      11.780 -25.107 -39.239  1.00  0.00     0.000 C 
ATOM      4  C   UNL     1      10.764 -25.156 -38.092  1.00  0.00     0.004 C 
ENDBRANCH   2   3
BRANCH   2   5
ATOM      5  C   UNL     1       9.958 -23.539 -40.236  1.00  0.00    -0.014 C 
ATOM      6  C   UNL     1      10.027 -22.082 -40.728  1.00  0.00     0.007 C 
ATOM      7  C   UNL     1       8.758 -24.226 -40.917  1.00  0.00     0.007 C 
ENDBRANCH   2   5
ENDBRANCH   1   2
BRANCH   1   8
ATOM      8  C   UNL     1      13.806 -23.606 -40.295  1.00  0.00     0.004 C 
BRANCH   8   9
ATOM      9  C   UNL     1      14.356 -22.352 -39.562  1.00  0.00    -0.011 C 
ATOM     10  C   UNL     1      15.672 -21.886 -40.217  1.00  0.00     0.008 C 
BRANCH   9  11
ATOM     11  C   UNL     1      13.247 -21.237 -39.480  1.00  0.00    -0.002 C 
ATOM     12  C   UNL     1      13.529 -19.945 -40.238  1.00  0.00     0.005 C 
ATOM     13  C   UNL     1      12.793 -20.778 -38.066  1.00  0.00    -0.026 C 
ATOM     14  C   UNL     1      12.453 -18.982 -39.758  1.00  0.00     0.005 C 
ATOM     15  C   UNL     1      12.021 -19.442 -38.343  1.00  0.00    -0.001 C 
ATOM     16  C   UNL     1      11.892 -21.863 -37.401  1.00  0.00     0.007 C 
ATOM     17  C   UNL     1      14.000 -20.471 -37.138  1.00  0.00     0.012 C 
ATOM     18  C   UNL     1      10.474 -19.586 -38.227  1.00  0.00     0.004 C 
ATOM     19  C   UNL     1      11.007 -21.264 -36.307  1.00  0.00     0.005 C 
ATOM     20  C   UNL     1      10.037 -20.182 -36.856  1.00  0.00     0.003 C 
ATOM     21  C   UNL     1       9.771 -18.217 -38.408  1.00  0.00     0.085 C 
ATOM     22  C   UNL     1       8.511 -20.600 -36.877  1.00  0.00    -0.000 C 
ATOM     23  C   UNL     1       8.302 -18.301 -38.100  1.00  0.00     0.159 C 
ATOM     24  C   UNL     1       7.693 -19.586 -37.689  1.00  0.00     0.005 C 
ATOM     25  C   UNL     1       8.288 -22.008 -37.518  1.00  0.00     0.020 C 
ATOM     26  C   UNL     1       7.983 -20.589 -35.418  1.00  0.00     0.017 C 
ATOM     27  O   UNL     1       7.590 -17.267 -38.216  1.00  0.00    -0.295 OA
ATOM     28  C   UNL     1       6.458 -19.891 -38.122  1.00  0.00     0.055 C 
ATOM     29  C   UNL     1       6.800 -22.400 -37.577  1.00  0.00     0.081 C 
ATOM     30  C   UNL     1       5.926 -21.259 -38.016  1.00  0.00     0.156 C 
ATOM     31  O   UNL     1       4.718 -21.477 -38.305  1.00  0.00    -0.295 OA
ENDBRANCH   9  11
ENDBRANCH   8   9
ENDBRANCH   1   8
TORSDOF 6
ENDMDL
