MODEL 1
REMARK VINA RESULT:    -3.548      0.000      0.000
REMARK INTER + INTRA:          -8.432
REMARK INTER:                  -6.452
REMARK INTRA:                  -1.979
REMARK UNBOUND:                -1.979
REMARK SMILES CCCCCCCCCCCCCCCC(=O)[O-]
REMARK SMILES IDX 9 1 10 2 11 3 12 4 13 5 14 6 15 7 16 8 17 9 18 10 8 11 7 12
REMARK SMILES IDX 6 13 5 14 4 15 3 16 2 17 1 18
REMARK H PARENT
REMARK Flexibility Score: inf
ROOT
ATOM      1  C   UNL     1       7.043  10.153  20.620  1.00  0.00     0.000 C 
ENDROOT
BRANCH   1   2
ATOM      2  C   UNL     1       8.074  11.199  20.168  1.00  0.00     0.000 C 
BRANCH   2   3
ATOM      3  C   UNL     1       9.520  10.771  20.475  1.00  0.00     0.000 C 
BRANCH   3   4
ATOM      4  C   UNL     1      10.326  10.456  19.205  1.00  0.00     0.000 C 
BRANCH   4   5
ATOM      5  C   UNL     1      10.614   8.955  19.045  1.00  0.00     0.000 C 
BRANCH   5   6
ATOM      6  C   UNL     1       9.350   8.196  18.616  1.00  0.00     0.006 C 
BRANCH   6   7
ATOM      7  C   UNL     1       8.910   7.161  19.660  1.00  0.00     0.053 C 
BRANCH   7   8
ATOM      8  C   UNL     1       8.000   6.129  19.069  1.00  0.00     0.041 C 
ATOM      9  O   UNL     1       6.800   6.415  18.811  1.00  0.00    -0.550 OA
ATOM     10  O   UNL     1       8.484   4.861  18.773  1.00  0.00    -0.550 OA
ENDBRANCH   7   8
ENDBRANCH   6   7
ENDBRANCH   5   6
ENDBRANCH   4   5
ENDBRANCH   3   4
ENDBRANCH   2   3
ENDBRANCH   1   2
BRANCH   1  11
ATOM     11  C   UNL     1       6.030   9.810  19.514  1.00  0.00     0.000 C 
BRANCH  11  12
ATOM     12  C   UNL     1       6.451  10.348  18.135  1.00  0.00    -0.000 C 
BRANCH  12  13
ATOM     13  C   UNL     1       5.805   9.631  16.932  1.00  0.00    -0.000 C 
BRANCH  13  14
ATOM     14  C   UNL     1       4.717   8.592  17.281  1.00  0.00    -0.000 C 
BRANCH  14  15
ATOM     15  C   UNL     1       3.284   8.994  16.875  1.00  0.00    -0.000 C 
BRANCH  15  16
ATOM     16  C   UNL     1       2.915  10.445  17.261  1.00  0.00    -0.000 C 
BRANCH  16  17
ATOM     17  C   UNL     1       2.371  10.577  18.693  1.00  0.00    -0.003 C 
ATOM     18  C   UNL     1       3.053  11.692  19.485  1.00  0.00     0.004 C 
ENDBRANCH  16  17
ENDBRANCH  15  16
ENDBRANCH  14  15
ENDBRANCH  13  14
ENDBRANCH  12  13
ENDBRANCH  11  12
ENDBRANCH   1  11
TORSDOF 14
ENDMDL
MODEL 2
REMARK VINA RESULT:    -3.406      2.538      3.468
REMARK INTER + INTRA:          -8.173
REMARK INTER:                  -6.236
REMARK INTRA:                  -1.938
REMARK UNBOUND:                -1.979
REMARK SMILES CCCCCCCCCCCCCCCC(=O)[O-]
REMARK SMILES IDX 9 1 10 2 11 3 12 4 13 5 14 6 15 7 16 8 17 9 18 10 8 11 7 12
REMARK SMILES IDX 6 13 5 14 4 15 3 16 2 17 1 18
REMARK H PARENT
REMARK Flexibility Score: inf
ROOT
ATOM      1  C   UNL     1       7.491   8.693  20.163  1.00  0.00     0.000 C 
ENDROOT
BRANCH   1   2
ATOM      2  C   UNL     1       6.658   9.984  20.175  1.00  0.00     0.000 C 
BRANCH   2   3
ATOM      3  C   UNL     1       7.444  11.197  19.648  1.00  0.00     0.000 C 
BRANCH   3   4
ATOM      4  C   UNL     1       6.867  11.750  18.335  1.00  0.00     0.000 C 
BRANCH   4   5
ATOM      5  C   UNL     1       7.935  11.909  17.242  1.00  0.00     0.000 C 
BRANCH   5   6
ATOM      6  C   UNL     1       9.051  10.868  17.408  1.00  0.00     0.006 C 
BRANCH   6   7
ATOM      7  C   UNL     1      10.433  11.517  17.566  1.00  0.00     0.053 C 
BRANCH   7   8
ATOM      8  C   UNL     1      11.300  10.751  18.517  1.00  0.00     0.041 C 
ATOM      9  O   UNL     1      10.953   9.604  18.908  1.00  0.00    -0.550 OA
ATOM     10  O   UNL     1      12.507  11.288  18.946  1.00  0.00    -0.550 OA
ENDBRANCH   7   8
ENDBRANCH   6   7
ENDBRANCH   5   6
ENDBRANCH   4   5
ENDBRANCH   3   4
ENDBRANCH   2   3
ENDBRANCH   1   2
BRANCH   1  11
ATOM     11  C   UNL     1       7.433   7.967  18.807  1.00  0.00     0.000 C 
BRANCH  11  12
ATOM     12  C   UNL     1       5.995   7.635  18.373  1.00  0.00    -0.000 C 
BRANCH  12  13
ATOM     13  C   UNL     1       5.463   8.468  17.190  1.00  0.00    -0.000 C 
BRANCH  13  14
ATOM     14  C   UNL     1       3.943   8.744  17.200  1.00  0.00    -0.000 C 
BRANCH  14  15
ATOM     15  C   UNL     1       3.553  10.209  17.481  1.00  0.00    -0.000 C 
BRANCH  15  16
ATOM     16  C   UNL     1       2.109  10.376  18.008  1.00  0.00    -0.000 C 
BRANCH  16  17
ATOM     17  C   UNL     1       2.021  11.216  19.293  1.00  0.00    -0.003 C 
ATOM     18  C   UNL     1       3.384  11.720  19.765  1.00  0.00     0.004 C 
ENDBRANCH  16  17
ENDBRANCH  15  16
ENDBRANCH  14  15
ENDBRANCH  13  14
ENDBRANCH  12  13
ENDBRANCH  11  12
ENDBRANCH   1  11
TORSDOF 14
ENDMDL
MODEL 3
REMARK VINA RESULT:    -3.293      2.087      3.339
REMARK INTER + INTRA:          -7.967
REMARK INTER:                  -6.353
REMARK INTRA:                  -1.614
REMARK UNBOUND:                -1.979
REMARK SMILES CCCCCCCCCCCCCCCC(=O)[O-]
REMARK SMILES IDX 9 1 10 2 11 3 12 4 13 5 14 6 15 7 16 8 17 9 18 10 8 11 7 12
REMARK SMILES IDX 6 13 5 14 4 15 3 16 2 17 1 18
REMARK H PARENT
REMARK Flexibility Score: inf
ROOT
ATOM      1  C   UNL     1       9.059   7.089  19.508  1.00  0.00     0.000 C 
ENDROOT
BRANCH   1   2
ATOM      2  C   UNL     1       9.464   8.275  18.619  1.00  0.00     0.000 C 
BRANCH   2   3
ATOM      3  C   UNL     1      10.744   8.971  19.113  1.00  0.00     0.000 C 
BRANCH   3   4
ATOM      4  C   UNL     1      10.973  10.333  18.439  1.00  0.00     0.000 C 
BRANCH   4   5
ATOM      5  C   UNL     1       9.757  10.803  17.626  1.00  0.00     0.000 C 
BRANCH   5   6
ATOM      6  C   UNL     1       9.023  11.944  18.344  1.00  0.00     0.006 C 
BRANCH   6   7
ATOM      7  C   UNL     1       7.726  11.471  19.013  1.00  0.00     0.053 C 
BRANCH   7   8
ATOM      8  C   UNL     1       7.948  11.079  20.442  1.00  0.00     0.041 C 
ATOM      9  O   UNL     1       7.147  10.293  21.015  1.00  0.00    -0.550 OA
ATOM     10  O   UNL     1       9.056  11.555  21.130  1.00  0.00    -0.550 OA
ENDBRANCH   7   8
ENDBRANCH   6   7
ENDBRANCH   5   6
ENDBRANCH   4   5
ENDBRANCH   3   4
ENDBRANCH   2   3
ENDBRANCH   1   2
BRANCH   1  11
ATOM     11  C   UNL     1       7.563   7.105  19.865  1.00  0.00     0.000 C 
BRANCH  11  12
ATOM     12  C   UNL     1       6.657   7.206  18.625  1.00  0.00    -0.000 C 
BRANCH  12  13
ATOM     13  C   UNL     1       5.729   8.437  18.595  1.00  0.00    -0.000 C 
BRANCH  13  14
ATOM     14  C   UNL     1       4.678   8.451  17.463  1.00  0.00    -0.000 C 
BRANCH  14  15
ATOM     15  C   UNL     1       3.956   9.799  17.267  1.00  0.00    -0.000 C 
BRANCH  15  16
ATOM     16  C   UNL     1       2.616   9.902  18.031  1.00  0.00    -0.000 C 
BRANCH  16  17
ATOM     17  C   UNL     1       2.556  11.092  19.003  1.00  0.00    -0.003 C 
ATOM     18  C   UNL     1       3.939  11.544  19.471  1.00  0.00     0.004 C 
ENDBRANCH  16  17
ENDBRANCH  15  16
ENDBRANCH  14  15
ENDBRANCH  13  14
ENDBRANCH  12  13
ENDBRANCH  11  12
ENDBRANCH   1  11
TORSDOF 14
ENDMDL
MODEL 4
REMARK VINA RESULT:    -3.149      2.536      3.410
REMARK INTER + INTRA:          -7.705
REMARK INTER:                  -6.095
REMARK INTRA:                  -1.610
REMARK UNBOUND:                -1.979
REMARK SMILES CCCCCCCCCCCCCCCC(=O)[O-]
REMARK SMILES IDX 9 1 10 2 11 3 12 4 13 5 14 6 15 7 16 8 17 9 18 10 8 11 7 12
REMARK SMILES IDX 6 13 5 14 4 15 3 16 2 17 1 18
REMARK H PARENT
REMARK Flexibility Score: inf
ROOT
ATOM      1  C   UNL     1       7.678   8.661  20.217  1.00  0.00     0.000 C 
ENDROOT
BRANCH   1   2
ATOM      2  C   UNL     1       8.648   7.731  19.472  1.00  0.00     0.000 C 
BRANCH   2   3
ATOM      3  C   UNL     1      10.039   8.362  19.282  1.00  0.00     0.000 C 
BRANCH   3   4
ATOM      4  C   UNL     1      10.058   9.426  18.173  1.00  0.00     0.000 C 
BRANCH   4   5
ATOM      5  C   UNL     1      10.978  10.611  18.507  1.00  0.00     0.000 C 
BRANCH   5   6
ATOM      6  C   UNL     1      10.191  11.929  18.529  1.00  0.00     0.006 C 
BRANCH   6   7
ATOM      7  C   UNL     1       9.035  11.933  17.519  1.00  0.00     0.053 C 
BRANCH   7   8
ATOM      8  C   UNL     1       7.705  12.043  18.199  1.00  0.00     0.041 C 
ATOM      9  O   UNL     1       7.639  12.124  19.454  1.00  0.00    -0.550 OA
ATOM     10  O   UNL     1       6.539  12.090  17.444  1.00  0.00    -0.550 OA
ENDBRANCH   7   8
ENDBRANCH   6   7
ENDBRANCH   5   6
ENDBRANCH   4   5
ENDBRANCH   3   4
ENDBRANCH   2   3
ENDBRANCH   1   2
BRANCH   1  11
ATOM     11  C   UNL     1       6.345   8.842  19.470  1.00  0.00     0.000 C 
BRANCH  11  12
ATOM     12  C   UNL     1       6.291   8.049  18.151  1.00  0.00    -0.000 C 
BRANCH  12  13
ATOM     13  C   UNL     1       5.503   8.730  17.014  1.00  0.00    -0.000 C 
BRANCH  13  14
ATOM     14  C   UNL     1       3.965   8.665  17.138  1.00  0.00    -0.000 C 
BRANCH  14  15
ATOM     15  C   UNL     1       3.246  10.021  16.988  1.00  0.00    -0.000 C 
BRANCH  15  16
ATOM     16  C   UNL     1       2.080  10.217  17.984  1.00  0.00    -0.000 C 
BRANCH  16  17
ATOM     17  C   UNL     1       2.300  11.383  18.961  1.00  0.00    -0.003 C 
ATOM     18  C   UNL     1       3.718  11.419  19.530  1.00  0.00     0.004 C 
ENDBRANCH  16  17
ENDBRANCH  15  16
ENDBRANCH  14  15
ENDBRANCH  13  14
ENDBRANCH  12  13
ENDBRANCH  11  12
ENDBRANCH   1  11
TORSDOF 14
ENDMDL
MODEL 5
REMARK VINA RESULT:    -3.113      2.694      6.241
REMARK INTER + INTRA:          -7.640
REMARK INTER:                  -5.830
REMARK INTRA:                  -1.810
REMARK UNBOUND:                -1.979
REMARK SMILES CCCCCCCCCCCCCCCC(=O)[O-]
REMARK SMILES IDX 9 1 10 2 11 3 12 4 13 5 14 6 15 7 16 8 17 9 18 10 8 11 7 12
REMARK SMILES IDX 6 13 5 14 4 15 3 16 2 17 1 18
REMARK H PARENT
REMARK Flexibility Score: inf
ROOT
ATOM      1  C   UNL     1       7.103   9.665  20.565  1.00  0.00     0.000 C 
ENDROOT
BRANCH   1   2
ATOM      2  C   UNL     1       5.988   9.625  19.509  1.00  0.00     0.000 C 
BRANCH   2   3
ATOM      3  C   UNL     1       6.178   8.483  18.495  1.00  0.00     0.000 C 
BRANCH   3   4
ATOM      4  C   UNL     1       5.502   8.773  17.145  1.00  0.00     0.000 C 
BRANCH   4   5
ATOM      5  C   UNL     1       3.989   8.511  17.174  1.00  0.00     0.000 C 
BRANCH   5   6
ATOM      6  C   UNL     1       3.202   9.803  16.908  1.00  0.00     0.006 C 
BRANCH   6   7
ATOM      7  C   UNL     1       2.293  10.183  18.085  1.00  0.00     0.053 C 
BRANCH   7   8
ATOM      8  C   UNL     1       2.760  11.432  18.767  1.00  0.00     0.041 C 
ATOM      9  O   UNL     1       2.128  11.888  19.756  1.00  0.00    -0.550 OA
ATOM     10  O   UNL     1       3.911  12.075  18.330  1.00  0.00    -0.550 OA
ENDBRANCH   7   8
ENDBRANCH   6   7
ENDBRANCH   5   6
ENDBRANCH   4   5
ENDBRANCH   3   4
ENDBRANCH   2   3
ENDBRANCH   1   2
BRANCH   1  11
ATOM     11  C   UNL     1       8.002  10.906  20.426  1.00  0.00     0.000 C 
BRANCH  11  12
ATOM     12  C   UNL     1       7.629  11.776  19.212  1.00  0.00    -0.000 C 
BRANCH  12  13
ATOM     13  C   UNL     1       8.520  11.577  17.970  1.00  0.00    -0.000 C 
BRANCH  13  14
ATOM     14  C   UNL     1      10.010  11.940  18.155  1.00  0.00    -0.000 C 
BRANCH  14  15
ATOM     15  C   UNL     1      10.970  10.733  18.194  1.00  0.00    -0.000 C 
BRANCH  15  16
ATOM     16  C   UNL     1      10.256   9.369  18.062  1.00  0.00    -0.000 C 
BRANCH  16  17
ATOM     17  C   UNL     1      10.601   8.386  19.192  1.00  0.00    -0.003 C 
ATOM     18  C   UNL     1       9.489   7.371  19.454  1.00  0.00     0.004 C 
ENDBRANCH  16  17
ENDBRANCH  15  16
ENDBRANCH  14  15
ENDBRANCH  13  14
ENDBRANCH  12  13
ENDBRANCH  11  12
ENDBRANCH   1  11
TORSDOF 14
ENDMDL
MODEL 6
REMARK VINA RESULT:    -2.977      2.801      6.017
REMARK INTER + INTRA:          -7.392
REMARK INTER:                  -5.620
REMARK INTRA:                  -1.772
REMARK UNBOUND:                -1.979
REMARK SMILES CCCCCCCCCCCCCCCC(=O)[O-]
REMARK SMILES IDX 9 1 10 2 11 3 12 4 13 5 14 6 15 7 16 8 17 9 18 10 8 11 7 12
REMARK SMILES IDX 6 13 5 14 4 15 3 16 2 17 1 18
REMARK H PARENT
REMARK Flexibility Score: inf
ROOT
ATOM      1  C   UNL     1       7.873   8.265  19.893  1.00  0.00     0.000 C 
ENDROOT
BRANCH   1   2
ATOM      2  C   UNL     1       6.418   8.534  19.480  1.00  0.00     0.000 C 
BRANCH   2   3
ATOM      3  C   UNL     1       6.012   7.759  18.214  1.00  0.00     0.000 C 
BRANCH   3   4
ATOM      4  C   UNL     1       5.363   8.661  17.152  1.00  0.00     0.000 C 
BRANCH   4   5
ATOM      5  C   UNL     1       3.844   8.794  17.338  1.00  0.00     0.000 C 
BRANCH   5   6
ATOM      6  C   UNL     1       3.416  10.268  17.327  1.00  0.00     0.006 C 
BRANCH   6   7
ATOM      7  C   UNL     1       2.235  10.538  18.269  1.00  0.00     0.053 C 
BRANCH   7   8
ATOM      8  C   UNL     1       2.652  11.332  19.469  1.00  0.00     0.041 C 
ATOM      9  O   UNL     1       1.875  11.447  20.454  1.00  0.00    -0.550 OA
ATOM     10  O   UNL     1       3.912  11.917  19.514  1.00  0.00    -0.550 OA
ENDBRANCH   7   8
ENDBRANCH   6   7
ENDBRANCH   5   6
ENDBRANCH   4   5
ENDBRANCH   3   4
ENDBRANCH   2   3
ENDBRANCH   1   2
BRANCH   1  11
ATOM     11  C   UNL     1       8.855   8.413  18.718  1.00  0.00     0.000 C 
BRANCH  11  12
ATOM     12  C   UNL     1      10.235   8.932  19.159  1.00  0.00    -0.000 C 
BRANCH  12  13
ATOM     13  C   UNL     1      10.993   9.752  18.095  1.00  0.00    -0.000 C 
BRANCH  13  14
ATOM     14  C   UNL     1      11.197  11.247  18.427  1.00  0.00    -0.000 C 
BRANCH  14  15
ATOM     15  C   UNL     1       9.942  12.125  18.254  1.00  0.00    -0.000 C 
BRANCH  15  16
ATOM     16  C   UNL     1       9.085  11.745  17.024  1.00  0.00    -0.000 C 
BRANCH  16  17
ATOM     17  C   UNL     1       7.574  11.749  17.307  1.00  0.00    -0.003 C 
ATOM     18  C   UNL     1       7.251  11.800  18.800  1.00  0.00     0.004 C 
ENDBRANCH  16  17
ENDBRANCH  15  16
ENDBRANCH  14  15
ENDBRANCH  13  14
ENDBRANCH  12  13
ENDBRANCH  11  12
ENDBRANCH   1  11
TORSDOF 14
ENDMDL
MODEL 7
REMARK VINA RESULT:    -2.941      1.491      5.079
REMARK INTER + INTRA:          -7.327
REMARK INTER:                  -5.493
REMARK INTRA:                  -1.834
REMARK UNBOUND:                -1.979
REMARK SMILES CCCCCCCCCCCCCCCC(=O)[O-]
REMARK SMILES IDX 9 1 10 2 11 3 12 4 13 5 14 6 15 7 16 8 17 9 18 10 8 11 7 12
REMARK SMILES IDX 6 13 5 14 4 15 3 16 2 17 1 18
REMARK H PARENT
REMARK Flexibility Score: inf
ROOT
ATOM      1  C   UNL     1       3.798  10.972  19.014  1.00  0.00     0.000 C 
ENDROOT
BRANCH   1   2
ATOM      2  C   UNL     1       2.706  10.652  17.981  1.00  0.00     0.000 C 
BRANCH   2   3
ATOM      3  C   UNL     1       3.190   9.673  16.897  1.00  0.00     0.000 C 
BRANCH   3   4
ATOM      4  C   UNL     1       3.954   8.475  17.481  1.00  0.00     0.000 C 
BRANCH   4   5
ATOM      5  C   UNL     1       5.471   8.576  17.262  1.00  0.00     0.000 C 
BRANCH   5   6
ATOM      6  C   UNL     1       6.229   7.658  18.231  1.00  0.00     0.006 C 
BRANCH   6   7
ATOM      7  C   UNL     1       7.750   7.753  18.054  1.00  0.00     0.053 C 
BRANCH   7   8
ATOM      8  C   UNL     1       8.483   7.102  19.186  1.00  0.00     0.041 C 
ATOM      9  O   UNL     1       9.637   7.495  19.503  1.00  0.00    -0.550 OA
ATOM     10  O   UNL     1       7.879   6.082  19.911  1.00  0.00    -0.550 OA
ENDBRANCH   7   8
ENDBRANCH   6   7
ENDBRANCH   5   6
ENDBRANCH   4   5
ENDBRANCH   3   4
ENDBRANCH   2   3
ENDBRANCH   1   2
BRANCH   1  11
ATOM     11  C   UNL     1       4.713  12.123  18.565  1.00  0.00     0.000 C 
BRANCH  11  12
ATOM     12  C   UNL     1       6.199  11.852  18.863  1.00  0.00    -0.000 C 
BRANCH  12  13
ATOM     13  C   UNL     1       6.464  10.707  19.862  1.00  0.00    -0.000 C 
BRANCH  13  14
ATOM     14  C   UNL     1       7.917  10.591  20.371  1.00  0.00    -0.000 C 
BRANCH  14  15
ATOM     15  C   UNL     1       8.741  11.891  20.278  1.00  0.00    -0.000 C 
BRANCH  15  16
ATOM     16  C   UNL     1      10.084  11.722  19.531  1.00  0.00    -0.000 C 
BRANCH  16  17
ATOM     17  C   UNL     1      10.021  10.696  18.387  1.00  0.00    -0.003 C 
ATOM     18  C   UNL     1       9.351  11.251  17.130  1.00  0.00     0.004 C 
ENDBRANCH  16  17
ENDBRANCH  15  16
ENDBRANCH  14  15
ENDBRANCH  13  14
ENDBRANCH  12  13
ENDBRANCH  11  12
ENDBRANCH   1  11
TORSDOF 14
ENDMDL
MODEL 8
REMARK VINA RESULT:    -2.928      2.620      6.221
REMARK INTER + INTRA:          -7.303
REMARK INTER:                  -5.685
REMARK INTRA:                  -1.619
REMARK UNBOUND:                -1.979
REMARK SMILES CCCCCCCCCCCCCCCC(=O)[O-]
REMARK SMILES IDX 9 1 10 2 11 3 12 4 13 5 14 6 15 7 16 8 17 9 18 10 8 11 7 12
REMARK SMILES IDX 6 13 5 14 4 15 3 16 2 17 1 18
REMARK H PARENT
REMARK Flexibility Score: inf
ROOT
ATOM      1  C   UNL     1       8.288   8.545  19.845  1.00  0.00     0.000 C 
ENDROOT
BRANCH   1   2
ATOM      2  C   UNL     1       7.343   7.428  19.377  1.00  0.00     0.000 C 
BRANCH   2   3
ATOM      3  C   UNL     1       6.692   7.738  18.017  1.00  0.00     0.000 C 
BRANCH   3   4
ATOM      4  C   UNL     1       5.243   8.230  18.155  1.00  0.00     0.000 C 
BRANCH   4   5
ATOM      5  C   UNL     1       4.799   9.100  16.970  1.00  0.00     0.000 C 
BRANCH   5   6
ATOM      6  C   UNL     1       3.333   9.530  17.123  1.00  0.00     0.006 C 
BRANCH   6   7
ATOM      7  C   UNL     1       3.194  11.032  17.410  1.00  0.00     0.053 C 
BRANCH   7   8
ATOM      8  C   UNL     1       3.112  11.311  18.879  1.00  0.00     0.041 C 
ATOM      9  O   UNL     1       4.163  11.399  19.567  1.00  0.00    -0.550 OA
ATOM     10  O   UNL     1       1.876  11.507  19.483  1.00  0.00    -0.550 OA
ENDBRANCH   7   8
ENDBRANCH   6   7
ENDBRANCH   5   6
ENDBRANCH   4   5
ENDBRANCH   3   4
ENDBRANCH   2   3
ENDBRANCH   1   2
BRANCH   1  11
ATOM     11  C   UNL     1       7.537   9.710  20.513  1.00  0.00     0.000 C 
BRANCH  11  12
ATOM     12  C   UNL     1       7.816  11.063  19.836  1.00  0.00    -0.000 C 
BRANCH  12  13
ATOM     13  C   UNL     1       7.356  11.163  18.367  1.00  0.00    -0.000 C 
BRANCH  13  14
ATOM     14  C   UNL     1       8.479  11.390  17.331  1.00  0.00    -0.000 C 
BRANCH  14  15
ATOM     15  C   UNL     1       9.444  10.201  17.153  1.00  0.00    -0.000 C 
BRANCH  15  16
ATOM     16  C   UNL     1      10.935  10.609  17.145  1.00  0.00    -0.000 C 
BRANCH  16  17
ATOM     17  C   UNL     1      11.475  10.983  18.535  1.00  0.00    -0.003 C 
ATOM     18  C   UNL     1      12.723  11.861  18.470  1.00  0.00     0.004 C 
ENDBRANCH  16  17
ENDBRANCH  15  16
ENDBRANCH  14  15
ENDBRANCH  13  14
ENDBRANCH  12  13
ENDBRANCH  11  12
ENDBRANCH   1  11
TORSDOF 14
ENDMDL
MODEL 9
REMARK VINA RESULT:    -2.797      2.489      3.540
REMARK INTER + INTRA:          -7.066
REMARK INTER:                  -5.734
REMARK INTRA:                  -1.332
REMARK UNBOUND:                -1.979
REMARK SMILES CCCCCCCCCCCCCCCC(=O)[O-]
REMARK SMILES IDX 9 1 10 2 11 3 12 4 13 5 14 6 15 7 16 8 17 9 18 10 8 11 7 12
REMARK SMILES IDX 6 13 5 14 4 15 3 16 2 17 1 18
REMARK H PARENT
REMARK Flexibility Score: inf
ROOT
ATOM      1  C   UNL     1       6.189   8.709  19.464  1.00  0.00     0.000 C 
ENDROOT
BRANCH   1   2
ATOM      2  C   UNL     1       7.590   8.680  20.095  1.00  0.00     0.000 C 
BRANCH   2   3
ATOM      3  C   UNL     1       8.586   7.840  19.278  1.00  0.00     0.000 C 
BRANCH   3   4
ATOM      4  C   UNL     1       9.736   8.683  18.702  1.00  0.00     0.000 C 
BRANCH   4   5
ATOM      5  C   UNL     1       9.287   9.576  17.535  1.00  0.00     0.000 C 
BRANCH   5   6
ATOM      6  C   UNL     1       9.485  11.060  17.872  1.00  0.00     0.006 C 
BRANCH   6   7
ATOM      7  C   UNL     1      10.302  11.262  19.155  1.00  0.00     0.053 C 
BRANCH   7   8
ATOM      8  C   UNL     1       9.468  11.829  20.262  1.00  0.00     0.041 C 
ATOM      9  O   UNL     1       8.260  12.125  20.058  1.00  0.00    -0.550 OA
ATOM     10  O   UNL     1      10.014  12.002  21.528  1.00  0.00    -0.550 OA
ENDBRANCH   7   8
ENDBRANCH   6   7
ENDBRANCH   5   6
ENDBRANCH   4   5
ENDBRANCH   3   4
ENDBRANCH   2   3
ENDBRANCH   1   2
BRANCH   1  11
ATOM     11  C   UNL     1       6.170   8.116  18.045  1.00  0.00     0.000 C 
BRANCH  11  12
ATOM     12  C   UNL     1       5.337   8.956  17.061  1.00  0.00    -0.000 C 
BRANCH  12  13
ATOM     13  C   UNL     1       3.813   8.727  17.137  1.00  0.00    -0.000 C 
BRANCH  13  14
ATOM     14  C   UNL     1       2.939   9.973  16.875  1.00  0.00    -0.000 C 
BRANCH  14  15
ATOM     15  C   UNL     1       1.959  10.327  18.012  1.00  0.00    -0.000 C 
BRANCH  15  16
ATOM     16  C   UNL     1       2.108  11.775  18.531  1.00  0.00    -0.000 C 
BRANCH  16  17
ATOM     17  C   UNL     1       3.278  11.956  19.511  1.00  0.00    -0.003 C 
ATOM     18  C   UNL     1       4.637  11.988  18.813  1.00  0.00     0.004 C 
ENDBRANCH  16  17
ENDBRANCH  15  16
ENDBRANCH  14  15
ENDBRANCH  13  14
ENDBRANCH  12  13
ENDBRANCH  11  12
ENDBRANCH   1  11
TORSDOF 14
ENDMDL
