MODEL 1
REMARK VINA RESULT:    -3.987      0.000      0.000
REMARK INTER + INTRA:          -9.767
REMARK INTER:                  -7.483
REMARK INTRA:                  -2.283
REMARK UNBOUND:                -2.283
REMARK SMILES O=C([O-])CCCCCCCCCCCCCCC(=O)[O-]
REMARK SMILES IDX 10 1 9 2 8 3 7 4 6 5 5 6 4 7 2 8 1 9 3 10 11 11 12 12 13 13
REMARK SMILES IDX 14 14 15 15 16 16 17 17 18 18 19 19 20 20
REMARK H PARENT
REMARK Flexibility Score: inf
ROOT
ATOM      1  C   UNL     1       9.136 -28.455 -29.503  1.00  0.00     0.000 C 
ENDROOT
BRANCH   1   2
ATOM      2  C   UNL     1       9.480 -27.085 -30.121  1.00  0.00     0.000 C 
BRANCH   2   3
ATOM      3  C   UNL     1      10.668 -27.091 -31.103  1.00  0.00     0.000 C 
BRANCH   3   4
ATOM      4  C   UNL     1      10.975 -25.732 -31.762  1.00  0.00     0.000 C 
BRANCH   4   5
ATOM      5  C   UNL     1      10.000 -24.594 -31.394  1.00  0.00     0.000 C 
BRANCH   5   6
ATOM      6  C   UNL     1      10.670 -23.286 -30.939  1.00  0.00     0.006 C 
BRANCH   6   7
ATOM      7  C   UNL     1      12.200 -23.388 -30.883  1.00  0.00     0.053 C 
BRANCH   7   8
ATOM      8  C   UNL     1      12.822 -22.459 -31.876  1.00  0.00     0.041 C 
ATOM      9  O   UNL     1      13.029 -21.254 -31.573  1.00  0.00    -0.550 OA
ATOM     10  O   UNL     1      13.222 -22.933 -33.119  1.00  0.00    -0.550 OA
ENDBRANCH   7   8
ENDBRANCH   6   7
ENDBRANCH   5   6
ENDBRANCH   4   5
ENDBRANCH   3   4
ENDBRANCH   2   3
ENDBRANCH   1   2
BRANCH   1  11
ATOM     11  C   UNL     1       8.894 -28.443 -27.983  1.00  0.00     0.000 C 
BRANCH  11  12
ATOM     12  C   UNL     1       8.573 -27.038 -27.440  1.00  0.00     0.000 C 
BRANCH  12  13
ATOM     13  C   UNL     1       9.304 -26.735 -26.115  1.00  0.00     0.000 C 
BRANCH  13  14
ATOM     14  C   UNL     1      10.352 -25.610 -26.221  1.00  0.00     0.000 C 
BRANCH  14  15
ATOM     15  C   UNL     1      10.778 -25.243 -27.653  1.00  0.00     0.000 C 
BRANCH  15  16
ATOM     16  C   UNL     1      12.235 -25.593 -28.017  1.00  0.00     0.006 C 
BRANCH  16  17
ATOM     17  C   UNL     1      12.586 -27.080 -27.833  1.00  0.00     0.053 C 
BRANCH  17  18
ATOM     18  C   UNL     1      13.720 -27.293 -26.877  1.00  0.00     0.041 C 
ATOM     19  O   UNL     1      14.445 -28.318 -26.967  1.00  0.00    -0.550 OA
ATOM     20  O   UNL     1      14.002 -26.337 -25.907  1.00  0.00    -0.550 OA
ENDBRANCH  17  18
ENDBRANCH  16  17
ENDBRANCH  15  16
ENDBRANCH  14  15
ENDBRANCH  13  14
ENDBRANCH  12  13
ENDBRANCH  11  12
ENDBRANCH   1  11
TORSDOF 15
ENDMDL
MODEL 2
REMARK VINA RESULT:    -3.827      1.367      2.337
REMARK INTER + INTRA:          -9.466
REMARK INTER:                  -7.440
REMARK INTRA:                  -2.026
REMARK UNBOUND:                -2.283
REMARK SMILES O=C([O-])CCCCCCCCCCCCCCC(=O)[O-]
REMARK SMILES IDX 10 1 9 2 8 3 7 4 6 5 5 6 4 7 2 8 1 9 3 10 11 11 12 12 13 13
REMARK SMILES IDX 14 14 15 15 16 16 17 17 18 18 19 19 20 20
REMARK H PARENT
REMARK Flexibility Score: inf
ROOT
ATOM      1  C   UNL     1      10.846 -26.294 -29.887  1.00  0.00     0.000 C 
ENDROOT
BRANCH   1   2
ATOM      2  C   UNL     1       9.862 -25.111 -29.784  1.00  0.00     0.000 C 
BRANCH   2   3
ATOM      3  C   UNL     1       9.501 -24.443 -31.126  1.00  0.00     0.000 C 
BRANCH   3   4
ATOM      4  C   UNL     1      10.392 -24.852 -32.316  1.00  0.00     0.000 C 
BRANCH   4   5
ATOM      5  C   UNL     1      10.892 -23.682 -33.188  1.00  0.00     0.000 C 
BRANCH   5   6
ATOM      6  C   UNL     1      12.420 -23.510 -33.231  1.00  0.00     0.006 C 
BRANCH   6   7
ATOM      7  C   UNL     1      12.893 -22.218 -32.551  1.00  0.00     0.053 C 
BRANCH   7   8
ATOM      8  C   UNL     1      12.575 -22.250 -31.090  1.00  0.00     0.041 C 
ATOM      9  O   UNL     1      13.213 -23.015 -30.319  1.00  0.00    -0.550 OA
ATOM     10  O   UNL     1      11.610 -21.397 -30.570  1.00  0.00    -0.550 OA
ENDBRANCH   7   8
ENDBRANCH   6   7
ENDBRANCH   5   6
ENDBRANCH   4   5
ENDBRANCH   3   4
ENDBRANCH   2   3
ENDBRANCH   1   2
BRANCH   1  11
ATOM     11  C   UNL     1      10.187 -27.676 -30.052  1.00  0.00     0.000 C 
BRANCH  11  12
ATOM     12  C   UNL     1       8.804 -27.763 -29.381  1.00  0.00     0.000 C 
BRANCH  12  13
ATOM     13  C   UNL     1       8.891 -28.207 -27.905  1.00  0.00     0.000 C 
BRANCH  13  14
ATOM     14  C   UNL     1       8.426 -27.135 -26.901  1.00  0.00     0.000 C 
BRANCH  14  15
ATOM     15  C   UNL     1       9.551 -26.310 -26.252  1.00  0.00     0.000 C 
BRANCH  15  16
ATOM     16  C   UNL     1      10.797 -27.113 -25.828  1.00  0.00     0.006 C 
BRANCH  16  17
ATOM     17  C   UNL     1      12.110 -26.609 -26.454  1.00  0.00     0.053 C 
BRANCH  17  18
ATOM     18  C   UNL     1      12.891 -27.702 -27.119  1.00  0.00     0.041 C 
ATOM     19  O   UNL     1      14.134 -27.588 -27.279  1.00  0.00    -0.550 OA
ATOM     20  O   UNL     1      12.250 -28.866 -27.528  1.00  0.00    -0.550 OA
ENDBRANCH  17  18
ENDBRANCH  16  17
ENDBRANCH  15  16
ENDBRANCH  14  15
ENDBRANCH  13  14
ENDBRANCH  12  13
ENDBRANCH  11  12
ENDBRANCH   1  11
TORSDOF 15
ENDMDL
MODEL 3
REMARK VINA RESULT:    -3.778      1.617      5.540
REMARK INTER + INTRA:          -9.373
REMARK INTER:                  -7.213
REMARK INTRA:                  -2.161
REMARK UNBOUND:                -2.283
REMARK SMILES O=C([O-])CCCCCCCCCCCCCCC(=O)[O-]
REMARK SMILES IDX 10 1 9 2 8 3 7 4 6 5 5 6 4 7 2 8 1 9 3 10 11 11 12 12 13 13
REMARK SMILES IDX 14 14 15 15 16 16 17 17 18 18 19 19 20 20
REMARK H PARENT
REMARK Flexibility Score: inf
ROOT
ATOM      1  C   UNL     1       7.993 -28.102 -28.918  1.00  0.00     0.000 C 
ENDROOT
BRANCH   1   2
ATOM      2  C   UNL     1       8.832 -29.312 -29.377  1.00  0.00     0.000 C 
BRANCH   2   3
ATOM      3  C   UNL     1       8.992 -30.431 -28.328  1.00  0.00     0.000 C 
BRANCH   3   4
ATOM      4  C   UNL     1      10.444 -30.706 -27.887  1.00  0.00     0.000 C 
BRANCH   4   5
ATOM      5  C   UNL     1      11.443 -29.570 -28.189  1.00  0.00     0.000 C 
BRANCH   5   6
ATOM      6  C   UNL     1      12.134 -28.968 -26.953  1.00  0.00     0.006 C 
BRANCH   6   7
ATOM      7  C   UNL     1      13.167 -27.891 -27.314  1.00  0.00     0.053 C 
BRANCH   7   8
ATOM      8  C   UNL     1      13.081 -26.744 -26.358  1.00  0.00     0.041 C 
ATOM      9  O   UNL     1      13.145 -26.948 -25.116  1.00  0.00    -0.550 OA
ATOM     10  O   UNL     1      12.984 -25.445 -26.838  1.00  0.00    -0.550 OA
ENDBRANCH   7   8
ENDBRANCH   6   7
ENDBRANCH   5   6
ENDBRANCH   4   5
ENDBRANCH   3   4
ENDBRANCH   2   3
ENDBRANCH   1   2
BRANCH   1  11
ATOM     11  C   UNL     1       8.327 -27.573 -27.512  1.00  0.00     0.000 C 
BRANCH  11  12
ATOM     12  C   UNL     1       9.462 -26.533 -27.518  1.00  0.00     0.000 C 
BRANCH  12  13
ATOM     13  C   UNL     1       9.612 -25.831 -28.885  1.00  0.00     0.000 C 
BRANCH  13  14
ATOM     14  C   UNL     1      10.925 -26.166 -29.620  1.00  0.00     0.000 C 
BRANCH  14  15
ATOM     15  C   UNL     1      10.757 -26.692 -31.057  1.00  0.00     0.000 C 
BRANCH  15  16
ATOM     16  C   UNL     1      11.199 -25.722 -32.169  1.00  0.00     0.006 C 
BRANCH  16  17
ATOM     17  C   UNL     1      10.431 -24.388 -32.179  1.00  0.00     0.053 C 
BRANCH  17  18
ATOM     18  C   UNL     1      11.320 -23.206 -31.933  1.00  0.00     0.041 C 
ATOM     19  O   UNL     1      12.093 -23.189 -30.940  1.00  0.00    -0.550 OA
ATOM     20  O   UNL     1      11.322 -22.139 -32.823  1.00  0.00    -0.550 OA
ENDBRANCH  17  18
ENDBRANCH  16  17
ENDBRANCH  15  16
ENDBRANCH  14  15
ENDBRANCH  13  14
ENDBRANCH  12  13
ENDBRANCH  11  12
ENDBRANCH   1  11
TORSDOF 15
ENDMDL
MODEL 4
REMARK VINA RESULT:    -3.767      1.398      5.292
REMARK INTER + INTRA:          -9.354
REMARK INTER:                  -7.436
REMARK INTRA:                  -1.917
REMARK UNBOUND:                -2.283
REMARK SMILES O=C([O-])CCCCCCCCCCCCCCC(=O)[O-]
REMARK SMILES IDX 10 1 9 2 8 3 7 4 6 5 5 6 4 7 2 8 1 9 3 10 11 11 12 12 13 13
REMARK SMILES IDX 14 14 15 15 16 16 17 17 18 18 19 19 20 20
REMARK H PARENT
REMARK Flexibility Score: inf
ROOT
ATOM      1  C   UNL     1       9.383 -28.167 -29.868  1.00  0.00     0.000 C 
ENDROOT
BRANCH   1   2
ATOM      2  C   UNL     1       9.122 -28.540 -28.394  1.00  0.00     0.000 C 
BRANCH   2   3
ATOM      3  C   UNL     1       8.185 -27.579 -27.635  1.00  0.00     0.000 C 
BRANCH   3   4
ATOM      4  C   UNL     1       8.876 -26.703 -26.571  1.00  0.00     0.000 C 
BRANCH   4   5
ATOM      5  C   UNL     1      10.418 -26.733 -26.603  1.00  0.00     0.000 C 
BRANCH   5   6
ATOM      6  C   UNL     1      11.091 -25.366 -26.816  1.00  0.00     0.006 C 
BRANCH   6   7
ATOM      7  C   UNL     1      12.419 -25.467 -27.577  1.00  0.00     0.053 C 
BRANCH   7   8
ATOM      8  C   UNL     1      13.328 -26.452 -26.912  1.00  0.00     0.041 C 
ATOM      9  O   UNL     1      13.792 -26.212 -25.766  1.00  0.00    -0.550 OA
ATOM     10  O   UNL     1      13.623 -27.657 -27.535  1.00  0.00    -0.550 OA
ENDBRANCH   7   8
ENDBRANCH   6   7
ENDBRANCH   5   6
ENDBRANCH   4   5
ENDBRANCH   3   4
ENDBRANCH   2   3
ENDBRANCH   1   2
BRANCH   1  11
ATOM     11  C   UNL     1      10.703 -27.421 -30.128  1.00  0.00     0.000 C 
BRANCH  11  12
ATOM     12  C   UNL     1      10.534 -26.215 -31.071  1.00  0.00     0.000 C 
BRANCH  12  13
ATOM     13  C   UNL     1       9.812 -25.032 -30.392  1.00  0.00     0.000 C 
BRANCH  13  14
ATOM     14  C   UNL     1      10.507 -23.672 -30.601  1.00  0.00     0.000 C 
BRANCH  14  15
ATOM     15  C   UNL     1      12.012 -23.745 -30.914  1.00  0.00     0.000 C 
BRANCH  15  16
ATOM     16  C   UNL     1      12.687 -22.394 -31.220  1.00  0.00     0.006 C 
BRANCH  16  17
ATOM     17  C   UNL     1      13.947 -22.119 -30.379  1.00  0.00     0.053 C 
BRANCH  17  18
ATOM     18  C   UNL     1      15.211 -22.510 -31.084  1.00  0.00     0.041 C 
ATOM     19  O   UNL     1      16.212 -22.895 -30.427  1.00  0.00    -0.550 OA
ATOM     20  O   UNL     1      15.268 -22.488 -32.473  1.00  0.00    -0.550 OA
ENDBRANCH  17  18
ENDBRANCH  16  17
ENDBRANCH  15  16
ENDBRANCH  14  15
ENDBRANCH  13  14
ENDBRANCH  12  13
ENDBRANCH  11  12
ENDBRANCH   1  11
TORSDOF 15
ENDMDL
MODEL 5
REMARK VINA RESULT:    -3.742      2.388      3.329
REMARK INTER + INTRA:          -9.307
REMARK INTER:                  -7.535
REMARK INTRA:                  -1.772
REMARK UNBOUND:                -2.283
REMARK SMILES O=C([O-])CCCCCCCCCCCCCCC(=O)[O-]
REMARK SMILES IDX 10 1 9 2 8 3 7 4 6 5 5 6 4 7 2 8 1 9 3 10 11 11 12 12 13 13
REMARK SMILES IDX 14 14 15 15 16 16 17 17 18 18 19 19 20 20
REMARK H PARENT
REMARK Flexibility Score: inf
ROOT
ATOM      1  C   UNL     1      11.054 -26.056 -30.039  1.00  0.00     0.000 C 
ENDROOT
BRANCH   1   2
ATOM      2  C   UNL     1      10.009 -24.984 -29.668  1.00  0.00     0.000 C 
BRANCH   2   3
ATOM      3  C   UNL     1       9.487 -24.144 -30.850  1.00  0.00     0.000 C 
BRANCH   3   4
ATOM      4  C   UNL     1       9.845 -24.693 -32.246  1.00  0.00     0.000 C 
BRANCH   4   5
ATOM      5  C   UNL     1      10.867 -23.850 -33.036  1.00  0.00     0.000 C 
BRANCH   5   6
ATOM      6  C   UNL     1      11.388 -22.603 -32.301  1.00  0.00     0.006 C 
BRANCH   6   7
ATOM      7  C   UNL     1      12.870 -22.711 -31.920  1.00  0.00     0.053 C 
BRANCH   7   8
ATOM      8  C   UNL     1      13.061 -22.397 -30.470  1.00  0.00     0.041 C 
ATOM      9  O   UNL     1      13.133 -23.328 -29.624  1.00  0.00    -0.550 OA
ATOM     10  O   UNL     1      13.212 -21.080 -30.057  1.00  0.00    -0.550 OA
ENDBRANCH   7   8
ENDBRANCH   6   7
ENDBRANCH   5   6
ENDBRANCH   4   5
ENDBRANCH   3   4
ENDBRANCH   2   3
ENDBRANCH   1   2
BRANCH   1  11
ATOM     11  C   UNL     1      10.607 -27.510 -29.807  1.00  0.00     0.000 C 
BRANCH  11  12
ATOM     12  C   UNL     1       9.098 -27.633 -29.521  1.00  0.00     0.000 C 
BRANCH  12  13
ATOM     13  C   UNL     1       8.808 -28.192 -28.112  1.00  0.00     0.000 C 
BRANCH  13  14
ATOM     14  C   UNL     1       8.512 -27.107 -27.058  1.00  0.00     0.000 C 
BRANCH  14  15
ATOM     15  C   UNL     1       9.642 -26.850 -26.045  1.00  0.00     0.000 C 
BRANCH  15  16
ATOM     16  C   UNL     1      10.376 -25.504 -26.203  1.00  0.00     0.006 C 
BRANCH  16  17
ATOM     17  C   UNL     1      11.121 -25.045 -24.937  1.00  0.00     0.053 C 
BRANCH  17  18
ATOM     18  C   UNL     1      10.359 -24.015 -24.159  1.00  0.00     0.041 C 
ATOM     19  O   UNL     1       9.132 -24.173 -23.928  1.00  0.00    -0.550 OA
ATOM     20  O   UNL     1      11.014 -22.898 -23.654  1.00  0.00    -0.550 OA
ENDBRANCH  17  18
ENDBRANCH  16  17
ENDBRANCH  15  16
ENDBRANCH  14  15
ENDBRANCH  13  14
ENDBRANCH  12  13
ENDBRANCH  11  12
ENDBRANCH   1  11
TORSDOF 15
ENDMDL
MODEL 6
REMARK VINA RESULT:    -3.741      3.772      4.691
REMARK INTER + INTRA:          -9.306
REMARK INTER:                  -8.120
REMARK INTRA:                  -1.186
REMARK UNBOUND:                -2.283
REMARK SMILES O=C([O-])CCCCCCCCCCCCCCC(=O)[O-]
REMARK SMILES IDX 10 1 9 2 8 3 7 4 6 5 5 6 4 7 2 8 1 9 3 10 11 11 12 12 13 13
REMARK SMILES IDX 14 14 15 15 16 16 17 17 18 18 19 19 20 20
REMARK H PARENT
REMARK Flexibility Score: inf
ROOT
ATOM      1  C   UNL     1       8.586 -28.135 -27.920  1.00  0.00     0.000 C 
ENDROOT
BRANCH   1   2
ATOM      2  C   UNL     1       8.826 -27.698 -29.379  1.00  0.00     0.000 C 
BRANCH   2   3
ATOM      3  C   UNL     1      10.263 -27.910 -29.896  1.00  0.00     0.000 C 
BRANCH   3   4
ATOM      4  C   UNL     1      10.783 -26.809 -30.841  1.00  0.00     0.000 C 
BRANCH   4   5
ATOM      5  C   UNL     1       9.895 -25.550 -30.928  1.00  0.00     0.000 C 
BRANCH   5   6
ATOM      6  C   UNL     1      10.258 -24.430 -29.938  1.00  0.00     0.006 C 
BRANCH   6   7
ATOM      7  C   UNL     1      11.756 -24.384 -29.611  1.00  0.00     0.053 C 
BRANCH   7   8
ATOM      8  C   UNL     1      12.413 -23.247 -30.328  1.00  0.00     0.041 C 
ATOM      9  O   UNL     1      11.775 -22.592 -31.195  1.00  0.00    -0.550 OA
ATOM     10  O   UNL     1      13.711 -22.877 -30.004  1.00  0.00    -0.550 OA
ENDBRANCH   7   8
ENDBRANCH   6   7
ENDBRANCH   5   6
ENDBRANCH   4   5
ENDBRANCH   3   4
ENDBRANCH   2   3
ENDBRANCH   1   2
BRANCH   1  11
ATOM     11  C   UNL     1       8.668 -27.004 -26.879  1.00  0.00     0.000 C 
BRANCH  11  12
ATOM     12  C   UNL     1      10.110 -26.717 -26.420  1.00  0.00     0.000 C 
BRANCH  12  13
ATOM     13  C   UNL     1      10.253 -25.332 -25.754  1.00  0.00     0.000 C 
BRANCH  13  14
ATOM     14  C   UNL     1       9.453 -25.182 -24.445  1.00  0.00     0.000 C 
BRANCH  14  15
ATOM     15  C   UNL     1      10.089 -25.840 -23.208  1.00  0.00     0.000 C 
BRANCH  15  16
ATOM     16  C   UNL     1       9.979 -25.030 -21.901  1.00  0.00     0.006 C 
BRANCH  16  17
ATOM     17  C   UNL     1       9.822 -25.898 -20.639  1.00  0.00     0.053 C 
BRANCH  17  18
ATOM     18  C   UNL     1       8.812 -25.345 -19.679  1.00  0.00     0.041 C 
ATOM     19  O   UNL     1       8.767 -24.109 -19.445  1.00  0.00    -0.550 OA
ATOM     20  O   UNL     1       7.893 -26.193 -19.071  1.00  0.00    -0.550 OA
ENDBRANCH  17  18
ENDBRANCH  16  17
ENDBRANCH  15  16
ENDBRANCH  14  15
ENDBRANCH  13  14
ENDBRANCH  12  13
ENDBRANCH  11  12
ENDBRANCH   1  11
TORSDOF 15
ENDMDL
MODEL 7
REMARK VINA RESULT:    -3.737      2.172      5.961
REMARK INTER + INTRA:          -9.297
REMARK INTER:                  -7.089
REMARK INTRA:                  -2.209
REMARK UNBOUND:                -2.283
REMARK SMILES O=C([O-])CCCCCCCCCCCCCCC(=O)[O-]
REMARK SMILES IDX 10 1 9 2 8 3 7 4 6 5 5 6 4 7 2 8 1 9 3 10 11 11 12 12 13 13
REMARK SMILES IDX 14 14 15 15 16 16 17 17 18 18 19 19 20 20
REMARK H PARENT
REMARK Flexibility Score: inf
ROOT
ATOM      1  C   UNL     1       8.224 -27.502 -28.735  1.00  0.00     0.000 C 
ENDROOT
BRANCH   1   2
ATOM      2  C   UNL     1       9.176 -28.614 -29.221  1.00  0.00     0.000 C 
BRANCH   2   3
ATOM      3  C   UNL     1       8.788 -30.041 -28.785  1.00  0.00     0.000 C 
BRANCH   3   4
ATOM      4  C   UNL     1       9.892 -30.816 -28.039  1.00  0.00     0.000 C 
BRANCH   4   5
ATOM      5  C   UNL     1      11.241 -30.078 -27.921  1.00  0.00     0.000 C 
BRANCH   5   6
ATOM      6  C   UNL     1      12.087 -30.460 -26.694  1.00  0.00     0.006 C 
BRANCH   6   7
ATOM      7  C   UNL     1      11.983 -29.435 -25.557  1.00  0.00     0.053 C 
BRANCH   7   8
ATOM      8  C   UNL     1      13.346 -29.012 -25.108  1.00  0.00     0.041 C 
ATOM      9  O   UNL     1      13.570 -27.808 -24.814  1.00  0.00    -0.550 OA
ATOM     10  O   UNL     1      14.354 -29.956 -24.964  1.00  0.00    -0.550 OA
ENDBRANCH   7   8
ENDBRANCH   6   7
ENDBRANCH   5   6
ENDBRANCH   4   5
ENDBRANCH   3   4
ENDBRANCH   2   3
ENDBRANCH   1   2
BRANCH   1  11
ATOM     11  C   UNL     1       8.098 -27.374 -27.207  1.00  0.00     0.000 C 
BRANCH  11  12
ATOM     12  C   UNL     1       9.459 -27.211 -26.505  1.00  0.00     0.000 C 
BRANCH  12  13
ATOM     13  C   UNL     1      10.138 -25.866 -26.839  1.00  0.00     0.000 C 
BRANCH  13  14
ATOM     14  C   UNL     1      11.533 -26.011 -27.479  1.00  0.00     0.000 C 
BRANCH  14  15
ATOM     15  C   UNL     1      11.618 -25.618 -28.964  1.00  0.00     0.000 C 
BRANCH  15  16
ATOM     16  C   UNL     1      10.532 -24.637 -29.449  1.00  0.00     0.006 C 
BRANCH  16  17
ATOM     17  C   UNL     1       9.865 -25.047 -30.775  1.00  0.00     0.053 C 
BRANCH  17  18
ATOM     18  C   UNL     1      10.853 -25.518 -31.799  1.00  0.00     0.041 C 
ATOM     19  O   UNL     1      11.596 -24.693 -32.391  1.00  0.00    -0.550 OA
ATOM     20  O   UNL     1      10.980 -26.875 -32.071  1.00  0.00    -0.550 OA
ENDBRANCH  17  18
ENDBRANCH  16  17
ENDBRANCH  15  16
ENDBRANCH  14  15
ENDBRANCH  13  14
ENDBRANCH  12  13
ENDBRANCH  11  12
ENDBRANCH   1  11
TORSDOF 15
ENDMDL
MODEL 8
REMARK VINA RESULT:    -3.718      1.602      3.103
REMARK INTER + INTRA:          -9.261
REMARK INTER:                  -7.237
REMARK INTRA:                  -2.025
REMARK UNBOUND:                -2.283
REMARK SMILES O=C([O-])CCCCCCCCCCCCCCC(=O)[O-]
REMARK SMILES IDX 10 1 9 2 8 3 7 4 6 5 5 6 4 7 2 8 1 9 3 10 11 11 12 12 13 13
REMARK SMILES IDX 14 14 15 15 16 16 17 17 18 18 19 19 20 20
REMARK H PARENT
REMARK Flexibility Score: inf
ROOT
ATOM      1  C   UNL     1       8.372 -27.385 -27.153  1.00  0.00     0.000 C 
ENDROOT
BRANCH   1   2
ATOM      2  C   UNL     1       9.737 -26.716 -26.891  1.00  0.00     0.000 C 
BRANCH   2   3
ATOM      3  C   UNL     1      10.113 -25.591 -27.877  1.00  0.00     0.000 C 
BRANCH   3   4
ATOM      4  C   UNL     1      11.387 -25.851 -28.704  1.00  0.00     0.000 C 
BRANCH   4   5
ATOM      5  C   UNL     1      11.169 -25.938 -30.228  1.00  0.00     0.000 C 
BRANCH   5   6
ATOM      6  C   UNL     1       9.860 -25.308 -30.735  1.00  0.00     0.006 C 
BRANCH   6   7
ATOM      7  C   UNL     1      10.029 -24.578 -32.073  1.00  0.00     0.053 C 
BRANCH   7   8
ATOM      8  C   UNL     1      11.164 -23.606 -31.998  1.00  0.00     0.041 C 
ATOM      9  O   UNL     1      12.120 -23.685 -32.815  1.00  0.00    -0.550 OA
ATOM     10  O   UNL     1      11.142 -22.582 -31.061  1.00  0.00    -0.550 OA
ENDBRANCH   7   8
ENDBRANCH   6   7
ENDBRANCH   5   6
ENDBRANCH   4   5
ENDBRANCH   3   4
ENDBRANCH   2   3
ENDBRANCH   1   2
BRANCH   1  11
ATOM     11  C   UNL     1       8.047 -27.641 -28.635  1.00  0.00     0.000 C 
BRANCH  11  12
ATOM     12  C   UNL     1       9.002 -28.656 -29.291  1.00  0.00     0.000 C 
BRANCH  12  13
ATOM     13  C   UNL     1       8.773 -30.096 -28.783  1.00  0.00     0.000 C 
BRANCH  13  14
ATOM     14  C   UNL     1       9.946 -30.662 -27.959  1.00  0.00     0.000 C 
BRANCH  14  15
ATOM     15  C   UNL     1      11.239 -29.829 -27.999  1.00  0.00     0.000 C 
BRANCH  15  16
ATOM     16  C   UNL     1      12.075 -29.847 -26.704  1.00  0.00     0.006 C 
BRANCH  16  17
ATOM     17  C   UNL     1      12.715 -28.492 -26.353  1.00  0.00     0.053 C 
BRANCH  17  18
ATOM     18  C   UNL     1      14.202 -28.488 -26.542  1.00  0.00     0.041 C 
ATOM     19  O   UNL     1      14.760 -27.552 -27.172  1.00  0.00    -0.550 OA
ATOM     20  O   UNL     1      14.977 -29.500 -25.988  1.00  0.00    -0.550 OA
ENDBRANCH  17  18
ENDBRANCH  16  17
ENDBRANCH  15  16
ENDBRANCH  14  15
ENDBRANCH  13  14
ENDBRANCH  12  13
ENDBRANCH  11  12
ENDBRANCH   1  11
TORSDOF 15
ENDMDL
MODEL 9
REMARK VINA RESULT:    -3.649      2.229      5.490
REMARK INTER + INTRA:          -9.131
REMARK INTER:                  -7.331
REMARK INTRA:                  -1.800
REMARK UNBOUND:                -2.283
REMARK SMILES O=C([O-])CCCCCCCCCCCCCCC(=O)[O-]
REMARK SMILES IDX 10 1 9 2 8 3 7 4 6 5 5 6 4 7 2 8 1 9 3 10 11 11 12 12 13 13
REMARK SMILES IDX 14 14 15 15 16 16 17 17 18 18 19 19 20 20
REMARK H PARENT
REMARK Flexibility Score: inf
ROOT
ATOM      1  C   UNL     1       8.431 -30.808 -29.304  1.00  0.00     0.000 C 
ENDROOT
BRANCH   1   2
ATOM      2  C   UNL     1       9.222 -30.908 -27.983  1.00  0.00     0.000 C 
BRANCH   2   3
ATOM      3  C   UNL     1      10.747 -30.729 -28.121  1.00  0.00     0.000 C 
BRANCH   3   4
ATOM      4  C   UNL     1      11.477 -30.348 -26.818  1.00  0.00     0.000 C 
BRANCH   4   5
ATOM      5  C   UNL     1      11.908 -28.870 -26.720  1.00  0.00     0.000 C 
BRANCH   5   6
ATOM      6  C   UNL     1      11.439 -28.138 -25.450  1.00  0.00     0.006 C 
BRANCH   6   7
ATOM      7  C   UNL     1      11.771 -26.641 -25.468  1.00  0.00     0.053 C 
BRANCH   7   8
ATOM      8  C   UNL     1      10.645 -25.862 -26.071  1.00  0.00     0.041 C 
ATOM      9  O   UNL     1      10.866 -25.055 -27.012  1.00  0.00    -0.550 OA
ATOM     10  O   UNL     1       9.344 -26.065 -25.629  1.00  0.00    -0.550 OA
ENDBRANCH   7   8
ENDBRANCH   6   7
ENDBRANCH   5   6
ENDBRANCH   4   5
ENDBRANCH   3   4
ENDBRANCH   2   3
ENDBRANCH   1   2
BRANCH   1  11
ATOM     11  C   UNL     1       8.290 -29.385 -29.873  1.00  0.00     0.000 C 
BRANCH  11  12
ATOM     12  C   UNL     1       8.242 -28.304 -28.777  1.00  0.00     0.000 C 
BRANCH  12  13
ATOM     13  C   UNL     1       9.097 -27.068 -29.129  1.00  0.00     0.000 C 
BRANCH  13  14
ATOM     14  C   UNL     1      10.444 -27.409 -29.797  1.00  0.00     0.000 C 
BRANCH  14  15
ATOM     15  C   UNL     1      10.806 -26.547 -31.019  1.00  0.00     0.000 C 
BRANCH  15  16
ATOM     16  C   UNL     1       9.937 -25.291 -31.221  1.00  0.00     0.006 C 
BRANCH  16  17
ATOM     17  C   UNL     1      10.486 -24.031 -30.527  1.00  0.00     0.053 C 
BRANCH  17  18
ATOM     18  C   UNL     1      11.860 -23.663 -30.998  1.00  0.00     0.041 C 
ATOM     19  O   UNL     1      12.082 -23.473 -32.222  1.00  0.00    -0.550 OA
ATOM     20  O   UNL     1      12.889 -23.493 -30.079  1.00  0.00    -0.550 OA
ENDBRANCH  17  18
ENDBRANCH  16  17
ENDBRANCH  15  16
ENDBRANCH  14  15
ENDBRANCH  13  14
ENDBRANCH  12  13
ENDBRANCH  11  12
ENDBRANCH   1  11
TORSDOF 15
ENDMDL
