MODEL 1
REMARK VINA RESULT:    -4.762      0.000      0.000
REMARK INTER + INTRA:          -9.878
REMARK INTER:                  -7.546
REMARK INTRA:                  -2.332
REMARK UNBOUND:                -2.332
REMARK SMILES C[C@H]1O[C@H](O[C@H]2[C@@H](Oc3cc(O)c4c(c3)O[C@@H](c3ccc(O)cc3)CC4=O)O[C@@H](CO)[C@@H](O)[C@H]2O)[C@H](O)[C@H](O)[C@@H]1O
REMARK SMILES IDX 6 1 34 2 32 3 29 4 28 5 7 6 5 7 4 8 1 9 2 10 40 11 3 12
REMARK SMILES IDX 38 13 36 14 41 15 39 17 37 19 35 21 8 23 9 24 10 25 15 26
REMARK SMILES IDX 11 27 14 28 13 29 16 30 26 31 17 32 27 33 25 34 12 35 18 37
REMARK SMILES IDX 19 38 24 39 20 40 23 41 21 42 22 43 33 45 30 47 31 48
REMARK H PARENT 41 16 39 18 37 20 35 22 12 36 22 44 33 46 31 49
REMARK Flexibility Score: inf
ROOT
ATOM      1  C   UNL     1     117.493 104.311 122.927  1.00  0.00     0.221 C 
ATOM      2  C   UNL     1     116.887 103.508 124.105  1.00  0.00     0.181 C 
ATOM      3  C   UNL     1     115.350 103.499 124.031  1.00  0.00     0.177 C 
ATOM      4  C   UNL     1     114.849 104.956 123.878  1.00  0.00     0.179 C 
ATOM      5  O   UNL     1     115.407 105.545 122.717  1.00  0.00    -0.332 OA
ATOM      6  C   UNL     1     116.811 105.689 122.862  1.00  0.00     0.339 C 
ENDROOT
BRANCH   1   7
ATOM      7  O   UNL     1     117.269 103.644 121.695  1.00  0.00    -0.337 OA
BRANCH   7   8
ATOM      8  C   UNL     1     118.463 103.119 121.119  1.00  0.00     0.282 C 
ATOM      9  C   UNL     1     117.586  99.552 121.270  1.00  0.00     0.041 C 
ATOM     10  C   UNL     1     117.474 101.010 120.819  1.00  0.00     0.150 C 
ATOM     11  C   UNL     1     117.493 101.107 119.274  1.00  0.00     0.174 C 
ATOM     12  O   UNL     1     118.564 101.727 121.374  1.00  0.00    -0.344 OA
ATOM     13  C   UNL     1     117.486 102.582 118.813  1.00  0.00     0.179 C 
ATOM     14  C   UNL     1     118.521 103.412 119.605  1.00  0.00     0.202 C 
BRANCH  11  15
ATOM     15  O   UNL     1     116.387 100.429 118.733  1.00  0.00    -0.388 OA
ATOM     16  H   UNL     1     115.697 100.390 119.446  1.00  0.00     0.211 HD
ENDBRANCH  11  15
BRANCH  13  17
ATOM     17  O   UNL     1     116.202 103.161 118.873  1.00  0.00    -0.387 OA
ATOM     18  H   UNL     1     115.550 102.527 118.486  1.00  0.00     0.211 HD
ENDBRANCH  13  17
BRANCH  14  19
ATOM     19  O   UNL     1     118.332 104.785 119.377  1.00  0.00    -0.385 OA
ATOM     20  H   UNL     1     118.828 105.011 118.547  1.00  0.00     0.211 HD
ENDBRANCH  14  19
ENDBRANCH   7   8
ENDBRANCH   1   7
BRANCH   2  21
ATOM     21  O   UNL     1     117.367 102.190 124.118  1.00  0.00    -0.387 OA
ATOM     22  H   UNL     1     117.462 101.932 125.071  1.00  0.00     0.211 HD
ENDBRANCH   2  21
BRANCH   6  23
ATOM     23  O   UNL     1     117.321 106.403 121.736  1.00  0.00    -0.462 OA
BRANCH  23  24
ATOM     24  C   UNL     1     118.461 107.219 121.759  1.00  0.00     0.130 A 
ATOM     25  C   UNL     1     118.391 108.474 121.145  1.00  0.00     0.093 A 
ATOM     26  C   UNL     1     119.664 106.819 122.368  1.00  0.00     0.094 A 
ATOM     27  C   UNL     1     119.499 109.338 121.142  1.00  0.00     0.133 A 
ATOM     28  C   UNL     1     120.784 107.654 122.338  1.00  0.00     0.138 A 
ATOM     29  C   UNL     1     120.706 108.928 121.749  1.00  0.00     0.102 A 
ATOM     30  O   UNL     1     121.985 107.209 122.899  1.00  0.00    -0.484 OA
ATOM     31  C   UNL     1     121.908 109.796 121.810  1.00  0.00     0.174 C 
ATOM     32  C   UNL     1     123.245 107.797 122.569  1.00  0.00     0.211 C 
ATOM     33  O   UNL     1     121.915 110.937 121.275  1.00  0.00    -0.294 OA
ATOM     34  C   UNL     1     123.126 109.336 122.568  1.00  0.00     0.131 C 
BRANCH  27  35
ATOM     35  O   UNL     1     119.393 110.593 120.542  1.00  0.00    -0.507 OA
ATOM     36  H   UNL     1     120.174 111.239 120.522  1.00  0.00     0.293 HD
ENDBRANCH  27  35
BRANCH  32  37
ATOM     37  C   UNL     1     123.762 107.172 121.280  1.00  0.00    -0.007 A 
ATOM     38  C   UNL     1     124.429 107.902 120.273  1.00  0.00     0.011 A 
ATOM     39  C   UNL     1     123.512 105.803 121.066  1.00  0.00     0.011 A 
ATOM     40  C   UNL     1     124.836 107.272 119.092  1.00  0.00     0.046 A 
ATOM     41  C   UNL     1     123.916 105.179 119.882  1.00  0.00     0.046 A 
ATOM     42  C   UNL     1     124.578 105.913 118.892  1.00  0.00     0.115 A 
BRANCH  42  43
ATOM     43  O   UNL     1     124.983 105.302 117.707  1.00  0.00    -0.508 OA
ATOM     44  H   UNL     1     125.550 104.461 117.710  1.00  0.00     0.293 HD
ENDBRANCH  42  43
ENDBRANCH  32  37
ENDBRANCH  23  24
ENDBRANCH   6  23
BRANCH   3  45
ATOM     45  O   UNL     1     114.933 102.718 122.937  1.00  0.00    -0.387 OA
ATOM     46  H   UNL     1     114.366 101.986 123.295  1.00  0.00     0.211 HD
ENDBRANCH   3  45
BRANCH   4  47
ATOM     47  C   UNL     1     113.317 105.037 123.782  1.00  0.00     0.191 C 
BRANCH  47  48
ATOM     48  O   UNL     1     112.885 106.371 123.792  1.00  0.00    -0.394 OA
ATOM     49  H   UNL     1     112.163 106.432 124.469  1.00  0.00     0.210 HD
ENDBRANCH  47  48
ENDBRANCH   4  47
TORSDOF 14
ENDMDL
MODEL 2
REMARK VINA RESULT:    -4.756     13.546     18.027
REMARK INTER + INTRA:          -9.868
REMARK INTER:                  -7.828
REMARK INTRA:                  -2.040
REMARK UNBOUND:                -2.332
REMARK SMILES C[C@H]1O[C@H](O[C@H]2[C@@H](Oc3cc(O)c4c(c3)O[C@@H](c3ccc(O)cc3)CC4=O)O[C@@H](CO)[C@@H](O)[C@H]2O)[C@H](O)[C@H](O)[C@@H]1O
REMARK SMILES IDX 6 1 34 2 32 3 29 4 28 5 7 6 5 7 4 8 1 9 2 10 40 11 3 12
REMARK SMILES IDX 38 13 36 14 41 15 39 17 37 19 35 21 8 23 9 24 10 25 15 26
REMARK SMILES IDX 11 27 14 28 13 29 16 30 26 31 17 32 27 33 25 34 12 35 18 37
REMARK SMILES IDX 19 38 24 39 20 40 23 41 21 42 22 43 33 45 30 47 31 48
REMARK H PARENT 41 16 39 18 37 20 35 22 12 36 22 44 33 46 31 49
REMARK Flexibility Score: inf
ROOT
ATOM      1  C   UNL     1     126.357 116.880 108.862  1.00  0.00     0.221 C 
ATOM      2  C   UNL     1     126.015 118.373 108.631  1.00  0.00     0.181 C 
ATOM      3  C   UNL     1     125.351 118.985 109.877  1.00  0.00     0.177 C 
ATOM      4  C   UNL     1     124.171 118.081 110.308  1.00  0.00     0.179 C 
ATOM      5  O   UNL     1     124.634 116.769 110.575  1.00  0.00    -0.332 OA
ATOM      6  C   UNL     1     125.103 116.158 109.383  1.00  0.00     0.339 C 
ENDROOT
BRANCH   1   7
ATOM      7  O   UNL     1     127.385 116.744 109.830  1.00  0.00    -0.337 OA
BRANCH   7   8
ATOM      8  C   UNL     1     128.673 116.549 109.253  1.00  0.00     0.282 C 
ATOM      9  C   UNL     1     130.698 117.419 112.196  1.00  0.00     0.041 C 
ATOM     10  C   UNL     1     129.704 116.606 111.362  1.00  0.00     0.150 C 
ATOM     11  C   UNL     1     130.124 115.117 111.312  1.00  0.00     0.174 C 
ATOM     12  O   UNL     1     129.672 117.157 110.056  1.00  0.00    -0.344 OA
ATOM     13  C   UNL     1     129.186 114.310 110.388  1.00  0.00     0.179 C 
ATOM     14  C   UNL     1     128.965 115.046 109.048  1.00  0.00     0.202 C 
BRANCH  11  15
ATOM     15  O   UNL     1     130.114 114.567 112.605  1.00  0.00    -0.388 OA
ATOM     16  H   UNL     1     130.253 115.319 113.239  1.00  0.00     0.211 HD
ENDBRANCH  11  15
BRANCH  13  17
ATOM     17  O   UNL     1     127.963 113.984 111.008  1.00  0.00    -0.387 OA
ATOM     18  H   UNL     1     127.224 114.338 110.457  1.00  0.00     0.211 HD
ENDBRANCH  13  17
BRANCH  14  19
ATOM     19  O   UNL     1     127.918 114.453 108.324  1.00  0.00    -0.385 OA
ATOM     20  H   UNL     1     127.087 114.591 108.851  1.00  0.00     0.211 HD
ENDBRANCH  14  19
ENDBRANCH   7   8
ENDBRANCH   1   7
BRANCH   2  21
ATOM     21  O   UNL     1     127.162 119.109 108.297  1.00  0.00    -0.387 OA
ATOM     22  H   UNL     1     127.053 119.393 107.353  1.00  0.00     0.211 HD
ENDBRANCH   2  21
BRANCH   6  23
ATOM     23  O   UNL     1     125.435 114.798 109.660  1.00  0.00    -0.462 OA
BRANCH  23  24
ATOM     24  C   UNL     1     124.554 113.716 109.518  1.00  0.00     0.130 A 
ATOM     25  C   UNL     1     124.893 112.698 108.621  1.00  0.00     0.093 A 
ATOM     26  C   UNL     1     123.348 113.626 110.237  1.00  0.00     0.094 A 
ATOM     27  C   UNL     1     124.052 111.587 108.442  1.00  0.00     0.133 A 
ATOM     28  C   UNL     1     122.487 112.544 110.038  1.00  0.00     0.138 A 
ATOM     29  C   UNL     1     122.840 111.504 109.161  1.00  0.00     0.102 A 
ATOM     30  O   UNL     1     121.267 112.506 110.721  1.00  0.00    -0.484 OA
ATOM     31  C   UNL     1     121.916 110.349 109.045  1.00  0.00     0.174 C 
ATOM     32  C   UNL     1     120.179 111.683 110.294  1.00  0.00     0.211 C 
ATOM     33  O   UNL     1     122.159 109.398 108.254  1.00  0.00    -0.294 OA
ATOM     34  C   UNL     1     120.694 110.276 109.923  1.00  0.00     0.131 C 
BRANCH  27  35
ATOM     35  O   UNL     1     124.426 110.575 107.558  1.00  0.00    -0.507 OA
ATOM     36  H   UNL     1     125.268 110.645 106.995  1.00  0.00     0.293 HD
ENDBRANCH  27  35
BRANCH  32  37
ATOM     37  C   UNL     1     119.403 112.412 109.206  1.00  0.00    -0.007 A 
ATOM     38  C   UNL     1     119.476 113.806 108.997  1.00  0.00     0.011 A 
ATOM     39  C   UNL     1     118.528 111.656 108.403  1.00  0.00     0.011 A 
ATOM     40  C   UNL     1     118.698 114.417 108.008  1.00  0.00     0.046 A 
ATOM     41  C   UNL     1     117.749 112.271 107.418  1.00  0.00     0.046 A 
ATOM     42  C   UNL     1     117.832 113.654 107.220  1.00  0.00     0.115 A 
BRANCH  42  43
ATOM     43  O   UNL     1     117.058 114.279 106.244  1.00  0.00    -0.508 OA
ATOM     44  H   UNL     1     116.165 113.899 105.952  1.00  0.00     0.293 HD
ENDBRANCH  42  43
ENDBRANCH  32  37
ENDBRANCH  23  24
ENDBRANCH   6  23
BRANCH   3  45
ATOM     45  O   UNL     1     126.297 119.089 110.914  1.00  0.00    -0.387 OA
ATOM     46  H   UNL     1     125.873 119.602 111.650  1.00  0.00     0.211 HD
ENDBRANCH   3  45
BRANCH   4  47
ATOM     47  C   UNL     1     123.458 118.614 111.561  1.00  0.00     0.191 C 
BRANCH  47  48
ATOM     48  O   UNL     1     124.119 118.202 112.726  1.00  0.00    -0.394 OA
ATOM     49  H   UNL     1     125.037 117.940 112.457  1.00  0.00     0.210 HD
ENDBRANCH  47  48
ENDBRANCH   4  47
TORSDOF 14
ENDMDL
MODEL 3
REMARK VINA RESULT:    -4.721      2.452      8.508
REMARK INTER + INTRA:          -9.813
REMARK INTER:                  -7.383
REMARK INTRA:                  -2.430
REMARK UNBOUND:                -2.332
REMARK SMILES C[C@H]1O[C@H](O[C@H]2[C@@H](Oc3cc(O)c4c(c3)O[C@@H](c3ccc(O)cc3)CC4=O)O[C@@H](CO)[C@@H](O)[C@H]2O)[C@H](O)[C@H](O)[C@@H]1O
REMARK SMILES IDX 6 1 34 2 32 3 29 4 28 5 7 6 5 7 4 8 1 9 2 10 40 11 3 12
REMARK SMILES IDX 38 13 36 14 41 15 39 17 37 19 35 21 8 23 9 24 10 25 15 26
REMARK SMILES IDX 11 27 14 28 13 29 16 30 26 31 17 32 27 33 25 34 12 35 18 37
REMARK SMILES IDX 19 38 24 39 20 40 23 41 21 42 22 43 33 45 30 47 31 48
REMARK H PARENT 41 16 39 18 37 20 35 22 12 36 22 44 33 46 31 49
REMARK Flexibility Score: inf
ROOT
ATOM      1  C   UNL     1     121.992 106.206 119.869  1.00  0.00     0.221 C 
ATOM      2  C   UNL     1     122.381 107.558 119.220  1.00  0.00     0.181 C 
ATOM      3  C   UNL     1     123.054 108.486 120.246  1.00  0.00     0.177 C 
ATOM      4  C   UNL     1     122.156 108.575 121.504  1.00  0.00     0.179 C 
ATOM      5  O   UNL     1     121.952 107.284 122.050  1.00  0.00    -0.332 OA
ATOM      6  C   UNL     1     121.195 106.483 121.156  1.00  0.00     0.339 C 
ENDROOT
BRANCH   1   7
ATOM      7  O   UNL     1     123.150 105.461 120.213  1.00  0.00    -0.337 OA
BRANCH   7   8
ATOM      8  C   UNL     1     123.382 104.356 119.344  1.00  0.00     0.282 C 
ATOM      9  C   UNL     1     126.726 105.323 118.160  1.00  0.00     0.041 C 
ATOM     10  C   UNL     1     125.664 104.883 119.171  1.00  0.00     0.150 C 
ATOM     11  C   UNL     1     126.121 103.608 119.921  1.00  0.00     0.174 C 
ATOM     12  O   UNL     1     124.459 104.638 118.465  1.00  0.00    -0.344 OA
ATOM     13  C   UNL     1     125.011 103.098 120.868  1.00  0.00     0.179 C 
ATOM     14  C   UNL     1     123.645 103.066 120.148  1.00  0.00     0.202 C 
BRANCH  11  15
ATOM     15  O   UNL     1     127.292 103.870 120.652  1.00  0.00    -0.388 OA
ATOM     16  H   UNL     1     127.155 103.493 121.561  1.00  0.00     0.211 HD
ENDBRANCH  11  15
BRANCH  13  17
ATOM     17  O   UNL     1     124.947 103.831 122.071  1.00  0.00    -0.387 OA
ATOM     18  H   UNL     1     124.792 104.783 121.854  1.00  0.00     0.211 HD
ENDBRANCH  13  17
BRANCH  14  19
ATOM     19  O   UNL     1     122.605 102.859 121.070  1.00  0.00    -0.385 OA
ATOM     20  H   UNL     1     121.909 102.324 120.605  1.00  0.00     0.211 HD
ENDBRANCH  14  19
ENDBRANCH   7   8
ENDBRANCH   1   7
BRANCH   2  21
ATOM     21  O   UNL     1     123.236 107.365 118.125  1.00  0.00    -0.387 OA
ATOM     22  H   UNL     1     123.663 106.478 118.250  1.00  0.00     0.211 HD
ENDBRANCH   2  21
BRANCH   6  23
ATOM     23  O   UNL     1     120.894 105.240 121.789  1.00  0.00    -0.462 OA
BRANCH  23  24
ATOM     24  C   UNL     1     119.626 104.870 122.259  1.00  0.00     0.130 A 
ATOM     25  C   UNL     1     119.351 103.509 122.426  1.00  0.00     0.093 A 
ATOM     26  C   UNL     1     118.628 105.815 122.560  1.00  0.00     0.094 A 
ATOM     27  C   UNL     1     118.101 103.079 122.900  1.00  0.00     0.133 A 
ATOM     28  C   UNL     1     117.368 105.396 122.995  1.00  0.00     0.138 A 
ATOM     29  C   UNL     1     117.099 104.031 123.193  1.00  0.00     0.102 A 
ATOM     30  O   UNL     1     116.373 106.351 123.231  1.00  0.00    -0.484 OA
ATOM     31  C   UNL     1     115.766 103.655 123.724  1.00  0.00     0.174 C 
ATOM     32  C   UNL     1     114.986 106.011 123.282  1.00  0.00     0.211 C 
ATOM     33  O   UNL     1     115.451 102.446 123.896  1.00  0.00    -0.294 OA
ATOM     34  C   UNL     1     114.786 104.729 124.117  1.00  0.00     0.131 C 
BRANCH  27  35
ATOM     35  O   UNL     1     117.862 101.717 123.078  1.00  0.00    -0.507 OA
ATOM     36  H   UNL     1     117.203 101.379 123.771  1.00  0.00     0.293 HD
ENDBRANCH  27  35
BRANCH  32  37
ATOM     37  C   UNL     1     114.433 105.971 121.864  1.00  0.00    -0.007 A 
ATOM     38  C   UNL     1     113.307 105.207 121.487  1.00  0.00     0.011 A 
ATOM     39  C   UNL     1     115.117 106.696 120.869  1.00  0.00     0.011 A 
ATOM     40  C   UNL     1     112.882 105.179 120.156  1.00  0.00     0.046 A 
ATOM     41  C   UNL     1     114.691 106.662 119.538  1.00  0.00     0.046 A 
ATOM     42  C   UNL     1     113.573 105.902 119.179  1.00  0.00     0.115 A 
BRANCH  42  43
ATOM     43  O   UNL     1     113.140 105.857 117.855  1.00  0.00    -0.508 OA
ATOM     44  H   UNL     1     113.662 105.358 117.143  1.00  0.00     0.293 HD
ENDBRANCH  42  43
ENDBRANCH  32  37
ENDBRANCH  23  24
ENDBRANCH   6  23
BRANCH   3  45
ATOM     45  O   UNL     1     124.323 107.980 120.581  1.00  0.00    -0.387 OA
ATOM     46  H   UNL     1     124.981 108.397 119.965  1.00  0.00     0.211 HD
ENDBRANCH   3  45
BRANCH   4  47
ATOM     47  C   UNL     1     122.764 109.476 122.590  1.00  0.00     0.191 C 
BRANCH  47  48
ATOM     48  O   UNL     1     123.672 108.761 123.383  1.00  0.00    -0.394 OA
ATOM     49  H   UNL     1     123.276 108.706 124.292  1.00  0.00     0.210 HD
ENDBRANCH  47  48
ENDBRANCH   4  47
TORSDOF 14
ENDMDL
MODEL 4
REMARK VINA RESULT:    -4.712     12.995     16.777
REMARK INTER + INTRA:          -9.799
REMARK INTER:                  -7.612
REMARK INTRA:                  -2.187
REMARK UNBOUND:                -2.332
REMARK SMILES C[C@H]1O[C@H](O[C@H]2[C@@H](Oc3cc(O)c4c(c3)O[C@@H](c3ccc(O)cc3)CC4=O)O[C@@H](CO)[C@@H](O)[C@H]2O)[C@H](O)[C@H](O)[C@@H]1O
REMARK SMILES IDX 6 1 34 2 32 3 29 4 28 5 7 6 5 7 4 8 1 9 2 10 40 11 3 12
REMARK SMILES IDX 38 13 36 14 41 15 39 17 37 19 35 21 8 23 9 24 10 25 15 26
REMARK SMILES IDX 11 27 14 28 13 29 16 30 26 31 17 32 27 33 25 34 12 35 18 37
REMARK SMILES IDX 19 38 24 39 20 40 23 41 21 42 22 43 33 45 30 47 31 48
REMARK H PARENT 41 16 39 18 37 20 35 22 12 36 22 44 33 46 31 49
REMARK Flexibility Score: inf
ROOT
ATOM      1  C   UNL     1     124.826 112.164 110.823  1.00  0.00     0.221 C 
ATOM      2  C   UNL     1     125.368 110.749 111.142  1.00  0.00     0.181 C 
ATOM      3  C   UNL     1     125.614 109.949 109.851  1.00  0.00     0.177 C 
ATOM      4  C   UNL     1     124.335 110.001 108.981  1.00  0.00     0.179 C 
ATOM      5  O   UNL     1     123.999 111.345 108.686  1.00  0.00    -0.332 OA
ATOM      6  C   UNL     1     123.624 112.032 109.870  1.00  0.00     0.339 C 
ENDROOT
BRANCH   1   7
ATOM      7  O   UNL     1     125.818 112.951 110.183  1.00  0.00    -0.337 OA
BRANCH   7   8
ATOM      8  C   UNL     1     126.154 114.127 110.914  1.00  0.00     0.282 C 
ATOM      9  C   UNL     1     129.463 113.062 112.114  1.00  0.00     0.041 C 
ATOM     10  C   UNL     1     128.400 113.461 111.087  1.00  0.00     0.150 C 
ATOM     11  C   UNL     1     128.917 114.607 110.183  1.00  0.00     0.174 C 
ATOM     12  O   UNL     1     127.239 113.870 111.791  1.00  0.00    -0.344 OA
ATOM     13  C   UNL     1     127.814 115.085 109.213  1.00  0.00     0.179 C 
ATOM     14  C   UNL     1     126.478 115.297 109.959  1.00  0.00     0.202 C 
BRANCH  11  15
ATOM     15  O   UNL     1     130.042 114.180 109.457  1.00  0.00    -0.388 OA
ATOM     16  H   UNL     1     130.356 113.339 109.881  1.00  0.00     0.211 HD
ENDBRANCH  11  15
BRANCH  13  17
ATOM     17  O   UNL     1     127.658 114.228 108.105  1.00  0.00    -0.387 OA
ATOM     18  H   UNL     1     127.522 113.306 108.433  1.00  0.00     0.211 HD
ENDBRANCH  13  17
BRANCH  14  19
ATOM     19  O   UNL     1     125.424 115.473 109.047  1.00  0.00    -0.385 OA
ATOM     20  H   UNL     1     124.606 115.653 109.582  1.00  0.00     0.211 HD
ENDBRANCH  14  19
ENDBRANCH   7   8
ENDBRANCH   1   7
BRANCH   2  21
ATOM     21  O   UNL     1     126.555 110.819 111.887  1.00  0.00    -0.387 OA
ATOM     22  H   UNL     1     126.290 110.826 112.843  1.00  0.00     0.211 HD
ENDBRANCH   2  21
BRANCH   6  23
ATOM     23  O   UNL     1     123.166 113.338 109.522  1.00  0.00    -0.462 OA
BRANCH  23  24
ATOM     24  C   UNL     1     122.260 114.094 110.280  1.00  0.00     0.130 A 
ATOM     25  C   UNL     1     121.422 113.423 111.176  1.00  0.00     0.093 A 
ATOM     26  C   UNL     1     122.163 115.493 110.164  1.00  0.00     0.094 A 
ATOM     27  C   UNL     1     120.500 114.128 111.966  1.00  0.00     0.133 A 
ATOM     28  C   UNL     1     121.222 116.200 110.917  1.00  0.00     0.138 A 
ATOM     29  C   UNL     1     120.401 115.531 111.841  1.00  0.00     0.102 A 
ATOM     30  O   UNL     1     121.104 117.582 110.741  1.00  0.00    -0.484 OA
ATOM     31  C   UNL     1     119.471 116.346 112.661  1.00  0.00     0.174 C 
ATOM     32  C   UNL     1     119.941 118.306 111.147  1.00  0.00     0.211 C 
ATOM     33  O   UNL     1     118.686 115.805 113.487  1.00  0.00    -0.294 OA
ATOM     34  C   UNL     1     119.496 117.848 112.553  1.00  0.00     0.131 C 
BRANCH  27  35
ATOM     35  O   UNL     1     119.693 113.435 112.868  1.00  0.00    -0.507 OA
ATOM     36  H   UNL     1     118.804 113.809 113.182  1.00  0.00     0.293 HD
ENDBRANCH  27  35
BRANCH  32  37
ATOM     37  C   UNL     1     118.886 118.205 110.053  1.00  0.00    -0.007 A 
ATOM     38  C   UNL     1     118.950 117.276 108.992  1.00  0.00     0.011 A 
ATOM     39  C   UNL     1     117.821 119.125 110.079  1.00  0.00     0.011 A 
ATOM     40  C   UNL     1     117.970 117.270 107.995  1.00  0.00     0.046 A 
ATOM     41  C   UNL     1     116.845 119.118 109.077  1.00  0.00     0.046 A 
ATOM     42  C   UNL     1     116.920 118.191 108.031  1.00  0.00     0.115 A 
BRANCH  42  43
ATOM     43  O   UNL     1     115.956 118.176 107.025  1.00  0.00    -0.508 OA
ATOM     44  H   UNL     1     116.165 118.497 106.086  1.00  0.00     0.293 HD
ENDBRANCH  42  43
ENDBRANCH  32  37
ENDBRANCH  23  24
ENDBRANCH   6  23
BRANCH   3  45
ATOM     45  O   UNL     1     126.706 110.499 109.154  1.00  0.00    -0.387 OA
ATOM     46  H   UNL     1     127.286 110.951 109.821  1.00  0.00     0.211 HD
ENDBRANCH   3  45
BRANCH   4  47
ATOM     47  C   UNL     1     124.499 109.235 107.659  1.00  0.00     0.191 C 
BRANCH  47  48
ATOM     48  O   UNL     1     125.597 108.366 107.717  1.00  0.00    -0.394 OA
ATOM     49  H   UNL     1     126.038 108.521 108.593  1.00  0.00     0.210 HD
ENDBRANCH  47  48
ENDBRANCH   4  47
TORSDOF 14
ENDMDL
MODEL 5
REMARK VINA RESULT:    -4.692     11.805     14.802
REMARK INTER + INTRA:          -9.767
REMARK INTER:                  -7.244
REMARK INTRA:                  -2.524
REMARK UNBOUND:                -2.332
REMARK SMILES C[C@H]1O[C@H](O[C@H]2[C@@H](Oc3cc(O)c4c(c3)O[C@@H](c3ccc(O)cc3)CC4=O)O[C@@H](CO)[C@@H](O)[C@H]2O)[C@H](O)[C@H](O)[C@@H]1O
REMARK SMILES IDX 6 1 34 2 32 3 29 4 28 5 7 6 5 7 4 8 1 9 2 10 40 11 3 12
REMARK SMILES IDX 38 13 36 14 41 15 39 17 37 19 35 21 8 23 9 24 10 25 15 26
REMARK SMILES IDX 11 27 14 28 13 29 16 30 26 31 17 32 27 33 25 34 12 35 18 37
REMARK SMILES IDX 19 38 24 39 20 40 23 41 21 42 22 43 33 45 30 47 31 48
REMARK H PARENT 41 16 39 18 37 20 35 22 12 36 22 44 33 46 31 49
REMARK Flexibility Score: inf
ROOT
ATOM      1  C   UNL     1     123.273 111.000 110.789  1.00  0.00     0.221 C 
ATOM      2  C   UNL     1     122.140 110.413 111.669  1.00  0.00     0.181 C 
ATOM      3  C   UNL     1     120.902 110.079 110.820  1.00  0.00     0.177 C 
ATOM      4  C   UNL     1     120.525 111.321 109.975  1.00  0.00     0.179 C 
ATOM      5  O   UNL     1     121.614 111.699 109.152  1.00  0.00    -0.332 OA
ATOM      6  C   UNL     1     122.700 112.153 109.946  1.00  0.00     0.339 C 
ENDROOT
BRANCH   1   7
ATOM      7  O   UNL     1     123.787 110.015 109.907  1.00  0.00    -0.337 OA
BRANCH   7   8
ATOM      8  C   UNL     1     125.081 109.550 110.284  1.00  0.00     0.282 C 
ATOM      9  C   UNL     1     124.210 106.029 110.884  1.00  0.00     0.041 C 
ATOM     10  C   UNL     1     124.413 107.309 110.069  1.00  0.00     0.150 C 
ATOM     11  C   UNL     1     125.336 107.042 108.856  1.00  0.00     0.174 C 
ATOM     12  O   UNL     1     124.984 108.287 110.922  1.00  0.00    -0.344 OA
ATOM     13  C   UNL     1     125.630 108.350 108.088  1.00  0.00     0.179 C 
ATOM     14  C   UNL     1     126.021 109.484 109.062  1.00  0.00     0.202 C 
BRANCH  11  15
ATOM     15  O   UNL     1     124.744 106.103 107.994  1.00  0.00    -0.388 OA
ATOM     16  H   UNL     1     124.689 106.530 107.098  1.00  0.00     0.211 HD
ENDBRANCH  11  15
BRANCH  13  17
ATOM     17  O   UNL     1     124.567 108.734 107.245  1.00  0.00    -0.387 OA
ATOM     18  H   UNL     1     124.056 107.927 106.993  1.00  0.00     0.211 HD
ENDBRANCH  13  17
BRANCH  14  19
ATOM     19  O   UNL     1     126.030 110.723 108.400  1.00  0.00    -0.385 OA
ATOM     20  H   UNL     1     125.339 111.289 108.837  1.00  0.00     0.211 HD
ENDBRANCH  14  19
ENDBRANCH   7   8
ENDBRANCH   1   7
BRANCH   2  21
ATOM     21  O   UNL     1     122.572 109.264 112.348  1.00  0.00    -0.387 OA
ATOM     22  H   UNL     1     123.237 109.564 113.020  1.00  0.00     0.211 HD
ENDBRANCH   2  21
BRANCH   6  23
ATOM     23  O   UNL     1     123.725 112.650 109.087  1.00  0.00    -0.462 OA
BRANCH  23  24
ATOM     24  C   UNL     1     124.631 113.664 109.430  1.00  0.00     0.130 A 
ATOM     25  C   UNL     1     124.690 114.803 108.621  1.00  0.00     0.093 A 
ATOM     26  C   UNL     1     125.481 113.570 110.547  1.00  0.00     0.094 A 
ATOM     27  C   UNL     1     125.573 115.854 108.919  1.00  0.00     0.133 A 
ATOM     28  C   UNL     1     126.391 114.592 110.830  1.00  0.00     0.138 A 
ATOM     29  C   UNL     1     126.429 115.752 110.037  1.00  0.00     0.102 A 
ATOM     30  O   UNL     1     127.266 114.449 111.912  1.00  0.00    -0.484 OA
ATOM     31  C   UNL     1     127.368 116.832 110.431  1.00  0.00     0.174 C 
ATOM     32  C   UNL     1     128.461 115.222 112.034  1.00  0.00     0.211 C 
ATOM     33  O   UNL     1     127.472 117.884 109.745  1.00  0.00    -0.294 OA
ATOM     34  C   UNL     1     128.172 116.701 111.697  1.00  0.00     0.131 C 
BRANCH  27  35
ATOM     35  O   UNL     1     125.593 116.989 108.108  1.00  0.00    -0.507 OA
ATOM     36  H   UNL     1     125.733 117.916 108.495  1.00  0.00     0.293 HD
ENDBRANCH  27  35
BRANCH  32  37
ATOM     37  C   UNL     1     129.564 114.561 111.218  1.00  0.00    -0.007 A 
ATOM     38  C   UNL     1     130.352 115.249 110.270  1.00  0.00     0.011 A 
ATOM     39  C   UNL     1     129.768 113.178 111.385  1.00  0.00     0.011 A 
ATOM     40  C   UNL     1     131.317 114.568 109.521  1.00  0.00     0.046 A 
ATOM     41  C   UNL     1     130.731 112.500 110.631  1.00  0.00     0.046 A 
ATOM     42  C   UNL     1     131.507 113.195 109.696  1.00  0.00     0.115 A 
BRANCH  42  43
ATOM     43  O   UNL     1     132.467 112.530 108.936  1.00  0.00    -0.508 OA
ATOM     44  H   UNL     1     133.003 111.758 109.317  1.00  0.00     0.293 HD
ENDBRANCH  42  43
ENDBRANCH  32  37
ENDBRANCH  23  24
ENDBRANCH   6  23
BRANCH   3  45
ATOM     45  O   UNL     1     121.182 108.982 109.985  1.00  0.00    -0.387 OA
ATOM     46  H   UNL     1     121.321 109.335 109.068  1.00  0.00     0.211 HD
ENDBRANCH   3  45
BRANCH   4  47
ATOM     47  C   UNL     1     119.300 111.067 109.082  1.00  0.00     0.191 C 
BRANCH  47  48
ATOM     48  O   UNL     1     119.643 110.279 107.975  1.00  0.00    -0.394 OA
ATOM     49  H   UNL     1     120.487 110.650 107.610  1.00  0.00     0.210 HD
ENDBRANCH  47  48
ENDBRANCH   4  47
TORSDOF 14
ENDMDL
MODEL 6
REMARK VINA RESULT:    -4.680      2.810      5.482
REMARK INTER + INTRA:          -9.748
REMARK INTER:                  -7.270
REMARK INTRA:                  -2.478
REMARK UNBOUND:                -2.332
REMARK SMILES C[C@H]1O[C@H](O[C@H]2[C@@H](Oc3cc(O)c4c(c3)O[C@@H](c3ccc(O)cc3)CC4=O)O[C@@H](CO)[C@@H](O)[C@H]2O)[C@H](O)[C@H](O)[C@@H]1O
REMARK SMILES IDX 6 1 34 2 32 3 29 4 28 5 7 6 5 7 4 8 1 9 2 10 40 11 3 12
REMARK SMILES IDX 38 13 36 14 41 15 39 17 37 19 35 21 8 23 9 24 10 25 15 26
REMARK SMILES IDX 11 27 14 28 13 29 16 30 26 31 17 32 27 33 25 34 12 35 18 37
REMARK SMILES IDX 19 38 24 39 20 40 23 41 21 42 22 43 33 45 30 47 31 48
REMARK H PARENT 41 16 39 18 37 20 35 22 12 36 22 44 33 46 31 49
REMARK Flexibility Score: inf
ROOT
ATOM      1  C   UNL     1     116.571 106.762 122.079  1.00  0.00     0.221 C 
ATOM      2  C   UNL     1     115.183 106.960 121.419  1.00  0.00     0.181 C 
ATOM      3  C   UNL     1     115.163 106.376 119.996  1.00  0.00     0.177 C 
ATOM      4  C   UNL     1     116.371 106.938 119.208  1.00  0.00     0.179 C 
ATOM      5  O   UNL     1     117.580 106.612 119.871  1.00  0.00    -0.332 OA
ATOM      6  C   UNL     1     117.656 107.282 121.120  1.00  0.00     0.339 C 
ENDROOT
BRANCH   1   7
ATOM      7  O   UNL     1     116.818 105.388 122.330  1.00  0.00    -0.337 OA
BRANCH   7   8
ATOM      8  C   UNL     1     116.777 105.057 123.715  1.00  0.00     0.282 C 
ATOM      9  C   UNL     1     114.104 102.537 123.567  1.00  0.00     0.041 C 
ATOM     10  C   UNL     1     115.482 103.145 123.291  1.00  0.00     0.150 C 
ATOM     11  C   UNL     1     116.604 102.165 123.712  1.00  0.00     0.174 C 
ATOM     12  O   UNL     1     115.582 104.356 124.021  1.00  0.00    -0.344 OA
ATOM     13  C   UNL     1     117.996 102.811 123.535  1.00  0.00     0.179 C 
ATOM     14  C   UNL     1     118.020 104.239 124.125  1.00  0.00     0.202 C 
BRANCH  11  15
ATOM     15  O   UNL     1     116.524 100.983 122.956  1.00  0.00    -0.388 OA
ATOM     16  H   UNL     1     117.053 100.296 123.440  1.00  0.00     0.211 HD
ENDBRANCH  11  15
BRANCH  13  17
ATOM     17  O   UNL     1     118.432 102.797 122.194  1.00  0.00    -0.387 OA
ATOM     18  H   UNL     1     119.180 102.156 122.111  1.00  0.00     0.211 HD
ENDBRANCH  13  17
BRANCH  14  19
ATOM     19  O   UNL     1     119.186 104.916 123.734  1.00  0.00    -0.385 OA
ATOM     20  H   UNL     1     119.953 104.428 124.136  1.00  0.00     0.211 HD
ENDBRANCH  14  19
ENDBRANCH   7   8
ENDBRANCH   1   7
BRANCH   2  21
ATOM     21  O   UNL     1     114.170 106.368 122.187  1.00  0.00    -0.387 OA
ATOM     22  H   UNL     1     113.410 107.006 122.195  1.00  0.00     0.211 HD
ENDBRANCH   2  21
BRANCH   6  23
ATOM     23  O   UNL     1     118.938 107.039 121.698  1.00  0.00    -0.462 OA
BRANCH  23  24
ATOM     24  C   UNL     1     120.004 107.950 121.687  1.00  0.00     0.130 A 
ATOM     25  C   UNL     1     120.957 107.869 122.707  1.00  0.00     0.093 A 
ATOM     26  C   UNL     1     120.141 108.938 120.694  1.00  0.00     0.094 A 
ATOM     27  C   UNL     1     122.050 108.751 122.744  1.00  0.00     0.133 A 
ATOM     28  C   UNL     1     121.204 109.844 120.743  1.00  0.00     0.138 A 
ATOM     29  C   UNL     1     122.180 109.745 121.750  1.00  0.00     0.102 A 
ATOM     30  O   UNL     1     121.286 110.854 119.779  1.00  0.00    -0.484 OA
ATOM     31  C   UNL     1     123.321 110.692 121.707  1.00  0.00     0.174 C 
ATOM     32  C   UNL     1     122.074 112.031 119.972  1.00  0.00     0.211 C 
ATOM     33  O   UNL     1     124.214 110.676 122.597  1.00  0.00    -0.294 OA
ATOM     34  C   UNL     1     123.452 111.655 120.556  1.00  0.00     0.131 C 
BRANCH  27  35
ATOM     35  O   UNL     1     122.997 108.632 123.761  1.00  0.00    -0.507 OA
ATOM     36  H   UNL     1     123.142 107.758 124.253  1.00  0.00     0.293 HD
ENDBRANCH  27  35
BRANCH  32  37
ATOM     37  C   UNL     1     121.266 113.040 120.777  1.00  0.00    -0.007 A 
ATOM     38  C   UNL     1     119.856 113.097 120.766  1.00  0.00     0.011 A 
ATOM     39  C   UNL     1     121.972 113.998 121.530  1.00  0.00     0.011 A 
ATOM     40  C   UNL     1     119.180 114.082 121.493  1.00  0.00     0.046 A 
ATOM     41  C   UNL     1     121.293 114.984 122.252  1.00  0.00     0.046 A 
ATOM     42  C   UNL     1     119.895 115.028 122.233  1.00  0.00     0.115 A 
BRANCH  42  43
ATOM     43  O   UNL     1     119.206 116.008 122.947  1.00  0.00    -0.508 OA
ATOM     44  H   UNL     1     119.607 116.925 123.110  1.00  0.00     0.293 HD
ENDBRANCH  42  43
ENDBRANCH  32  37
ENDBRANCH  23  24
ENDBRANCH   6  23
BRANCH   3  45
ATOM     45  O   UNL     1     115.227 104.972 120.059  1.00  0.00    -0.387 OA
ATOM     46  H   UNL     1     114.322 104.644 120.301  1.00  0.00     0.211 HD
ENDBRANCH   3  45
BRANCH   4  47
ATOM     47  C   UNL     1     116.435 106.392 117.773  1.00  0.00     0.191 C 
BRANCH  47  48
ATOM     48  O   UNL     1     116.980 105.101 117.753  1.00  0.00    -0.394 OA
ATOM     49  H   UNL     1     117.908 105.188 117.410  1.00  0.00     0.210 HD
ENDBRANCH  47  48
ENDBRANCH   4  47
TORSDOF 14
ENDMDL
MODEL 7
REMARK VINA RESULT:    -4.659      4.682     10.570
REMARK INTER + INTRA:          -9.715
REMARK INTER:                  -7.191
REMARK INTRA:                  -2.524
REMARK UNBOUND:                -2.332
REMARK SMILES C[C@H]1O[C@H](O[C@H]2[C@@H](Oc3cc(O)c4c(c3)O[C@@H](c3ccc(O)cc3)CC4=O)O[C@@H](CO)[C@@H](O)[C@H]2O)[C@H](O)[C@H](O)[C@@H]1O
REMARK SMILES IDX 6 1 34 2 32 3 29 4 28 5 7 6 5 7 4 8 1 9 2 10 40 11 3 12
REMARK SMILES IDX 38 13 36 14 41 15 39 17 37 19 35 21 8 23 9 24 10 25 15 26
REMARK SMILES IDX 11 27 14 28 13 29 16 30 26 31 17 32 27 33 25 34 12 35 18 37
REMARK SMILES IDX 19 38 24 39 20 40 23 41 21 42 22 43 33 45 30 47 31 48
REMARK H PARENT 41 16 39 18 37 20 35 22 12 36 22 44 33 46 31 49
REMARK Flexibility Score: inf
ROOT
ATOM      1  C   UNL     1     124.536 112.388 120.565  1.00  0.00     0.221 C 
ATOM      2  C   UNL     1     124.284 113.710 119.797  1.00  0.00     0.181 C 
ATOM      3  C   UNL     1     123.780 114.810 120.746  1.00  0.00     0.177 C 
ATOM      4  C   UNL     1     122.579 114.260 121.554  1.00  0.00     0.179 C 
ATOM      5  O   UNL     1     122.966 113.106 122.279  1.00  0.00    -0.332 OA
ATOM      6  C   UNL     1     123.283 112.046 121.389  1.00  0.00     0.339 C 
ENDROOT
BRANCH   1   7
ATOM      7  O   UNL     1     125.633 112.524 121.455  1.00  0.00    -0.337 OA
BRANCH   7   8
ATOM      8  C   UNL     1     126.752 111.721 121.088  1.00  0.00     0.282 C 
ATOM      9  C   UNL     1     129.158 114.434 120.483  1.00  0.00     0.041 C 
ATOM     10  C   UNL     1     128.216 113.545 121.299  1.00  0.00     0.150 C 
ATOM     11  C   UNL     1     128.954 112.943 122.519  1.00  0.00     0.174 C 
ATOM     12  O   UNL     1     127.740 112.514 120.450  1.00  0.00    -0.344 OA
ATOM     13  C   UNL     1     128.041 111.963 123.288  1.00  0.00     0.179 C 
ATOM     14  C   UNL     1     127.334 110.991 122.317  1.00  0.00     0.202 C 
BRANCH  11  15
ATOM     15  O   UNL     1     129.387 113.969 123.377  1.00  0.00    -0.388 OA
ATOM     16  H   UNL     1     130.137 113.598 123.913  1.00  0.00     0.211 HD
ENDBRANCH  11  15
BRANCH  13  17
ATOM     17  O   UNL     1     127.118 112.625 124.123  1.00  0.00    -0.387 OA
ATOM     18  H   UNL     1     126.696 111.959 124.719  1.00  0.00     0.211 HD
ENDBRANCH  13  17
BRANCH  14  19
ATOM     19  O   UNL     1     126.316 110.285 122.978  1.00  0.00    -0.385 OA
ATOM     20  H   UNL     1     125.551 110.221 122.347  1.00  0.00     0.211 HD
ENDBRANCH  14  19
ENDBRANCH   7   8
ENDBRANCH   1   7
BRANCH   2  21
ATOM     21  O   UNL     1     125.448 114.145 119.146  1.00  0.00    -0.387 OA
ATOM     22  H   UNL     1     125.440 115.136 119.181  1.00  0.00     0.211 HD
ENDBRANCH   2  21
BRANCH   6  23
ATOM     23  O   UNL     1     123.538 110.865 122.149  1.00  0.00    -0.462 OA
BRANCH  23  24
ATOM     24  C   UNL     1     123.118 109.577 121.787  1.00  0.00     0.130 A 
ATOM     25  C   UNL     1     122.368 108.840 122.709  1.00  0.00     0.093 A 
ATOM     26  C   UNL     1     123.430 109.005 120.540  1.00  0.00     0.094 A 
ATOM     27  C   UNL     1     121.914 107.547 122.399  1.00  0.00     0.133 A 
ATOM     28  C   UNL     1     123.016 107.705 120.237  1.00  0.00     0.138 A 
ATOM     29  C   UNL     1     122.235 106.974 121.149  1.00  0.00     0.102 A 
ATOM     30  O   UNL     1     123.388 107.137 119.014  1.00  0.00    -0.484 OA
ATOM     31  C   UNL     1     121.768 105.627 120.741  1.00  0.00     0.174 C 
ATOM     32  C   UNL     1     123.363 105.726 118.790  1.00  0.00     0.211 C 
ATOM     33  O   UNL     1     121.091 104.908 121.524  1.00  0.00    -0.294 OA
ATOM     34  C   UNL     1     122.057 105.123 119.351  1.00  0.00     0.131 C 
BRANCH  27  35
ATOM     35  O   UNL     1     121.149 106.844 123.329  1.00  0.00    -0.507 OA
ATOM     36  H   UNL     1     121.289 106.957 124.327  1.00  0.00     0.293 HD
ENDBRANCH  27  35
BRANCH  32  37
ATOM     37  C   UNL     1     124.654 105.117 119.322  1.00  0.00    -0.007 A 
ATOM     38  C   UNL     1     124.691 104.082 120.281  1.00  0.00     0.011 A 
ATOM     39  C   UNL     1     125.873 105.655 118.866  1.00  0.00     0.011 A 
ATOM     40  C   UNL     1     125.914 103.602 120.760  1.00  0.00     0.046 A 
ATOM     41  C   UNL     1     127.093 105.175 119.351  1.00  0.00     0.046 A 
ATOM     42  C   UNL     1     127.116 104.148 120.301  1.00  0.00     0.115 A 
BRANCH  42  43
ATOM     43  O   UNL     1     128.325 103.664 120.794  1.00  0.00    -0.508 OA
ATOM     44  H   UNL     1     128.608 103.823 121.755  1.00  0.00     0.293 HD
ENDBRANCH  42  43
ENDBRANCH  32  37
ENDBRANCH  23  24
ENDBRANCH   6  23
BRANCH   3  45
ATOM     45  O   UNL     1     124.817 115.201 121.612  1.00  0.00    -0.387 OA
ATOM     46  H   UNL     1     125.233 116.016 121.226  1.00  0.00     0.211 HD
ENDBRANCH   3  45
BRANCH   4  47
ATOM     47  C   UNL     1     122.019 115.295 122.542  1.00  0.00     0.191 C 
BRANCH  47  48
ATOM     48  O   UNL     1     122.665 115.202 123.783  1.00  0.00    -0.394 OA
ATOM     49  H   UNL     1     123.500 115.734 123.711  1.00  0.00     0.210 HD
ENDBRANCH  47  48
ENDBRANCH   4  47
TORSDOF 14
ENDMDL
MODEL 8
REMARK VINA RESULT:    -4.658      3.389      7.618
REMARK INTER + INTRA:          -9.714
REMARK INTER:                  -7.240
REMARK INTRA:                  -2.474
REMARK UNBOUND:                -2.332
REMARK SMILES C[C@H]1O[C@H](O[C@H]2[C@@H](Oc3cc(O)c4c(c3)O[C@@H](c3ccc(O)cc3)CC4=O)O[C@@H](CO)[C@@H](O)[C@H]2O)[C@H](O)[C@H](O)[C@@H]1O
REMARK SMILES IDX 6 1 34 2 32 3 29 4 28 5 7 6 5 7 4 8 1 9 2 10 40 11 3 12
REMARK SMILES IDX 38 13 36 14 41 15 39 17 37 19 35 21 8 23 9 24 10 25 15 26
REMARK SMILES IDX 11 27 14 28 13 29 16 30 26 31 17 32 27 33 25 34 12 35 18 37
REMARK SMILES IDX 19 38 24 39 20 40 23 41 21 42 22 43 33 45 30 47 31 48
REMARK H PARENT 41 16 39 18 37 20 35 22 12 36 22 44 33 46 31 49
REMARK Flexibility Score: inf
ROOT
ATOM      1  C   UNL     1     120.682 105.944 119.895  1.00  0.00     0.221 C 
ATOM      2  C   UNL     1     119.227 106.292 119.493  1.00  0.00     0.181 C 
ATOM      3  C   UNL     1     118.298 106.274 120.718  1.00  0.00     0.177 C 
ATOM      4  C   UNL     1     118.488 104.933 121.469  1.00  0.00     0.179 C 
ATOM      5  O   UNL     1     119.841 104.780 121.859  1.00  0.00    -0.332 OA
ATOM      6  C   UNL     1     120.672 104.643 120.716  1.00  0.00     0.339 C 
ENDROOT
BRANCH   1   7
ATOM      7  O   UNL     1     121.243 106.973 120.696  1.00  0.00    -0.337 OA
BRANCH   7   8
ATOM      8  C   UNL     1     122.482 107.462 120.189  1.00  0.00     0.282 C 
ATOM      9  C   UNL     1     121.300 110.733 118.998  1.00  0.00     0.041 C 
ATOM     10  C   UNL     1     121.632 109.645 120.022  1.00  0.00     0.150 C 
ATOM     11  C   UNL     1     122.560 110.201 121.129  1.00  0.00     0.174 C 
ATOM     12  O   UNL     1     122.262 108.575 119.337  1.00  0.00    -0.344 OA
ATOM     13  C   UNL     1     122.983 109.084 122.107  1.00  0.00     0.179 C 
ATOM     14  C   UNL     1     123.444 107.825 121.340  1.00  0.00     0.202 C 
BRANCH  11  15
ATOM     15  O   UNL     1     121.912 111.233 121.830  1.00  0.00    -0.388 OA
ATOM     16  H   UNL     1     121.648 111.915 121.158  1.00  0.00     0.211 HD
ENDBRANCH  11  15
BRANCH  13  17
ATOM     17  O   UNL     1     121.979 108.779 123.048  1.00  0.00    -0.387 OA
ATOM     18  H   UNL     1     121.762 109.597 123.558  1.00  0.00     0.211 HD
ENDBRANCH  13  17
BRANCH  14  19
ATOM     19  O   UNL     1     123.575 106.733 122.214  1.00  0.00    -0.385 OA
ATOM     20  H   UNL     1     124.485 106.786 122.609  1.00  0.00     0.211 HD
ENDBRANCH  14  19
ENDBRANCH   7   8
ENDBRANCH   1   7
BRANCH   2  21
ATOM     21  O   UNL     1     119.162 107.548 118.869  1.00  0.00    -0.387 OA
ATOM     22  H   UNL     1     119.760 107.504 118.079  1.00  0.00     0.211 HD
ENDBRANCH   2  21
BRANCH   6  23
ATOM     23  O   UNL     1     122.003 104.358 121.145  1.00  0.00    -0.462 OA
BRANCH  23  24
ATOM     24  C   UNL     1     122.927 103.589 120.422  1.00  0.00     0.130 A 
ATOM     25  C   UNL     1     122.983 102.214 120.668  1.00  0.00     0.093 A 
ATOM     26  C   UNL     1     123.796 104.153 119.469  1.00  0.00     0.094 A 
ATOM     27  C   UNL     1     123.883 101.393 119.969  1.00  0.00     0.133 A 
ATOM     28  C   UNL     1     124.721 103.351 118.796  1.00  0.00     0.138 A 
ATOM     29  C   UNL     1     124.758 101.964 119.020  1.00  0.00     0.102 A 
ATOM     30  O   UNL     1     125.614 103.944 117.898  1.00  0.00    -0.484 OA
ATOM     31  C   UNL     1     125.715 101.157 118.224  1.00  0.00     0.174 C 
ATOM     32  C   UNL     1     126.820 103.299 117.483  1.00  0.00     0.211 C 
ATOM     33  O   UNL     1     125.819  99.912 118.397  1.00  0.00    -0.294 OA
ATOM     34  C   UNL     1     126.541 101.817 117.151  1.00  0.00     0.131 C 
BRANCH  27  35
ATOM     35  O   UNL     1     123.901 100.020 120.219  1.00  0.00    -0.507 OA
ATOM     36  H   UNL     1     123.419  99.619 121.016  1.00  0.00     0.293 HD
ENDBRANCH  27  35
BRANCH  32  37
ATOM     37  C   UNL     1     127.901 103.551 118.526  1.00  0.00    -0.007 A 
ATOM     38  C   UNL     1     128.666 102.524 119.120  1.00  0.00     0.011 A 
ATOM     39  C   UNL     1     128.106 104.877 118.954  1.00  0.00     0.011 A 
ATOM     40  C   UNL     1     129.610 102.824 120.107  1.00  0.00     0.046 A 
ATOM     41  C   UNL     1     129.048 105.171 119.944  1.00  0.00     0.046 A 
ATOM     42  C   UNL     1     129.801 104.144 120.524  1.00  0.00     0.115 A 
BRANCH  42  43
ATOM     43  O   UNL     1     130.741 104.424 121.514  1.00  0.00    -0.508 OA
ATOM     44  H   UNL     1     131.727 104.230 121.379  1.00  0.00     0.293 HD
ENDBRANCH  42  43
ENDBRANCH  32  37
ENDBRANCH  23  24
ENDBRANCH   6  23
BRANCH   3  45
ATOM     45  O   UNL     1     118.604 107.358 121.562  1.00  0.00    -0.387 OA
ATOM     46  H   UNL     1     118.025 107.281 122.364  1.00  0.00     0.211 HD
ENDBRANCH   3  45
BRANCH   4  47
ATOM     47  C   UNL     1     117.602 104.836 122.721  1.00  0.00     0.191 C 
BRANCH  47  48
ATOM     48  O   UNL     1     118.115 105.627 123.758  1.00  0.00    -0.394 OA
ATOM     49  H   UNL     1     118.382 106.493 123.353  1.00  0.00     0.210 HD
ENDBRANCH  47  48
ENDBRANCH   4  47
TORSDOF 14
ENDMDL
MODEL 9
REMARK VINA RESULT:    -4.608      5.205     10.225
REMARK INTER + INTRA:          -9.634
REMARK INTER:                  -7.964
REMARK INTRA:                  -1.670
REMARK UNBOUND:                -2.332
REMARK SMILES C[C@H]1O[C@H](O[C@H]2[C@@H](Oc3cc(O)c4c(c3)O[C@@H](c3ccc(O)cc3)CC4=O)O[C@@H](CO)[C@@H](O)[C@H]2O)[C@H](O)[C@H](O)[C@@H]1O
REMARK SMILES IDX 6 1 34 2 32 3 29 4 28 5 7 6 5 7 4 8 1 9 2 10 40 11 3 12
REMARK SMILES IDX 38 13 36 14 41 15 39 17 37 19 35 21 8 23 9 24 10 25 15 26
REMARK SMILES IDX 11 27 14 28 13 29 16 30 26 31 17 32 27 33 25 34 12 35 18 37
REMARK SMILES IDX 19 38 24 39 20 40 23 41 21 42 22 43 33 45 30 47 31 48
REMARK H PARENT 41 16 39 18 37 20 35 22 12 36 22 44 33 46 31 49
REMARK Flexibility Score: inf
ROOT
ATOM      1  C   UNL     1     122.926 111.759 120.133  1.00  0.00     0.221 C 
ATOM      2  C   UNL     1     124.463 111.882 120.293  1.00  0.00     0.181 C 
ATOM      3  C   UNL     1     124.838 112.242 121.740  1.00  0.00     0.177 C 
ATOM      4  C   UNL     1     124.012 113.477 122.178  1.00  0.00     0.179 C 
ATOM      5  O   UNL     1     122.627 113.202 122.069  1.00  0.00    -0.332 OA
ATOM      6  C   UNL     1     122.264 113.023 120.709  1.00  0.00     0.339 C 
ENDROOT
BRANCH   1   7
ATOM      7  O   UNL     1     122.435 110.634 120.844  1.00  0.00    -0.337 OA
BRANCH   7   8
ATOM      8  C   UNL     1     121.656 109.758 120.034  1.00  0.00     0.282 C 
ATOM      9  C   UNL     1     124.096 107.023 119.738  1.00  0.00     0.041 C 
ATOM     10  C   UNL     1     123.120 107.967 120.444  1.00  0.00     0.150 C 
ATOM     11  C   UNL     1     122.074 107.164 121.254  1.00  0.00     0.174 C 
ATOM     12  O   UNL     1     122.480 108.758 119.456  1.00  0.00    -0.344 OA
ATOM     13  C   UNL     1     121.023 108.104 121.885  1.00  0.00     0.179 C 
ATOM     14  C   UNL     1     120.507 109.127 120.849  1.00  0.00     0.202 C 
BRANCH  11  15
ATOM     15  O   UNL     1     122.711 106.414 122.259  1.00  0.00    -0.388 OA
ATOM     16  H   UNL     1     122.081 106.367 123.025  1.00  0.00     0.211 HD
ENDBRANCH  11  15
BRANCH  13  17
ATOM     17  O   UNL     1     121.496 108.741 123.050  1.00  0.00    -0.387 OA
ATOM     18  H   UNL     1     122.438 108.479 123.194  1.00  0.00     0.211 HD
ENDBRANCH  13  17
BRANCH  14  19
ATOM     19  O   UNL     1     119.761 110.137 121.479  1.00  0.00    -0.385 OA
ATOM     20  H   UNL     1     118.958 109.701 121.870  1.00  0.00     0.211 HD
ENDBRANCH  14  19
ENDBRANCH   7   8
ENDBRANCH   1   7
BRANCH   2  21
ATOM     21  O   UNL     1     125.106 110.693 119.919  1.00  0.00    -0.387 OA
ATOM     22  H   UNL     1     124.428 110.136 119.456  1.00  0.00     0.211 HD
ENDBRANCH   2  21
BRANCH   6  23
ATOM     23  O   UNL     1     120.847 112.881 120.623  1.00  0.00    -0.462 OA
BRANCH  23  24
ATOM     24  C   UNL     1     119.920 113.816 121.106  1.00  0.00     0.130 A 
ATOM     25  C   UNL     1     120.241 114.529 122.266  1.00  0.00     0.093 A 
ATOM     26  C   UNL     1     118.687 114.054 120.472  1.00  0.00     0.094 A 
ATOM     27  C   UNL     1     119.355 115.483 122.793  1.00  0.00     0.133 A 
ATOM     28  C   UNL     1     117.783 114.973 121.009  1.00  0.00     0.138 A 
ATOM     29  C   UNL     1     118.115 115.713 122.157  1.00  0.00     0.102 A 
ATOM     30  O   UNL     1     116.539 115.148 120.394  1.00  0.00    -0.484 OA
ATOM     31  C   UNL     1     117.142 116.724 122.639  1.00  0.00     0.174 C 
ATOM     32  C   UNL     1     115.429 115.739 121.073  1.00  0.00     0.211 C 
ATOM     33  O   UNL     1     117.366 117.400 123.679  1.00  0.00    -0.294 OA
ATOM     34  C   UNL     1     115.888 116.992 121.848  1.00  0.00     0.131 C 
BRANCH  27  35
ATOM     35  O   UNL     1     119.711 116.196 123.938  1.00  0.00    -0.507 OA
ATOM     36  H   UNL     1     119.022 116.700 124.485  1.00  0.00     0.293 HD
ENDBRANCH  27  35
BRANCH  32  37
ATOM     37  C   UNL     1     114.727 114.670 121.899  1.00  0.00    -0.007 A 
ATOM     38  C   UNL     1     114.298 114.868 123.229  1.00  0.00     0.011 A 
ATOM     39  C   UNL     1     114.545 113.401 121.316  1.00  0.00     0.011 A 
ATOM     40  C   UNL     1     113.701 113.826 123.945  1.00  0.00     0.046 A 
ATOM     41  C   UNL     1     113.952 112.360 122.037  1.00  0.00     0.046 A 
ATOM     42  C   UNL     1     113.531 112.571 123.354  1.00  0.00     0.115 A 
BRANCH  42  43
ATOM     43  O   UNL     1     112.941 111.540 124.085  1.00  0.00    -0.508 OA
ATOM     44  H   UNL     1     113.240 111.321 125.029  1.00  0.00     0.293 HD
ENDBRANCH  42  43
ENDBRANCH  32  37
ENDBRANCH  23  24
ENDBRANCH   6  23
BRANCH   3  45
ATOM     45  O   UNL     1     124.572 111.148 122.584  1.00  0.00    -0.387 OA
ATOM     46  H   UNL     1     124.219 111.511 123.438  1.00  0.00     0.211 HD
ENDBRANCH   3  45
BRANCH   4  47
ATOM     47  C   UNL     1     124.317 113.897 123.624  1.00  0.00     0.191 C 
BRANCH  47  48
ATOM     48  O   UNL     1     125.425 113.201 124.125  1.00  0.00    -0.394 OA
ATOM     49  H   UNL     1     125.841 112.734 123.354  1.00  0.00     0.210 HD
ENDBRANCH  47  48
ENDBRANCH   4  47
TORSDOF 14
ENDMDL
