MODEL 1
REMARK VINA RESULT:    -5.512      0.000      0.000
REMARK INTER + INTRA:         -13.526
REMARK INTER:                 -10.668
REMARK INTRA:                  -2.858
REMARK UNBOUND:                -2.858
REMARK SMILES CCCCCC=CCC=CCCCCCCCCOC(C)=O
REMARK SMILES IDX 12 1 11 2 10 3 9 4 8 5 7 6 6 7 5 8 4 9 3 10 2 11 1 12 13 13
REMARK SMILES IDX 14 14 15 15 16 16 17 17 18 18 19 19 20 20 22 21 21 22
REMARK H PARENT
REMARK Flexibility Score: inf
ROOT
ATOM      1  C   UNL     1       4.243  30.482  67.729  1.00  0.00     0.004 C 
ENDROOT
BRANCH   1   2
ATOM      2  C   UNL     1       3.341  29.288  68.073  1.00  0.00     0.027 C 
BRANCH   2   3
ATOM      3  C   UNL     1       2.147  29.191  67.153  1.00  0.00    -0.031 C 
ATOM      4  C   UNL     1       0.919  29.654  67.446  1.00  0.00    -0.027 C 
BRANCH   4   5
ATOM      5  C   UNL     1       0.579  30.373  68.728  1.00  0.00     0.054 C 
BRANCH   5   6
ATOM      6  C   UNL     1      -0.272  31.587  68.458  1.00  0.00    -0.027 C 
ATOM      7  C   UNL     1       0.213  32.798  68.124  1.00  0.00    -0.031 C 
BRANCH   7   8
ATOM      8  C   UNL     1       1.682  33.138  68.041  1.00  0.00     0.027 C 
BRANCH   8   9
ATOM      9  C   UNL     1       2.107  33.543  66.619  1.00  0.00     0.004 C 
BRANCH   9  10
ATOM     10  C   UNL     1       1.741  32.516  65.527  1.00  0.00     0.000 C 
BRANCH  10  11
ATOM     11  C   UNL     1       0.968  33.092  64.328  1.00  0.00    -0.003 C 
ATOM     12  C   UNL     1      -0.544  33.131  64.554  1.00  0.00     0.004 C 
ENDBRANCH  10  11
ENDBRANCH   9  10
ENDBRANCH   8   9
ENDBRANCH   7   8
ENDBRANCH   5   6
ENDBRANCH   4   5
ENDBRANCH   2   3
ENDBRANCH   1   2
BRANCH   1  13
ATOM     13  C   UNL     1       4.604  31.311  68.974  1.00  0.00     0.000 C 
BRANCH  13  14
ATOM     14  C   UNL     1       3.748  30.943  70.196  1.00  0.00     0.000 C 
BRANCH  14  15
ATOM     15  C   UNL     1       4.595  30.625  71.441  1.00  0.00     0.000 C 
BRANCH  15  16
ATOM     16  C   UNL     1       5.924  29.931  71.078  1.00  0.00     0.003 C 
BRANCH  16  17
ATOM     17  C   UNL     1       5.804  28.403  70.934  1.00  0.00     0.042 C 
BRANCH  17  18
ATOM     18  C   UNL     1       6.011  27.658  72.252  1.00  0.00     0.233 C 
BRANCH  18  19
ATOM     19  O   UNL     1       4.931  26.755  72.460  1.00  0.00    -0.466 OA
BRANCH  19  20
ATOM     20  C   UNL     1       3.629  27.024  72.027  1.00  0.00     0.302 C 
ATOM     21  O   UNL     1       3.197  26.540  70.944  1.00  0.00    -0.253 OA
ATOM     22  C   UNL     1       2.755  27.922  72.834  1.00  0.00     0.139 C 
ENDBRANCH  19  20
ENDBRANCH  18  19
ENDBRANCH  17  18
ENDBRANCH  16  17
ENDBRANCH  15  16
ENDBRANCH  14  15
ENDBRANCH  13  14
ENDBRANCH   1  13
TORSDOF 16
ENDMDL
MODEL 2
REMARK VINA RESULT:    -5.502      3.562      8.044
REMARK INTER + INTRA:         -13.505
REMARK INTER:                 -11.064
REMARK INTRA:                  -2.441
REMARK UNBOUND:                -2.858
REMARK SMILES CCCCCC=CCC=CCCCCCCCCOC(C)=O
REMARK SMILES IDX 12 1 11 2 10 3 9 4 8 5 7 6 6 7 5 8 4 9 3 10 2 11 1 12 13 13
REMARK SMILES IDX 14 14 15 15 16 16 17 17 18 18 19 19 20 20 22 21 21 22
REMARK H PARENT
REMARK Flexibility Score: inf
ROOT
ATOM      1  C   UNL     1       1.422  29.587  67.375  1.00  0.00     0.004 C 
ENDROOT
BRANCH   1   2
ATOM      2  C   UNL     1       2.950  29.437  67.428  1.00  0.00     0.027 C 
BRANCH   2   3
ATOM      3  C   UNL     1       3.656  30.773  67.400  1.00  0.00    -0.031 C 
ATOM      4  C   UNL     1       4.534  31.190  68.328  1.00  0.00    -0.027 C 
BRANCH   4   5
ATOM      5  C   UNL     1       4.964  30.356  69.510  1.00  0.00     0.054 C 
BRANCH   5   6
ATOM      6  C   UNL     1       3.956  30.442  70.627  1.00  0.00    -0.027 C 
ATOM      7  C   UNL     1       3.326  29.383  71.168  1.00  0.00    -0.031 C 
BRANCH   7   8
ATOM      8  C   UNL     1       3.479  27.960  70.688  1.00  0.00     0.027 C 
BRANCH   8   9
ATOM      9  C   UNL     1       3.498  26.952  71.850  1.00  0.00     0.004 C 
BRANCH   9  10
ATOM     10  C   UNL     1       4.232  27.446  73.113  1.00  0.00     0.000 C 
BRANCH  10  11
ATOM     11  C   UNL     1       5.759  27.262  73.091  1.00  0.00    -0.003 C 
ATOM     12  C   UNL     1       6.517  28.577  72.900  1.00  0.00     0.004 C 
ENDBRANCH  10  11
ENDBRANCH   9  10
ENDBRANCH   8   9
ENDBRANCH   7   8
ENDBRANCH   5   6
ENDBRANCH   4   5
ENDBRANCH   2   3
ENDBRANCH   1   2
BRANCH   1  13
ATOM     13  C   UNL     1       0.843  30.075  68.713  1.00  0.00     0.000 C 
BRANCH  13  14
ATOM     14  C   UNL     1      -0.241  31.148  68.530  1.00  0.00     0.000 C 
BRANCH  14  15
ATOM     15  C   UNL     1       0.131  32.193  67.463  1.00  0.00     0.000 C 
BRANCH  15  16
ATOM     16  C   UNL     1       1.114  33.253  68.004  1.00  0.00     0.003 C 
BRANCH  16  17
ATOM     17  C   UNL     1       1.996  33.889  66.915  1.00  0.00     0.042 C 
BRANCH  17  18
ATOM     18  C   UNL     1       1.561  33.517  65.498  1.00  0.00     0.233 C 
BRANCH  18  19
ATOM     19  O   UNL     1       0.552  34.421  65.061  1.00  0.00    -0.466 OA
BRANCH  19  20
ATOM     20  C   UNL     1       0.828  35.523  64.247  1.00  0.00     0.302 C 
ATOM     21  O   UNL     1       1.734  35.466  63.370  1.00  0.00    -0.253 OA
ATOM     22  C   UNL     1       0.071  36.791  64.442  1.00  0.00     0.139 C 
ENDBRANCH  19  20
ENDBRANCH  18  19
ENDBRANCH  17  18
ENDBRANCH  16  17
ENDBRANCH  15  16
ENDBRANCH  14  15
ENDBRANCH  13  14
ENDBRANCH   1  13
TORSDOF 16
ENDMDL
MODEL 3
REMARK VINA RESULT:    -5.380      2.981      6.061
REMARK INTER + INTRA:         -13.270
REMARK INTER:                 -10.281
REMARK INTRA:                  -2.989
REMARK UNBOUND:                -2.858
REMARK SMILES CCCCCC=CCC=CCCCCCCCCOC(C)=O
REMARK SMILES IDX 12 1 11 2 10 3 9 4 8 5 7 6 6 7 5 8 4 9 3 10 2 11 1 12 13 13
REMARK SMILES IDX 14 14 15 15 16 16 17 17 18 18 19 19 20 20 22 21 21 22
REMARK H PARENT
REMARK Flexibility Score: inf
ROOT
ATOM      1  C   UNL     1       0.169  32.921  63.184  1.00  0.00     0.004 C 
ENDROOT
BRANCH   1   2
ATOM      2  C   UNL     1      -1.320  32.725  63.507  1.00  0.00     0.027 C 
BRANCH   2   3
ATOM      3  C   UNL     1      -2.216  33.254  62.413  1.00  0.00    -0.031 C 
ATOM      4  C   UNL     1      -3.367  33.917  62.625  1.00  0.00    -0.027 C 
BRANCH   4   5
ATOM      5  C   UNL     1      -3.899  34.255  63.996  1.00  0.00     0.054 C 
BRANCH   5   6
ATOM      6  C   UNL     1      -3.924  35.746  64.213  1.00  0.00    -0.027 C 
ATOM      7  C   UNL     1      -3.004  36.429  64.921  1.00  0.00    -0.031 C 
BRANCH   7   8
ATOM      8  C   UNL     1      -1.851  35.795  65.661  1.00  0.00     0.027 C 
BRANCH   8   9
ATOM      9  C   UNL     1      -0.491  36.154  65.040  1.00  0.00     0.004 C 
BRANCH   9  10
ATOM     10  C   UNL     1      -0.573  37.112  63.833  1.00  0.00     0.000 C 
BRANCH  10  11
ATOM     11  C   UNL     1      -0.207  36.482  62.478  1.00  0.00    -0.003 C 
ATOM     12  C   UNL     1      -1.241  36.766  61.388  1.00  0.00     0.004 C 
ENDBRANCH  10  11
ENDBRANCH   9  10
ENDBRANCH   8   9
ENDBRANCH   7   8
ENDBRANCH   5   6
ENDBRANCH   4   5
ENDBRANCH   2   3
ENDBRANCH   1   2
BRANCH   1  13
ATOM     13  C   UNL     1       1.055  32.780  64.434  1.00  0.00     0.000 C 
BRANCH  13  14
ATOM     14  C   UNL     1       0.237  32.721  65.733  1.00  0.00     0.000 C 
BRANCH  14  15
ATOM     15  C   UNL     1       1.111  32.864  66.993  1.00  0.00     0.000 C 
BRANCH  15  16
ATOM     16  C   UNL     1       0.319  32.576  68.285  1.00  0.00     0.003 C 
BRANCH  16  17
ATOM     17  C   UNL     1      -0.231  31.140  68.365  1.00  0.00     0.042 C 
BRANCH  17  18
ATOM     18  C   UNL     1       0.687  30.189  69.132  1.00  0.00     0.233 C 
BRANCH  18  19
ATOM     19  O   UNL     1       1.754  30.929  69.715  1.00  0.00    -0.466 OA
BRANCH  19  20
ATOM     20  C   UNL     1       3.080  30.487  69.691  1.00  0.00     0.302 C 
ATOM     21  O   UNL     1       3.925  30.939  70.511  1.00  0.00    -0.253 OA
ATOM     22  C   UNL     1       3.509  29.499  68.660  1.00  0.00     0.139 C 
ENDBRANCH  19  20
ENDBRANCH  18  19
ENDBRANCH  17  18
ENDBRANCH  16  17
ENDBRANCH  15  16
ENDBRANCH  14  15
ENDBRANCH  13  14
ENDBRANCH   1  13
TORSDOF 16
ENDMDL
MODEL 4
REMARK VINA RESULT:    -5.343      2.483      4.992
REMARK INTER + INTRA:         -13.198
REMARK INTER:                 -10.805
REMARK INTRA:                  -2.393
REMARK UNBOUND:                -2.858
REMARK SMILES CCCCCC=CCC=CCCCCCCCCOC(C)=O
REMARK SMILES IDX 12 1 11 2 10 3 9 4 8 5 7 6 6 7 5 8 4 9 3 10 2 11 1 12 13 13
REMARK SMILES IDX 14 14 15 15 16 16 17 17 18 18 19 19 20 20 22 21 21 22
REMARK H PARENT
REMARK Flexibility Score: inf
ROOT
ATOM      1  C   UNL     1       0.814  33.481  66.891  1.00  0.00     0.004 C 
ENDROOT
BRANCH   1   2
ATOM      2  C   UNL     1       0.513  32.463  65.780  1.00  0.00     0.027 C 
BRANCH   2   3
ATOM      3  C   UNL     1       0.894  32.981  64.413  1.00  0.00    -0.031 C 
ATOM      4  C   UNL     1       0.074  32.993  63.347  1.00  0.00    -0.027 C 
BRANCH   4   5
ATOM      5  C   UNL     1      -1.359  32.523  63.387  1.00  0.00     0.054 C 
BRANCH   5   6
ATOM      6  C   UNL     1      -2.166  33.150  62.280  1.00  0.00    -0.027 C 
ATOM      7  C   UNL     1      -3.225  33.957  62.472  1.00  0.00    -0.031 C 
BRANCH   7   8
ATOM      8  C   UNL     1      -3.808  34.297  63.823  1.00  0.00     0.027 C 
BRANCH   8   9
ATOM      9  C   UNL     1      -4.012  35.810  64.006  1.00  0.00     0.004 C 
BRANCH   9  10
ATOM     10  C   UNL     1      -3.144  36.442  65.115  1.00  0.00     0.000 C 
BRANCH  10  11
ATOM     11  C   UNL     1      -1.864  35.662  65.460  1.00  0.00    -0.003 C 
ATOM     12  C   UNL     1      -0.601  36.295  64.874  1.00  0.00     0.004 C 
ENDBRANCH  10  11
ENDBRANCH   9  10
ENDBRANCH   8   9
ENDBRANCH   7   8
ENDBRANCH   5   6
ENDBRANCH   4   5
ENDBRANCH   2   3
ENDBRANCH   1   2
BRANCH   1  13
ATOM     13  C   UNL     1       1.888  32.969  67.867  1.00  0.00     0.000 C 
BRANCH  13  14
ATOM     14  C   UNL     1       3.180  32.545  67.152  1.00  0.00     0.000 C 
BRANCH  14  15
ATOM     15  C   UNL     1       4.381  32.438  68.109  1.00  0.00     0.000 C 
BRANCH  15  16
ATOM     16  C   UNL     1       3.958  31.993  69.525  1.00  0.00     0.003 C 
BRANCH  16  17
ATOM     17  C   UNL     1       4.430  30.575  69.893  1.00  0.00     0.042 C 
BRANCH  17  18
ATOM     18  C   UNL     1       3.349  29.745  70.586  1.00  0.00     0.233 C 
BRANCH  18  19
ATOM     19  O   UNL     1       2.684  28.935  69.623  1.00  0.00    -0.466 OA
BRANCH  19  20
ATOM     20  C   UNL     1       1.599  29.395  68.871  1.00  0.00     0.302 C 
ATOM     21  O   UNL     1       0.613  29.946  69.434  1.00  0.00    -0.253 OA
ATOM     22  C   UNL     1       1.588  29.197  67.395  1.00  0.00     0.139 C 
ENDBRANCH  19  20
ENDBRANCH  18  19
ENDBRANCH  17  18
ENDBRANCH  16  17
ENDBRANCH  15  16
ENDBRANCH  14  15
ENDBRANCH  13  14
ENDBRANCH   1  13
TORSDOF 16
ENDMDL
MODEL 5
REMARK VINA RESULT:    -5.327      2.910      5.484
REMARK INTER + INTRA:         -13.168
REMARK INTER:                 -10.445
REMARK INTRA:                  -2.723
REMARK UNBOUND:                -2.858
REMARK SMILES CCCCCC=CCC=CCCCCCCCCOC(C)=O
REMARK SMILES IDX 12 1 11 2 10 3 9 4 8 5 7 6 6 7 5 8 4 9 3 10 2 11 1 12 13 13
REMARK SMILES IDX 14 14 15 15 16 16 17 17 18 18 19 19 20 20 22 21 21 22
REMARK H PARENT
REMARK Flexibility Score: inf
ROOT
ATOM      1  C   UNL     1      -0.038  33.381  66.960  1.00  0.00     0.004 C 
ENDROOT
BRANCH   1   2
ATOM      2  C   UNL     1       1.073  33.677  65.942  1.00  0.00     0.027 C 
BRANCH   2   3
ATOM      3  C   UNL     1       0.801  33.041  64.599  1.00  0.00    -0.031 C 
ATOM      4  C   UNL     1       0.860  33.690  63.423  1.00  0.00    -0.027 C 
BRANCH   4   5
ATOM      5  C   UNL     1       1.247  35.142  63.285  1.00  0.00     0.054 C 
BRANCH   5   6
ATOM      6  C   UNL     1       0.152  35.933  62.616  1.00  0.00    -0.027 C 
ATOM      7  C   UNL     1      -0.854  36.543  63.269  1.00  0.00    -0.031 C 
BRANCH   7   8
ATOM      8  C   UNL     1      -1.077  36.467  64.761  1.00  0.00     0.027 C 
BRANCH   8   9
ATOM      9  C   UNL     1      -2.479  35.941  65.114  1.00  0.00     0.004 C 
BRANCH   9  10
ATOM     10  C   UNL     1      -2.692  34.441  64.822  1.00  0.00     0.000 C 
BRANCH  10  11
ATOM     11  C   UNL     1      -3.649  34.135  63.658  1.00  0.00    -0.003 C 
ATOM     12  C   UNL     1      -2.930  33.612  62.414  1.00  0.00     0.004 C 
ENDBRANCH  10  11
ENDBRANCH   9  10
ENDBRANCH   8   9
ENDBRANCH   7   8
ENDBRANCH   5   6
ENDBRANCH   4   5
ENDBRANCH   2   3
ENDBRANCH   1   2
BRANCH   1  13
ATOM     13  C   UNL     1       0.488  32.600  68.177  1.00  0.00     0.000 C 
BRANCH  13  14
ATOM     14  C   UNL     1      -0.215  31.245  68.356  1.00  0.00     0.000 C 
BRANCH  14  15
ATOM     15  C   UNL     1       0.748  30.131  68.806  1.00  0.00     0.000 C 
BRANCH  15  16
ATOM     16  C   UNL     1       1.490  29.487  67.616  1.00  0.00     0.003 C 
BRANCH  16  17
ATOM     17  C   UNL     1       2.969  29.177  67.905  1.00  0.00     0.042 C 
BRANCH  17  18
ATOM     18  C   UNL     1       3.926  30.208  67.307  1.00  0.00     0.233 C 
BRANCH  18  19
ATOM     19  O   UNL     1       4.604  30.888  68.357  1.00  0.00    -0.466 OA
BRANCH  19  20
ATOM     20  C   UNL     1       4.022  31.934  69.078  1.00  0.00     0.302 C 
ATOM     21  O   UNL     1       3.515  31.729  70.215  1.00  0.00    -0.253 OA
ATOM     22  C   UNL     1       3.964  33.298  68.480  1.00  0.00     0.139 C 
ENDBRANCH  19  20
ENDBRANCH  18  19
ENDBRANCH  17  18
ENDBRANCH  16  17
ENDBRANCH  15  16
ENDBRANCH  14  15
ENDBRANCH  13  14
ENDBRANCH   1  13
TORSDOF 16
ENDMDL
MODEL 6
REMARK VINA RESULT:    -5.296      4.033      8.306
REMARK INTER + INTRA:         -13.107
REMARK INTER:                 -10.606
REMARK INTRA:                  -2.502
REMARK UNBOUND:                -2.858
REMARK SMILES CCCCCC=CCC=CCCCCCCCCOC(C)=O
REMARK SMILES IDX 12 1 11 2 10 3 9 4 8 5 7 6 6 7 5 8 4 9 3 10 2 11 1 12 13 13
REMARK SMILES IDX 14 14 15 15 16 16 17 17 18 18 19 19 20 20 22 21 21 22
REMARK H PARENT
REMARK Flexibility Score: inf
ROOT
ATOM      1  C   UNL     1       3.506  32.287  66.964  1.00  0.00     0.004 C 
ENDROOT
BRANCH   1   2
ATOM      2  C   UNL     1       3.729  30.778  67.143  1.00  0.00     0.027 C 
BRANCH   2   3
ATOM      3  C   UNL     1       2.439  29.996  67.073  1.00  0.00    -0.031 C 
ATOM      4  C   UNL     1       2.042  29.097  67.990  1.00  0.00    -0.027 C 
BRANCH   4   5
ATOM      5  C   UNL     1       2.822  28.775  69.241  1.00  0.00     0.054 C 
BRANCH   5   6
ATOM      6  C   UNL     1       2.569  29.802  70.315  1.00  0.00    -0.027 C 
ATOM      7  C   UNL     1       3.531  30.528  70.915  1.00  0.00    -0.031 C 
BRANCH   7   8
ATOM      8  C   UNL     1       5.009  30.373  70.655  1.00  0.00     0.027 C 
BRANCH   8   9
ATOM      9  C   UNL     1       5.795  30.040  71.934  1.00  0.00     0.004 C 
BRANCH   9  10
ATOM     10  C   UNL     1       6.393  28.618  71.965  1.00  0.00     0.000 C 
BRANCH  10  11
ATOM     11  C   UNL     1       5.389  27.486  71.691  1.00  0.00    -0.003 C 
ATOM     12  C   UNL     1       4.407  27.265  72.842  1.00  0.00     0.004 C 
ENDBRANCH  10  11
ENDBRANCH   9  10
ENDBRANCH   8   9
ENDBRANCH   7   8
ENDBRANCH   5   6
ENDBRANCH   4   5
ENDBRANCH   2   3
ENDBRANCH   1   2
BRANCH   1  13
ATOM     13  C   UNL     1       2.817  32.917  68.187  1.00  0.00     0.000 C 
BRANCH  13  14
ATOM     14  C   UNL     1       1.406  33.436  67.867  1.00  0.00     0.000 C 
BRANCH  14  15
ATOM     15  C   UNL     1       1.174  33.633  66.358  1.00  0.00     0.000 C 
BRANCH  15  16
ATOM     16  C   UNL     1       0.132  32.643  65.796  1.00  0.00     0.003 C 
BRANCH  16  17
ATOM     17  C   UNL     1      -0.484  33.089  64.458  1.00  0.00     0.042 C 
BRANCH  17  18
ATOM     18  C   UNL     1      -1.816  33.819  64.626  1.00  0.00     0.233 C 
BRANCH  18  19
ATOM     19  O   UNL     1      -1.574  35.211  64.801  1.00  0.00    -0.466 OA
BRANCH  19  20
ATOM     20  C   UNL     1      -0.837  35.969  63.888  1.00  0.00     0.302 C 
ATOM     21  O   UNL     1      -1.176  36.022  62.673  1.00  0.00    -0.253 OA
ATOM     22  C   UNL     1       0.384  36.691  64.344  1.00  0.00     0.139 C 
ENDBRANCH  19  20
ENDBRANCH  18  19
ENDBRANCH  17  18
ENDBRANCH  16  17
ENDBRANCH  15  16
ENDBRANCH  14  15
ENDBRANCH  13  14
ENDBRANCH   1  13
TORSDOF 16
ENDMDL
MODEL 7
REMARK VINA RESULT:    -5.295      2.586      5.580
REMARK INTER + INTRA:         -13.106
REMARK INTER:                 -10.266
REMARK INTRA:                  -2.840
REMARK UNBOUND:                -2.858
REMARK SMILES CCCCCC=CCC=CCCCCCCCCOC(C)=O
REMARK SMILES IDX 12 1 11 2 10 3 9 4 8 5 7 6 6 7 5 8 4 9 3 10 2 11 1 12 13 13
REMARK SMILES IDX 14 14 15 15 16 16 17 17 18 18 19 19 20 20 22 21 21 22
REMARK H PARENT
REMARK Flexibility Score: inf
ROOT
ATOM      1  C   UNL     1       0.227  32.991  66.649  1.00  0.00     0.004 C 
ENDROOT
BRANCH   1   2
ATOM      2  C   UNL     1      -0.512  33.824  65.590  1.00  0.00     0.027 C 
BRANCH   2   3
ATOM      3  C   UNL     1       0.231  35.091  65.240  1.00  0.00    -0.031 C 
ATOM      4  C   UNL     1       0.922  35.280  64.102  1.00  0.00    -0.027 C 
BRANCH   4   5
ATOM      5  C   UNL     1       1.012  34.255  62.998  1.00  0.00     0.054 C 
BRANCH   5   6
ATOM      6  C   UNL     1       0.244  34.702  61.781  1.00  0.00    -0.027 C 
ATOM      7  C   UNL     1      -0.978  34.249  61.443  1.00  0.00    -0.031 C 
BRANCH   7   8
ATOM      8  C   UNL     1      -1.730  33.175  62.192  1.00  0.00     0.027 C 
BRANCH   8   9
ATOM      9  C   UNL     1      -3.219  33.519  62.364  1.00  0.00     0.004 C 
BRANCH   9  10
ATOM     10  C   UNL     1      -3.566  34.202  63.704  1.00  0.00     0.000 C 
BRANCH  10  11
ATOM     11  C   UNL     1      -3.977  35.679  63.592  1.00  0.00    -0.003 C 
ATOM     12  C   UNL     1      -2.942  36.634  64.187  1.00  0.00     0.004 C 
ENDBRANCH  10  11
ENDBRANCH   9  10
ENDBRANCH   8   9
ENDBRANCH   7   8
ENDBRANCH   5   6
ENDBRANCH   4   5
ENDBRANCH   2   3
ENDBRANCH   1   2
BRANCH   1  13
ATOM     13  C   UNL     1       1.227  32.008  66.017  1.00  0.00     0.000 C 
BRANCH  13  14
ATOM     14  C   UNL     1       2.686  32.358  66.347  1.00  0.00     0.000 C 
BRANCH  14  15
ATOM     15  C   UNL     1       2.807  33.409  67.465  1.00  0.00     0.000 C 
BRANCH  15  16
ATOM     16  C   UNL     1       4.013  33.139  68.389  1.00  0.00     0.003 C 
BRANCH  16  17
ATOM     17  C   UNL     1       3.719  32.123  69.507  1.00  0.00     0.042 C 
BRANCH  17  18
ATOM     18  C   UNL     1       4.257  30.725  69.203  1.00  0.00     0.233 C 
BRANCH  18  19
ATOM     19  O   UNL     1       3.268  29.756  69.533  1.00  0.00    -0.466 OA
BRANCH  19  20
ATOM     20  C   UNL     1       2.111  29.570  68.771  1.00  0.00     0.302 C 
ATOM     21  O   UNL     1       2.158  28.959  67.667  1.00  0.00    -0.253 OA
ATOM     22  C   UNL     1       0.816  30.131  69.248  1.00  0.00     0.139 C 
ENDBRANCH  19  20
ENDBRANCH  18  19
ENDBRANCH  17  18
ENDBRANCH  16  17
ENDBRANCH  15  16
ENDBRANCH  14  15
ENDBRANCH  13  14
ENDBRANCH   1  13
TORSDOF 16
ENDMDL
MODEL 8
REMARK VINA RESULT:    -5.294      2.517      5.046
REMARK INTER + INTRA:         -13.103
REMARK INTER:                 -10.280
REMARK INTRA:                  -2.823
REMARK UNBOUND:                -2.858
REMARK SMILES CCCCCC=CCC=CCCCCCCCCOC(C)=O
REMARK SMILES IDX 12 1 11 2 10 3 9 4 8 5 7 6 6 7 5 8 4 9 3 10 2 11 1 12 13 13
REMARK SMILES IDX 14 14 15 15 16 16 17 17 18 18 19 19 20 20 22 21 21 22
REMARK H PARENT
REMARK Flexibility Score: inf
ROOT
ATOM      1  C   UNL     1       2.305  32.830  66.054  1.00  0.00     0.004 C 
ENDROOT
BRANCH   1   2
ATOM      2  C   UNL     1       0.993  33.223  65.359  1.00  0.00     0.027 C 
BRANCH   2   3
ATOM      3  C   UNL     1       1.093  34.560  64.665  1.00  0.00    -0.031 C 
ATOM      4  C   UNL     1       0.163  35.528  64.738  1.00  0.00    -0.027 C 
BRANCH   4   5
ATOM      5  C   UNL     1      -1.097  35.419  65.561  1.00  0.00     0.054 C 
BRANCH   5   6
ATOM      6  C   UNL     1      -2.311  35.777  64.744  1.00  0.00    -0.027 C 
ATOM      7  C   UNL     1      -3.015  34.901  64.002  1.00  0.00    -0.031 C 
BRANCH   7   8
ATOM      8  C   UNL     1      -2.653  33.446  63.823  1.00  0.00     0.027 C 
BRANCH   8   9
ATOM      9  C   UNL     1      -1.833  33.204  62.544  1.00  0.00     0.004 C 
BRANCH   9  10
ATOM     10  C   UNL     1      -1.984  34.302  61.470  1.00  0.00     0.000 C 
BRANCH  10  11
ATOM     11  C   UNL     1      -0.664  34.931  60.995  1.00  0.00    -0.003 C 
ATOM     12  C   UNL     1       0.508  33.950  61.017  1.00  0.00     0.004 C 
ENDBRANCH  10  11
ENDBRANCH   9  10
ENDBRANCH   8   9
ENDBRANCH   7   8
ENDBRANCH   5   6
ENDBRANCH   4   5
ENDBRANCH   2   3
ENDBRANCH   1   2
BRANCH   1  13
ATOM     13  C   UNL     1       2.648  33.775  67.219  1.00  0.00     0.000 C 
BRANCH  13  14
ATOM     14  C   UNL     1       3.346  33.051  68.381  1.00  0.00     0.000 C 
BRANCH  14  15
ATOM     15  C   UNL     1       4.308  31.949  67.902  1.00  0.00     0.000 C 
BRANCH  15  16
ATOM     16  C   UNL     1       4.565  30.888  68.993  1.00  0.00     0.003 C 
BRANCH  16  17
ATOM     17  C   UNL     1       3.472  30.837  70.075  1.00  0.00     0.042 C 
BRANCH  17  18
ATOM     18  C   UNL     1       2.646  29.552  70.031  1.00  0.00     0.233 C 
BRANCH  18  19
ATOM     19  O   UNL     1       1.285  29.873  69.763  1.00  0.00    -0.466 OA
BRANCH  19  20
ATOM     20  C   UNL     1       0.841  30.277  68.501  1.00  0.00     0.302 C 
ATOM     21  O   UNL     1       1.320  29.761  67.453  1.00  0.00    -0.253 OA
ATOM     22  C   UNL     1      -0.181  31.356  68.390  1.00  0.00     0.139 C 
ENDBRANCH  19  20
ENDBRANCH  18  19
ENDBRANCH  17  18
ENDBRANCH  16  17
ENDBRANCH  15  16
ENDBRANCH  14  15
ENDBRANCH  13  14
ENDBRANCH   1  13
TORSDOF 16
ENDMDL
MODEL 9
REMARK VINA RESULT:    -5.268      2.953      5.918
REMARK INTER + INTRA:         -13.054
REMARK INTER:                 -10.293
REMARK INTRA:                  -2.761
REMARK UNBOUND:                -2.858
REMARK SMILES CCCCCC=CCC=CCCCCCCCCOC(C)=O
REMARK SMILES IDX 12 1 11 2 10 3 9 4 8 5 7 6 6 7 5 8 4 9 3 10 2 11 1 12 13 13
REMARK SMILES IDX 14 14 15 15 16 16 17 17 18 18 19 19 20 20 22 21 21 22
REMARK H PARENT
REMARK Flexibility Score: inf
ROOT
ATOM      1  C   UNL     1       0.296  32.758  64.292  1.00  0.00     0.004 C 
ENDROOT
BRANCH   1   2
ATOM      2  C   UNL     1       0.935  33.705  63.263  1.00  0.00     0.027 C 
BRANCH   2   3
ATOM      3  C   UNL     1       1.557  34.917  63.913  1.00  0.00    -0.031 C 
ATOM      4  C   UNL     1       0.888  36.039  64.232  1.00  0.00    -0.027 C 
BRANCH   4   5
ATOM      5  C   UNL     1      -0.594  36.220  64.017  1.00  0.00     0.054 C 
BRANCH   5   6
ATOM      6  C   UNL     1      -1.365  35.922  65.277  1.00  0.00    -0.027 C 
ATOM      7  C   UNL     1      -2.706  35.962  65.377  1.00  0.00    -0.031 C 
BRANCH   7   8
ATOM      8  C   UNL     1      -3.636  36.381  64.263  1.00  0.00     0.027 C 
BRANCH   8   9
ATOM      9  C   UNL     1      -4.530  35.224  63.785  1.00  0.00     0.004 C 
BRANCH   9  10
ATOM     10  C   UNL     1      -4.400  34.895  62.283  1.00  0.00     0.000 C 
BRANCH  10  11
ATOM     11  C   UNL     1      -2.967  34.616  61.801  1.00  0.00    -0.003 C 
ATOM     12  C   UNL     1      -2.497  33.195  62.114  1.00  0.00     0.004 C 
ENDBRANCH  10  11
ENDBRANCH   9  10
ENDBRANCH   8   9
ENDBRANCH   7   8
ENDBRANCH   5   6
ENDBRANCH   4   5
ENDBRANCH   2   3
ENDBRANCH   1   2
BRANCH   1  13
ATOM     13  C   UNL     1       1.278  32.377  65.413  1.00  0.00     0.000 C 
BRANCH  13  14
ATOM     14  C   UNL     1       0.636  32.445  66.807  1.00  0.00     0.000 C 
BRANCH  14  15
ATOM     15  C   UNL     1       1.285  33.510  67.710  1.00  0.00     0.000 C 
BRANCH  15  16
ATOM     16  C   UNL     1       2.749  33.794  67.314  1.00  0.00     0.003 C 
BRANCH  16  17
ATOM     17  C   UNL     1       3.781  33.137  68.248  1.00  0.00     0.042 C 
BRANCH  17  18
ATOM     18  C   UNL     1       4.422  31.886  67.648  1.00  0.00     0.233 C 
BRANCH  18  19
ATOM     19  O   UNL     1       3.569  30.767  67.864  1.00  0.00    -0.466 OA
BRANCH  19  20
ATOM     20  C   UNL     1       3.234  30.310  69.141  1.00  0.00     0.302 C 
ATOM     21  O   UNL     1       4.133  30.018  69.977  1.00  0.00    -0.253 OA
ATOM     22  C   UNL     1       1.801  30.129  69.507  1.00  0.00     0.139 C 
ENDBRANCH  19  20
ENDBRANCH  18  19
ENDBRANCH  17  18
ENDBRANCH  16  17
ENDBRANCH  15  16
ENDBRANCH  14  15
ENDBRANCH  13  14
ENDBRANCH   1  13
TORSDOF 16
ENDMDL
