MODEL 1
REMARK VINA RESULT:    -4.145      0.000      0.000
REMARK INTER + INTRA:         -12.674
REMARK INTER:                  -8.991
REMARK INTRA:                  -3.683
REMARK UNBOUND:                -3.683
REMARK SMILES CCCCCCCCCCCCCCCCCCCCCC(=O)[O-]
REMARK SMILES IDX 12 1 11 2 10 3 9 4 8 5 7 6 6 7 5 8 4 9 3 10 2 11 1 12 13 13
REMARK SMILES IDX 14 14 15 15 16 16 17 17 18 18 19 19 20 20 21 21 22 22 23 23
REMARK SMILES IDX 24 24
REMARK H PARENT
REMARK Flexibility Score: inf
ROOT
ATOM      1  C   UNL     1     -22.073  10.395  16.761  1.00  0.00     0.000 C 
ENDROOT
BRANCH   1   2
ATOM      2  C   UNL     1     -21.524  10.230  18.189  1.00  0.00     0.000 C 
BRANCH   2   3
ATOM      3  C   UNL     1     -20.008  10.472  18.271  1.00  0.00     0.000 C 
BRANCH   3   4
ATOM      4  C   UNL     1     -19.649  11.741  19.058  1.00  0.00    -0.000 C 
BRANCH   4   5
ATOM      5  C   UNL     1     -18.855  12.723  18.185  1.00  0.00    -0.000 C 
BRANCH   5   6
ATOM      6  C   UNL     1     -19.756  13.622  17.320  1.00  0.00    -0.000 C 
BRANCH   6   7
ATOM      7  C   UNL     1     -19.474  13.566  15.804  1.00  0.00    -0.000 C 
BRANCH   7   8
ATOM      8  C   UNL     1     -18.020  13.237  15.420  1.00  0.00    -0.000 C 
BRANCH   8   9
ATOM      9  C   UNL     1     -17.912  12.054  14.447  1.00  0.00    -0.000 C 
BRANCH   9  10
ATOM     10  C   UNL     1     -18.831  10.901  14.882  1.00  0.00    -0.000 C 
BRANCH  10  11
ATOM     11  C   UNL     1     -19.636  10.316  13.711  1.00  0.00    -0.003 C 
ATOM     12  C   UNL     1     -20.405  11.383  12.928  1.00  0.00     0.004 C 
ENDBRANCH  10  11
ENDBRANCH   9  10
ENDBRANCH   8   9
ENDBRANCH   7   8
ENDBRANCH   6   7
ENDBRANCH   5   6
ENDBRANCH   4   5
ENDBRANCH   3   4
ENDBRANCH   2   3
ENDBRANCH   1   2
BRANCH   1  13
ATOM     13  C   UNL     1     -22.916  11.670  16.599  1.00  0.00     0.000 C 
BRANCH  13  14
ATOM     14  C   UNL     1     -23.538  12.142  17.923  1.00  0.00     0.000 C 
BRANCH  14  15
ATOM     15  C   UNL     1     -24.192  13.519  17.759  1.00  0.00     0.000 C 
BRANCH  15  16
ATOM     16  C   UNL     1     -23.300  14.463  16.937  1.00  0.00     0.000 C 
BRANCH  16  17
ATOM     17  C   UNL     1     -23.082  15.819  17.640  1.00  0.00     0.000 C 
BRANCH  17  18
ATOM     18  C   UNL     1     -22.016  16.700  16.964  1.00  0.00     0.000 C 
BRANCH  18  19
ATOM     19  C   UNL     1     -20.835  17.024  17.888  1.00  0.00     0.000 C 
BRANCH  19  20
ATOM     20  C   UNL     1     -19.614  17.490  17.078  1.00  0.00     0.006 C 
BRANCH  20  21
ATOM     21  C   UNL     1     -19.892  17.509  15.570  1.00  0.00     0.053 C 
BRANCH  21  22
ATOM     22  C   UNL     1     -18.632  17.360  14.773  1.00  0.00     0.041 C 
ATOM     23  O   UNL     1     -18.483  16.376  13.999  1.00  0.00    -0.550 OA
ATOM     24  O   UNL     1     -17.607  18.287  14.916  1.00  0.00    -0.550 OA
ENDBRANCH  21  22
ENDBRANCH  20  21
ENDBRANCH  19  20
ENDBRANCH  18  19
ENDBRANCH  17  18
ENDBRANCH  16  17
ENDBRANCH  15  16
ENDBRANCH  14  15
ENDBRANCH  13  14
ENDBRANCH   1  13
TORSDOF 20
ENDMDL
MODEL 2
REMARK VINA RESULT:    -4.061      1.351      4.021
REMARK INTER + INTRA:         -12.491
REMARK INTER:                  -9.095
REMARK INTRA:                  -3.395
REMARK UNBOUND:                -3.683
REMARK SMILES CCCCCCCCCCCCCCCCCCCCCC(=O)[O-]
REMARK SMILES IDX 12 1 11 2 10 3 9 4 8 5 7 6 6 7 5 8 4 9 3 10 2 11 1 12 13 13
REMARK SMILES IDX 14 14 15 15 16 16 17 17 18 18 19 19 20 20 21 21 22 22 23 23
REMARK SMILES IDX 24 24
REMARK H PARENT
REMARK Flexibility Score: inf
ROOT
ATOM      1  C   UNL     1     -19.566  10.651  13.256  1.00  0.00     0.000 C 
ENDROOT
BRANCH   1   2
ATOM      2  C   UNL     1     -20.336   9.762  14.250  1.00  0.00     0.000 C 
BRANCH   2   3
ATOM      3  C   UNL     1     -19.613   9.622  15.599  1.00  0.00     0.000 C 
BRANCH   3   4
ATOM      4  C   UNL     1     -20.078   8.396  16.400  1.00  0.00    -0.000 C 
BRANCH   4   5
ATOM      5  C   UNL     1     -20.215   8.735  17.891  1.00  0.00    -0.000 C 
BRANCH   5   6
ATOM      6  C   UNL     1     -19.736  10.158  18.230  1.00  0.00    -0.000 C 
BRANCH   6   7
ATOM      7  C   UNL     1     -20.839  11.119  18.720  1.00  0.00    -0.000 C 
BRANCH   7   8
ATOM      8  C   UNL     1     -22.267  10.547  18.691  1.00  0.00    -0.000 C 
BRANCH   8   9
ATOM      9  C   UNL     1     -23.190  11.294  17.717  1.00  0.00    -0.000 C 
BRANCH   9  10
ATOM     10  C   UNL     1     -22.408  12.350  16.921  1.00  0.00    -0.000 C 
BRANCH  10  11
ATOM     11  C   UNL     1     -22.593  12.200  15.403  1.00  0.00    -0.003 C 
ATOM     12  C   UNL     1     -24.065  12.192  14.983  1.00  0.00     0.004 C 
ENDBRANCH  10  11
ENDBRANCH   9  10
ENDBRANCH   8   9
ENDBRANCH   7   8
ENDBRANCH   6   7
ENDBRANCH   5   6
ENDBRANCH   4   5
ENDBRANCH   3   4
ENDBRANCH   2   3
ENDBRANCH   1   2
BRANCH   1  13
ATOM     13  C   UNL     1     -18.598  11.616  13.958  1.00  0.00     0.000 C 
BRANCH  13  14
ATOM     14  C   UNL     1     -19.103  13.068  13.956  1.00  0.00     0.000 C 
BRANCH  14  15
ATOM     15  C   UNL     1     -18.433  13.880  15.071  1.00  0.00     0.000 C 
BRANCH  15  16
ATOM     16  C   UNL     1     -18.652  13.224  16.443  1.00  0.00     0.000 C 
BRANCH  16  17
ATOM     17  C   UNL     1     -19.385  14.159  17.428  1.00  0.00     0.000 C 
BRANCH  17  18
ATOM     18  C   UNL     1     -20.250  15.227  16.737  1.00  0.00     0.000 C 
BRANCH  18  19
ATOM     19  C   UNL     1     -20.176  16.596  17.425  1.00  0.00     0.000 C 
BRANCH  19  20
ATOM     20  C   UNL     1     -19.607  17.661  16.475  1.00  0.00     0.006 C 
BRANCH  20  21
ATOM     21  C   UNL     1     -19.670  17.221  15.007  1.00  0.00     0.053 C 
BRANCH  21  22
ATOM     22  C   UNL     1     -18.434  17.614  14.257  1.00  0.00     0.041 C 
ATOM     23  O   UNL     1     -18.245  17.198  13.082  1.00  0.00    -0.550 OA
ATOM     24  O   UNL     1     -17.471  18.405  14.872  1.00  0.00    -0.550 OA
ENDBRANCH  21  22
ENDBRANCH  20  21
ENDBRANCH  19  20
ENDBRANCH  18  19
ENDBRANCH  17  18
ENDBRANCH  16  17
ENDBRANCH  15  16
ENDBRANCH  14  15
ENDBRANCH  13  14
ENDBRANCH   1  13
TORSDOF 20
ENDMDL
MODEL 3
REMARK VINA RESULT:    -4.028      5.824      8.886
REMARK INTER + INTRA:         -12.420
REMARK INTER:                 -10.653
REMARK INTRA:                  -1.767
REMARK UNBOUND:                -3.683
REMARK SMILES CCCCCCCCCCCCCCCCCCCCCC(=O)[O-]
REMARK SMILES IDX 12 1 11 2 10 3 9 4 8 5 7 6 6 7 5 8 4 9 3 10 2 11 1 12 13 13
REMARK SMILES IDX 14 14 15 15 16 16 17 17 18 18 19 19 20 20 21 21 22 22 23 23
REMARK SMILES IDX 24 24
REMARK H PARENT
REMARK Flexibility Score: inf
ROOT
ATOM      1  C   UNL     1     -18.861   8.712  18.006  1.00  0.00     0.000 C 
ENDROOT
BRANCH   1   2
ATOM      2  C   UNL     1     -20.123   9.593  17.986  1.00  0.00     0.000 C 
BRANCH   2   3
ATOM      3  C   UNL     1     -19.895  10.967  18.639  1.00  0.00     0.000 C 
BRANCH   3   4
ATOM      4  C   UNL     1     -20.177  12.135  17.683  1.00  0.00    -0.000 C 
BRANCH   4   5
ATOM      5  C   UNL     1     -18.937  13.025  17.525  1.00  0.00    -0.000 C 
BRANCH   5   6
ATOM      6  C   UNL     1     -19.102  14.099  16.434  1.00  0.00    -0.000 C 
BRANCH   6   7
ATOM      7  C   UNL     1     -18.336  13.823  15.124  1.00  0.00    -0.000 C 
BRANCH   7   8
ATOM      8  C   UNL     1     -19.021  12.838  14.160  1.00  0.00    -0.000 C 
BRANCH   8   9
ATOM      9  C   UNL     1     -18.190  11.571  13.910  1.00  0.00    -0.000 C 
BRANCH   9  10
ATOM     10  C   UNL     1     -18.700  10.403  14.768  1.00  0.00    -0.000 C 
BRANCH  10  11
ATOM     11  C   UNL     1     -19.823   9.612  14.080  1.00  0.00    -0.003 C 
ATOM     12  C   UNL     1     -19.826   9.786  12.559  1.00  0.00     0.004 C 
ENDBRANCH  10  11
ENDBRANCH   9  10
ENDBRANCH   8   9
ENDBRANCH   7   8
ENDBRANCH   6   7
ENDBRANCH   5   6
ENDBRANCH   4   5
ENDBRANCH   3   4
ENDBRANCH   2   3
ENDBRANCH   1   2
BRANCH   1  13
ATOM     13  C   UNL     1     -19.168   7.254  18.385  1.00  0.00     0.000 C 
BRANCH  13  14
ATOM     14  C   UNL     1     -18.584   6.862  19.752  1.00  0.00     0.000 C 
BRANCH  14  15
ATOM     15  C   UNL     1     -19.068   5.470  20.173  1.00  0.00     0.000 C 
BRANCH  15  16
ATOM     16  C   UNL     1     -17.939   4.433  20.065  1.00  0.00     0.000 C 
BRANCH  16  17
ATOM     17  C   UNL     1     -16.542   5.090  20.062  1.00  0.00     0.000 C 
BRANCH  17  18
ATOM     18  C   UNL     1     -15.384   4.076  20.040  1.00  0.00     0.000 C 
BRANCH  18  19
ATOM     19  C   UNL     1     -15.135   3.481  18.648  1.00  0.00     0.000 C 
BRANCH  19  20
ATOM     20  C   UNL     1     -15.034   4.587  17.585  1.00  0.00     0.006 C 
BRANCH  20  21
ATOM     21  C   UNL     1     -14.824   4.018  16.176  1.00  0.00     0.053 C 
BRANCH  21  22
ATOM     22  C   UNL     1     -13.680   4.684  15.475  1.00  0.00     0.041 C 
ATOM     23  O   UNL     1     -13.891   5.430  14.481  1.00  0.00    -0.550 OA
ATOM     24  O   UNL     1     -12.376   4.445  15.893  1.00  0.00    -0.550 OA
ENDBRANCH  21  22
ENDBRANCH  20  21
ENDBRANCH  19  20
ENDBRANCH  18  19
ENDBRANCH  17  18
ENDBRANCH  16  17
ENDBRANCH  15  16
ENDBRANCH  14  15
ENDBRANCH  13  14
ENDBRANCH   1  13
TORSDOF 20
ENDMDL
MODEL 4
REMARK VINA RESULT:    -4.010      1.259      2.482
REMARK INTER + INTRA:         -12.381
REMARK INTER:                  -8.792
REMARK INTRA:                  -3.589
REMARK UNBOUND:                -3.683
REMARK SMILES CCCCCCCCCCCCCCCCCCCCCC(=O)[O-]
REMARK SMILES IDX 12 1 11 2 10 3 9 4 8 5 7 6 6 7 5 8 4 9 3 10 2 11 1 12 13 13
REMARK SMILES IDX 14 14 15 15 16 16 17 17 18 18 19 19 20 20 21 21 22 22 23 23
REMARK SMILES IDX 24 24
REMARK H PARENT
REMARK Flexibility Score: inf
ROOT
ATOM      1  C   UNL     1     -23.223  12.044  15.997  1.00  0.00     0.000 C 
ENDROOT
BRANCH   1   2
ATOM      2  C   UNL     1     -22.040  12.277  15.040  1.00  0.00     0.000 C 
BRANCH   2   3
ATOM      3  C   UNL     1     -21.069  13.354  15.552  1.00  0.00     0.000 C 
BRANCH   3   4
ATOM      4  C   UNL     1     -19.613  13.085  15.146  1.00  0.00    -0.000 C 
BRANCH   4   5
ATOM      5  C   UNL     1     -18.652  13.412  16.297  1.00  0.00    -0.000 C 
BRANCH   5   6
ATOM      6  C   UNL     1     -19.357  13.494  17.663  1.00  0.00    -0.000 C 
BRANCH   6   7
ATOM      7  C   UNL     1     -19.163  12.264  18.574  1.00  0.00    -0.000 C 
BRANCH   7   8
ATOM      8  C   UNL     1     -20.090  11.073  18.273  1.00  0.00    -0.000 C 
BRANCH   8   9
ATOM      9  C   UNL     1     -19.321   9.796  17.905  1.00  0.00    -0.000 C 
BRANCH   9  10
ATOM     10  C   UNL     1     -19.124   9.695  16.384  1.00  0.00    -0.000 C 
BRANCH  10  11
ATOM     11  C   UNL     1     -20.253   8.913  15.695  1.00  0.00    -0.003 C 
ATOM     12  C   UNL     1     -20.334   9.189  14.191  1.00  0.00     0.004 C 
ENDBRANCH  10  11
ENDBRANCH   9  10
ENDBRANCH   8   9
ENDBRANCH   7   8
ENDBRANCH   6   7
ENDBRANCH   5   6
ENDBRANCH   4   5
ENDBRANCH   3   4
ENDBRANCH   2   3
ENDBRANCH   1   2
BRANCH   1  13
ATOM     13  C   UNL     1     -23.121  12.891  17.276  1.00  0.00     0.000 C 
BRANCH  13  14
ATOM     14  C   UNL     1     -24.418  13.653  17.588  1.00  0.00     0.000 C 
BRANCH  14  15
ATOM     15  C   UNL     1     -24.333  15.101  17.093  1.00  0.00     0.000 C 
BRANCH  15  16
ATOM     16  C   UNL     1     -23.262  15.889  17.862  1.00  0.00     0.000 C 
BRANCH  16  17
ATOM     17  C   UNL     1     -22.111  16.357  16.947  1.00  0.00     0.000 C 
BRANCH  17  18
ATOM     18  C   UNL     1     -20.904  16.925  17.714  1.00  0.00     0.000 C 
BRANCH  18  19
ATOM     19  C   UNL     1     -19.685  17.171  16.816  1.00  0.00     0.000 C 
BRANCH  19  20
ATOM     20  C   UNL     1     -20.078  17.961  15.558  1.00  0.00     0.006 C 
BRANCH  20  21
ATOM     21  C   UNL     1     -19.553  17.304  14.274  1.00  0.00     0.053 C 
BRANCH  21  22
ATOM     22  C   UNL     1     -18.383  18.048  13.709  1.00  0.00     0.041 C 
ATOM     23  O   UNL     1     -18.011  17.841  12.523  1.00  0.00    -0.550 OA
ATOM     24  O   UNL     1     -17.676  18.939  14.508  1.00  0.00    -0.550 OA
ENDBRANCH  21  22
ENDBRANCH  20  21
ENDBRANCH  19  20
ENDBRANCH  18  19
ENDBRANCH  17  18
ENDBRANCH  16  17
ENDBRANCH  15  16
ENDBRANCH  14  15
ENDBRANCH  13  14
ENDBRANCH   1  13
TORSDOF 20
ENDMDL
MODEL 5
REMARK VINA RESULT:    -3.974      5.409      8.768
REMARK INTER + INTRA:         -12.304
REMARK INTER:                  -9.733
REMARK INTRA:                  -2.571
REMARK UNBOUND:                -3.683
REMARK SMILES CCCCCCCCCCCCCCCCCCCCCC(=O)[O-]
REMARK SMILES IDX 12 1 11 2 10 3 9 4 8 5 7 6 6 7 5 8 4 9 3 10 2 11 1 12 13 13
REMARK SMILES IDX 14 14 15 15 16 16 17 17 18 18 19 19 20 20 21 21 22 22 23 23
REMARK SMILES IDX 24 24
REMARK H PARENT
REMARK Flexibility Score: inf
ROOT
ATOM      1  C   UNL     1     -21.021   7.630  15.724  1.00  0.00     0.000 C 
ENDROOT
BRANCH   1   2
ATOM      2  C   UNL     1     -21.970   8.618  15.021  1.00  0.00     0.000 C 
BRANCH   2   3
ATOM      3  C   UNL     1     -21.301   9.969  14.723  1.00  0.00     0.000 C 
BRANCH   3   4
ATOM      4  C   UNL     1     -19.863   9.821  14.201  1.00  0.00    -0.000 C 
BRANCH   4   5
ATOM      5  C   UNL     1     -18.855  10.408  15.198  1.00  0.00    -0.000 C 
BRANCH   5   6
ATOM      6  C   UNL     1     -18.239  11.734  14.718  1.00  0.00    -0.000 C 
BRANCH   6   7
ATOM      7  C   UNL     1     -18.315  12.895  15.732  1.00  0.00    -0.000 C 
BRANCH   7   8
ATOM      8  C   UNL     1     -19.556  12.890  16.642  1.00  0.00    -0.000 C 
BRANCH   8   9
ATOM      9  C   UNL     1     -19.226  12.535  18.099  1.00  0.00    -0.000 C 
BRANCH   9  10
ATOM     10  C   UNL     1     -20.060  11.335  18.573  1.00  0.00    -0.000 C 
BRANCH  10  11
ATOM     11  C   UNL     1     -21.499  11.369  18.036  1.00  0.00    -0.003 C 
ATOM     12  C   UNL     1     -22.498  10.682  18.971  1.00  0.00     0.004 C 
ENDBRANCH  10  11
ENDBRANCH   9  10
ENDBRANCH   8   9
ENDBRANCH   7   8
ENDBRANCH   6   7
ENDBRANCH   5   6
ENDBRANCH   4   5
ENDBRANCH   3   4
ENDBRANCH   2   3
ENDBRANCH   1   2
BRANCH   1  13
ATOM     13  C   UNL     1     -20.951   7.861  17.242  1.00  0.00     0.000 C 
BRANCH  13  14
ATOM     14  C   UNL     1     -19.974   6.904  17.943  1.00  0.00     0.000 C 
BRANCH  14  15
ATOM     15  C   UNL     1     -18.746   7.662  18.461  1.00  0.00     0.000 C 
BRANCH  15  16
ATOM     16  C   UNL     1     -17.973   6.825  19.494  1.00  0.00     0.000 C 
BRANCH  16  17
ATOM     17  C   UNL     1     -18.626   5.448  19.737  1.00  0.00     0.000 C 
BRANCH  17  18
ATOM     18  C   UNL     1     -17.616   4.290  19.805  1.00  0.00     0.000 C 
BRANCH  18  19
ATOM     19  C   UNL     1     -16.263   4.710  20.393  1.00  0.00     0.000 C 
BRANCH  19  20
ATOM     20  C   UNL     1     -15.101   4.089  19.601  1.00  0.00     0.006 C 
BRANCH  20  21
ATOM     21  C   UNL     1     -15.439   3.918  18.114  1.00  0.00     0.053 C 
BRANCH  21  22
ATOM     22  C   UNL     1     -14.583   4.790  17.248  1.00  0.00     0.041 C 
ATOM     23  O   UNL     1     -15.006   5.914  16.863  1.00  0.00    -0.550 OA
ATOM     24  O   UNL     1     -13.336   4.343  16.830  1.00  0.00    -0.550 OA
ENDBRANCH  21  22
ENDBRANCH  20  21
ENDBRANCH  19  20
ENDBRANCH  18  19
ENDBRANCH  17  18
ENDBRANCH  16  17
ENDBRANCH  15  16
ENDBRANCH  14  15
ENDBRANCH  13  14
ENDBRANCH   1  13
TORSDOF 20
ENDMDL
MODEL 6
REMARK VINA RESULT:    -3.964      3.392      6.420
REMARK INTER + INTRA:         -12.282
REMARK INTER:                  -9.460
REMARK INTRA:                  -2.822
REMARK UNBOUND:                -3.683
REMARK SMILES CCCCCCCCCCCCCCCCCCCCCC(=O)[O-]
REMARK SMILES IDX 12 1 11 2 10 3 9 4 8 5 7 6 6 7 5 8 4 9 3 10 2 11 1 12 13 13
REMARK SMILES IDX 14 14 15 15 16 16 17 17 18 18 19 19 20 20 21 21 22 22 23 23
REMARK SMILES IDX 24 24
REMARK H PARENT
REMARK Flexibility Score: inf
ROOT
ATOM      1  C   UNL     1     -21.588  12.285  16.537  1.00  0.00     0.000 C 
ENDROOT
BRANCH   1   2
ATOM      2  C   UNL     1     -22.559  11.853  17.651  1.00  0.00     0.000 C 
BRANCH   2   3
ATOM      3  C   UNL     1     -21.899  10.924  18.683  1.00  0.00     0.000 C 
BRANCH   3   4
ATOM      4  C   UNL     1     -20.678  10.181  18.121  1.00  0.00    -0.000 C 
BRANCH   4   5
ATOM      5  C   UNL     1     -21.086   8.824  17.532  1.00  0.00    -0.000 C 
BRANCH   5   6
ATOM      6  C   UNL     1     -20.069   7.708  17.832  1.00  0.00    -0.000 C 
BRANCH   6   7
ATOM      7  C   UNL     1     -18.699   8.194  18.349  1.00  0.00    -0.000 C 
BRANCH   7   8
ATOM      8  C   UNL     1     -17.828   7.112  19.011  1.00  0.00    -0.000 C 
BRANCH   8   9
ATOM      9  C   UNL     1     -18.650   6.083  19.801  1.00  0.00    -0.000 C 
BRANCH   9  10
ATOM     10  C   UNL     1     -17.792   4.864  20.173  1.00  0.00    -0.000 C 
BRANCH  10  11
ATOM     11  C   UNL     1     -16.288   5.129  20.006  1.00  0.00    -0.003 C 
ATOM     12  C   UNL     1     -15.420   4.103  20.739  1.00  0.00     0.004 C 
ENDBRANCH  10  11
ENDBRANCH   9  10
ENDBRANCH   8   9
ENDBRANCH   7   8
ENDBRANCH   6   7
ENDBRANCH   5   6
ENDBRANCH   4   5
ENDBRANCH   3   4
ENDBRANCH   2   3
ENDBRANCH   1   2
BRANCH   1  13
ATOM     13  C   UNL     1     -21.375  13.807  16.500  1.00  0.00     0.000 C 
BRANCH  13  14
ATOM     14  C   UNL     1     -19.898  14.202  16.656  1.00  0.00     0.000 C 
BRANCH  14  15
ATOM     15  C   UNL     1     -18.997  12.962  16.648  1.00  0.00     0.000 C 
BRANCH  15  16
ATOM     16  C   UNL     1     -17.979  13.023  15.499  1.00  0.00     0.000 C 
BRANCH  16  17
ATOM     17  C   UNL     1     -18.233  11.934  14.435  1.00  0.00     0.000 C 
BRANCH  17  18
ATOM     18  C   UNL     1     -18.620  10.569  15.031  1.00  0.00     0.000 C 
BRANCH  18  19
ATOM     19  C   UNL     1     -19.721   9.859  14.234  1.00  0.00     0.000 C 
BRANCH  19  20
ATOM     20  C   UNL     1     -20.078  10.645  12.963  1.00  0.00     0.006 C 
BRANCH  20  21
ATOM     21  C   UNL     1     -21.480  11.264  13.038  1.00  0.00     0.053 C 
BRANCH  21  22
ATOM     22  C   UNL     1     -21.527  12.609  12.382  1.00  0.00     0.041 C 
ATOM     23  O   UNL     1     -20.780  13.540  12.787  1.00  0.00    -0.550 OA
ATOM     24  O   UNL     1     -22.429  12.848  11.352  1.00  0.00    -0.550 OA
ENDBRANCH  21  22
ENDBRANCH  20  21
ENDBRANCH  19  20
ENDBRANCH  18  19
ENDBRANCH  17  18
ENDBRANCH  16  17
ENDBRANCH  15  16
ENDBRANCH  14  15
ENDBRANCH  13  14
ENDBRANCH   1  13
TORSDOF 20
ENDMDL
MODEL 7
REMARK VINA RESULT:    -3.944      4.728      7.227
REMARK INTER + INTRA:         -12.238
REMARK INTER:                  -9.539
REMARK INTRA:                  -2.699
REMARK UNBOUND:                -3.683
REMARK SMILES CCCCCCCCCCCCCCCCCCCCCC(=O)[O-]
REMARK SMILES IDX 12 1 11 2 10 3 9 4 8 5 7 6 6 7 5 8 4 9 3 10 2 11 1 12 13 13
REMARK SMILES IDX 14 14 15 15 16 16 17 17 18 18 19 19 20 20 21 21 22 22 23 23
REMARK SMILES IDX 24 24
REMARK H PARENT
REMARK Flexibility Score: inf
ROOT
ATOM      1  C   UNL     1     -22.725   6.246  18.884  1.00  0.00     0.000 C 
ENDROOT
BRANCH   1   2
ATOM      2  C   UNL     1     -24.191   6.379  19.333  1.00  0.00     0.000 C 
BRANCH   2   3
ATOM      3  C   UNL     1     -24.610   5.275  20.319  1.00  0.00     0.000 C 
BRANCH   3   4
ATOM      4  C   UNL     1     -23.418   4.665  21.071  1.00  0.00    -0.000 C 
BRANCH   4   5
ATOM      5  C   UNL     1     -23.521   3.134  21.112  1.00  0.00    -0.000 C 
BRANCH   5   6
ATOM      6  C   UNL     1     -22.233   2.433  20.643  1.00  0.00    -0.000 C 
BRANCH   6   7
ATOM      7  C   UNL     1     -21.831   2.714  19.180  1.00  0.00    -0.000 C 
BRANCH   7   8
ATOM      8  C   UNL     1     -20.454   3.375  18.994  1.00  0.00    -0.000 C 
BRANCH   8   9
ATOM      9  C   UNL     1     -19.779   3.732  20.326  1.00  0.00    -0.000 C 
BRANCH   9  10
ATOM     10  C   UNL     1     -19.440   5.229  20.385  1.00  0.00    -0.000 C 
BRANCH  10  11
ATOM     11  C   UNL     1     -19.011   5.791  19.021  1.00  0.00    -0.003 C 
ATOM     12  C   UNL     1     -18.242   7.109  19.137  1.00  0.00     0.004 C 
ENDBRANCH  10  11
ENDBRANCH   9  10
ENDBRANCH   8   9
ENDBRANCH   7   8
ENDBRANCH   6   7
ENDBRANCH   5   6
ENDBRANCH   4   5
ENDBRANCH   3   4
ENDBRANCH   2   3
ENDBRANCH   1   2
BRANCH   1  13
ATOM     13  C   UNL     1     -22.302   7.364  17.919  1.00  0.00     0.000 C 
BRANCH  13  14
ATOM     14  C   UNL     1     -23.033   8.689  18.188  1.00  0.00     0.000 C 
BRANCH  14  15
ATOM     15  C   UNL     1     -22.033   9.833  18.392  1.00  0.00     0.000 C 
BRANCH  15  16
ATOM     16  C   UNL     1     -20.695   9.530  17.699  1.00  0.00     0.000 C 
BRANCH  16  17
ATOM     17  C   UNL     1     -19.558  10.445  18.200  1.00  0.00     0.000 C 
BRANCH  17  18
ATOM     18  C   UNL     1     -19.979  11.915  18.373  1.00  0.00     0.000 C 
BRANCH  18  19
ATOM     19  C   UNL     1     -18.844  12.903  18.077  1.00  0.00     0.000 C 
BRANCH  19  20
ATOM     20  C   UNL     1     -19.136  13.715  16.806  1.00  0.00     0.006 C 
BRANCH  20  21
ATOM     21  C   UNL     1     -18.322  13.221  15.603  1.00  0.00     0.053 C 
BRANCH  21  22
ATOM     22  C   UNL     1     -19.194  12.580  14.568  1.00  0.00     0.041 C 
ATOM     23  O   UNL     1     -19.743  11.469  14.800  1.00  0.00    -0.550 OA
ATOM     24  O   UNL     1     -19.367  13.189  13.331  1.00  0.00    -0.550 OA
ENDBRANCH  21  22
ENDBRANCH  20  21
ENDBRANCH  19  20
ENDBRANCH  18  19
ENDBRANCH  17  18
ENDBRANCH  16  17
ENDBRANCH  15  16
ENDBRANCH  14  15
ENDBRANCH  13  14
ENDBRANCH   1  13
TORSDOF 20
ENDMDL
MODEL 8
REMARK VINA RESULT:    -3.939      4.087      7.059
REMARK INTER + INTRA:         -12.226
REMARK INTER:                  -8.422
REMARK INTRA:                  -3.805
REMARK UNBOUND:                -3.683
REMARK SMILES CCCCCCCCCCCCCCCCCCCCCC(=O)[O-]
REMARK SMILES IDX 12 1 11 2 10 3 9 4 8 5 7 6 6 7 5 8 4 9 3 10 2 11 1 12 13 13
REMARK SMILES IDX 14 14 15 15 16 16 17 17 18 18 19 19 20 20 21 21 22 22 23 23
REMARK SMILES IDX 24 24
REMARK H PARENT
REMARK Flexibility Score: inf
ROOT
ATOM      1  C   UNL     1     -18.125  10.798  13.340  1.00  0.00     0.000 C 
ENDROOT
BRANCH   1   2
ATOM      2  C   UNL     1     -19.584  10.551  12.915  1.00  0.00     0.000 C 
BRANCH   2   3
ATOM      3  C   UNL     1     -20.168   9.267  13.528  1.00  0.00     0.000 C 
BRANCH   3   4
ATOM      4  C   UNL     1     -21.068   9.542  14.742  1.00  0.00    -0.000 C 
BRANCH   4   5
ATOM      5  C   UNL     1     -22.333  10.305  14.326  1.00  0.00    -0.000 C 
BRANCH   5   6
ATOM      6  C   UNL     1     -22.514  11.630  15.087  1.00  0.00    -0.000 C 
BRANCH   6   7
ATOM      7  C   UNL     1     -23.638  11.628  16.145  1.00  0.00    -0.000 C 
BRANCH   7   8
ATOM      8  C   UNL     1     -23.253  12.228  17.509  1.00  0.00    -0.000 C 
BRANCH   8   9
ATOM      9  C   UNL     1     -23.329  11.207  18.653  1.00  0.00    -0.000 C 
BRANCH   9  10
ATOM     10  C   UNL     1     -24.128   9.965  18.228  1.00  0.00    -0.000 C 
BRANCH  10  11
ATOM     11  C   UNL     1     -23.323   8.665  18.386  1.00  0.00    -0.003 C 
ATOM     12  C   UNL     1     -23.307   7.819  17.110  1.00  0.00     0.004 C 
ENDBRANCH  10  11
ENDBRANCH   9  10
ENDBRANCH   8   9
ENDBRANCH   7   8
ENDBRANCH   6   7
ENDBRANCH   5   6
ENDBRANCH   4   5
ENDBRANCH   3   4
ENDBRANCH   2   3
ENDBRANCH   1   2
BRANCH   1  13
ATOM     13  C   UNL     1     -18.018  11.415  14.744  1.00  0.00     0.000 C 
BRANCH  13  14
ATOM     14  C   UNL     1     -17.806  12.937  14.708  1.00  0.00     0.000 C 
BRANCH  14  15
ATOM     15  C   UNL     1     -18.684  13.635  15.752  1.00  0.00     0.000 C 
BRANCH  15  16
ATOM     16  C   UNL     1     -19.458  12.613  16.599  1.00  0.00     0.000 C 
BRANCH  16  17
ATOM     17  C   UNL     1     -19.132  12.733  18.103  1.00  0.00     0.000 C 
BRANCH  17  18
ATOM     18  C   UNL     1     -19.480  11.472  18.912  1.00  0.00     0.000 C 
BRANCH  18  19
ATOM     19  C   UNL     1     -20.010  10.327  18.039  1.00  0.00     0.000 C 
BRANCH  19  20
ATOM     20  C   UNL     1     -18.977   9.195  17.927  1.00  0.00     0.006 C 
BRANCH  20  21
ATOM     21  C   UNL     1     -19.614   7.810  18.101  1.00  0.00     0.053 C 
BRANCH  21  22
ATOM     22  C   UNL     1     -18.683   6.853  18.780  1.00  0.00     0.041 C 
ATOM     23  O   UNL     1     -18.311   7.063  19.966  1.00  0.00    -0.550 OA
ATOM     24  O   UNL     1     -18.193   5.753  18.088  1.00  0.00    -0.550 OA
ENDBRANCH  21  22
ENDBRANCH  20  21
ENDBRANCH  19  20
ENDBRANCH  18  19
ENDBRANCH  17  18
ENDBRANCH  16  17
ENDBRANCH  15  16
ENDBRANCH  14  15
ENDBRANCH  13  14
ENDBRANCH   1  13
TORSDOF 20
ENDMDL
MODEL 9
REMARK VINA RESULT:    -3.935      3.744      7.441
REMARK INTER + INTRA:         -12.218
REMARK INTER:                  -8.762
REMARK INTRA:                  -3.456
REMARK UNBOUND:                -3.683
REMARK SMILES CCCCCCCCCCCCCCCCCCCCCC(=O)[O-]
REMARK SMILES IDX 12 1 11 2 10 3 9 4 8 5 7 6 6 7 5 8 4 9 3 10 2 11 1 12 13 13
REMARK SMILES IDX 14 14 15 15 16 16 17 17 18 18 19 19 20 20 21 21 22 22 23 23
REMARK SMILES IDX 24 24
REMARK H PARENT
REMARK Flexibility Score: inf
ROOT
ATOM      1  C   UNL     1     -18.641  13.258  16.475  1.00  0.00     0.000 C 
ENDROOT
BRANCH   1   2
ATOM      2  C   UNL     1     -19.089  12.978  17.921  1.00  0.00     0.000 C 
BRANCH   2   3
ATOM      3  C   UNL     1     -19.538  11.522  18.128  1.00  0.00     0.000 C 
BRANCH   3   4
ATOM      4  C   UNL     1     -20.933  11.414  18.763  1.00  0.00    -0.000 C 
BRANCH   4   5
ATOM      5  C   UNL     1     -21.873  10.579  17.884  1.00  0.00    -0.000 C 
BRANCH   5   6
ATOM      6  C   UNL     1     -22.665  11.428  16.875  1.00  0.00    -0.000 C 
BRANCH   6   7
ATOM      7  C   UNL     1     -23.012  12.855  17.350  1.00  0.00    -0.000 C 
BRANCH   7   8
ATOM      8  C   UNL     1     -22.520  13.989  16.433  1.00  0.00    -0.000 C 
BRANCH   8   9
ATOM      9  C   UNL     1     -22.235  15.291  17.195  1.00  0.00    -0.000 C 
BRANCH   9  10
ATOM     10  C   UNL     1     -21.032  16.030  16.587  1.00  0.00    -0.000 C 
BRANCH  10  11
ATOM     11  C   UNL     1     -20.029  16.498  17.652  1.00  0.00    -0.003 C 
ATOM     12  C   UNL     1     -20.119  18.001  17.933  1.00  0.00     0.004 C 
ENDBRANCH  10  11
ENDBRANCH   9  10
ENDBRANCH   8   9
ENDBRANCH   7   8
ENDBRANCH   6   7
ENDBRANCH   5   6
ENDBRANCH   4   5
ENDBRANCH   3   4
ENDBRANCH   2   3
ENDBRANCH   1   2
BRANCH   1  13
ATOM     13  C   UNL     1     -19.423  12.428  15.445  1.00  0.00     0.000 C 
BRANCH  13  14
ATOM     14  C   UNL     1     -18.535  11.912  14.301  1.00  0.00     0.000 C 
BRANCH  14  15
ATOM     15  C   UNL     1     -18.444  10.382  14.329  1.00  0.00     0.000 C 
BRANCH  15  16
ATOM     16  C   UNL     1     -19.502   9.780  15.267  1.00  0.00     0.000 C 
BRANCH  16  17
ATOM     17  C   UNL     1     -20.205   8.555  14.646  1.00  0.00     0.000 C 
BRANCH  17  18
ATOM     18  C   UNL     1     -21.187   7.857  15.603  1.00  0.00     0.000 C 
BRANCH  18  19
ATOM     19  C   UNL     1     -20.530   6.747  16.433  1.00  0.00     0.000 C 
BRANCH  19  20
ATOM     20  C   UNL     1     -20.467   7.133  17.919  1.00  0.00     0.006 C 
BRANCH  20  21
ATOM     21  C   UNL     1     -19.139   7.806  18.288  1.00  0.00     0.053 C 
BRANCH  21  22
ATOM     22  C   UNL     1     -18.206   6.854  18.972  1.00  0.00     0.041 C 
ATOM     23  O   UNL     1     -18.251   6.710  20.223  1.00  0.00    -0.550 OA
ATOM     24  O   UNL     1     -17.259   6.159  18.230  1.00  0.00    -0.550 OA
ENDBRANCH  21  22
ENDBRANCH  20  21
ENDBRANCH  19  20
ENDBRANCH  18  19
ENDBRANCH  17  18
ENDBRANCH  16  17
ENDBRANCH  15  16
ENDBRANCH  14  15
ENDBRANCH  13  14
ENDBRANCH   1  13
TORSDOF 20
ENDMDL
