MODEL 1
REMARK VINA RESULT:    -6.443      0.000      0.000
REMARK INTER + INTRA:          -7.232
REMARK INTER:                  -7.008
REMARK INTRA:                  -0.224
REMARK UNBOUND:                -0.224
REMARK SMILES O=C([O-])c1ccccc1O
REMARK SMILES IDX 4 1 9 2 5 3 8 4 6 5 7 6 2 7 1 8 3 9 10 10
REMARK H PARENT 10 11
REMARK Flexibility Score: inf
ROOT
ATOM      1  C   UNL     1      33.291  26.879  17.173  1.00  0.00     0.039 A 
ATOM      2  C   UNL     1      33.885  25.595  17.161  1.00  0.00     0.124 A 
ATOM      3  C   UNL     1      33.063  27.510  18.413  1.00  0.00     0.014 A 
ATOM      4  C   UNL     1      34.234  24.974  18.370  1.00  0.00     0.047 A 
ATOM      5  C   UNL     1      33.416  26.880  19.609  1.00  0.00     0.001 A 
ATOM      6  C   UNL     1      34.000  25.615  19.588  1.00  0.00     0.004 A 
ENDROOT
BRANCH   1   7
ATOM      7  C   UNL     1      32.905  27.573  15.917  1.00  0.00     0.075 C 
ATOM      8  O   UNL     1      32.873  28.833  15.870  1.00  0.00    -0.545 OA
ATOM      9  O   UNL     1      32.573  26.856  14.774  1.00  0.00    -0.545 OA
ENDBRANCH   1   7
BRANCH   2  10
ATOM     10  O   UNL     1      34.128  24.932  15.959  1.00  0.00    -0.507 OA
ATOM     11  H   UNL     1      34.980  24.405  15.803  1.00  0.00     0.293 HD
ENDBRANCH   2  10
TORSDOF 2
ENDMDL
MODEL 2
REMARK VINA RESULT:    -6.342      2.111      3.434
REMARK INTER + INTRA:          -7.123
REMARK INTER:                  -6.918
REMARK INTRA:                  -0.205
REMARK UNBOUND:                -0.224
REMARK SMILES O=C([O-])c1ccccc1O
REMARK SMILES IDX 4 1 9 2 5 3 8 4 6 5 7 6 2 7 1 8 3 9 10 10
REMARK H PARENT 10 11
REMARK Flexibility Score: inf
ROOT
ATOM      1  C   UNL     1      33.480  26.385  17.784  1.00  0.00     0.039 A 
ATOM      2  C   UNL     1      33.563  25.436  16.739  1.00  0.00     0.124 A 
ATOM      3  C   UNL     1      33.105  27.708  17.473  1.00  0.00     0.014 A 
ATOM      4  C   UNL     1      33.273  25.821  15.420  1.00  0.00     0.047 A 
ATOM      5  C   UNL     1      32.820  28.077  16.156  1.00  0.00     0.001 A 
ATOM      6  C   UNL     1      32.904  27.135  15.132  1.00  0.00     0.004 A 
ENDROOT
BRANCH   1   7
ATOM      7  C   UNL     1      33.778  26.022  19.194  1.00  0.00     0.075 C 
ATOM      8  O   UNL     1      33.337  26.729  20.140  1.00  0.00    -0.545 OA
ATOM      9  O   UNL     1      34.544  24.904  19.501  1.00  0.00    -0.545 OA
ENDBRANCH   1   7
BRANCH   2  10
ATOM     10  O   UNL     1      33.931  24.117  16.999  1.00  0.00    -0.507 OA
ATOM     11  H   UNL     1      33.859  23.716  17.927  1.00  0.00     0.293 HD
ENDBRANCH   2  10
TORSDOF 2
ENDMDL
MODEL 3
REMARK VINA RESULT:    -6.280      1.128      2.376
REMARK INTER + INTRA:          -7.055
REMARK INTER:                  -6.845
REMARK INTRA:                  -0.210
REMARK UNBOUND:                -0.224
REMARK SMILES O=C([O-])c1ccccc1O
REMARK SMILES IDX 4 1 9 2 5 3 8 4 6 5 7 6 2 7 1 8 3 9 10 10
REMARK H PARENT 10 11
REMARK Flexibility Score: inf
ROOT
ATOM      1  C   UNL     1      33.236  26.595  16.729  1.00  0.00     0.039 A 
ATOM      2  C   UNL     1      33.337  27.088  18.051  1.00  0.00     0.124 A 
ATOM      3  C   UNL     1      33.521  25.236  16.487  1.00  0.00     0.014 A 
ATOM      4  C   UNL     1      33.716  26.225  19.092  1.00  0.00     0.047 A 
ATOM      5  C   UNL     1      33.897  24.389  17.532  1.00  0.00     0.001 A 
ATOM      6  C   UNL     1      33.994  24.883  18.832  1.00  0.00     0.004 A 
ENDROOT
BRANCH   1   7
ATOM      7  C   UNL     1      32.840  27.473  15.597  1.00  0.00     0.075 C 
ATOM      8  O   UNL     1      32.359  26.974  14.543  1.00  0.00    -0.545 OA
ATOM      9  O   UNL     1      32.988  28.852  15.672  1.00  0.00    -0.545 OA
ENDBRANCH   1   7
BRANCH   2  10
ATOM     10  O   UNL     1      33.066  28.425  18.338  1.00  0.00    -0.507 OA
ATOM     11  H   UNL     1      33.728  29.162  18.124  1.00  0.00     0.293 HD
ENDBRANCH   2  10
TORSDOF 2
ENDMDL
MODEL 4
REMARK VINA RESULT:    -6.238      2.203      4.093
REMARK INTER + INTRA:          -7.009
REMARK INTER:                  -6.799
REMARK INTRA:                  -0.210
REMARK UNBOUND:                -0.224
REMARK SMILES O=C([O-])c1ccccc1O
REMARK SMILES IDX 4 1 9 2 5 3 8 4 6 5 7 6 2 7 1 8 3 9 10 10
REMARK H PARENT 10 11
REMARK Flexibility Score: inf
ROOT
ATOM      1  C   UNL     1      33.624  26.297  17.866  1.00  0.00     0.039 A 
ATOM      2  C   UNL     1      33.156  27.579  17.494  1.00  0.00     0.124 A 
ATOM      3  C   UNL     1      33.761  25.308  16.871  1.00  0.00     0.014 A 
ATOM      4  C   UNL     1      32.838  27.845  16.153  1.00  0.00     0.047 A 
ATOM      5  C   UNL     1      33.441  25.587  15.540  1.00  0.00     0.001 A 
ATOM      6  C   UNL     1      32.980  26.853  15.182  1.00  0.00     0.004 A 
ENDROOT
BRANCH   1   7
ATOM      7  C   UNL     1      33.972  25.971  19.274  1.00  0.00     0.075 C 
ATOM      8  O   UNL     1      34.747  25.010  19.532  1.00  0.00    -0.545 OA
ATOM      9  O   UNL     1      33.458  26.712  20.331  1.00  0.00    -0.545 OA
ENDBRANCH   1   7
BRANCH   2  10
ATOM     10  O   UNL     1      33.004  28.588  18.444  1.00  0.00    -0.507 OA
ATOM     11  H   UNL     1      33.683  28.732  19.182  1.00  0.00     0.293 HD
ENDBRANCH   2  10
TORSDOF 2
ENDMDL
MODEL 5
REMARK VINA RESULT:    -6.193      1.189      2.113
REMARK INTER + INTRA:          -6.960
REMARK INTER:                  -6.715
REMARK INTRA:                  -0.245
REMARK UNBOUND:                -0.224
REMARK SMILES O=C([O-])c1ccccc1O
REMARK SMILES IDX 4 1 9 2 5 3 8 4 6 5 7 6 2 7 1 8 3 9 10 10
REMARK H PARENT 10 11
REMARK Flexibility Score: inf
ROOT
ATOM      1  C   UNL     1      33.047  27.450  17.186  1.00  0.00     0.039 A 
ATOM      2  C   UNL     1      33.169  26.592  16.068  1.00  0.00     0.124 A 
ATOM      3  C   UNL     1      33.384  26.954  18.462  1.00  0.00     0.014 A 
ATOM      4  C   UNL     1      33.619  25.275  16.243  1.00  0.00     0.047 A 
ATOM      5  C   UNL     1      33.830  25.641  18.622  1.00  0.00     0.001 A 
ATOM      6  C   UNL     1      33.947  24.802  17.514  1.00  0.00     0.004 A 
ENDROOT
BRANCH   1   7
ATOM      7  C   UNL     1      32.574  28.852  17.047  1.00  0.00     0.075 C 
ATOM      8  O   UNL     1      32.980  29.569  16.093  1.00  0.00    -0.545 OA
ATOM      9  O   UNL     1      31.680  29.402  17.958  1.00  0.00    -0.545 OA
ENDBRANCH   1   7
BRANCH   2  10
ATOM     10  O   UNL     1      32.847  27.038  14.787  1.00  0.00    -0.507 OA
ATOM     11  H   UNL     1      32.274  27.861  14.637  1.00  0.00     0.293 HD
ENDBRANCH   2  10
TORSDOF 2
ENDMDL
MODEL 6
REMARK VINA RESULT:    -6.047      1.717      3.203
REMARK INTER + INTRA:          -6.801
REMARK INTER:                  -6.549
REMARK INTRA:                  -0.252
REMARK UNBOUND:                -0.224
REMARK SMILES O=C([O-])c1ccccc1O
REMARK SMILES IDX 4 1 9 2 5 3 8 4 6 5 7 6 2 7 1 8 3 9 10 10
REMARK H PARENT 10 11
REMARK Flexibility Score: inf
ROOT
ATOM      1  C   UNL     1      34.045  25.471  18.746  1.00  0.00     0.039 A 
ATOM      2  C   UNL     1      33.514  26.772  18.907  1.00  0.00     0.124 A 
ATOM      3  C   UNL     1      34.764  24.894  19.814  1.00  0.00     0.014 A 
ATOM      4  C   UNL     1      33.707  27.463  20.113  1.00  0.00     0.047 A 
ATOM      5  C   UNL     1      34.949  25.593  21.008  1.00  0.00     0.001 A 
ATOM      6  C   UNL     1      34.422  26.875  21.158  1.00  0.00     0.004 A 
ENDROOT
BRANCH   1   7
ATOM      7  C   UNL     1      33.865  24.704  17.487  1.00  0.00     0.075 C 
ATOM      8  O   UNL     1      33.601  23.471  17.524  1.00  0.00    -0.545 OA
ATOM      9  O   UNL     1      33.982  25.321  16.247  1.00  0.00    -0.545 OA
ENDBRANCH   1   7
BRANCH   2  10
ATOM     10  O   UNL     1      32.797  27.383  17.879  1.00  0.00    -0.507 OA
ATOM     11  H   UNL     1      31.926  27.871  18.053  1.00  0.00     0.293 HD
ENDBRANCH   2  10
TORSDOF 2
ENDMDL
MODEL 7
REMARK VINA RESULT:    -6.009      2.112      2.921
REMARK INTER + INTRA:          -6.761
REMARK INTER:                  -6.515
REMARK INTRA:                  -0.246
REMARK UNBOUND:                -0.224
REMARK SMILES O=C([O-])c1ccccc1O
REMARK SMILES IDX 4 1 9 2 5 3 8 4 6 5 7 6 2 7 1 8 3 9 10 10
REMARK H PARENT 10 11
REMARK Flexibility Score: inf
ROOT
ATOM      1  C   UNL     1      32.872  27.931  16.723  1.00  0.00     0.039 A 
ATOM      2  C   UNL     1      33.289  27.152  17.828  1.00  0.00     0.124 A 
ATOM      3  C   UNL     1      32.876  27.346  15.440  1.00  0.00     0.014 A 
ATOM      4  C   UNL     1      33.697  25.823  17.633  1.00  0.00     0.047 A 
ATOM      5  C   UNL     1      33.284  26.023  15.261  1.00  0.00     0.001 A 
ATOM      6  C   UNL     1      33.693  25.263  16.355  1.00  0.00     0.004 A 
ENDROOT
BRANCH   1   7
ATOM      7  C   UNL     1      32.433  29.342  16.883  1.00  0.00     0.075 C 
ATOM      8  O   UNL     1      33.072  30.125  17.637  1.00  0.00    -0.545 OA
ATOM      9  O   UNL     1      31.319  29.828  16.210  1.00  0.00    -0.545 OA
ENDBRANCH   1   7
BRANCH   2  10
ATOM     10  O   UNL     1      33.303  27.688  19.115  1.00  0.00    -0.507 OA
ATOM     11  H   UNL     1      33.228  27.101  19.938  1.00  0.00     0.293 HD
ENDBRANCH   2  10
TORSDOF 2
ENDMDL
MODEL 8
REMARK VINA RESULT:    -6.004      2.515      3.456
REMARK INTER + INTRA:          -6.755
REMARK INTER:                  -6.511
REMARK INTRA:                  -0.244
REMARK UNBOUND:                -0.224
REMARK SMILES O=C([O-])c1ccccc1O
REMARK SMILES IDX 4 1 9 2 5 3 8 4 6 5 7 6 2 7 1 8 3 9 10 10
REMARK H PARENT 10 11
REMARK Flexibility Score: inf
ROOT
ATOM      1  C   UNL     1      33.177  26.965  19.349  1.00  0.00     0.039 A 
ATOM      2  C   UNL     1      33.870  26.982  20.582  1.00  0.00     0.124 A 
ATOM      3  C   UNL     1      33.362  25.869  18.482  1.00  0.00     0.014 A 
ATOM      4  C   UNL     1      34.722  25.920  20.921  1.00  0.00     0.047 A 
ATOM      5  C   UNL     1      34.213  24.818  18.832  1.00  0.00     0.001 A 
ATOM      6  C   UNL     1      34.892  24.843  20.049  1.00  0.00     0.004 A 
ENDROOT
BRANCH   1   7
ATOM      7  C   UNL     1      32.266  28.069  18.949  1.00  0.00     0.075 C 
ATOM      8  O   UNL     1      32.441  28.674  17.858  1.00  0.00    -0.545 OA
ATOM      9  O   UNL     1      31.207  28.455  19.762  1.00  0.00    -0.545 OA
ENDBRANCH   1   7
BRANCH   2  10
ATOM     10  O   UNL     1      33.719  28.046  21.471  1.00  0.00    -0.507 OA
ATOM     11  H   UNL     1      34.206  28.071  22.360  1.00  0.00     0.293 HD
ENDBRANCH   2  10
TORSDOF 2
ENDMDL
MODEL 9
REMARK VINA RESULT:    -5.914      1.934      3.128
REMARK INTER + INTRA:          -6.657
REMARK INTER:                  -6.410
REMARK INTRA:                  -0.247
REMARK UNBOUND:                -0.224
REMARK SMILES O=C([O-])c1ccccc1O
REMARK SMILES IDX 4 1 9 2 5 3 8 4 6 5 7 6 2 7 1 8 3 9 10 10
REMARK H PARENT 10 11
REMARK Flexibility Score: inf
ROOT
ATOM      1  C   UNL     1      33.648  25.576  18.628  1.00  0.00     0.039 A 
ATOM      2  C   UNL     1      34.373  25.410  19.831  1.00  0.00     0.124 A 
ATOM      3  C   UNL     1      32.912  26.763  18.436  1.00  0.00     0.014 A 
ATOM      4  C   UNL     1      34.349  26.419  20.807  1.00  0.00     0.047 A 
ATOM      5  C   UNL     1      32.898  27.758  19.415  1.00  0.00     0.001 A 
ATOM      6  C   UNL     1      33.615  27.587  20.598  1.00  0.00     0.004 A 
ENDROOT
BRANCH   1   7
ATOM      7  C   UNL     1      33.645  24.533  17.569  1.00  0.00     0.075 C 
ATOM      8  O   UNL     1      33.654  24.863  16.352  1.00  0.00    -0.545 OA
ATOM      9  O   UNL     1      33.632  23.182  17.892  1.00  0.00    -0.545 OA
ENDBRANCH   1   7
BRANCH   2  10
ATOM     10  O   UNL     1      35.115  24.253  20.066  1.00  0.00    -0.507 OA
ATOM     11  H   UNL     1      35.721  24.162  20.873  1.00  0.00     0.293 HD
ENDBRANCH   2  10
TORSDOF 2
ENDMDL
