MODEL 1
REMARK VINA RESULT:    -3.117      0.000      0.000
REMARK INTER + INTRA:          -3.995
REMARK INTER:                  -3.846
REMARK INTRA:                  -0.148
REMARK UNBOUND:                -0.148
REMARK SMILES CCCCCC(=O)[O-]
REMARK SMILES IDX 4 1 5 2 6 3 7 4 8 5 3 6 2 7 1 8
REMARK H PARENT
REMARK Flexibility Score: inf
ROOT
ATOM      1  C   UNL     1      -5.502  -2.974  36.392  1.00  0.00     0.006 C 
ENDROOT
BRANCH   1   2
ATOM      2  C   UNL     1      -4.433  -3.618  35.498  1.00  0.00     0.053 C 
BRANCH   2   3
ATOM      3  C   UNL     1      -4.403  -2.998  34.134  1.00  0.00     0.041 C 
ATOM      4  O   UNL     1      -3.869  -3.609  33.171  1.00  0.00    -0.550 OA
ATOM      5  O   UNL     1      -4.936  -1.732  33.936  1.00  0.00    -0.550 OA
ENDBRANCH   2   3
ENDBRANCH   1   2
BRANCH   1   6
ATOM      6  C   UNL     1      -4.898  -2.323  37.644  1.00  0.00     0.000 C 
BRANCH   6   7
ATOM      7  C   UNL     1      -5.699  -1.083  38.058  1.00  0.00    -0.003 C 
ATOM      8  C   UNL     1      -6.973  -0.949  37.229  1.00  0.00     0.004 C 
ENDBRANCH   6   7
ENDBRANCH   1   6
TORSDOF 4
ENDMDL
MODEL 2
REMARK VINA RESULT:    -3.084      1.132      1.398
REMARK INTER + INTRA:          -3.954
REMARK INTER:                  -3.840
REMARK INTRA:                  -0.114
REMARK UNBOUND:                -0.148
REMARK SMILES CCCCCC(=O)[O-]
REMARK SMILES IDX 4 1 5 2 6 3 7 4 8 5 3 6 2 7 1 8
REMARK H PARENT
REMARK Flexibility Score: inf
ROOT
ATOM      1  C   UNL     1      -5.430  -3.374  35.744  1.00  0.00     0.006 C 
ENDROOT
BRANCH   1   2
ATOM      2  C   UNL     1      -3.915  -3.376  35.502  1.00  0.00     0.053 C 
BRANCH   2   3
ATOM      3  C   UNL     1      -3.575  -2.936  34.111  1.00  0.00     0.041 C 
ATOM      4  O   UNL     1      -3.904  -3.643  33.123  1.00  0.00    -0.550 OA
ATOM      5  O   UNL     1      -2.866  -1.759  33.909  1.00  0.00    -0.550 OA
ENDBRANCH   2   3
ENDBRANCH   1   2
BRANCH   1   6
ATOM      6  C   UNL     1      -5.852  -2.321  36.780  1.00  0.00     0.000 C 
BRANCH   6   7
ATOM      7  C   UNL     1      -4.826  -2.229  37.916  1.00  0.00    -0.003 C 
ATOM      8  C   UNL     1      -5.129  -1.050  38.836  1.00  0.00     0.004 C 
ENDBRANCH   6   7
ENDBRANCH   1   6
TORSDOF 4
ENDMDL
MODEL 3
REMARK VINA RESULT:    -3.036      2.798      4.129
REMARK INTER + INTRA:          -3.894
REMARK INTER:                  -3.785
REMARK INTRA:                  -0.109
REMARK UNBOUND:                -0.148
REMARK SMILES CCCCCC(=O)[O-]
REMARK SMILES IDX 4 1 5 2 6 3 7 4 8 5 3 6 2 7 1 8
REMARK H PARENT
REMARK Flexibility Score: inf
ROOT
ATOM      1  C   UNL     1      -2.888  -2.613  36.181  1.00  0.00     0.006 C 
ENDROOT
BRANCH   1   2
ATOM      2  C   UNL     1      -3.754  -3.663  35.473  1.00  0.00     0.053 C 
BRANCH   2   3
ATOM      3  C   UNL     1      -4.275  -3.160  34.161  1.00  0.00     0.041 C 
ATOM      4  O   UNL     1      -5.085  -2.196  34.128  1.00  0.00    -0.550 OA
ATOM      5  O   UNL     1      -3.890  -3.776  32.979  1.00  0.00    -0.550 OA
ENDBRANCH   2   3
ENDBRANCH   1   2
BRANCH   1   6
ATOM      6  C   UNL     1      -1.537  -2.407  35.482  1.00  0.00     0.000 C 
BRANCH   6   7
ATOM      7  C   UNL     1      -0.379  -2.851  36.384  1.00  0.00    -0.003 C 
ATOM      8  C   UNL     1       0.969  -2.603  35.714  1.00  0.00     0.004 C 
ENDBRANCH   6   7
ENDBRANCH   1   6
TORSDOF 4
ENDMDL
MODEL 4
REMARK VINA RESULT:    -3.000      1.813      2.519
REMARK INTER + INTRA:          -3.850
REMARK INTER:                  -3.645
REMARK INTRA:                  -0.205
REMARK UNBOUND:                -0.148
REMARK SMILES CCCCCC(=O)[O-]
REMARK SMILES IDX 4 1 5 2 6 3 7 4 8 5 3 6 2 7 1 8
REMARK H PARENT
REMARK Flexibility Score: inf
ROOT
ATOM      1  C   UNL     1      -5.009  -2.571  34.488  1.00  0.00     0.006 C 
ENDROOT
BRANCH   1   2
ATOM      2  C   UNL     1      -3.636  -2.975  33.934  1.00  0.00     0.053 C 
BRANCH   2   3
ATOM      3  C   UNL     1      -2.519  -2.300  34.670  1.00  0.00     0.041 C 
ATOM      4  O   UNL     1      -2.144  -1.146  34.334  1.00  0.00    -0.550 OA
ATOM      5  O   UNL     1      -1.873  -2.960  35.707  1.00  0.00    -0.550 OA
ENDBRANCH   2   3
ENDBRANCH   1   2
BRANCH   1   6
ATOM      6  C   UNL     1      -5.376  -3.353  35.758  1.00  0.00     0.000 C 
BRANCH   6   7
ATOM      7  C   UNL     1      -5.904  -2.412  36.848  1.00  0.00    -0.003 C 
ATOM      8  C   UNL     1      -4.823  -2.104  37.880  1.00  0.00     0.004 C 
ENDBRANCH   6   7
ENDBRANCH   1   6
TORSDOF 4
ENDMDL
MODEL 5
REMARK VINA RESULT:    -2.916      1.229      1.833
REMARK INTER + INTRA:          -3.746
REMARK INTER:                  -3.639
REMARK INTRA:                  -0.107
REMARK UNBOUND:                -0.148
REMARK SMILES CCCCCC(=O)[O-]
REMARK SMILES IDX 4 1 5 2 6 3 7 4 8 5 3 6 2 7 1 8
REMARK H PARENT
REMARK Flexibility Score: inf
ROOT
ATOM      1  C   UNL     1      -5.550  -2.529  36.735  1.00  0.00     0.006 C 
ENDROOT
BRANCH   1   2
ATOM      2  C   UNL     1      -5.366  -2.576  35.212  1.00  0.00     0.053 C 
BRANCH   2   3
ATOM      3  C   UNL     1      -4.136  -3.340  34.826  1.00  0.00     0.041 C 
ATOM      4  O   UNL     1      -3.343  -3.756  35.711  1.00  0.00    -0.550 OA
ATOM      5  O   UNL     1      -3.851  -3.563  33.485  1.00  0.00    -0.550 OA
ENDBRANCH   2   3
ENDBRANCH   1   2
BRANCH   1   6
ATOM      6  C   UNL     1      -6.466  -1.377  37.175  1.00  0.00     0.000 C 
BRANCH   6   7
ATOM      7  C   UNL     1      -5.904  -0.674  38.417  1.00  0.00    -0.003 C 
ATOM      8  C   UNL     1      -4.687  -1.413  38.965  1.00  0.00     0.004 C 
ENDBRANCH   6   7
ENDBRANCH   1   6
TORSDOF 4
ENDMDL
MODEL 6
REMARK VINA RESULT:    -2.887      2.597      3.366
REMARK INTER + INTRA:          -3.711
REMARK INTER:                  -3.513
REMARK INTRA:                  -0.197
REMARK UNBOUND:                -0.148
REMARK SMILES CCCCCC(=O)[O-]
REMARK SMILES IDX 4 1 5 2 6 3 7 4 8 5 3 6 2 7 1 8
REMARK H PARENT
REMARK Flexibility Score: inf
ROOT
ATOM      1  C   UNL     1      -3.434  -2.856  34.074  1.00  0.00     0.006 C 
ENDROOT
BRANCH   1   2
ATOM      2  C   UNL     1      -2.365  -1.962  34.719  1.00  0.00     0.053 C 
BRANCH   2   3
ATOM      3  C   UNL     1      -1.719  -2.630  35.895  1.00  0.00     0.041 C 
ATOM      4  O   UNL     1      -2.093  -3.777  36.257  1.00  0.00    -0.550 OA
ATOM      5  O   UNL     1      -0.727  -1.972  36.608  1.00  0.00    -0.550 OA
ENDBRANCH   2   3
ENDBRANCH   1   2
BRANCH   1   6
ATOM      6  C   UNL     1      -4.858  -2.431  34.461  1.00  0.00     0.000 C 
BRANCH   6   7
ATOM      7  C   UNL     1      -5.398  -3.302  35.602  1.00  0.00    -0.003 C 
ATOM      8  C   UNL     1      -5.675  -2.467  36.849  1.00  0.00     0.004 C 
ENDBRANCH   6   7
ENDBRANCH   1   6
TORSDOF 4
ENDMDL
MODEL 7
REMARK VINA RESULT:    -2.853      2.459      3.962
REMARK INTER + INTRA:          -3.669
REMARK INTER:                  -3.477
REMARK INTRA:                  -0.192
REMARK UNBOUND:                -0.148
REMARK SMILES CCCCCC(=O)[O-]
REMARK SMILES IDX 4 1 5 2 6 3 7 4 8 5 3 6 2 7 1 8
REMARK H PARENT
REMARK Flexibility Score: inf
ROOT
ATOM      1  C   UNL     1      -5.136  -2.603  34.613  1.00  0.00     0.006 C 
ENDROOT
BRANCH   1   2
ATOM      2  C   UNL     1      -5.457  -3.322  35.930  1.00  0.00     0.053 C 
BRANCH   2   3
ATOM      3  C   UNL     1      -5.574  -2.361  37.073  1.00  0.00     0.041 C 
ATOM      4  O   UNL     1      -4.644  -2.262  37.916  1.00  0.00    -0.550 OA
ATOM      5  O   UNL     1      -6.724  -1.599  37.224  1.00  0.00    -0.550 OA
ENDBRANCH   2   3
ENDBRANCH   1   2
BRANCH   1   6
ATOM      6  C   UNL     1      -3.817  -3.086  33.993  1.00  0.00     0.000 C 
BRANCH   6   7
ATOM      7  C   UNL     1      -2.670  -2.124  34.327  1.00  0.00    -0.003 C 
ATOM      8  C   UNL     1      -1.842  -2.642  35.500  1.00  0.00     0.004 C 
ENDBRANCH   6   7
ENDBRANCH   1   6
TORSDOF 4
ENDMDL
MODEL 8
REMARK VINA RESULT:    -2.761      2.529      3.796
REMARK INTER + INTRA:          -3.554
REMARK INTER:                  -3.316
REMARK INTRA:                  -0.238
REMARK UNBOUND:                -0.148
REMARK SMILES CCCCCC(=O)[O-]
REMARK SMILES IDX 4 1 5 2 6 3 7 4 8 5 3 6 2 7 1 8
REMARK H PARENT
REMARK Flexibility Score: inf
ROOT
ATOM      1  C   UNL     1      -3.624  -3.827  35.459  1.00  0.00     0.006 C 
ENDROOT
BRANCH   1   2
ATOM      2  C   UNL     1      -5.102  -3.419  35.537  1.00  0.00     0.053 C 
BRANCH   2   3
ATOM      3  C   UNL     1      -5.329  -2.347  36.558  1.00  0.00     0.041 C 
ATOM      4  O   UNL     1      -5.925  -1.284  36.240  1.00  0.00    -0.550 OA
ATOM      5  O   UNL     1      -4.854  -2.509  37.852  1.00  0.00    -0.550 OA
ENDBRANCH   2   3
ENDBRANCH   1   2
BRANCH   1   6
ATOM      6  C   UNL     1      -2.718  -2.652  35.063  1.00  0.00     0.000 C 
BRANCH   6   7
ATOM      7  C   UNL     1      -1.444  -2.631  35.916  1.00  0.00    -0.003 C 
ATOM      8  C   UNL     1      -1.452  -1.456  36.889  1.00  0.00     0.004 C 
ENDBRANCH   6   7
ENDBRANCH   1   6
TORSDOF 4
ENDMDL
MODEL 9
REMARK VINA RESULT:    -2.738      2.322      3.076
REMARK INTER + INTRA:          -3.527
REMARK INTER:                  -3.318
REMARK INTRA:                  -0.209
REMARK UNBOUND:                -0.148
REMARK SMILES CCCCCC(=O)[O-]
REMARK SMILES IDX 4 1 5 2 6 3 7 4 8 5 3 6 2 7 1 8
REMARK H PARENT
REMARK Flexibility Score: inf
ROOT
ATOM      1  C   UNL     1      -2.577  -2.125  34.433  1.00  0.00     0.006 C 
ENDROOT
BRANCH   1   2
ATOM      2  C   UNL     1      -3.736  -3.011  33.959  1.00  0.00     0.053 C 
BRANCH   2   3
ATOM      3  C   UNL     1      -5.010  -2.690  34.679  1.00  0.00     0.041 C 
ATOM      4  O   UNL     1      -5.451  -3.466  35.567  1.00  0.00    -0.550 OA
ATOM      5  O   UNL     1      -5.727  -1.548  34.346  1.00  0.00    -0.550 OA
ENDBRANCH   2   3
ENDBRANCH   1   2
BRANCH   1   6
ATOM      6  C   UNL     1      -1.877  -2.699  35.674  1.00  0.00     0.000 C 
BRANCH   6   7
ATOM      7  C   UNL     1      -1.560  -1.591  36.686  1.00  0.00    -0.003 C 
ATOM      8  C   UNL     1      -2.838  -0.975  37.246  1.00  0.00     0.004 C 
ENDBRANCH   6   7
ENDBRANCH   1   6
TORSDOF 4
ENDMDL
