MODEL 1
REMARK VINA RESULT:    -4.486      0.000      0.000
REMARK INTER + INTRA:          -5.781
REMARK INTER:                  -5.273
REMARK INTRA:                  -0.508
REMARK UNBOUND:                -0.508
REMARK SMILES C=C(C)[C@H]1CC[C@]2(CO)CC[C@@]3(C)[C@H](CC[C@@H]4[C@]5(C)CC[C@H](O)C(C)(C)[C@@H]5CC[C@]43C)[C@H]12
REMARK SMILES IDX 4 1 5 2 6 3 7 4 32 5 14 6 15 7 16 8 17 9 18 10 20 11 21 12
REMARK SMILES IDX 22 13 24 14 27 15 28 16 29 17 30 18 12 19 11 20 10 21 13 22
REMARK SMILES IDX 31 23 25 24 26 25 19 26 2 27 3 28 1 29 8 30 9 31 23 33
REMARK H PARENT 9 32 23 34
REMARK Flexibility Score: inf
ROOT
ATOM      1  C   UNL     1     -23.362  53.490  46.051  1.00  0.00     0.018 C 
ATOM      2  C   UNL     1     -24.305  53.937  47.177  1.00  0.00     0.009 C 
ATOM      3  C   UNL     1     -25.689  53.511  46.742  1.00  0.00     0.010 C 
ATOM      4  C   UNL     1     -25.716  53.704  45.214  1.00  0.00    -0.003 C 
ATOM      5  C   UNL     1     -24.250  53.403  44.765  1.00  0.00     0.008 C 
ATOM      6  C   UNL     1     -24.100  52.088  43.905  1.00  0.00    -0.000 C 
ATOM      7  C   UNL     1     -24.152  50.786  44.765  1.00  0.00     0.005 C 
ATOM      8  C   UNL     1     -24.272  49.483  43.979  1.00  0.00     0.005 C 
ATOM      9  C   UNL     1     -25.379  49.549  42.908  1.00  0.00     0.002 C 
ATOM     10  C   UNL     1     -25.834  48.111  42.374  1.00  0.00    -0.026 C 
ATOM     11  C   UNL     1     -24.604  47.218  42.022  1.00  0.00     0.010 C 
ATOM     12  C   UNL     1     -24.932  45.873  41.363  1.00  0.00     0.033 C 
ATOM     13  C   UNL     1     -26.195  45.855  40.476  1.00  0.00     0.120 C 
ATOM     14  C   UNL     1     -26.626  47.252  39.933  1.00  0.00    -0.006 C 
ATOM     15  C   UNL     1     -26.863  48.224  41.164  1.00  0.00     0.003 C 
ATOM     16  C   UNL     1     -27.259  49.682  40.819  1.00  0.00     0.005 C 
ATOM     17  C   UNL     1     -26.092  50.664  40.673  1.00  0.00     0.008 C 
ATOM     18  C   UNL     1     -25.056  50.697  41.861  1.00  0.00    -0.024 C 
ATOM     19  C   UNL     1     -25.076  52.115  42.644  1.00  0.00    -0.024 C 
ATOM     20  C   UNL     1     -26.543  52.529  43.073  1.00  0.00     0.008 C 
ATOM     21  C   UNL     1     -26.762  52.750  44.573  1.00  0.00     0.010 C 
ATOM     22  C   UNL     1     -24.561  53.257  41.692  1.00  0.00     0.012 C 
ATOM     23  C   UNL     1     -23.644  50.517  41.200  1.00  0.00     0.012 C 
ATOM     24  C   UNL     1     -25.600  47.792  38.906  1.00  0.00     0.014 C 
ATOM     25  C   UNL     1     -27.964  47.042  39.159  1.00  0.00     0.014 C 
ATOM     26  C   UNL     1     -26.575  47.381  43.547  1.00  0.00     0.012 C 
ENDROOT
BRANCH   1  27
ATOM     27  C   UNL     1     -22.116  54.368  45.877  1.00  0.00    -0.077 C 
ATOM     28  C   UNL     1     -20.861  54.151  46.695  1.00  0.00     0.039 C 
ATOM     29  C   UNL     1     -22.119  55.346  44.954  1.00  0.00     0.008 C 
ENDBRANCH   1  27
BRANCH   4  30
ATOM     30  C   UNL     1     -26.067  55.189  44.873  1.00  0.00     0.163 C 
BRANCH  30  31
ATOM     31  O   UNL     1     -27.174  55.659  45.602  1.00  0.00    -0.396 OA
ATOM     32  H   UNL     1     -27.989  55.268  45.186  1.00  0.00     0.210 HD
ENDBRANCH  30  31
ENDBRANCH   4  30
BRANCH  13  33
ATOM     33  O   UNL     1     -26.021  44.937  39.423  1.00  0.00    -0.393 OA
ATOM     34  H   UNL     1     -26.826  44.360  39.409  1.00  0.00     0.210 HD
ENDBRANCH  13  33
TORSDOF 4
ENDMDL
MODEL 2
REMARK VINA RESULT:    -4.458      2.089      8.213
REMARK INTER + INTRA:          -5.747
REMARK INTER:                  -5.194
REMARK INTRA:                  -0.553
REMARK UNBOUND:                -0.508
REMARK SMILES C=C(C)[C@H]1CC[C@]2(CO)CC[C@@]3(C)[C@H](CC[C@@H]4[C@]5(C)CC[C@H](O)C(C)(C)[C@@H]5CC[C@]43C)[C@H]12
REMARK SMILES IDX 4 1 5 2 6 3 7 4 32 5 14 6 15 7 16 8 17 9 18 10 20 11 21 12
REMARK SMILES IDX 22 13 24 14 27 15 28 16 29 17 30 18 12 19 11 20 10 21 13 22
REMARK SMILES IDX 31 23 25 24 26 25 19 26 2 27 3 28 1 29 8 30 9 31 23 33
REMARK H PARENT 9 32 23 34
REMARK Flexibility Score: inf
ROOT
ATOM      1  C   UNL     1     -25.686  48.783  42.215  1.00  0.00     0.018 C 
ATOM      2  C   UNL     1     -24.472  47.990  41.708  1.00  0.00     0.009 C 
ATOM      3  C   UNL     1     -23.280  48.900  41.903  1.00  0.00     0.010 C 
ATOM      4  C   UNL     1     -23.798  50.321  41.615  1.00  0.00    -0.003 C 
ATOM      5  C   UNL     1     -25.285  50.291  42.096  1.00  0.00     0.008 C 
ATOM      6  C   UNL     1     -25.568  51.188  43.363  1.00  0.00    -0.000 C 
ATOM      7  C   UNL     1     -25.078  50.537  44.694  1.00  0.00     0.005 C 
ATOM      8  C   UNL     1     -25.085  51.451  45.915  1.00  0.00     0.005 C 
ATOM      9  C   UNL     1     -24.424  52.814  45.627  1.00  0.00     0.002 C 
ATOM     10  C   UNL     1     -24.018  53.618  46.948  1.00  0.00    -0.026 C 
ATOM     11  C   UNL     1     -25.183  53.637  47.985  1.00  0.00     0.010 C 
ATOM     12  C   UNL     1     -24.948  54.507  49.226  1.00  0.00     0.033 C 
ATOM     13  C   UNL     1     -24.069  55.757  49.009  1.00  0.00     0.120 C 
ATOM     14  C   UNL     1     -24.012  56.260  47.534  1.00  0.00    -0.006 C 
ATOM     15  C   UNL     1     -23.482  55.080  46.615  1.00  0.00     0.003 C 
ATOM     16  C   UNL     1     -23.397  55.379  45.097  1.00  0.00     0.005 C 
ATOM     17  C   UNL     1     -24.648  55.028  44.286  1.00  0.00     0.008 C 
ATOM     18  C   UNL     1     -25.214  53.568  44.474  1.00  0.00    -0.024 C 
ATOM     19  C   UNL     1     -25.090  52.690  43.119  1.00  0.00    -0.024 C 
ATOM     20  C   UNL     1     -23.623  52.727  42.526  1.00  0.00     0.008 C 
ATOM     21  C   UNL     1     -22.932  51.369  42.368  1.00  0.00     0.010 C 
ATOM     22  C   UNL     1     -26.026  53.292  42.006  1.00  0.00     0.012 C 
ATOM     23  C   UNL     1     -26.737  53.742  44.814  1.00  0.00     0.012 C 
ATOM     24  C   UNL     1     -25.382  56.828  47.084  1.00  0.00     0.014 C 
ATOM     25  C   UNL     1     -23.004  57.449  47.502  1.00  0.00     0.014 C 
ATOM     26  C   UNL     1     -22.843  52.839  47.636  1.00  0.00     0.012 C 
ENDROOT
BRANCH   1  27
ATOM     27  C   UNL     1     -27.008  48.441  41.516  1.00  0.00    -0.077 C 
ATOM     28  C   UNL     1     -27.534  49.254  40.352  1.00  0.00     0.039 C 
ATOM     29  C   UNL     1     -27.715  47.373  41.925  1.00  0.00     0.008 C 
ENDBRANCH   1  27
BRANCH   4  30
ATOM     30  C   UNL     1     -23.757  50.600  40.077  1.00  0.00     0.163 C 
BRANCH  30  31
ATOM     31  O   UNL     1     -24.936  51.207  39.611  1.00  0.00    -0.396 OA
ATOM     32  H   UNL     1     -25.062  50.923  38.667  1.00  0.00     0.210 HD
ENDBRANCH  30  31
ENDBRANCH   4  30
BRANCH  13  33
ATOM     33  O   UNL     1     -24.486  56.785  49.876  1.00  0.00    -0.393 OA
ATOM     34  H   UNL     1     -23.666  57.232  50.206  1.00  0.00     0.210 HD
ENDBRANCH  13  33
TORSDOF 4
ENDMDL
MODEL 3
REMARK VINA RESULT:    -4.403      2.536      5.218
REMARK INTER + INTRA:          -5.684
REMARK INTER:                  -5.090
REMARK INTRA:                  -0.594
REMARK UNBOUND:                -0.508
REMARK SMILES C=C(C)[C@H]1CC[C@]2(CO)CC[C@@]3(C)[C@H](CC[C@@H]4[C@]5(C)CC[C@H](O)C(C)(C)[C@@H]5CC[C@]43C)[C@H]12
REMARK SMILES IDX 4 1 5 2 6 3 7 4 32 5 14 6 15 7 16 8 17 9 18 10 20 11 21 12
REMARK SMILES IDX 22 13 24 14 27 15 28 16 29 17 30 18 12 19 11 20 10 21 13 22
REMARK SMILES IDX 31 23 25 24 26 25 19 26 2 27 3 28 1 29 8 30 9 31 23 33
REMARK H PARENT 9 32 23 34
REMARK Flexibility Score: inf
ROOT
ATOM      1  C   UNL     1     -25.774  52.288  42.027  1.00  0.00     0.018 C 
ATOM      2  C   UNL     1     -24.616  52.994  41.306  1.00  0.00     0.009 C 
ATOM      3  C   UNL     1     -23.898  51.911  40.532  1.00  0.00     0.010 C 
ATOM      4  C   UNL     1     -23.968  50.656  41.422  1.00  0.00    -0.003 C 
ATOM      5  C   UNL     1     -25.336  50.792  42.167  1.00  0.00     0.008 C 
ATOM      6  C   UNL     1     -26.407  49.712  41.745  1.00  0.00    -0.000 C 
ATOM      7  C   UNL     1     -27.075  50.019  40.369  1.00  0.00     0.005 C 
ATOM      8  C   UNL     1     -27.923  48.893  39.783  1.00  0.00     0.005 C 
ATOM      9  C   UNL     1     -27.191  47.536  39.813  1.00  0.00     0.002 C 
ATOM     10  C   UNL     1     -27.835  46.443  38.840  1.00  0.00    -0.026 C 
ATOM     11  C   UNL     1     -29.385  46.380  38.999  1.00  0.00     0.010 C 
ATOM     12  C   UNL     1     -30.084  45.262  38.217  1.00  0.00     0.033 C 
ATOM     13  C   UNL     1     -29.262  43.971  38.018  1.00  0.00     0.120 C 
ATOM     14  C   UNL     1     -28.122  43.761  39.062  1.00  0.00    -0.006 C 
ATOM     15  C   UNL     1     -27.152  45.016  39.012  1.00  0.00     0.003 C 
ATOM     16  C   UNL     1     -25.972  45.009  40.017  1.00  0.00     0.005 C 
ATOM     17  C   UNL     1     -26.253  45.677  41.367  1.00  0.00     0.008 C 
ATOM     18  C   UNL     1     -26.852  47.135  41.311  1.00  0.00    -0.024 C 
ATOM     19  C   UNL     1     -25.825  48.236  41.910  1.00  0.00    -0.024 C 
ATOM     20  C   UNL     1     -24.389  48.117  41.254  1.00  0.00     0.008 C 
ATOM     21  C   UNL     1     -23.872  49.374  40.548  1.00  0.00     0.010 C 
ATOM     22  C   UNL     1     -25.623  47.993  43.451  1.00  0.00     0.012 C 
ATOM     23  C   UNL     1     -28.131  47.105  42.221  1.00  0.00     0.012 C 
ATOM     24  C   UNL     1     -28.701  43.482  40.472  1.00  0.00     0.014 C 
ATOM     25  C   UNL     1     -27.349  42.477  38.633  1.00  0.00     0.014 C 
ATOM     26  C   UNL     1     -27.573  46.908  37.364  1.00  0.00     0.012 C 
ENDROOT
BRANCH   1  27
ATOM     27  C   UNL     1     -26.185  52.934  43.356  1.00  0.00    -0.077 C 
ATOM     28  C   UNL     1     -25.638  54.273  43.801  1.00  0.00     0.039 C 
ATOM     29  C   UNL     1     -27.079  52.311  44.146  1.00  0.00     0.008 C 
ENDBRANCH   1  27
BRANCH   4  30
ATOM     30  C   UNL     1     -22.805  50.679  42.467  1.00  0.00     0.163 C 
BRANCH  30  31
ATOM     31  O   UNL     1     -23.273  50.600  43.790  1.00  0.00    -0.396 OA
ATOM     32  H   UNL     1     -22.662  51.147  44.353  1.00  0.00     0.210 HD
ENDBRANCH  30  31
ENDBRANCH   4  30
BRANCH  13  33
ATOM     33  O   UNL     1     -30.125  42.860  37.985  1.00  0.00    -0.393 OA
ATOM     34  H   UNL     1     -30.010  42.433  37.099  1.00  0.00     0.210 HD
ENDBRANCH  13  33
TORSDOF 4
ENDMDL
MODEL 4
REMARK VINA RESULT:    -4.256      1.772      8.074
REMARK INTER + INTRA:          -5.511
REMARK INTER:                  -4.857
REMARK INTRA:                  -0.653
REMARK UNBOUND:                -0.508
REMARK SMILES C=C(C)[C@H]1CC[C@]2(CO)CC[C@@]3(C)[C@H](CC[C@@H]4[C@]5(C)CC[C@H](O)C(C)(C)[C@@H]5CC[C@]43C)[C@H]12
REMARK SMILES IDX 4 1 5 2 6 3 7 4 32 5 14 6 15 7 16 8 17 9 18 10 20 11 21 12
REMARK SMILES IDX 22 13 24 14 27 15 28 16 29 17 30 18 12 19 11 20 10 21 13 22
REMARK SMILES IDX 31 23 25 24 26 25 19 26 2 27 3 28 1 29 8 30 9 31 23 33
REMARK H PARENT 9 32 23 34
REMARK Flexibility Score: inf
ROOT
ATOM      1  C   UNL     1     -26.977  48.199  41.976  1.00  0.00     0.018 C 
ATOM      2  C   UNL     1     -26.388  46.932  42.613  1.00  0.00     0.009 C 
ATOM      3  C   UNL     1     -25.048  47.345  43.178  1.00  0.00     0.010 C 
ATOM      4  C   UNL     1     -24.484  48.377  42.183  1.00  0.00    -0.003 C 
ATOM      5  C   UNL     1     -25.751  49.110  41.633  1.00  0.00     0.008 C 
ATOM      6  C   UNL     1     -25.862  50.620  42.077  1.00  0.00    -0.000 C 
ATOM      7  C   UNL     1     -26.348  50.790  43.550  1.00  0.00     0.005 C 
ATOM      8  C   UNL     1     -26.231  52.200  44.122  1.00  0.00     0.005 C 
ATOM      9  C   UNL     1     -24.843  52.821  43.865  1.00  0.00     0.002 C 
ATOM     10  C   UNL     1     -24.525  54.080  44.798  1.00  0.00    -0.026 C 
ATOM     11  C   UNL     1     -25.720  55.083  44.829  1.00  0.00     0.010 C 
ATOM     12  C   UNL     1     -25.460  56.396  45.578  1.00  0.00     0.033 C 
ATOM     13  C   UNL     1     -24.005  56.908  45.542  1.00  0.00     0.120 C 
ATOM     14  C   UNL     1     -23.158  56.372  44.347  1.00  0.00    -0.006 C 
ATOM     15  C   UNL     1     -23.155  54.786  44.400  1.00  0.00     0.003 C 
ATOM     16  C   UNL     1     -22.394  54.065  43.259  1.00  0.00     0.005 C 
ATOM     17  C   UNL     1     -23.234  53.709  42.028  1.00  0.00     0.008 C 
ATOM     18  C   UNL     1     -24.576  52.927  42.304  1.00  0.00    -0.024 C 
ATOM     19  C   UNL     1     -24.540  51.426  41.694  1.00  0.00    -0.024 C 
ATOM     20  C   UNL     1     -23.245  50.639  42.148  1.00  0.00     0.008 C 
ATOM     21  C   UNL     1     -23.491  49.330  42.906  1.00  0.00     0.010 C 
ATOM     22  C   UNL     1     -24.483  51.491  40.123  1.00  0.00     0.012 C 
ATOM     23  C   UNL     1     -25.700  53.735  41.563  1.00  0.00     0.012 C 
ATOM     24  C   UNL     1     -23.665  56.946  43.000  1.00  0.00     0.014 C 
ATOM     25  C   UNL     1     -21.708  56.911  44.545  1.00  0.00     0.014 C 
ATOM     26  C   UNL     1     -24.367  53.555  46.267  1.00  0.00     0.012 C 
ENDROOT
BRANCH   1  27
ATOM     27  C   UNL     1     -27.903  47.941  40.780  1.00  0.00    -0.077 C 
ATOM     28  C   UNL     1     -27.930  48.854  39.573  1.00  0.00     0.039 C 
ATOM     29  C   UNL     1     -28.699  46.856  40.782  1.00  0.00     0.008 C 
ENDBRANCH   1  27
BRANCH   4  30
ATOM     30  C   UNL     1     -23.761  47.643  41.008  1.00  0.00     0.163 C 
BRANCH  30  31
ATOM     31  O   UNL     1     -24.292  47.988  39.753  1.00  0.00    -0.396 OA
ATOM     32  H   UNL     1     -25.034  47.354  39.562  1.00  0.00     0.210 HD
ENDBRANCH  30  31
ENDBRANCH   4  30
BRANCH  13  33
ATOM     33  O   UNL     1     -23.997  58.315  45.572  1.00  0.00    -0.393 OA
ATOM     34  H   UNL     1     -24.897  58.614  45.284  1.00  0.00     0.210 HD
ENDBRANCH  13  33
TORSDOF 4
ENDMDL
MODEL 5
REMARK VINA RESULT:    -4.254      1.526      8.056
REMARK INTER + INTRA:          -5.508
REMARK INTER:                  -4.859
REMARK INTRA:                  -0.650
REMARK UNBOUND:                -0.508
REMARK SMILES C=C(C)[C@H]1CC[C@]2(CO)CC[C@@]3(C)[C@H](CC[C@@H]4[C@]5(C)CC[C@H](O)C(C)(C)[C@@H]5CC[C@]43C)[C@H]12
REMARK SMILES IDX 4 1 5 2 6 3 7 4 32 5 14 6 15 7 16 8 17 9 18 10 20 11 21 12
REMARK SMILES IDX 22 13 24 14 27 15 28 16 29 17 30 18 12 19 11 20 10 21 13 22
REMARK SMILES IDX 31 23 25 24 26 25 19 26 2 27 3 28 1 29 8 30 9 31 23 33
REMARK H PARENT 9 32 23 34
REMARK Flexibility Score: inf
ROOT
ATOM      1  C   UNL     1     -26.868  48.105  38.573  1.00  0.00     0.018 C 
ATOM      2  C   UNL     1     -28.233  47.402  38.546  1.00  0.00     0.009 C 
ATOM      3  C   UNL     1     -28.671  47.304  39.990  1.00  0.00     0.010 C 
ATOM      4  C   UNL     1     -27.380  47.056  40.793  1.00  0.00    -0.003 C 
ATOM      5  C   UNL     1     -26.280  47.831  39.998  1.00  0.00     0.008 C 
ATOM      6  C   UNL     1     -25.698  49.083  40.762  1.00  0.00    -0.000 C 
ATOM      7  C   UNL     1     -26.653  50.317  40.730  1.00  0.00     0.005 C 
ATOM      8  C   UNL     1     -26.273  51.467  41.659  1.00  0.00     0.005 C 
ATOM      9  C   UNL     1     -25.955  50.981  43.088  1.00  0.00     0.002 C 
ATOM     10  C   UNL     1     -25.983  52.150  44.179  1.00  0.00    -0.026 C 
ATOM     11  C   UNL     1     -25.185  53.401  43.696  1.00  0.00     0.010 C 
ATOM     12  C   UNL     1     -25.027  54.522  44.729  1.00  0.00     0.033 C 
ATOM     13  C   UNL     1     -24.958  54.068  46.203  1.00  0.00     0.120 C 
ATOM     14  C   UNL     1     -24.506  52.589  46.404  1.00  0.00    -0.006 C 
ATOM     15  C   UNL     1     -25.500  51.642  45.609  1.00  0.00     0.003 C 
ATOM     16  C   UNL     1     -25.185  50.126  45.655  1.00  0.00     0.005 C 
ATOM     17  C   UNL     1     -24.287  49.605  44.528  1.00  0.00     0.008 C 
ATOM     18  C   UNL     1     -24.725  49.978  43.059  1.00  0.00    -0.024 C 
ATOM     19  C   UNL     1     -25.158  48.671  42.205  1.00  0.00    -0.024 C 
ATOM     20  C   UNL     1     -26.222  47.791  42.978  1.00  0.00     0.008 C 
ATOM     21  C   UNL     1     -27.553  47.563  42.253  1.00  0.00     0.010 C 
ATOM     22  C   UNL     1     -23.907  47.744  41.978  1.00  0.00     0.012 C 
ATOM     23  C   UNL     1     -23.457  50.612  42.385  1.00  0.00     0.012 C 
ATOM     24  C   UNL     1     -23.020  52.401  46.008  1.00  0.00     0.014 C 
ATOM     25  C   UNL     1     -24.603  52.293  47.932  1.00  0.00     0.014 C 
ATOM     26  C   UNL     1     -27.471  52.622  44.332  1.00  0.00     0.012 C 
ENDROOT
BRANCH   1  27
ATOM     27  C   UNL     1     -25.923  47.709  37.432  1.00  0.00    -0.077 C 
ATOM     28  C   UNL     1     -24.969  48.699  36.798  1.00  0.00     0.039 C 
ATOM     29  C   UNL     1     -25.915  46.437  36.992  1.00  0.00     0.008 C 
ENDBRANCH   1  27
BRANCH   4  30
ATOM     30  C   UNL     1     -27.040  45.530  40.795  1.00  0.00     0.163 C 
BRANCH  30  31
ATOM     31  O   UNL     1     -25.733  45.273  40.345  1.00  0.00    -0.396 OA
ATOM     32  H   UNL     1     -25.492  44.356  40.645  1.00  0.00     0.210 HD
ENDBRANCH  30  31
ENDBRANCH   4  30
BRANCH  13  33
ATOM     33  O   UNL     1     -24.138  54.949  46.932  1.00  0.00    -0.393 OA
ATOM     34  H   UNL     1     -23.946  55.720  46.340  1.00  0.00     0.210 HD
ENDBRANCH  13  33
TORSDOF 4
ENDMDL
MODEL 6
REMARK VINA RESULT:    -4.225      1.659      8.048
REMARK INTER + INTRA:          -5.474
REMARK INTER:                  -4.823
REMARK INTRA:                  -0.651
REMARK UNBOUND:                -0.508
REMARK SMILES C=C(C)[C@H]1CC[C@]2(CO)CC[C@@]3(C)[C@H](CC[C@@H]4[C@]5(C)CC[C@H](O)C(C)(C)[C@@H]5CC[C@]43C)[C@H]12
REMARK SMILES IDX 4 1 5 2 6 3 7 4 32 5 14 6 15 7 16 8 17 9 18 10 20 11 21 12
REMARK SMILES IDX 22 13 24 14 27 15 28 16 29 17 30 18 12 19 11 20 10 21 13 22
REMARK SMILES IDX 31 23 25 24 26 25 19 26 2 27 3 28 1 29 8 30 9 31 23 33
REMARK H PARENT 9 32 23 34
REMARK Flexibility Score: inf
ROOT
ATOM      1  C   UNL     1     -24.529  47.553  38.327  1.00  0.00     0.018 C 
ATOM      2  C   UNL     1     -25.617  47.420  37.251  1.00  0.00     0.009 C 
ATOM      3  C   UNL     1     -26.791  48.229  37.755  1.00  0.00     0.010 C 
ATOM      4  C   UNL     1     -26.798  48.033  39.283  1.00  0.00    -0.003 C 
ATOM      5  C   UNL     1     -25.287  47.882  39.656  1.00  0.00     0.008 C 
ATOM      6  C   UNL     1     -24.713  49.083  40.505  1.00  0.00    -0.000 C 
ATOM      7  C   UNL     1     -24.421  50.353  39.646  1.00  0.00     0.005 C 
ATOM      8  C   UNL     1     -24.111  51.622  40.434  1.00  0.00     0.005 C 
ATOM      9  C   UNL     1     -25.135  51.873  41.561  1.00  0.00     0.002 C 
ATOM     10  C   UNL     1     -25.117  53.373  42.115  1.00  0.00    -0.026 C 
ATOM     11  C   UNL     1     -23.663  53.859  42.401  1.00  0.00     0.010 C 
ATOM     12  C   UNL     1     -23.546  55.232  43.074  1.00  0.00     0.033 C 
ATOM     13  C   UNL     1     -24.702  55.610  44.024  1.00  0.00     0.120 C 
ATOM     14  C   UNL     1     -25.499  54.396  44.591  1.00  0.00    -0.006 C 
ATOM     15  C   UNL     1     -26.073  53.554  43.375  1.00  0.00     0.003 C 
ATOM     16  C   UNL     1     -26.864  52.273  43.743  1.00  0.00     0.005 C 
ATOM     17  C   UNL     1     -26.034  50.988  43.832  1.00  0.00     0.008 C 
ATOM     18  C   UNL     1     -25.114  50.667  42.592  1.00  0.00    -0.024 C 
ATOM     19  C   UNL     1     -25.590  49.328  41.814  1.00  0.00    -0.024 C 
ATOM     20  C   UNL     1     -27.133  49.371  41.462  1.00  0.00     0.008 C 
ATOM     21  C   UNL     1     -27.482  49.245  39.975  1.00  0.00     0.010 C 
ATOM     22  C   UNL     1     -25.389  48.073  42.741  1.00  0.00     0.012 C 
ATOM     23  C   UNL     1     -23.680  50.413  43.180  1.00  0.00     0.012 C 
ATOM     24  C   UNL     1     -24.628  53.563  45.566  1.00  0.00     0.014 C 
ATOM     25  C   UNL     1     -26.675  54.981  45.432  1.00  0.00     0.014 C 
ATOM     26  C   UNL     1     -25.666  54.305  40.979  1.00  0.00     0.012 C 
ENDROOT
BRANCH   1  27
ATOM     27  C   UNL     1     -23.592  46.345  38.438  1.00  0.00    -0.077 C 
ATOM     28  C   UNL     1     -22.143  46.487  38.854  1.00  0.00     0.039 C 
ATOM     29  C   UNL     1     -24.068  45.112  38.186  1.00  0.00     0.008 C 
ENDBRANCH   1  27
BRANCH   4  30
ATOM     30  C   UNL     1     -27.554  46.713  39.645  1.00  0.00     0.163 C 
BRANCH  30  31
ATOM     31  O   UNL     1     -26.770  45.843  40.422  1.00  0.00    -0.396 OA
ATOM     32  H   UNL     1     -25.898  45.736  39.957  1.00  0.00     0.210 HD
ENDBRANCH  30  31
ENDBRANCH   4  30
BRANCH  13  33
ATOM     33  O   UNL     1     -24.213  56.422  45.065  1.00  0.00    -0.393 OA
ATOM     34  H   UNL     1     -24.989  56.912  45.436  1.00  0.00     0.210 HD
ENDBRANCH  13  33
TORSDOF 4
ENDMDL
MODEL 7
REMARK VINA RESULT:    -4.160      8.545     10.551
REMARK INTER + INTRA:          -5.398
REMARK INTER:                  -4.799
REMARK INTRA:                  -0.598
REMARK UNBOUND:                -0.508
REMARK SMILES C=C(C)[C@H]1CC[C@]2(CO)CC[C@@]3(C)[C@H](CC[C@@H]4[C@]5(C)CC[C@H](O)C(C)(C)[C@@H]5CC[C@]43C)[C@H]12
REMARK SMILES IDX 4 1 5 2 6 3 7 4 32 5 14 6 15 7 16 8 17 9 18 10 20 11 21 12
REMARK SMILES IDX 22 13 24 14 27 15 28 16 29 17 30 18 12 19 11 20 10 21 13 22
REMARK SMILES IDX 31 23 25 24 26 25 19 26 2 27 3 28 1 29 8 30 9 31 23 33
REMARK H PARENT 9 32 23 34
REMARK Flexibility Score: inf
ROOT
ATOM      1  C   UNL     1     -27.322  55.387  34.564  1.00  0.00     0.018 C 
ATOM      2  C   UNL     1     -27.860  56.378  33.521  1.00  0.00     0.009 C 
ATOM      3  C   UNL     1     -27.798  55.650  32.197  1.00  0.00     0.010 C 
ATOM      4  C   UNL     1     -26.524  54.787  32.263  1.00  0.00    -0.003 C 
ATOM      5  C   UNL     1     -26.404  54.397  33.772  1.00  0.00     0.008 C 
ATOM      6  C   UNL     1     -26.631  52.861  34.058  1.00  0.00    -0.000 C 
ATOM      7  C   UNL     1     -28.135  52.449  34.024  1.00  0.00     0.005 C 
ATOM      8  C   UNL     1     -28.406  50.947  34.035  1.00  0.00     0.005 C 
ATOM      9  C   UNL     1     -27.546  50.192  33.001  1.00  0.00     0.002 C 
ATOM     10  C   UNL     1     -28.090  48.725  32.670  1.00  0.00    -0.026 C 
ATOM     11  C   UNL     1     -28.432  47.936  33.972  1.00  0.00     0.010 C 
ATOM     12  C   UNL     1     -28.823  46.467  33.769  1.00  0.00     0.033 C 
ATOM     13  C   UNL     1     -28.155  45.757  32.573  1.00  0.00     0.120 C 
ATOM     14  C   UNL     1     -26.818  46.406  32.098  1.00  0.00    -0.006 C 
ATOM     15  C   UNL     1     -27.096  47.921  31.721  1.00  0.00     0.003 C 
ATOM     16  C   UNL     1     -25.868  48.749  31.264  1.00  0.00     0.005 C 
ATOM     17  C   UNL     1     -25.123  49.492  32.379  1.00  0.00     0.008 C 
ATOM     18  C   UNL     1     -26.006  50.391  33.327  1.00  0.00    -0.024 C 
ATOM     19  C   UNL     1     -25.655  51.965  33.170  1.00  0.00    -0.024 C 
ATOM     20  C   UNL     1     -25.685  52.425  31.656  1.00  0.00     0.008 C 
ATOM     21  C   UNL     1     -26.661  53.557  31.321  1.00  0.00     0.010 C 
ATOM     22  C   UNL     1     -24.192  52.238  33.681  1.00  0.00     0.012 C 
ATOM     23  C   UNL     1     -25.646  49.948  34.790  1.00  0.00     0.012 C 
ATOM     24  C   UNL     1     -25.703  46.226  33.159  1.00  0.00     0.014 C 
ATOM     25  C   UNL     1     -26.361  45.620  30.831  1.00  0.00     0.014 C 
ATOM     26  C   UNL     1     -29.445  48.884  31.895  1.00  0.00     0.012 C 
ENDROOT
BRANCH   1  27
ATOM     27  C   UNL     1     -26.626  56.041  35.764  1.00  0.00    -0.077 C 
ATOM     28  C   UNL     1     -27.400  56.781  36.835  1.00  0.00     0.039 C 
ATOM     29  C   UNL     1     -25.291  55.937  35.893  1.00  0.00     0.008 C 
ENDBRANCH   1  27
BRANCH   4  30
ATOM     30  C   UNL     1     -25.281  55.641  31.849  1.00  0.00     0.163 C 
BRANCH  30  31
ATOM     31  O   UNL     1     -24.209  55.495  32.747  1.00  0.00    -0.396 OA
ATOM     32  H   UNL     1     -23.672  54.716  32.442  1.00  0.00     0.210 HD
ENDBRANCH  30  31
ENDBRANCH   4  30
BRANCH  13  33
ATOM     33  O   UNL     1     -27.974  44.393  32.872  1.00  0.00    -0.393 OA
ATOM     34  H   UNL     1     -28.638  44.161  33.569  1.00  0.00     0.210 HD
ENDBRANCH  13  33
TORSDOF 4
ENDMDL
MODEL 8
REMARK VINA RESULT:    -4.104      1.621      2.606
REMARK INTER + INTRA:          -5.331
REMARK INTER:                  -4.664
REMARK INTRA:                  -0.668
REMARK UNBOUND:                -0.508
REMARK SMILES C=C(C)[C@H]1CC[C@]2(CO)CC[C@@]3(C)[C@H](CC[C@@H]4[C@]5(C)CC[C@H](O)C(C)(C)[C@@H]5CC[C@]43C)[C@H]12
REMARK SMILES IDX 4 1 5 2 6 3 7 4 32 5 14 6 15 7 16 8 17 9 18 10 20 11 21 12
REMARK SMILES IDX 22 13 24 14 27 15 28 16 29 17 30 18 12 19 11 20 10 21 13 22
REMARK SMILES IDX 31 23 25 24 26 25 19 26 2 27 3 28 1 29 8 30 9 31 23 33
REMARK H PARENT 9 32 23 34
REMARK Flexibility Score: inf
ROOT
ATOM      1  C   UNL     1     -25.336  53.265  46.410  1.00  0.00     0.018 C 
ATOM      2  C   UNL     1     -26.254  54.496  46.391  1.00  0.00     0.009 C 
ATOM      3  C   UNL     1     -26.498  54.799  44.930  1.00  0.00     0.010 C 
ATOM      4  C   UNL     1     -25.175  54.468  44.215  1.00  0.00    -0.003 C 
ATOM      5  C   UNL     1     -24.585  53.276  45.037  1.00  0.00     0.008 C 
ATOM      6  C   UNL     1     -24.555  51.907  44.250  1.00  0.00    -0.000 C 
ATOM      7  C   UNL     1     -25.953  51.219  44.169  1.00  0.00     0.005 C 
ATOM      8  C   UNL     1     -26.048  50.034  43.211  1.00  0.00     0.005 C 
ATOM      9  C   UNL     1     -25.446  50.353  41.828  1.00  0.00     0.002 C 
ATOM     10  C   UNL     1     -25.903  49.333  40.684  1.00  0.00    -0.026 C 
ATOM     11  C   UNL     1     -25.770  47.852  41.154  1.00  0.00     0.010 C 
ATOM     12  C   UNL     1     -26.044  46.792  40.080  1.00  0.00     0.033 C 
ATOM     13  C   UNL     1     -25.676  47.194  38.636  1.00  0.00     0.120 C 
ATOM     14  C   UNL     1     -24.610  48.327  38.530  1.00  0.00    -0.006 C 
ATOM     15  C   UNL     1     -25.144  49.601  39.310  1.00  0.00     0.003 C 
ATOM     16  C   UNL     1     -24.195  50.825  39.353  1.00  0.00     0.005 C 
ATOM     17  C   UNL     1     -23.245  50.880  40.553  1.00  0.00     0.008 C 
ATOM     18  C   UNL     1     -23.907  50.713  41.974  1.00  0.00    -0.024 C 
ATOM     19  C   UNL     1     -23.786  52.064  42.862  1.00  0.00    -0.024 C 
ATOM     20  C   UNL     1     -24.299  53.335  42.070  1.00  0.00     0.008 C 
ATOM     21  C   UNL     1     -25.445  54.112  42.726  1.00  0.00     0.010 C 
ATOM     22  C   UNL     1     -22.276  52.342  43.204  1.00  0.00     0.012 C 
ATOM     23  C   UNL     1     -23.097  49.576  42.691  1.00  0.00     0.012 C 
ATOM     24  C   UNL     1     -23.224  47.836  39.021  1.00  0.00     0.014 C 
ATOM     25  C   UNL     1     -24.455  48.659  37.015  1.00  0.00     0.014 C 
ATOM     26  C   UNL     1     -27.432  49.566  40.423  1.00  0.00     0.012 C 
ENDROOT
BRANCH   1  27
ATOM     27  C   UNL     1     -24.399  53.187  47.622  1.00  0.00    -0.077 C 
ATOM     28  C   UNL     1     -22.912  52.942  47.473  1.00  0.00     0.039 C 
ATOM     29  C   UNL     1     -24.899  53.368  48.857  1.00  0.00     0.008 C 
ENDBRANCH   1  27
BRANCH   4  30
ATOM     30  C   UNL     1     -24.202  55.689  44.305  1.00  0.00     0.163 C 
BRANCH  30  31
ATOM     31  O   UNL     1     -22.958  55.342  44.859  1.00  0.00    -0.396 OA
ATOM     32  H   UNL     1     -22.735  54.428  44.537  1.00  0.00     0.210 HD
ENDBRANCH  30  31
ENDBRANCH   4  30
BRANCH  13  33
ATOM     33  O   UNL     1     -25.273  46.054  37.916  1.00  0.00    -0.393 OA
ATOM     34  H   UNL     1     -25.466  46.233  36.961  1.00  0.00     0.210 HD
ENDBRANCH  13  33
TORSDOF 4
ENDMDL
MODEL 9
REMARK VINA RESULT:    -4.006      2.041      3.395
REMARK INTER + INTRA:          -5.216
REMARK INTER:                  -4.711
REMARK INTRA:                  -0.505
REMARK UNBOUND:                -0.508
REMARK SMILES C=C(C)[C@H]1CC[C@]2(CO)CC[C@@]3(C)[C@H](CC[C@@H]4[C@]5(C)CC[C@H](O)C(C)(C)[C@@H]5CC[C@]43C)[C@H]12
REMARK SMILES IDX 4 1 5 2 6 3 7 4 32 5 14 6 15 7 16 8 17 9 18 10 20 11 21 12
REMARK SMILES IDX 22 13 24 14 27 15 28 16 29 17 30 18 12 19 11 20 10 21 13 22
REMARK SMILES IDX 31 23 25 24 26 25 19 26 2 27 3 28 1 29 8 30 9 31 23 33
REMARK H PARENT 9 32 23 34
REMARK Flexibility Score: inf
ROOT
ATOM      1  C   UNL     1     -22.939  55.781  48.300  1.00  0.00     0.018 C 
ATOM      2  C   UNL     1     -23.814  55.862  49.559  1.00  0.00     0.009 C 
ATOM      3  C   UNL     1     -25.153  55.281  49.163  1.00  0.00     0.010 C 
ATOM      4  C   UNL     1     -25.375  55.721  47.703  1.00  0.00    -0.003 C 
ATOM      5  C   UNL     1     -23.936  55.758  47.093  1.00  0.00     0.008 C 
ATOM      6  C   UNL     1     -23.675  54.653  45.997  1.00  0.00    -0.000 C 
ATOM      7  C   UNL     1     -23.429  53.236  46.605  1.00  0.00     0.005 C 
ATOM      8  C   UNL     1     -23.427  52.083  45.605  1.00  0.00     0.005 C 
ATOM      9  C   UNL     1     -24.640  52.134  44.654  1.00  0.00     0.002 C 
ATOM     10  C   UNL     1     -24.918  50.751  43.902  1.00  0.00    -0.026 C 
ATOM     11  C   UNL     1     -23.609  50.156  43.298  1.00  0.00     0.010 C 
ATOM     12  C   UNL     1     -23.791  48.905  42.430  1.00  0.00     0.033 C 
ATOM     13  C   UNL     1     -25.124  48.817  41.657  1.00  0.00     0.120 C 
ATOM     14  C   UNL     1     -25.825  50.189  41.414  1.00  0.00    -0.006 C 
ATOM     15  C   UNL     1     -26.077  50.884  42.818  1.00  0.00     0.003 C 
ATOM     16  C   UNL     1     -26.731  52.288  42.779  1.00  0.00     0.005 C 
ATOM     17  C   UNL     1     -25.756  53.469  42.724  1.00  0.00     0.008 C 
ATOM     18  C   UNL     1     -24.616  53.481  43.814  1.00  0.00    -0.024 C 
ATOM     19  C   UNL     1     -24.773  54.722  44.843  1.00  0.00    -0.024 C 
ATOM     20  C   UNL     1     -26.232  54.797  45.454  1.00  0.00     0.008 C 
ATOM     21  C   UNL     1     -26.321  54.721  46.981  1.00  0.00     0.010 C 
ATOM     22  C   UNL     1     -24.550  56.079  44.079  1.00  0.00     0.012 C 
ATOM     23  C   UNL     1     -23.272  53.662  43.023  1.00  0.00     0.012 C 
ATOM     24  C   UNL     1     -25.012  51.064  40.427  1.00  0.00     0.014 C 
ATOM     25  C   UNL     1     -27.188  49.883  40.723  1.00  0.00     0.014 C 
ATOM     26  C   UNL     1     -25.405  49.716  44.976  1.00  0.00     0.012 C 
ENDROOT
BRANCH   1  27
ATOM     27  C   UNL     1     -21.872  56.879  48.194  1.00  0.00    -0.077 C 
ATOM     28  C   UNL     1     -21.963  57.990  47.170  1.00  0.00     0.039 C 
ATOM     29  C   UNL     1     -20.835  56.877  49.050  1.00  0.00     0.008 C 
ENDBRANCH   1  27
BRANCH   4  30
ATOM     30  C   UNL     1     -25.989  57.158  47.669  1.00  0.00     0.163 C 
BRANCH  30  31
ATOM     31  O   UNL     1     -27.247  57.218  48.293  1.00  0.00    -0.396 OA
ATOM     32  H   UNL     1     -27.512  58.176  48.333  1.00  0.00     0.210 HD
ENDBRANCH  30  31
ENDBRANCH   4  30
BRANCH  13  33
ATOM     33  O   UNL     1     -24.923  48.134  40.443  1.00  0.00    -0.393 OA
ATOM     34  H   UNL     1     -25.478  48.589  39.761  1.00  0.00     0.210 HD
ENDBRANCH  13  33
TORSDOF 4
ENDMDL
