MODEL 1
REMARK VINA RESULT:    -3.540      0.000      0.000
REMARK INTER + INTRA:          -5.975
REMARK INTER:                  -5.402
REMARK INTRA:                  -0.573
REMARK UNBOUND:                -0.573
REMARK SMILES CC1=CCC[C@@H](C)C(=O)C[C@@H](C(C)C)C(=O)C1
REMARK SMILES IDX 8 1 9 2 6 3 7 4 5 5 4 6 3 7 2 8 1 9 10 11 11 12 15 13 16 14
REMARK SMILES IDX 17 15 12 17 13 18 14 19
REMARK H PARENT
REMARK Flexibility Score: 70.00
ROOT
ATOM      1  C   UNL     1      -0.415  29.680  51.915  1.00  0.00     0.136 C 
ATOM      2  O   UNL     1       0.530  30.378  51.575  1.00  0.00    -0.299 OA
ENDROOT
BRANCH   1   3
ATOM      3  C   UNL     1      -1.616  29.527  50.985  1.00  0.00     0.053 C 
ATOM      4  C   UNL     1      -1.201  29.383  49.512  1.00  0.00     0.016 C 
BRANCH   3   5
ATOM      5  C   UNL     1      -2.605  30.715  51.151  1.00  0.00     0.015 C 
BRANCH   5   6
ATOM      6  C   UNL     1      -3.748  30.523  52.171  1.00  0.00     0.028 C 
BRANCH   6   7
ATOM      7  C   UNL     1      -3.589  31.114  53.556  1.00  0.00    -0.028 C 
ATOM      8  C   UNL     1      -3.394  30.446  54.720  1.00  0.00    -0.070 CG0
ATOM      9  C   UNL     1      -3.035  31.266  55.936  1.00  0.00     0.039 C 
ATOM     10  G   UNL     1      -3.584  28.946  54.899  1.00  0.00     0.000 G0
ENDBRANCH   6   7
ENDBRANCH   5   6
ENDBRANCH   3   5
ENDBRANCH   1   3
BRANCH   1  11
ATOM     11  C   UNL     1      -0.333  28.960  53.252  1.00  0.00     0.087 C 
BRANCH  11  12
ATOM     12  C   UNL     1      -1.500  27.975  53.507  1.00  0.00     0.066 C 
BRANCH  12  13
ATOM     13  C   UNL     1      -2.263  28.194  54.812  1.00  0.00     0.140 C 
ATOM     14  O   UNL     1      -1.728  27.805  55.842  1.00  0.00    -0.299 OA
BRANCH  13  15
ATOM     15  C   UNL     1      -3.586  28.940  54.922  1.00  0.00     0.106 CG0
ATOM     16  G   UNL     1      -3.396  30.434  54.703  1.00  0.00     0.000 G0
ENDBRANCH  13  15
ENDBRANCH  12  13
BRANCH  12  17
ATOM     17  C   UNL     1      -1.054  26.490  53.322  1.00  0.00    -0.006 C 
ATOM     18  C   UNL     1       0.452  26.313  53.569  1.00  0.00     0.008 C 
ATOM     19  C   UNL     1      -1.436  25.892  51.958  1.00  0.00     0.008 C 
ENDBRANCH  12  17
ENDBRANCH  11  12
ENDBRANCH   1  11
TORSDOF 1
ENDMDL
MODEL 2
REMARK VINA RESULT:    -3.277      2.309      3.524
REMARK INTER + INTRA:          -5.574
REMARK INTER:                  -5.868
REMARK INTRA:                   0.295
REMARK UNBOUND:                -0.573
REMARK SMILES CC1=CCC[C@@H](C)C(=O)C[C@@H](C(C)C)C(=O)C1
REMARK SMILES IDX 8 1 9 2 6 3 7 4 5 5 4 6 3 7 2 8 1 9 10 11 11 12 15 13 16 14
REMARK SMILES IDX 17 15 12 17 13 18 14 19
REMARK H PARENT
REMARK Flexibility Score: 70.00
ROOT
ATOM      1  C   UNL     1      -2.584  26.186  52.088  1.00  0.00     0.136 C 
ATOM      2  O   UNL     1      -3.021  25.071  51.840  1.00  0.00    -0.299 OA
ENDROOT
BRANCH   1   3
ATOM      3  C   UNL     1      -3.549  27.354  52.270  1.00  0.00     0.053 C 
ATOM      4  C   UNL     1      -4.914  26.905  52.816  1.00  0.00     0.016 C 
BRANCH   3   5
ATOM      5  C   UNL     1      -3.734  28.139  50.941  1.00  0.00     0.015 C 
BRANCH   5   6
ATOM      6  C   UNL     1      -2.580  29.077  50.530  1.00  0.00     0.028 C 
BRANCH   6   7
ATOM      7  C   UNL     1      -2.276  30.277  51.403  1.00  0.00    -0.028 C 
ATOM      8  C   UNL     1      -1.177  30.480  52.172  1.00  0.00    -0.070 CG0
ATOM      9  C   UNL     1      -0.997  31.854  52.770  1.00  0.00     0.039 C 
ATOM     10  G   UNL     1      -0.162  29.404  52.531  1.00  0.00     0.000 G0
ENDBRANCH   6   7
ENDBRANCH   5   6
ENDBRANCH   3   5
ENDBRANCH   1   3
BRANCH   1  11
ATOM     11  C   UNL     1      -1.079  26.352  52.236  1.00  0.00     0.087 C 
BRANCH  11  12
ATOM     12  C   UNL     1      -0.646  26.962  53.591  1.00  0.00     0.066 C 
BRANCH  12  13
ATOM     13  C   UNL     1      -0.662  28.488  53.652  1.00  0.00     0.140 C 
ATOM     14  O   UNL     1      -1.053  29.000  54.692  1.00  0.00    -0.299 OA
BRANCH  13  15
ATOM     15  C   UNL     1      -0.142  29.401  52.549  1.00  0.00     0.106 CG0
ATOM     16  G   UNL     1      -1.165  30.471  52.193  1.00  0.00     0.000 G0
ENDBRANCH  13  15
ENDBRANCH  12  13
BRANCH  12  17
ATOM     17  C   UNL     1       0.707  26.362  54.089  1.00  0.00    -0.006 C 
ATOM     18  C   UNL     1       0.499  25.366  55.239  1.00  0.00     0.008 C 
ATOM     19  C   UNL     1       1.744  27.423  54.494  1.00  0.00     0.008 C 
ENDBRANCH  12  17
ENDBRANCH  11  12
ENDBRANCH   1  11
TORSDOF 1
ENDMDL
MODEL 3
REMARK VINA RESULT:    -3.237      2.176      4.197
REMARK INTER + INTRA:          -5.514
REMARK INTER:                  -5.116
REMARK INTRA:                  -0.398
REMARK UNBOUND:                -0.573
REMARK SMILES CC1=CCC[C@@H](C)C(=O)C[C@@H](C(C)C)C(=O)C1
REMARK SMILES IDX 8 1 9 2 6 3 7 4 5 5 4 6 3 7 2 8 1 9 10 11 11 12 15 13 16 14
REMARK SMILES IDX 17 15 12 17 13 18 14 19
REMARK H PARENT
REMARK Flexibility Score: 70.00
ROOT
ATOM      1  C   UNL     1      -2.156  27.808  50.848  1.00  0.00     0.136 C 
ATOM      2  O   UNL     1      -1.299  28.514  50.334  1.00  0.00    -0.299 OA
ENDROOT
BRANCH   1   3
ATOM      3  C   UNL     1      -1.751  26.510  51.540  1.00  0.00     0.053 C 
ATOM      4  C   UNL     1      -2.966  25.698  52.017  1.00  0.00     0.016 C 
BRANCH   3   5
ATOM      5  C   UNL     1      -0.789  26.787  52.728  1.00  0.00     0.015 C 
BRANCH   5   6
ATOM      6  C   UNL     1      -1.426  27.368  54.009  1.00  0.00     0.028 C 
BRANCH   6   7
ATOM      7  C   UNL     1      -1.392  28.868  54.218  1.00  0.00    -0.028 C 
ATOM      8  C   UNL     1      -2.445  29.724  54.225  1.00  0.00    -0.070 CG0
ATOM      9  C   UNL     1      -2.183  31.138  54.683  1.00  0.00     0.039 C 
ATOM     10  G   UNL     1      -3.845  29.377  53.737  1.00  0.00     0.000 G0
ENDBRANCH   6   7
ENDBRANCH   5   6
ENDBRANCH   3   5
ENDBRANCH   1   3
BRANCH   1  11
ATOM     11  C   UNL     1      -3.600  28.282  50.799  1.00  0.00     0.087 C 
BRANCH  11  12
ATOM     12  C   UNL     1      -3.772  29.798  51.059  1.00  0.00     0.066 C 
BRANCH  12  13
ATOM     13  C   UNL     1      -4.211  30.170  52.474  1.00  0.00     0.140 C 
ATOM     14  O   UNL     1      -4.963  31.128  52.590  1.00  0.00    -0.299 OA
BRANCH  13  15
ATOM     15  C   UNL     1      -3.853  29.377  53.724  1.00  0.00     0.106 CG0
ATOM     16  G   UNL     1      -2.454  29.725  54.213  1.00  0.00     0.000 G0
ENDBRANCH  13  15
ENDBRANCH  12  13
BRANCH  12  17
ATOM     17  C   UNL     1      -4.657  30.476  49.965  1.00  0.00    -0.006 C 
ATOM     18  C   UNL     1      -5.084  29.477  48.879  1.00  0.00     0.008 C 
ATOM     19  C   UNL     1      -4.008  31.710  49.318  1.00  0.00     0.008 C 
ENDBRANCH  12  17
ENDBRANCH  11  12
ENDBRANCH   1  11
TORSDOF 1
ENDMDL
MODEL 4
REMARK VINA RESULT:    -3.206      1.643      3.735
REMARK INTER + INTRA:          -5.466
REMARK INTER:                  -4.854
REMARK INTRA:                  -0.613
REMARK UNBOUND:                -0.573
REMARK SMILES CC1=CCC[C@@H](C)C(=O)C[C@@H](C(C)C)C(=O)C1
REMARK SMILES IDX 8 1 9 2 6 3 7 4 5 5 4 6 3 7 2 8 1 9 10 11 11 12 15 13 16 14
REMARK SMILES IDX 17 15 12 17 13 18 14 19
REMARK H PARENT
REMARK Flexibility Score: 70.00
ROOT
ATOM      1  C   UNL     1      -1.018  27.095  53.095  1.00  0.00     0.136 C 
ATOM      2  O   UNL     1      -0.916  25.905  52.831  1.00  0.00    -0.299 OA
ENDROOT
BRANCH   1   3
ATOM      3  C   UNL     1      -0.216  27.686  54.250  1.00  0.00     0.053 C 
ATOM      4  C   UNL     1       1.255  27.241  54.228  1.00  0.00     0.016 C 
BRANCH   3   5
ATOM      5  C   UNL     1      -0.864  27.334  55.618  1.00  0.00     0.015 C 
BRANCH   5   6
ATOM      6  C   UNL     1      -2.281  27.891  55.873  1.00  0.00     0.028 C 
BRANCH   6   7
ATOM      7  C   UNL     1      -2.447  29.385  56.061  1.00  0.00    -0.028 C 
ATOM      8  C   UNL     1      -3.214  30.228  55.326  1.00  0.00    -0.070 CG0
ATOM      9  C   UNL     1      -3.396  31.632  55.850  1.00  0.00     0.039 C 
ATOM     10  G   UNL     1      -3.838  29.879  53.981  1.00  0.00     0.000 G0
ENDBRANCH   6   7
ENDBRANCH   5   6
ENDBRANCH   3   5
ENDBRANCH   1   3
BRANCH   1  11
ATOM     11  C   UNL     1      -1.930  27.948  52.225  1.00  0.00     0.087 C 
BRANCH  11  12
ATOM     12  C   UNL     1      -1.694  29.470  52.374  1.00  0.00     0.066 C 
BRANCH  12  13
ATOM     13  C   UNL     1      -2.913  30.276  52.820  1.00  0.00     0.140 C 
ATOM     14  O   UNL     1      -3.200  31.264  52.158  1.00  0.00    -0.299 OA
BRANCH  13  15
ATOM     15  C   UNL     1      -3.836  29.881  53.966  1.00  0.00     0.106 CG0
ATOM     16  G   UNL     1      -3.221  30.231  55.314  1.00  0.00     0.000 G0
ENDBRANCH  13  15
ENDBRANCH  12  13
BRANCH  12  17
ATOM     17  C   UNL     1      -1.012  30.077  51.108  1.00  0.00    -0.006 C 
ATOM     18  C   UNL     1      -1.438  29.345  49.826  1.00  0.00     0.008 C 
ATOM     19  C   UNL     1       0.522  30.134  51.195  1.00  0.00     0.008 C 
ENDBRANCH  12  17
ENDBRANCH  11  12
ENDBRANCH   1  11
TORSDOF 1
ENDMDL
MODEL 5
REMARK VINA RESULT:    -3.197      1.657      2.100
REMARK INTER + INTRA:          -5.452
REMARK INTER:                  -4.820
REMARK INTRA:                  -0.632
REMARK UNBOUND:                -0.573
REMARK SMILES CC1=CCC[C@@H](C)C(=O)C[C@@H](C(C)C)C(=O)C1
REMARK SMILES IDX 8 1 9 2 6 3 7 4 5 5 4 6 3 7 2 8 1 9 10 11 11 12 15 13 16 14
REMARK SMILES IDX 17 15 12 17 13 18 14 19
REMARK H PARENT
REMARK Flexibility Score: 70.00
ROOT
ATOM      1  C   UNL     1      -2.191  29.209  50.176  1.00  0.00     0.136 C 
ATOM      2  O   UNL     1      -1.586  29.701  49.234  1.00  0.00    -0.299 OA
ENDROOT
BRANCH   1   3
ATOM      3  C   UNL     1      -3.662  29.554  50.393  1.00  0.00     0.053 C 
ATOM      4  C   UNL     1      -4.525  29.237  49.162  1.00  0.00     0.016 C 
BRANCH   3   5
ATOM      5  C   UNL     1      -3.831  31.044  50.800  1.00  0.00     0.015 C 
BRANCH   5   6
ATOM      6  C   UNL     1      -2.968  31.539  51.980  1.00  0.00     0.028 C 
BRANCH   6   7
ATOM      7  C   UNL     1      -3.384  31.165  53.388  1.00  0.00    -0.028 C 
ATOM      8  C   UNL     1      -2.658  30.482  54.308  1.00  0.00    -0.070 CG0
ATOM      9  C   UNL     1      -3.198  30.433  55.717  1.00  0.00     0.039 C 
ATOM     10  G   UNL     1      -1.384  29.707  54.002  1.00  0.00     0.000 G0
ENDBRANCH   6   7
ENDBRANCH   5   6
ENDBRANCH   3   5
ENDBRANCH   1   3
BRANCH   1  11
ATOM     11  C   UNL     1      -1.448  28.238  51.080  1.00  0.00     0.087 C 
BRANCH  11  12
ATOM     12  C   UNL     1      -2.259  27.789  52.319  1.00  0.00     0.066 C 
BRANCH  12  13
ATOM     13  C   UNL     1      -1.697  28.245  53.664  1.00  0.00     0.140 C 
ATOM     14  O   UNL     1      -1.413  27.373  54.475  1.00  0.00    -0.299 OA
BRANCH  13  15
ATOM     15  C   UNL     1      -1.384  29.693  54.022  1.00  0.00     0.106 CG0
ATOM     16  G   UNL     1      -2.659  30.478  54.298  1.00  0.00     0.000 G0
ENDBRANCH  13  15
ENDBRANCH  12  13
BRANCH  12  17
ATOM     17  C   UNL     1      -2.559  26.257  52.291  1.00  0.00    -0.006 C 
ATOM     18  C   UNL     1      -1.697  25.527  51.249  1.00  0.00     0.008 C 
ATOM     19  C   UNL     1      -4.043  25.919  52.074  1.00  0.00     0.008 C 
ENDBRANCH  12  17
ENDBRANCH  11  12
ENDBRANCH   1  11
TORSDOF 1
ENDMDL
MODEL 6
REMARK VINA RESULT:    -3.142      2.169      3.070
REMARK INTER + INTRA:          -5.368
REMARK INTER:                  -5.616
REMARK INTRA:                   0.249
REMARK UNBOUND:                -0.573
REMARK SMILES CC1=CCC[C@@H](C)C(=O)C[C@@H](C(C)C)C(=O)C1
REMARK SMILES IDX 8 1 9 2 6 3 7 4 5 5 4 6 3 7 2 8 1 9 10 11 11 12 15 13 16 14
REMARK SMILES IDX 17 15 12 17 13 18 14 19
REMARK H PARENT
REMARK Flexibility Score: 70.00
ROOT
ATOM      1  C   UNL     1      -1.952  26.708  52.071  1.00  0.00     0.136 C 
ATOM      2  O   UNL     1      -1.713  27.252  51.002  1.00  0.00    -0.299 OA
ENDROOT
BRANCH   1   3
ATOM      3  C   UNL     1      -3.399  26.443  52.477  1.00  0.00     0.053 C 
ATOM      4  C   UNL     1      -3.984  25.204  51.782  1.00  0.00     0.016 C 
BRANCH   3   5
ATOM      5  C   UNL     1      -4.292  27.686  52.204  1.00  0.00     0.015 C 
BRANCH   5   6
ATOM      6  C   UNL     1      -4.600  28.593  53.414  1.00  0.00     0.028 C 
BRANCH   6   7
ATOM      7  C   UNL     1      -3.909  28.302  54.731  1.00  0.00    -0.028 C 
ATOM      8  C   UNL     1      -2.752  28.840  55.191  1.00  0.00    -0.070 CG0
ATOM      9  C   UNL     1      -2.387  28.566  56.630  1.00  0.00     0.039 C 
ATOM     10  G   UNL     1      -1.768  29.632  54.341  1.00  0.00     0.000 G0
ENDBRANCH   6   7
ENDBRANCH   5   6
ENDBRANCH   3   5
ENDBRANCH   1   3
BRANCH   1  11
ATOM     11  C   UNL     1      -0.778  26.287  52.941  1.00  0.00     0.087 C 
BRANCH  11  12
ATOM     12  C   UNL     1      -0.490  27.253  54.116  1.00  0.00     0.066 C 
BRANCH  12  13
ATOM     13  C   UNL     1      -0.649  28.737  53.790  1.00  0.00     0.140 C 
ATOM     14  O   UNL     1       0.130  29.216  52.976  1.00  0.00    -0.299 OA
BRANCH  13  15
ATOM     15  C   UNL     1      -1.758  29.627  54.336  1.00  0.00     0.106 CG0
ATOM     16  G   UNL     1      -2.742  28.824  55.177  1.00  0.00     0.000 G0
ENDBRANCH  13  15
ENDBRANCH  12  13
BRANCH  12  17
ATOM     17  C   UNL     1       0.877  26.939  54.802  1.00  0.00    -0.006 C 
ATOM     18  C   UNL     1       1.944  26.518  53.780  1.00  0.00     0.008 C 
ATOM     19  C   UNL     1       0.782  25.891  55.923  1.00  0.00     0.008 C 
ENDBRANCH  12  17
ENDBRANCH  11  12
ENDBRANCH   1  11
TORSDOF 1
ENDMDL
MODEL 7
REMARK VINA RESULT:    -3.140      2.110      4.485
REMARK INTER + INTRA:          -5.365
REMARK INTER:                  -4.903
REMARK INTRA:                  -0.463
REMARK UNBOUND:                -0.573
REMARK SMILES CC1=CCC[C@@H](C)C(=O)C[C@@H](C(C)C)C(=O)C1
REMARK SMILES IDX 8 1 9 2 6 3 7 4 5 5 4 6 3 7 2 8 1 9 10 11 11 12 15 13 16 14
REMARK SMILES IDX 17 15 12 17 13 18 14 19
REMARK H PARENT
REMARK Flexibility Score: 70.00
ROOT
ATOM      1  C   UNL     1      -0.398  28.640  53.611  1.00  0.00     0.136 C 
ATOM      2  O   UNL     1       0.793  28.805  53.389  1.00  0.00    -0.299 OA
ENDROOT
BRANCH   1   3
ATOM      3  C   UNL     1      -0.915  27.251  53.974  1.00  0.00     0.053 C 
ATOM      4  C   UNL     1      -0.169  26.644  55.172  1.00  0.00     0.016 C 
BRANCH   3   5
ATOM      5  C   UNL     1      -0.842  26.291  52.753  1.00  0.00     0.015 C 
BRANCH   5   6
ATOM      6  C   UNL     1      -1.967  26.423  51.705  1.00  0.00     0.028 C 
BRANCH   6   7
ATOM      7  C   UNL     1      -1.843  27.493  50.640  1.00  0.00    -0.028 C 
ATOM      8  C   UNL     1      -2.586  28.621  50.513  1.00  0.00    -0.070 CG0
ATOM      9  C   UNL     1      -2.120  29.646  49.507  1.00  0.00     0.039 C 
ATOM     10  G   UNL     1      -3.886  28.888  51.258  1.00  0.00     0.000 G0
ENDBRANCH   6   7
ENDBRANCH   5   6
ENDBRANCH   3   5
ENDBRANCH   1   3
BRANCH   1  11
ATOM     11  C   UNL     1      -1.316  29.851  53.545  1.00  0.00     0.087 C 
BRANCH  11  12
ATOM     12  C   UNL     1      -2.820  29.504  53.655  1.00  0.00     0.066 C 
BRANCH  12  13
ATOM     13  C   UNL     1      -3.658  29.848  52.425  1.00  0.00     0.140 C 
ATOM     14  O   UNL     1      -4.105  30.985  52.355  1.00  0.00    -0.299 OA
BRANCH  13  15
ATOM     15  C   UNL     1      -3.893  28.906  51.251  1.00  0.00     0.106 CG0
ATOM     16  G   UNL     1      -2.596  28.623  50.506  1.00  0.00     0.000 G0
ENDBRANCH  13  15
ENDBRANCH  12  13
BRANCH  12  17
ATOM     17  C   UNL     1      -3.447  30.058  54.974  1.00  0.00    -0.006 C 
ATOM     18  C   UNL     1      -2.482  31.000  55.711  1.00  0.00     0.008 C 
ATOM     19  C   UNL     1      -3.947  28.964  55.931  1.00  0.00     0.008 C 
ENDBRANCH  12  17
ENDBRANCH  11  12
ENDBRANCH   1  11
TORSDOF 1
ENDMDL
MODEL 8
REMARK VINA RESULT:    -3.120      2.004      4.104
REMARK INTER + INTRA:          -5.335
REMARK INTER:                  -4.885
REMARK INTRA:                  -0.450
REMARK UNBOUND:                -0.573
REMARK SMILES CC1=CCC[C@@H](C)C(=O)C[C@@H](C(C)C)C(=O)C1
REMARK SMILES IDX 8 1 9 2 6 3 7 4 5 5 4 6 3 7 2 8 1 9 10 11 11 12 15 13 16 14
REMARK SMILES IDX 17 15 12 17 13 18 14 19
REMARK H PARENT
REMARK Flexibility Score: 70.00
ROOT
ATOM      1  C   UNL     1      -3.056  28.870  51.588  1.00  0.00     0.136 C 
ATOM      2  O   UNL     1      -3.891  29.249  50.779  1.00  0.00    -0.299 OA
ENDROOT
BRANCH   1   3
ATOM      3  C   UNL     1      -1.723  28.315  51.094  1.00  0.00     0.053 C 
ATOM      4  C   UNL     1      -1.306  28.911  49.740  1.00  0.00     0.016 C 
BRANCH   3   5
ATOM      5  C   UNL     1      -1.761  26.764  51.010  1.00  0.00     0.015 C 
BRANCH   5   6
ATOM      6  C   UNL     1      -1.323  25.994  52.274  1.00  0.00     0.028 C 
BRANCH   6   7
ATOM      7  C   UNL     1      -0.195  26.560  53.111  1.00  0.00    -0.028 C 
ATOM      8  C   UNL     1      -0.250  26.962  54.405  1.00  0.00    -0.070 CG0
ATOM      9  C   UNL     1       1.059  27.273  55.089  1.00  0.00     0.039 C 
ATOM     10  G   UNL     1      -1.537  27.190  55.186  1.00  0.00     0.000 G0
ENDBRANCH   6   7
ENDBRANCH   5   6
ENDBRANCH   3   5
ENDBRANCH   1   3
BRANCH   1  11
ATOM     11  C   UNL     1      -3.377  29.002  53.068  1.00  0.00     0.087 C 
BRANCH  11  12
ATOM     12  C   UNL     1      -2.193  29.514  53.923  1.00  0.00     0.066 C 
BRANCH  12  13
ATOM     13  C   UNL     1      -1.900  28.701  55.182  1.00  0.00     0.140 C 
ATOM     14  O   UNL     1      -2.046  29.266  56.258  1.00  0.00    -0.299 OA
BRANCH  13  15
ATOM     15  C   UNL     1      -1.532  27.222  55.188  1.00  0.00     0.106 CG0
ATOM     16  G   UNL     1      -0.250  26.972  54.406  1.00  0.00     0.000 G0
ENDBRANCH  13  15
ENDBRANCH  12  13
BRANCH  12  17
ATOM     17  C   UNL     1      -2.311  31.043  54.219  1.00  0.00    -0.006 C 
ATOM     18  C   UNL     1      -3.777  31.495  54.300  1.00  0.00     0.008 C 
ATOM     19  C   UNL     1      -1.542  31.929  53.225  1.00  0.00     0.008 C 
ENDBRANCH  12  17
ENDBRANCH  11  12
ENDBRANCH   1  11
TORSDOF 1
ENDMDL
MODEL 9
REMARK VINA RESULT:    -3.062      1.911      3.929
REMARK INTER + INTRA:          -5.246
REMARK INTER:                  -4.960
REMARK INTRA:                  -0.287
REMARK UNBOUND:                -0.573
REMARK SMILES CC1=CCC[C@@H](C)C(=O)C[C@@H](C(C)C)C(=O)C1
REMARK SMILES IDX 8 1 9 2 6 3 7 4 5 5 4 6 3 7 2 8 1 9 10 11 11 12 15 13 16 14
REMARK SMILES IDX 17 15 12 17 13 18 14 19
REMARK H PARENT
REMARK Flexibility Score: 70.00
ROOT
ATOM      1  C   UNL     1      -2.516  29.186  56.301  1.00  0.00     0.136 C 
ATOM      2  O   UNL     1      -2.487  29.214  57.524  1.00  0.00    -0.299 OA
ENDROOT
BRANCH   1   3
ATOM      3  C   UNL     1      -2.599  30.491  55.516  1.00  0.00     0.053 C 
ATOM      4  C   UNL     1      -2.414  31.726  56.412  1.00  0.00     0.016 C 
BRANCH   3   5
ATOM      5  C   UNL     1      -3.939  30.589  54.736  1.00  0.00     0.015 C 
BRANCH   5   6
ATOM      6  C   UNL     1      -3.839  30.931  53.234  1.00  0.00     0.028 C 
BRANCH   6   7
ATOM      7  C   UNL     1      -2.516  30.712  52.529  1.00  0.00    -0.028 C 
ATOM      8  C   UNL     1      -2.031  29.548  52.028  1.00  0.00    -0.070 CG0
ATOM      9  C   UNL     1      -0.794  29.629  51.167  1.00  0.00     0.039 C 
ATOM     10  G   UNL     1      -2.602  28.171  52.335  1.00  0.00     0.000 G0
ENDBRANCH   6   7
ENDBRANCH   5   6
ENDBRANCH   3   5
ENDBRANCH   1   3
BRANCH   1  11
ATOM     11  C   UNL     1      -2.434  27.832  55.612  1.00  0.00     0.087 C 
BRANCH  11  12
ATOM     12  C   UNL     1      -1.242  27.698  54.634  1.00  0.00     0.066 C 
BRANCH  12  13
ATOM     13  C   UNL     1      -1.618  27.356  53.194  1.00  0.00     0.140 C 
ATOM     14  O   UNL     1      -1.162  26.320  52.729  1.00  0.00    -0.299 OA
BRANCH  13  15
ATOM     15  C   UNL     1      -2.587  28.164  52.340  1.00  0.00     0.106 CG0
ATOM     16  G   UNL     1      -2.023  29.542  52.023  1.00  0.00     0.000 G0
ENDBRANCH  13  15
ENDBRANCH  12  13
BRANCH  12  17
ATOM     17  C   UNL     1      -0.134  26.753  55.198  1.00  0.00    -0.006 C 
ATOM     18  C   UNL     1      -0.321  26.491  56.701  1.00  0.00     0.008 C 
ATOM     19  C   UNL     1       1.298  27.242  54.924  1.00  0.00     0.008 C 
ENDBRANCH  12  17
ENDBRANCH  11  12
ENDBRANCH   1  11
TORSDOF 1
ENDMDL
