MODEL 1
REMARK VINA RESULT:    -5.753      0.000      0.000
REMARK INTER + INTRA:          -6.125
REMARK INTER:                  -6.090
REMARK INTRA:                  -0.035
REMARK UNBOUND:                -0.035
REMARK SMILES COc1ccc2ccc(=O)oc2c1
REMARK SMILES IDX 3 1 13 2 12 3 6 4 5 5 4 6 7 7 8 8 9 9 10 10 11 11 2 12 1 13
REMARK H PARENT
REMARK Flexibility Score: inf
ROOT
ATOM      1  C   UNL     1       6.537   6.236  10.277  1.00  0.00     0.122 A 
ATOM      2  C   UNL     1       6.144   5.029   9.683  1.00  0.00     0.094 A 
ATOM      3  C   UNL     1       6.771   3.829  10.030  1.00  0.00     0.142 A 
ATOM      4  C   UNL     1       7.811   3.831  10.986  1.00  0.00     0.018 A 
ATOM      5  C   UNL     1       8.208   5.034  11.582  1.00  0.00     0.016 A 
ATOM      6  C   UNL     1       7.575   6.231  11.230  1.00  0.00     0.047 A 
ATOM      7  C   UNL     1       8.419   2.615  11.312  1.00  0.00     0.019 A 
ATOM      8  C   UNL     1       7.987   1.444  10.690  1.00  0.00     0.094 A 
ATOM      9  C   UNL     1       6.951   1.518   9.752  1.00  0.00     0.336 A 
ATOM     10  O   UNL     1       6.546   0.472   9.180  1.00  0.00    -0.246 OA
ATOM     11  O   UNL     1       6.389   2.688   9.460  1.00  0.00    -0.423 OA
ENDROOT
BRANCH   1  12
ATOM     12  O   UNL     1       5.875   7.411   9.893  1.00  0.00    -0.497 OA
ATOM     13  C   UNL     1       5.921   7.968   8.583  1.00  0.00     0.278 C 
ENDBRANCH   1  12
TORSDOF 1
ENDMDL
MODEL 2
REMARK VINA RESULT:    -5.269     17.533     19.449
REMARK INTER + INTRA:          -5.612
REMARK INTER:                  -5.569
REMARK INTRA:                  -0.043
REMARK UNBOUND:                -0.035
REMARK SMILES COc1ccc2ccc(=O)oc2c1
REMARK SMILES IDX 3 1 13 2 12 3 6 4 5 5 4 6 7 7 8 8 9 9 10 10 11 11 2 12 1 13
REMARK H PARENT
REMARK Flexibility Score: inf
ROOT
ATOM      1  C   UNL     1      19.028  -6.143  19.200  1.00  0.00     0.122 A 
ATOM      2  C   UNL     1      19.769  -6.814  18.219  1.00  0.00     0.094 A 
ATOM      3  C   UNL     1      19.756  -8.211  18.151  1.00  0.00     0.142 A 
ATOM      4  C   UNL     1      18.993  -8.952  19.080  1.00  0.00     0.018 A 
ATOM      5  C   UNL     1      18.252  -8.285  20.063  1.00  0.00     0.016 A 
ATOM      6  C   UNL     1      18.268  -6.888  20.124  1.00  0.00     0.047 A 
ATOM      7  C   UNL     1      19.001 -10.347  18.988  1.00  0.00     0.019 A 
ATOM      8  C   UNL     1      19.756 -10.963  17.990  1.00  0.00     0.094 A 
ATOM      9  C   UNL     1      20.489 -10.165  17.104  1.00  0.00     0.336 A 
ATOM     10  O   UNL     1      21.176 -10.702  16.196  1.00  0.00    -0.246 OA
ATOM     11  O   UNL     1      20.463  -8.840  17.214  1.00  0.00    -0.423 OA
ENDROOT
BRANCH   1  12
ATOM     12  O   UNL     1      19.076  -4.741  19.224  1.00  0.00    -0.497 OA
ATOM     13  C   UNL     1      19.909  -3.951  18.381  1.00  0.00     0.278 C 
ENDBRANCH   1  12
TORSDOF 1
ENDMDL
MODEL 3
REMARK VINA RESULT:    -5.235      1.604      2.251
REMARK INTER + INTRA:          -5.576
REMARK INTER:                  -5.543
REMARK INTRA:                  -0.033
REMARK UNBOUND:                -0.035
REMARK SMILES COc1ccc2ccc(=O)oc2c1
REMARK SMILES IDX 3 1 13 2 12 3 6 4 5 5 4 6 7 7 8 8 9 9 10 10 11 11 2 12 1 13
REMARK H PARENT
REMARK Flexibility Score: inf
ROOT
ATOM      1  C   UNL     1       7.161   6.209  10.766  1.00  0.00     0.122 A 
ATOM      2  C   UNL     1       7.942   5.175  11.299  1.00  0.00     0.094 A 
ATOM      3  C   UNL     1       7.743   3.852  10.892  1.00  0.00     0.142 A 
ATOM      4  C   UNL     1       6.746   3.554   9.937  1.00  0.00     0.018 A 
ATOM      5  C   UNL     1       5.963   4.584   9.401  1.00  0.00     0.016 A 
ATOM      6  C   UNL     1       6.169   5.905   9.812  1.00  0.00     0.047 A 
ATOM      7  C   UNL     1       6.570   2.222   9.550  1.00  0.00     0.019 A 
ATOM      8  C   UNL     1       7.376   1.233  10.114  1.00  0.00     0.094 A 
ATOM      9  C   UNL     1       8.343   1.602  11.055  1.00  0.00     0.336 A 
ATOM     10  O   UNL     1       9.081   0.724  11.575  1.00  0.00    -0.246 OA
ATOM     11  O   UNL     1       8.490   2.877  11.405  1.00  0.00    -0.423 OA
ENDROOT
BRANCH   1  12
ATOM     12  O   UNL     1       7.402   7.518  11.209  1.00  0.00    -0.497 OA
ATOM     13  C   UNL     1       7.328   8.673  10.379  1.00  0.00     0.278 C 
ENDBRANCH   1  12
TORSDOF 1
ENDMDL
MODEL 4
REMARK VINA RESULT:    -4.918      8.870     10.710
REMARK INTER + INTRA:          -5.241
REMARK INTER:                  -5.208
REMARK INTRA:                  -0.033
REMARK UNBOUND:                -0.035
REMARK SMILES COc1ccc2ccc(=O)oc2c1
REMARK SMILES IDX 3 1 13 2 12 3 6 4 5 5 4 6 7 7 8 8 9 9 10 10 11 11 2 12 1 13
REMARK H PARENT
REMARK Flexibility Score: inf
ROOT
ATOM      1  C   UNL     1      12.084  -0.947  18.858  1.00  0.00     0.122 A 
ATOM      2  C   UNL     1      11.810  -1.078  17.490  1.00  0.00     0.094 A 
ATOM      3  C   UNL     1      10.647  -1.722  17.057  1.00  0.00     0.142 A 
ATOM      4  C   UNL     1       9.742  -2.248  18.004  1.00  0.00     0.018 A 
ATOM      5  C   UNL     1      10.011  -2.121  19.372  1.00  0.00     0.016 A 
ATOM      6  C   UNL     1      11.176  -1.474  19.799  1.00  0.00     0.047 A 
ATOM      7  C   UNL     1       8.588  -2.888  17.540  1.00  0.00     0.019 A 
ATOM      8  C   UNL     1       8.366  -2.989  16.167  1.00  0.00     0.094 A 
ATOM      9  C   UNL     1       9.307  -2.444  15.286  1.00  0.00     0.336 A 
ATOM     10  O   UNL     1       9.125  -2.525  14.043  1.00  0.00    -0.246 OA
ATOM     11  O   UNL     1      10.396  -1.841  15.755  1.00  0.00    -0.423 OA
ENDROOT
BRANCH   1  12
ATOM     12  O   UNL     1      13.264  -0.292  19.239  1.00  0.00    -0.497 OA
ATOM     13  C   UNL     1      14.511  -0.944  19.454  1.00  0.00     0.278 C 
ENDBRANCH   1  12
TORSDOF 1
ENDMDL
MODEL 5
REMARK VINA RESULT:    -4.899      8.352     10.390
REMARK INTER + INTRA:          -5.221
REMARK INTER:                  -5.178
REMARK INTRA:                  -0.042
REMARK UNBOUND:                -0.035
REMARK SMILES COc1ccc2ccc(=O)oc2c1
REMARK SMILES IDX 3 1 13 2 12 3 6 4 5 5 4 6 7 7 8 8 9 9 10 10 11 11 2 12 1 13
REMARK H PARENT
REMARK Flexibility Score: inf
ROOT
ATOM      1  C   UNL     1      10.819  -1.327  19.195  1.00  0.00     0.122 A 
ATOM      2  C   UNL     1      11.041  -1.107  17.830  1.00  0.00     0.094 A 
ATOM      3  C   UNL     1      10.232  -1.722  16.869  1.00  0.00     0.142 A 
ATOM      4  C   UNL     1       9.181  -2.573  17.278  1.00  0.00     0.018 A 
ATOM      5  C   UNL     1       8.955  -2.796  18.642  1.00  0.00     0.016 A 
ATOM      6  C   UNL     1       9.769  -2.177  19.596  1.00  0.00     0.047 A 
ATOM      7  C   UNL     1       8.389  -3.174  16.295  1.00  0.00     0.019 A 
ATOM      8  C   UNL     1       8.656  -2.918  14.950  1.00  0.00     0.094 A 
ATOM      9  C   UNL     1       9.713  -2.064  14.619  1.00  0.00     0.336 A 
ATOM     10  O   UNL     1       9.970  -1.821  13.411  1.00  0.00    -0.246 OA
ATOM     11  O   UNL     1      10.451  -1.505  15.574  1.00  0.00    -0.423 OA
ENDROOT
BRANCH   1  12
ATOM     12  O   UNL     1      11.660  -0.686  20.116  1.00  0.00    -0.497 OA
ATOM     13  C   UNL     1      12.943  -0.155  19.799  1.00  0.00     0.278 C 
ENDBRANCH   1  12
TORSDOF 1
ENDMDL
MODEL 6
REMARK VINA RESULT:    -4.745     17.870     19.693
REMARK INTER + INTRA:          -5.058
REMARK INTER:                  -5.026
REMARK INTRA:                  -0.032
REMARK UNBOUND:                -0.035
REMARK SMILES COc1ccc2ccc(=O)oc2c1
REMARK SMILES IDX 3 1 13 2 12 3 6 4 5 5 4 6 7 7 8 8 9 9 10 10 11 11 2 12 1 13
REMARK H PARENT
REMARK Flexibility Score: inf
ROOT
ATOM      1  C   UNL     1      19.310  -8.637  19.414  1.00  0.00     0.122 A 
ATOM      2  C   UNL     1      20.057  -7.617  20.017  1.00  0.00     0.094 A 
ATOM      3  C   UNL     1      20.138  -6.352  19.427  1.00  0.00     0.142 A 
ATOM      4  C   UNL     1      19.464  -6.100  18.213  1.00  0.00     0.018 A 
ATOM      5  C   UNL     1      18.716  -7.116  17.605  1.00  0.00     0.016 A 
ATOM      6  C   UNL     1      18.639  -8.379  18.202  1.00  0.00     0.047 A 
ATOM      7  C   UNL     1      19.564  -4.825  17.646  1.00  0.00     0.019 A 
ATOM      8  C   UNL     1      20.321  -3.847  18.292  1.00  0.00     0.094 A 
ATOM      9  C   UNL     1      20.962  -4.168  19.493  1.00  0.00     0.336 A 
ATOM     10  O   UNL     1      21.650  -3.300  20.090  1.00  0.00    -0.246 OA
ATOM     11  O   UNL     1      20.850  -5.389  20.009  1.00  0.00    -0.423 OA
ENDROOT
BRANCH   1  12
ATOM     12  O   UNL     1      19.262  -9.888  20.047  1.00  0.00    -0.497 OA
ATOM     13  C   UNL     1      19.559 -11.125  19.408  1.00  0.00     0.278 C 
ENDBRANCH   1  12
TORSDOF 1
ENDMDL
MODEL 7
REMARK VINA RESULT:    -4.707     17.706     19.648
REMARK INTER + INTRA:          -5.017
REMARK INTER:                  -4.975
REMARK INTRA:                  -0.042
REMARK UNBOUND:                -0.035
REMARK SMILES COc1ccc2ccc(=O)oc2c1
REMARK SMILES IDX 3 1 13 2 12 3 6 4 5 5 4 6 7 7 8 8 9 9 10 10 11 11 2 12 1 13
REMARK H PARENT
REMARK Flexibility Score: inf
ROOT
ATOM      1  C   UNL     1      19.589  -9.656  18.396  1.00  0.00     0.122 A 
ATOM      2  C   UNL     1      20.034  -8.438  17.864  1.00  0.00     0.094 A 
ATOM      3  C   UNL     1      19.645  -7.226  18.441  1.00  0.00     0.142 A 
ATOM      4  C   UNL     1      18.795  -7.227  19.570  1.00  0.00     0.018 A 
ATOM      5  C   UNL     1      18.348  -8.440  20.105  1.00  0.00     0.016 A 
ATOM      6  C   UNL     1      18.742  -9.650  19.523  1.00  0.00     0.047 A 
ATOM      7  C   UNL     1      18.422  -5.999  20.125  1.00  0.00     0.019 A 
ATOM      8  C   UNL     1      18.895  -4.817  19.553  1.00  0.00     0.094 A 
ATOM      9  C   UNL     1      19.734  -4.893  18.436  1.00  0.00     0.336 A 
ATOM     10  O   UNL     1      20.171  -3.838  17.906  1.00  0.00    -0.246 OA
ATOM     11  O   UNL     1      20.073  -6.075  17.928  1.00  0.00    -0.423 OA
ENDROOT
BRANCH   1  12
ATOM     12  O   UNL     1      20.010 -10.843  17.779  1.00  0.00    -0.497 OA
ATOM     13  C   UNL     1      20.484 -10.927  16.439  1.00  0.00     0.278 C 
ENDBRANCH   1  12
TORSDOF 1
ENDMDL
MODEL 8
REMARK VINA RESULT:    -4.661      8.912     10.633
REMARK INTER + INTRA:          -4.969
REMARK INTER:                  -4.935
REMARK INTRA:                  -0.034
REMARK UNBOUND:                -0.035
REMARK SMILES COc1ccc2ccc(=O)oc2c1
REMARK SMILES IDX 3 1 13 2 12 3 6 4 5 5 4 6 7 7 8 8 9 9 10 10 11 11 2 12 1 13
REMARK H PARENT
REMARK Flexibility Score: inf
ROOT
ATOM      1  C   UNL     1       9.226  -2.481  15.561  1.00  0.00     0.122 A 
ATOM      2  C   UNL     1      10.375  -1.750  15.889  1.00  0.00     0.094 A 
ATOM      3  C   UNL     1      10.707  -1.509  17.226  1.00  0.00     0.142 A 
ATOM      4  C   UNL     1       9.877  -2.006  18.255  1.00  0.00     0.018 A 
ATOM      5  C   UNL     1       8.728  -2.737  17.933  1.00  0.00     0.016 A 
ATOM      6  C   UNL     1       8.402  -2.975  16.593  1.00  0.00     0.047 A 
ATOM      7  C   UNL     1      10.235  -1.749  19.583  1.00  0.00     0.019 A 
ATOM      8  C   UNL     1      11.391  -1.016  19.851  1.00  0.00     0.094 A 
ATOM      9  C   UNL     1      12.164  -0.555  18.780  1.00  0.00     0.336 A 
ATOM     10  O   UNL     1      13.211   0.109  19.001  1.00  0.00    -0.246 OA
ATOM     11  O   UNL     1      11.801  -0.813  17.527  1.00  0.00    -0.423 OA
ENDROOT
BRANCH   1  12
ATOM     12  O   UNL     1       8.939  -2.693  14.205  1.00  0.00    -0.497 OA
ATOM     13  C   UNL     1       9.625  -3.625  13.375  1.00  0.00     0.278 C 
ENDBRANCH   1  12
TORSDOF 1
ENDMDL
MODEL 9
REMARK VINA RESULT:    -4.558      8.927     10.905
REMARK INTER + INTRA:          -4.859
REMARK INTER:                  -4.825
REMARK INTRA:                  -0.035
REMARK UNBOUND:                -0.035
REMARK SMILES COc1ccc2ccc(=O)oc2c1
REMARK SMILES IDX 3 1 13 2 12 3 6 4 5 5 4 6 7 7 8 8 9 9 10 10 11 11 2 12 1 13
REMARK H PARENT
REMARK Flexibility Score: inf
ROOT
ATOM      1  C   UNL     1       9.607  -1.773  16.817  1.00  0.00     0.122 A 
ATOM      2  C   UNL     1      10.958  -2.021  17.093  1.00  0.00     0.094 A 
ATOM      3  C   UNL     1      11.661  -1.210  17.989  1.00  0.00     0.142 A 
ATOM      4  C   UNL     1      11.005  -0.130  18.621  1.00  0.00     0.018 A 
ATOM      5  C   UNL     1       9.655   0.123  18.348  1.00  0.00     0.016 A 
ATOM      6  C   UNL     1       8.958  -0.694  17.451  1.00  0.00     0.047 A 
ATOM      7  C   UNL     1      11.734   0.664  19.511  1.00  0.00     0.019 A 
ATOM      8  C   UNL     1      13.078   0.370  19.749  1.00  0.00     0.094 A 
ATOM      9  C   UNL     1      13.661  -0.715  19.087  1.00  0.00     0.336 A 
ATOM     10  O   UNL     1      14.872  -0.997  19.287  1.00  0.00    -0.246 OA
ATOM     11  O   UNL     1      12.944  -1.455  18.244  1.00  0.00    -0.423 OA
ENDROOT
BRANCH   1  12
ATOM     12  O   UNL     1       8.949  -2.617  15.911  1.00  0.00    -0.497 OA
ATOM     13  C   UNL     1       9.215  -2.657  14.512  1.00  0.00     0.278 C 
ENDBRANCH   1  12
TORSDOF 1
ENDMDL
