MODEL 1
REMARK VINA RESULT:    -4.006      0.000      0.000
REMARK INTER + INTRA:          -5.124
REMARK INTER:                  -5.645
REMARK INTRA:                   0.521
REMARK UNBOUND:                 0.521
REMARK SMILES CC1=CCC(=C(C)C)C(=O)CC(C)=CCC1
REMARK SMILES IDX 12 1 14 2 13 3 15 4 16 5 2 6 1 7 3 8 11 10 9 11 10 12 5 13
REMARK SMILES IDX 6 14 7 15 8 16 4 17
REMARK H PARENT
REMARK Flexibility Score: 60.00
ROOT
ATOM      1  C   UNL     1      49.911  22.445  20.107  1.00  0.00    -0.070 C 
ATOM      2  C   UNL     1      50.266  22.206  18.822  1.00  0.00    -0.027 C 
ATOM      3  C   UNL     1      49.008  21.439  20.777  1.00  0.00     0.039 C 
ENDROOT
BRANCH   2   4
ATOM      4  C   UNL     1      51.238  23.017  17.999  1.00  0.00     0.032 C 
BRANCH   4   5
ATOM      5  C   UNL     1      50.540  24.105  17.160  1.00  0.00     0.034 C 
BRANCH   5   6
ATOM      6  C   UNL     1      51.288  25.424  17.198  1.00  0.00    -0.077 C 
ATOM      7  C   UNL     1      52.548  25.555  16.380  1.00  0.00     0.039 C 
ATOM      8  C   UNL     1      50.903  26.483  17.944  1.00  0.00    -0.023 CG0
ATOM      9  G   UNL     1      49.696  26.533  18.849  1.00  0.00     0.000 G0
ENDBRANCH   5   6
ENDBRANCH   4   5
ENDBRANCH   2   4
BRANCH   1  10
ATOM     10  C   UNL     1      50.422  23.624  20.919  1.00  0.00     0.111 C 
BRANCH  10  11
ATOM     11  C   UNL     1      49.531  24.833  20.763  1.00  0.00     0.163 C 
ATOM     12  O   UNL     1      48.303  24.702  21.018  1.00  0.00    -0.294 OA
BRANCH  11  13
ATOM     13  C   UNL     1      50.055  26.145  20.272  1.00  0.00    -0.002 C 
ATOM     14  C   UNL     1      50.888  26.917  21.034  1.00  0.00    -0.069 C 
ATOM     15  C   UNL     1      51.383  28.261  20.544  1.00  0.00     0.039 C 
ATOM     16  C   UNL     1      51.382  26.455  22.386  1.00  0.00     0.039 C 
BRANCH  13  17
ATOM     17  C   UNL     1      49.685  26.550  18.855  1.00  0.00     0.066 CG0
ATOM     18  G   UNL     1      50.903  26.472  17.966  1.00  0.00     0.000 G0
ENDBRANCH  13  17
ENDBRANCH  11  13
ENDBRANCH  10  11
ENDBRANCH   1  10
TORSDOF 0
ENDMDL
MODEL 2
REMARK VINA RESULT:    -3.832      1.501      3.568
REMARK INTER + INTRA:          -4.880
REMARK INTER:                  -5.381
REMARK INTRA:                   0.501
REMARK UNBOUND:                 0.521
REMARK SMILES CC1=CCC(=C(C)C)C(=O)CC(C)=CCC1
REMARK SMILES IDX 12 1 14 2 13 3 15 4 16 5 2 6 1 7 3 8 11 10 9 11 10 12 5 13
REMARK SMILES IDX 6 14 7 15 8 16 4 17
REMARK H PARENT
REMARK Flexibility Score: 60.00
ROOT
ATOM      1  C   UNL     1      50.130  22.915  19.882  1.00  0.00    -0.070 C 
ATOM      2  C   UNL     1      49.796  23.362  21.116  1.00  0.00    -0.027 C 
ATOM      3  C   UNL     1      49.288  21.809  19.293  1.00  0.00     0.039 C 
ENDROOT
BRANCH   2   4
ATOM      4  C   UNL     1      50.428  24.523  21.846  1.00  0.00     0.032 C 
BRANCH   4   5
ATOM      5  C   UNL     1      49.633  25.832  21.677  1.00  0.00     0.034 C 
BRANCH   5   6
ATOM      6  C   UNL     1      50.516  26.985  21.239  1.00  0.00    -0.077 C 
ATOM      7  C   UNL     1      51.241  27.773  22.301  1.00  0.00     0.039 C 
ATOM      8  C   UNL     1      50.670  27.364  19.952  1.00  0.00    -0.023 CG0
ATOM      9  G   UNL     1      50.004  26.724  18.757  1.00  0.00     0.000 G0
ENDBRANCH   5   6
ENDBRANCH   4   5
ENDBRANCH   2   4
BRANCH   1  10
ATOM     10  C   UNL     1      51.251  23.506  19.044  1.00  0.00     0.111 C 
BRANCH  10  11
ATOM     11  C   UNL     1      50.717  24.409  17.959  1.00  0.00     0.163 C 
ATOM     12  O   UNL     1      50.082  23.881  17.006  1.00  0.00    -0.294 OA
BRANCH  11  13
ATOM     13  C   UNL     1      50.965  25.884  17.963  1.00  0.00    -0.002 C 
ATOM     14  C   UNL     1      51.980  26.444  17.237  1.00  0.00    -0.069 C 
ATOM     15  C   UNL     1      52.248  27.933  17.277  1.00  0.00     0.039 C 
ATOM     16  C   UNL     1      52.862  25.612  16.334  1.00  0.00     0.039 C 
BRANCH  13  17
ATOM     17  C   UNL     1      49.993  26.747  18.749  1.00  0.00     0.066 CG0
ATOM     18  G   UNL     1      50.695  27.357  19.937  1.00  0.00     0.000 G0
ENDBRANCH  13  17
ENDBRANCH  11  13
ENDBRANCH  10  11
ENDBRANCH   1  10
TORSDOF 0
ENDMDL
MODEL 3
REMARK VINA RESULT:    -3.795      1.699      3.329
REMARK INTER + INTRA:          -4.827
REMARK INTER:                  -5.441
REMARK INTRA:                   0.613
REMARK UNBOUND:                 0.521
REMARK SMILES CC1=CCC(=C(C)C)C(=O)CC(C)=CCC1
REMARK SMILES IDX 12 1 14 2 13 3 15 4 16 5 2 6 1 7 3 8 11 10 9 11 10 12 5 13
REMARK SMILES IDX 6 14 7 15 8 16 4 17
REMARK H PARENT
REMARK Flexibility Score: 60.00
ROOT
ATOM      1  C   UNL     1      50.087  24.963  21.301  1.00  0.00    -0.070 C 
ATOM      2  C   UNL     1      49.469  23.763  21.189  1.00  0.00    -0.027 C 
ATOM      3  C   UNL     1      49.508  25.954  22.282  1.00  0.00     0.039 C 
ENDROOT
BRANCH   2   4
ATOM      4  C   UNL     1      49.936  22.593  20.356  1.00  0.00     0.032 C 
BRANCH   4   5
ATOM      5  C   UNL     1      49.831  22.865  18.843  1.00  0.00     0.034 C 
BRANCH   5   6
ATOM      6  C   UNL     1      51.176  22.770  18.150  1.00  0.00    -0.077 C 
ATOM      7  C   UNL     1      51.985  21.510  18.328  1.00  0.00     0.039 C 
ATOM      8  C   UNL     1      51.706  23.763  17.402  1.00  0.00    -0.023 CG0
ATOM      9  G   UNL     1      51.068  25.105  17.137  1.00  0.00     0.000 G0
ENDBRANCH   5   6
ENDBRANCH   4   5
ENDBRANCH   2   4
BRANCH   1  10
ATOM     10  C   UNL     1      51.355  25.335  20.550  1.00  0.00     0.111 C 
BRANCH  10  11
ATOM     11  C   UNL     1      51.071  26.303  19.427  1.00  0.00     0.163 C 
ATOM     12  O   UNL     1      50.253  27.238  19.643  1.00  0.00    -0.294 OA
BRANCH  11  13
ATOM     13  C   UNL     1      51.687  26.148  18.073  1.00  0.00    -0.002 C 
ATOM     14  C   UNL     1      52.795  26.859  17.702  1.00  0.00    -0.069 C 
ATOM     15  C   UNL     1      53.391  26.725  16.318  1.00  0.00     0.039 C 
ATOM     16  C   UNL     1      53.501  27.788  18.665  1.00  0.00     0.039 C 
BRANCH  13  17
ATOM     17  C   UNL     1      51.076  25.109  17.150  1.00  0.00     0.066 CG0
ATOM     18  G   UNL     1      51.710  23.762  17.405  1.00  0.00     0.000 G0
ENDBRANCH  13  17
ENDBRANCH  11  13
ENDBRANCH  10  11
ENDBRANCH   1  10
TORSDOF 0
ENDMDL
MODEL 4
REMARK VINA RESULT:    -3.527      1.803      2.092
REMARK INTER + INTRA:          -4.450
REMARK INTER:                  -5.170
REMARK INTRA:                   0.720
REMARK UNBOUND:                 0.521
REMARK SMILES CC1=CCC(=C(C)C)C(=O)CC(C)=CCC1
REMARK SMILES IDX 12 1 14 2 13 3 15 4 16 5 2 6 1 7 3 8 11 10 9 11 10 12 5 13
REMARK SMILES IDX 6 14 7 15 8 16 4 17
REMARK H PARENT
REMARK Flexibility Score: 60.00
ROOT
ATOM      1  C   UNL     1      50.917  24.207  20.307  1.00  0.00    -0.070 C 
ATOM      2  C   UNL     1      50.566  23.506  19.202  1.00  0.00    -0.027 C 
ATOM      3  C   UNL     1      49.990  24.140  21.496  1.00  0.00     0.039 C 
ENDROOT
BRANCH   2   4
ATOM      4  C   UNL     1      51.390  23.345  17.948  1.00  0.00     0.032 C 
BRANCH   4   5
ATOM      5  C   UNL     1      50.860  24.198  16.778  1.00  0.00     0.034 C 
BRANCH   5   6
ATOM      6  C   UNL     1      51.659  25.474  16.594  1.00  0.00    -0.077 C 
ATOM      7  C   UNL     1      52.874  25.435  15.702  1.00  0.00     0.039 C 
ATOM      8  C   UNL     1      51.358  26.642  17.204  1.00  0.00    -0.023 CG0
ATOM      9  G   UNL     1      50.208  26.871  18.155  1.00  0.00     0.000 G0
ENDBRANCH   5   6
ENDBRANCH   4   5
ENDBRANCH   2   4
BRANCH   1  10
ATOM     10  C   UNL     1      52.211  24.994  20.432  1.00  0.00     0.111 C 
BRANCH  10  11
ATOM     11  C   UNL     1      52.074  26.384  19.861  1.00  0.00     0.163 C 
ATOM     12  O   UNL     1      53.125  27.050  19.661  1.00  0.00    -0.294 OA
BRANCH  11  13
ATOM     13  C   UNL     1      50.738  26.996  19.582  1.00  0.00    -0.002 C 
ATOM     14  C   UNL     1      50.051  27.691  20.539  1.00  0.00    -0.069 C 
ATOM     15  C   UNL     1      48.683  28.275  20.260  1.00  0.00     0.039 C 
ATOM     16  C   UNL     1      50.636  27.940  21.911  1.00  0.00     0.039 C 
BRANCH  13  17
ATOM     17  C   UNL     1      50.207  26.880  18.163  1.00  0.00     0.066 CG0
ATOM     18  G   UNL     1      51.351  26.644  17.207  1.00  0.00     0.000 G0
ENDBRANCH  13  17
ENDBRANCH  11  13
ENDBRANCH  10  11
ENDBRANCH   1  10
TORSDOF 0
ENDMDL
MODEL 5
REMARK VINA RESULT:    -3.521      8.658     10.419
REMARK INTER + INTRA:          -4.440
REMARK INTER:                  -4.766
REMARK INTRA:                   0.325
REMARK UNBOUND:                 0.521
REMARK SMILES CC1=CCC(=C(C)C)C(=O)CC(C)=CCC1
REMARK SMILES IDX 12 1 14 2 13 3 15 4 16 5 2 6 1 7 3 8 11 10 9 11 10 12 5 13
REMARK SMILES IDX 6 14 7 15 8 16 4 17
REMARK H PARENT
REMARK Flexibility Score: 60.00
ROOT
ATOM      1  C   UNL     1      43.493  22.448  21.484  1.00  0.00    -0.070 C 
ATOM      2  C   UNL     1      43.725  23.580  20.777  1.00  0.00    -0.027 C 
ATOM      3  C   UNL     1      44.122  21.172  20.978  1.00  0.00     0.039 C 
ENDROOT
BRANCH   2   4
ATOM      4  C   UNL     1      43.288  24.974  21.156  1.00  0.00     0.032 C 
BRANCH   4   5
ATOM      5  C   UNL     1      41.811  25.246  20.809  1.00  0.00     0.034 C 
BRANCH   5   6
ATOM      6  C   UNL     1      41.044  25.822  21.984  1.00  0.00    -0.077 C 
ATOM      7  C   UNL     1      41.456  27.172  22.514  1.00  0.00     0.039 C 
ATOM      8  C   UNL     1      40.028  25.181  22.603  1.00  0.00    -0.023 CG0
ATOM      9  G   UNL     1      39.496  23.815  22.243  1.00  0.00     0.000 G0
ENDBRANCH   5   6
ENDBRANCH   4   5
ENDBRANCH   2   4
BRANCH   1  10
ATOM     10  C   UNL     1      42.698  22.408  22.778  1.00  0.00     0.111 C 
BRANCH  10  11
ATOM     11  C   UNL     1      41.272  21.977  22.541  1.00  0.00     0.163 C 
ATOM     12  O   UNL     1      41.070  20.976  21.802  1.00  0.00    -0.294 OA
BRANCH  11  13
ATOM     13  C   UNL     1      40.112  22.731  23.110  1.00  0.00    -0.002 C 
ATOM     14  C   UNL     1      39.674  22.520  24.388  1.00  0.00    -0.069 C 
ATOM     15  C   UNL     1      38.476  23.259  24.943  1.00  0.00     0.039 C 
ATOM     16  C   UNL     1      40.383  21.564  25.321  1.00  0.00     0.039 C 
BRANCH  13  17
ATOM     17  C   UNL     1      39.485  23.801  22.232  1.00  0.00     0.066 CG0
ATOM     18  G   UNL     1      40.029  25.157  22.612  1.00  0.00     0.000 G0
ENDBRANCH  13  17
ENDBRANCH  11  13
ENDBRANCH  10  11
ENDBRANCH   1  10
TORSDOF 0
ENDMDL
MODEL 6
REMARK VINA RESULT:    -3.505      1.463      1.696
REMARK INTER + INTRA:          -4.419
REMARK INTER:                  -4.753
REMARK INTRA:                   0.334
REMARK UNBOUND:                 0.521
REMARK SMILES CC1=CCC(=C(C)C)C(=O)CC(C)=CCC1
REMARK SMILES IDX 12 1 14 2 13 3 15 4 16 5 2 6 1 7 3 8 11 10 9 11 10 12 5 13
REMARK SMILES IDX 6 14 7 15 8 16 4 17
REMARK H PARENT
REMARK Flexibility Score: 60.00
ROOT
ATOM      1  C   UNL     1      49.712  22.824  19.315  1.00  0.00    -0.070 C 
ATOM      2  C   UNL     1      50.223  22.794  18.061  1.00  0.00    -0.027 C 
ATOM      3  C   UNL     1      49.613  21.513  20.057  1.00  0.00     0.039 C 
ENDROOT
BRANCH   2   4
ATOM      4  C   UNL     1      50.509  23.989  17.184  1.00  0.00     0.032 C 
BRANCH   4   5
ATOM      5  C   UNL     1      51.779  24.749  17.615  1.00  0.00     0.034 C 
BRANCH   5   6
ATOM      6  C   UNL     1      51.542  26.243  17.724  1.00  0.00    -0.077 C 
ATOM      7  C   UNL     1      51.176  27.002  16.474  1.00  0.00     0.039 C 
ATOM      8  C   UNL     1      51.666  26.940  18.875  1.00  0.00    -0.023 CG0
ATOM      9  G   UNL     1      52.057  26.367  20.216  1.00  0.00     0.000 G0
ENDBRANCH   5   6
ENDBRANCH   4   5
ENDBRANCH   2   4
BRANCH   1  10
ATOM     10  C   UNL     1      49.299  24.101  20.028  1.00  0.00     0.111 C 
BRANCH  10  11
ATOM     11  C   UNL     1      50.372  24.579  20.976  1.00  0.00     0.163 C 
ATOM     12  O   UNL     1      50.874  23.742  21.774  1.00  0.00    -0.294 OA
BRANCH  11  13
ATOM     13  C   UNL     1      50.806  26.009  21.024  1.00  0.00    -0.002 C 
ATOM     14  C   UNL     1      50.153  26.934  21.791  1.00  0.00    -0.069 C 
ATOM     15  C   UNL     1      50.575  28.387  21.804  1.00  0.00     0.039 C 
ATOM     16  C   UNL     1      48.999  26.547  22.688  1.00  0.00     0.039 C 
BRANCH  13  17
ATOM     17  C   UNL     1      52.055  26.379  20.243  1.00  0.00     0.066 CG0
ATOM     18  G   UNL     1      51.669  26.926  18.890  1.00  0.00     0.000 G0
ENDBRANCH  13  17
ENDBRANCH  11  13
ENDBRANCH  10  11
ENDBRANCH   1  10
TORSDOF 0
ENDMDL
MODEL 7
REMARK VINA RESULT:    -3.420      1.449      3.598
REMARK INTER + INTRA:          -4.299
REMARK INTER:                  -5.103
REMARK INTRA:                   0.803
REMARK UNBOUND:                 0.521
REMARK SMILES CC1=CCC(=C(C)C)C(=O)CC(C)=CCC1
REMARK SMILES IDX 12 1 14 2 13 3 15 4 16 5 2 6 1 7 3 8 11 10 9 11 10 12 5 13
REMARK SMILES IDX 6 14 7 15 8 16 4 17
REMARK H PARENT
REMARK Flexibility Score: 60.00
ROOT
ATOM      1  C   UNL     1      50.939  26.456  17.882  1.00  0.00    -0.070 C 
ATOM      2  C   UNL     1      51.231  25.257  17.321  1.00  0.00    -0.027 C 
ATOM      3  C   UNL     1      51.945  27.568  17.708  1.00  0.00     0.039 C 
ENDROOT
BRANCH   2   4
ATOM      4  C   UNL     1      50.329  24.048  17.280  1.00  0.00     0.032 C 
BRANCH   4   5
ATOM      5  C   UNL     1      50.888  22.865  18.094  1.00  0.00     0.034 C 
BRANCH   5   6
ATOM      6  C   UNL     1      50.136  22.660  19.395  1.00  0.00    -0.077 C 
ATOM      7  C   UNL     1      49.024  21.642  19.426  1.00  0.00     0.039 C 
ATOM      8  C   UNL     1      50.388  23.357  20.525  1.00  0.00    -0.023 CG0
ATOM      9  G   UNL     1      51.432  24.437  20.682  1.00  0.00     0.000 G0
ENDBRANCH   5   6
ENDBRANCH   4   5
ENDBRANCH   2   4
BRANCH   1  10
ATOM     10  C   UNL     1      49.640  26.753  18.611  1.00  0.00     0.111 C 
BRANCH  10  11
ATOM     11  C   UNL     1      49.569  26.034  19.936  1.00  0.00     0.163 C 
ATOM     12  O   UNL     1      48.438  25.663  20.351  1.00  0.00    -0.294 OA
BRANCH  11  13
ATOM     13  C   UNL     1      50.785  25.803  20.777  1.00  0.00    -0.002 C 
ATOM     14  C   UNL     1      51.247  26.749  21.649  1.00  0.00    -0.069 C 
ATOM     15  C   UNL     1      52.498  26.522  22.469  1.00  0.00     0.039 C 
ATOM     16  C   UNL     1      50.513  28.054  21.865  1.00  0.00     0.039 C 
BRANCH  13  17
ATOM     17  C   UNL     1      51.444  24.438  20.678  1.00  0.00     0.066 CG0
ATOM     18  G   UNL     1      50.387  23.369  20.534  1.00  0.00     0.000 G0
ENDBRANCH  13  17
ENDBRANCH  11  13
ENDBRANCH  10  11
ENDBRANCH   1  10
TORSDOF 0
ENDMDL
MODEL 8
REMARK VINA RESULT:    -3.349      1.916      4.501
REMARK INTER + INTRA:          -4.199
REMARK INTER:                  -4.635
REMARK INTRA:                   0.436
REMARK UNBOUND:                 0.521
REMARK SMILES CC1=CCC(=C(C)C)C(=O)CC(C)=CCC1
REMARK SMILES IDX 12 1 14 2 13 3 15 4 16 5 2 6 1 7 3 8 11 10 9 11 10 12 5 13
REMARK SMILES IDX 6 14 7 15 8 16 4 17
REMARK H PARENT
REMARK Flexibility Score: 60.00
ROOT
ATOM      1  C   UNL     1      49.055  26.960  20.970  1.00  0.00    -0.070 C 
ATOM      2  C   UNL     1      48.674  25.962  21.804  1.00  0.00    -0.027 C 
ATOM      3  C   UNL     1      49.228  28.336  21.566  1.00  0.00     0.039 C 
ENDROOT
BRANCH   2   4
ATOM      4  C   UNL     1      48.546  24.502  21.447  1.00  0.00     0.032 C 
BRANCH   4   5
ATOM      5  C   UNL     1      49.911  23.824  21.221  1.00  0.00     0.034 C 
BRANCH   5   6
ATOM      6  C   UNL     1      49.936  22.997  19.950  1.00  0.00    -0.077 C 
ATOM      7  C   UNL     1      48.939  21.874  19.809  1.00  0.00     0.039 C 
ATOM      8  C   UNL     1      50.819  23.190  18.946  1.00  0.00    -0.023 CG0
ATOM      9  G   UNL     1      51.910  24.234  18.918  1.00  0.00     0.000 G0
ENDBRANCH   5   6
ENDBRANCH   4   5
ENDBRANCH   2   4
BRANCH   1  10
ATOM     10  C   UNL     1      49.375  26.756  19.498  1.00  0.00     0.111 C 
BRANCH  10  11
ATOM     11  C   UNL     1      50.854  26.559  19.274  1.00  0.00     0.163 C 
ATOM     12  O   UNL     1      51.653  27.318  19.885  1.00  0.00    -0.294 OA
BRANCH  11  13
ATOM     13  C   UNL     1      51.381  25.535  18.319  1.00  0.00    -0.002 C 
ATOM     14  C   UNL     1      51.449  25.773  16.975  1.00  0.00    -0.069 C 
ATOM     15  C   UNL     1      51.948  24.718  16.011  1.00  0.00     0.039 C 
ATOM     16  C   UNL     1      51.064  27.112  16.387  1.00  0.00     0.039 C 
BRANCH  13  17
ATOM     17  C   UNL     1      51.909  24.241  18.915  1.00  0.00     0.066 CG0
ATOM     18  G   UNL     1      50.816  23.200  18.930  1.00  0.00     0.000 G0
ENDBRANCH  13  17
ENDBRANCH  11  13
ENDBRANCH  10  11
ENDBRANCH   1  10
TORSDOF 0
ENDMDL
MODEL 9
REMARK VINA RESULT:    -3.341      1.557      2.016
REMARK INTER + INTRA:          -4.187
REMARK INTER:                  -4.687
REMARK INTRA:                   0.500
REMARK UNBOUND:                 0.521
REMARK SMILES CC1=CCC(=C(C)C)C(=O)CC(C)=CCC1
REMARK SMILES IDX 12 1 14 2 13 3 15 4 16 5 2 6 1 7 3 8 11 10 9 11 10 12 5 13
REMARK SMILES IDX 6 14 7 15 8 16 4 17
REMARK H PARENT
REMARK Flexibility Score: 60.00
ROOT
ATOM      1  C   UNL     1      51.015  23.626  18.528  1.00  0.00    -0.070 C 
ATOM      2  C   UNL     1      50.781  23.861  17.215  1.00  0.00    -0.027 C 
ATOM      3  C   UNL     1      50.204  22.542  19.196  1.00  0.00     0.039 C 
ENDROOT
BRANCH   2   4
ATOM      4  C   UNL     1      51.543  24.817  16.329  1.00  0.00     0.032 C 
BRANCH   4   5
ATOM      5  C   UNL     1      50.917  26.224  16.301  1.00  0.00     0.034 C 
BRANCH   5   6
ATOM      6  C   UNL     1      51.872  27.285  16.815  1.00  0.00    -0.077 C 
ATOM      7  C   UNL     1      52.957  27.778  15.892  1.00  0.00     0.039 C 
ATOM      8  C   UNL     1      51.822  27.797  18.065  1.00  0.00    -0.023 CG0
ATOM      9  G   UNL     1      50.836  27.408  19.139  1.00  0.00     0.000 G0
ENDBRANCH   5   6
ENDBRANCH   4   5
ENDBRANCH   2   4
BRANCH   1  10
ATOM     10  C   UNL     1      52.083  24.344  19.337  1.00  0.00     0.111 C 
BRANCH  10  11
ATOM     11  C   UNL     1      51.474  25.250  20.379  1.00  0.00     0.163 C 
ATOM     12  O   UNL     1      50.817  24.721  21.316  1.00  0.00    -0.294 OA
BRANCH  11  13
ATOM     13  C   UNL     1      51.587  26.740  20.296  1.00  0.00    -0.002 C 
ATOM     14  C   UNL     1      52.373  27.450  21.161  1.00  0.00    -0.069 C 
ATOM     15  C   UNL     1      52.453  28.960  21.094  1.00  0.00     0.039 C 
ATOM     16  C   UNL     1      53.227  26.764  22.203  1.00  0.00     0.039 C 
BRANCH  13  17
ATOM     17  C   UNL     1      50.851  27.426  19.159  1.00  0.00     0.066 CG0
ATOM     18  G   UNL     1      51.825  27.789  18.064  1.00  0.00     0.000 G0
ENDBRANCH  13  17
ENDBRANCH  11  13
ENDBRANCH  10  11
ENDBRANCH   1  10
TORSDOF 0
ENDMDL
