MODEL 1
REMARK VINA RESULT:    -6.256      0.000      0.000
REMARK INTER + INTRA:          -8.679
REMARK INTER:                  -7.902
REMARK INTRA:                  -0.777
REMARK UNBOUND:                -0.777
REMARK SMILES O=C(C=Cc1ccc(O)cc1)c1ccc(O)cc1O
REMARK SMILES IDX 4 1 3 2 5 3 6 4 7 5 8 6 11 7 10 8 9 9 2 11 1 12 12 13 18 14
REMARK SMILES IDX 13 15 17 16 14 17 15 18 19 19 16 21
REMARK H PARENT 9 10 19 20 16 22
REMARK Flexibility Score: inf
ROOT
ATOM      1  C   UNL     1       7.415  -1.997  18.293  1.00  0.00     0.012 C 
ATOM      2  C   UNL     1       7.853  -2.424  19.489  1.00  0.00     0.053 C 
ENDROOT
BRANCH   1   3
ATOM      3  C   UNL     1       8.070  -2.264  16.995  1.00  0.00    -0.025 A 
ATOM      4  C   UNL     1       9.251  -1.598  16.625  1.00  0.00     0.012 A 
ATOM      5  C   UNL     1       9.880  -1.901  15.413  1.00  0.00     0.047 A 
ATOM      6  C   UNL     1       9.350  -2.885  14.572  1.00  0.00     0.115 A 
ATOM      7  C   UNL     1       7.559  -3.271  16.164  1.00  0.00     0.012 A 
ATOM      8  C   UNL     1       8.189  -3.573  14.952  1.00  0.00     0.047 A 
BRANCH   6   9
ATOM      9  O   UNL     1       9.986  -3.176  13.367  1.00  0.00    -0.508 OA
ATOM     10  H   UNL     1      10.217  -4.128  13.107  1.00  0.00     0.293 HD
ENDBRANCH   6   9
ENDBRANCH   1   3
BRANCH   2  11
ATOM     11  C   UNL     1       9.164  -3.074  19.738  1.00  0.00     0.189 C 
ATOM     12  O   UNL     1      10.184  -2.370  19.971  1.00  0.00    -0.289 OA
BRANCH  11  13
ATOM     13  C   UNL     1       9.295  -4.551  19.753  1.00  0.00     0.064 A 
ATOM     14  C   UNL     1      10.555  -5.154  19.960  1.00  0.00     0.130 A 
ATOM     15  C   UNL     1       8.164  -5.373  19.583  1.00  0.00     0.020 A 
ATOM     16  C   UNL     1      10.666  -6.552  19.987  1.00  0.00     0.093 A 
ATOM     17  C   UNL     1       8.287  -6.764  19.609  1.00  0.00     0.047 A 
ATOM     18  C   UNL     1       9.534  -7.357  19.810  1.00  0.00     0.119 A 
BRANCH  14  19
ATOM     19  O   UNL     1      11.695  -4.367  20.124  1.00  0.00    -0.507 OA
ATOM     20  H   UNL     1      11.788  -3.720  20.897  1.00  0.00     0.293 HD
ENDBRANCH  14  19
BRANCH  18  21
ATOM     21  O   UNL     1       9.640  -8.746  19.835  1.00  0.00    -0.508 OA
ATOM     22  H   UNL     1       9.569  -9.298  18.987  1.00  0.00     0.293 HD
ENDBRANCH  18  21
ENDBRANCH  11  13
ENDBRANCH   2  11
TORSDOF 6
ENDMDL
MODEL 2
REMARK VINA RESULT:    -5.739      2.965      4.442
REMARK INTER + INTRA:          -8.026
REMARK INTER:                  -6.938
REMARK INTRA:                  -1.088
REMARK UNBOUND:                -0.777
REMARK SMILES O=C(C=Cc1ccc(O)cc1)c1ccc(O)cc1O
REMARK SMILES IDX 4 1 3 2 5 3 6 4 7 5 8 6 11 7 10 8 9 9 2 11 1 12 12 13 18 14
REMARK SMILES IDX 13 15 17 16 14 17 15 18 19 19 16 21
REMARK H PARENT 9 10 19 20 16 22
REMARK Flexibility Score: inf
ROOT
ATOM      1  C   UNL     1      10.943  -1.589  17.400  1.00  0.00     0.012 C 
ATOM      2  C   UNL     1       9.751  -2.055  17.811  1.00  0.00     0.053 C 
ENDROOT
BRANCH   1   3
ATOM      3  C   UNL     1      12.217  -1.729  18.135  1.00  0.00    -0.025 A 
ATOM      4  C   UNL     1      13.063  -2.831  17.921  1.00  0.00     0.012 A 
ATOM      5  C   UNL     1      14.288  -2.920  18.591  1.00  0.00     0.047 A 
ATOM      6  C   UNL     1      14.688  -1.902  19.462  1.00  0.00     0.115 A 
ATOM      7  C   UNL     1      12.636  -0.697  18.986  1.00  0.00     0.012 A 
ATOM      8  C   UNL     1      13.861  -0.787  19.655  1.00  0.00     0.047 A 
BRANCH   6   9
ATOM      9  O   UNL     1      15.910  -2.004  20.125  1.00  0.00    -0.508 OA
ATOM     10  H   UNL     1      16.782  -1.779  19.663  1.00  0.00     0.293 HD
ENDBRANCH   6   9
ENDBRANCH   1   3
BRANCH   2  11
ATOM     11  C   UNL     1       9.471  -2.623  19.152  1.00  0.00     0.189 C 
ATOM     12  O   UNL     1       9.208  -1.859  20.120  1.00  0.00    -0.289 OA
BRANCH  11  13
ATOM     13  C   UNL     1       9.458  -4.089  19.375  1.00  0.00     0.064 A 
ATOM     14  C   UNL     1       8.237  -4.798  19.395  1.00  0.00     0.130 A 
ATOM     15  C   UNL     1      10.662  -4.798  19.549  1.00  0.00     0.020 A 
ATOM     16  C   UNL     1       8.237  -6.187  19.591  1.00  0.00     0.093 A 
ATOM     17  C   UNL     1      10.650  -6.181  19.747  1.00  0.00     0.047 A 
ATOM     18  C   UNL     1       9.441  -6.878  19.770  1.00  0.00     0.119 A 
BRANCH  14  19
ATOM     19  O   UNL     1       7.028  -4.122  19.233  1.00  0.00    -0.507 OA
ATOM     20  H   UNL     1       6.562  -3.670  20.011  1.00  0.00     0.293 HD
ENDBRANCH  14  19
BRANCH  18  21
ATOM     21  O   UNL     1       9.446  -8.257  19.967  1.00  0.00    -0.508 OA
ATOM     22  H   UNL     1       9.458  -8.660  20.897  1.00  0.00     0.293 HD
ENDBRANCH  18  21
ENDBRANCH  11  13
ENDBRANCH   2  11
TORSDOF 6
ENDMDL
MODEL 3
REMARK VINA RESULT:    -5.528      2.653      3.891
REMARK INTER + INTRA:          -7.759
REMARK INTER:                  -6.896
REMARK INTRA:                  -0.863
REMARK UNBOUND:                -0.777
REMARK SMILES O=C(C=Cc1ccc(O)cc1)c1ccc(O)cc1O
REMARK SMILES IDX 4 1 3 2 5 3 6 4 7 5 8 6 11 7 10 8 9 9 2 11 1 12 12 13 18 14
REMARK SMILES IDX 13 15 17 16 14 17 15 18 19 19 16 21
REMARK H PARENT 9 10 19 20 16 22
REMARK Flexibility Score: inf
ROOT
ATOM      1  C   UNL     1      11.104  -0.928  17.214  1.00  0.00     0.012 C 
ATOM      2  C   UNL     1      11.582  -2.064  17.748  1.00  0.00     0.053 C 
ENDROOT
BRANCH   1   3
ATOM      3  C   UNL     1      10.284   0.074  17.925  1.00  0.00    -0.025 A 
ATOM      4  C   UNL     1      10.868   1.217  18.500  1.00  0.00     0.012 A 
ATOM      5  C   UNL     1      10.067   2.177  19.127  1.00  0.00     0.047 A 
ATOM      6  C   UNL     1       8.678   2.018  19.165  1.00  0.00     0.115 A 
ATOM      7  C   UNL     1       8.889  -0.065  17.939  1.00  0.00     0.012 A 
ATOM      8  C   UNL     1       8.090   0.896  18.566  1.00  0.00     0.047 A 
BRANCH   6   9
ATOM      9  O   UNL     1       7.892   2.982  19.794  1.00  0.00    -0.508 OA
ATOM     10  H   UNL     1       6.914   3.101  19.561  1.00  0.00     0.293 HD
ENDBRANCH   6   9
ENDBRANCH   1   3
BRANCH   2  11
ATOM     11  C   UNL     1      11.217  -2.603  19.082  1.00  0.00     0.189 C 
ATOM     12  O   UNL     1      11.506  -1.955  20.125  1.00  0.00    -0.289 OA
BRANCH  11  13
ATOM     13  C   UNL     1      10.481  -3.882  19.215  1.00  0.00     0.064 A 
ATOM     14  C   UNL     1      11.121  -5.023  19.745  1.00  0.00     0.130 A 
ATOM     15  C   UNL     1       9.128  -3.975  18.834  1.00  0.00     0.020 A 
ATOM     16  C   UNL     1      10.412  -6.226  19.881  1.00  0.00     0.093 A 
ATOM     17  C   UNL     1       8.432  -5.177  18.971  1.00  0.00     0.047 A 
ATOM     18  C   UNL     1       9.069  -6.305  19.492  1.00  0.00     0.119 A 
BRANCH  14  19
ATOM     19  O   UNL     1      12.463  -4.966  20.124  1.00  0.00    -0.507 OA
ATOM     20  H   UNL     1      12.952  -5.779  20.479  1.00  0.00     0.293 HD
ENDBRANCH  14  19
BRANCH  18  21
ATOM     21  O   UNL     1       8.361  -7.497  19.623  1.00  0.00    -0.508 OA
ATOM     22  H   UNL     1       7.682  -7.789  18.929  1.00  0.00     0.293 HD
ENDBRANCH  18  21
ENDBRANCH  11  13
ENDBRANCH   2  11
TORSDOF 6
ENDMDL
MODEL 4
REMARK VINA RESULT:    -5.527      1.567      2.917
REMARK INTER + INTRA:          -7.758
REMARK INTER:                  -6.978
REMARK INTRA:                  -0.780
REMARK UNBOUND:                -0.777
REMARK SMILES O=C(C=Cc1ccc(O)cc1)c1ccc(O)cc1O
REMARK SMILES IDX 4 1 3 2 5 3 6 4 7 5 8 6 11 7 10 8 9 9 2 11 1 12 12 13 18 14
REMARK SMILES IDX 13 15 17 16 14 17 15 18 19 19 16 21
REMARK H PARENT 9 10 19 20 16 22
REMARK Flexibility Score: inf
ROOT
ATOM      1  C   UNL     1       8.151  -2.606  19.226  1.00  0.00     0.012 C 
ATOM      2  C   UNL     1       8.203  -3.719  19.976  1.00  0.00     0.053 C 
ENDROOT
BRANCH   1   3
ATOM      3  C   UNL     1       8.613  -2.492  17.827  1.00  0.00    -0.025 A 
ATOM      4  C   UNL     1       7.928  -3.132  16.780  1.00  0.00     0.012 A 
ATOM      5  C   UNL     1       8.355  -2.972  15.457  1.00  0.00     0.047 A 
ATOM      6  C   UNL     1       9.453  -2.157  15.167  1.00  0.00     0.115 A 
ATOM      7  C   UNL     1       9.695  -1.652  17.528  1.00  0.00     0.012 A 
ATOM      8  C   UNL     1      10.121  -1.493  16.205  1.00  0.00     0.047 A 
BRANCH   6   9
ATOM      9  O   UNL     1       9.869  -2.007  13.845  1.00  0.00    -0.508 OA
ATOM     10  H   UNL     1       9.750  -1.132  13.349  1.00  0.00     0.293 HD
ENDBRANCH   6   9
ENDBRANCH   1   3
BRANCH   2  11
ATOM     11  C   UNL     1       8.902  -4.973  19.600  1.00  0.00     0.189 C 
ATOM     12  O   UNL     1       8.250  -5.938  19.116  1.00  0.00    -0.289 OA
BRANCH  11  13
ATOM     13  C   UNL     1      10.371  -5.104  19.748  1.00  0.00     0.064 A 
ATOM     14  C   UNL     1      10.955  -6.366  19.992  1.00  0.00     0.130 A 
ATOM     15  C   UNL     1      11.208  -3.978  19.628  1.00  0.00     0.020 A 
ATOM     16  C   UNL     1      12.347  -6.483  20.116  1.00  0.00     0.093 A 
ATOM     17  C   UNL     1      12.593  -4.104  19.756  1.00  0.00     0.047 A 
ATOM     18  C   UNL     1      13.166  -5.353  20.001  1.00  0.00     0.119 A 
BRANCH  14  19
ATOM     19  O   UNL     1      10.152  -7.500  20.124  1.00  0.00    -0.507 OA
ATOM     20  H   UNL     1       9.348  -7.655  19.528  1.00  0.00     0.293 HD
ENDBRANCH  14  19
BRANCH  18  21
ATOM     21  O   UNL     1      14.549  -5.463  20.125  1.00  0.00    -0.508 OA
ATOM     22  H   UNL     1      15.155  -4.655  20.041  1.00  0.00     0.293 HD
ENDBRANCH  18  21
ENDBRANCH  11  13
ENDBRANCH   2  11
TORSDOF 6
ENDMDL
MODEL 5
REMARK VINA RESULT:    -5.515      1.806      5.178
REMARK INTER + INTRA:          -7.743
REMARK INTER:                  -7.066
REMARK INTRA:                  -0.677
REMARK UNBOUND:                -0.777
REMARK SMILES O=C(C=Cc1ccc(O)cc1)c1ccc(O)cc1O
REMARK SMILES IDX 4 1 3 2 5 3 6 4 7 5 8 6 11 7 10 8 9 9 2 11 1 12 12 13 18 14
REMARK SMILES IDX 13 15 17 16 14 17 15 18 19 19 16 21
REMARK H PARENT 9 10 19 20 16 22
REMARK Flexibility Score: inf
ROOT
ATOM      1  C   UNL     1      10.142  -2.222  19.762  1.00  0.00     0.012 C 
ATOM      2  C   UNL     1       9.849  -1.179  18.968  1.00  0.00     0.053 C 
ENDROOT
BRANCH   1   3
ATOM      3  C   UNL     1       9.486  -3.545  19.716  1.00  0.00    -0.025 A 
ATOM      4  C   UNL     1      10.206  -4.703  19.373  1.00  0.00     0.012 A 
ATOM      5  C   UNL     1       9.576  -5.952  19.381  1.00  0.00     0.047 A 
ATOM      6  C   UNL     1       8.232  -6.060  19.753  1.00  0.00     0.115 A 
ATOM      7  C   UNL     1       8.147  -3.662  20.116  1.00  0.00     0.012 A 
ATOM      8  C   UNL     1       7.519  -4.912  20.125  1.00  0.00     0.047 A 
BRANCH   6   9
ATOM      9  O   UNL     1       7.617  -7.310  19.756  1.00  0.00    -0.508 OA
ATOM     10  H   UNL     1       7.823  -8.003  19.046  1.00  0.00     0.293 HD
ENDBRANCH   6   9
ENDBRANCH   1   3
BRANCH   2  11
ATOM     11  C   UNL     1       8.695  -1.109  18.038  1.00  0.00     0.189 C 
ATOM     12  O   UNL     1       7.750  -0.305  18.264  1.00  0.00    -0.289 OA
BRANCH  11  13
ATOM     13  C   UNL     1       8.645  -1.948  16.817  1.00  0.00     0.064 A 
ATOM     14  C   UNL     1       9.680  -1.878  15.859  1.00  0.00     0.130 A 
ATOM     15  C   UNL     1       7.577  -2.840  16.603  1.00  0.00     0.020 A 
ATOM     16  C   UNL     1       9.631  -2.687  14.714  1.00  0.00     0.093 A 
ATOM     17  C   UNL     1       7.536  -3.639  15.458  1.00  0.00     0.047 A 
ATOM     18  C   UNL     1       8.560  -3.565  14.512  1.00  0.00     0.119 A 
BRANCH  14  19
ATOM     19  O   UNL     1      10.748  -0.998  16.039  1.00  0.00    -0.507 OA
ATOM     20  H   UNL     1      11.702  -1.270  15.836  1.00  0.00     0.293 HD
ENDBRANCH  14  19
BRANCH  18  21
ATOM     21  O   UNL     1       8.505  -4.368  13.375  1.00  0.00    -0.508 OA
ATOM     22  H   UNL     1       8.907  -5.299  13.364  1.00  0.00     0.293 HD
ENDBRANCH  18  21
ENDBRANCH  11  13
ENDBRANCH   2  11
TORSDOF 6
ENDMDL
MODEL 6
REMARK VINA RESULT:    -5.415      2.918      5.217
REMARK INTER + INTRA:          -7.616
REMARK INTER:                  -6.255
REMARK INTRA:                  -1.361
REMARK UNBOUND:                -0.777
REMARK SMILES O=C(C=Cc1ccc(O)cc1)c1ccc(O)cc1O
REMARK SMILES IDX 4 1 3 2 5 3 6 4 7 5 8 6 11 7 10 8 9 9 2 11 1 12 12 13 18 14
REMARK SMILES IDX 13 15 17 16 14 17 15 18 19 19 16 21
REMARK H PARENT 9 10 19 20 16 22
REMARK Flexibility Score: inf
ROOT
ATOM      1  C   UNL     1       9.008  -2.802  20.125  1.00  0.00     0.012 C 
ATOM      2  C   UNL     1       7.964  -2.167  19.566  1.00  0.00     0.053 C 
ENDROOT
BRANCH   1   3
ATOM      3  C   UNL     1      10.427  -2.597  19.768  1.00  0.00    -0.025 A 
ATOM      4  C   UNL     1      11.128  -3.540  18.995  1.00  0.00     0.012 A 
ATOM      5  C   UNL     1      12.456  -3.303  18.629  1.00  0.00     0.047 A 
ATOM      6  C   UNL     1      13.090  -2.115  19.009  1.00  0.00     0.115 A 
ATOM      7  C   UNL     1      11.057  -1.395  20.122  1.00  0.00     0.012 A 
ATOM      8  C   UNL     1      12.386  -1.159  19.755  1.00  0.00     0.047 A 
BRANCH   6   9
ATOM      9  O   UNL     1      14.415  -1.892  18.639  1.00  0.00    -0.508 OA
ATOM     10  H   UNL     1      14.653  -1.263  17.882  1.00  0.00     0.293 HD
ENDBRANCH   6   9
ENDBRANCH   1   3
BRANCH   2  11
ATOM     11  C   UNL     1       8.036  -1.292  18.370  1.00  0.00     0.189 C 
ATOM     12  O   UNL     1       7.765  -0.065  18.468  1.00  0.00    -0.289 OA
BRANCH  11  13
ATOM     13  C   UNL     1       8.458  -1.829  17.054  1.00  0.00     0.064 A 
ATOM     14  C   UNL     1       9.591  -1.302  16.397  1.00  0.00     0.130 A 
ATOM     15  C   UNL     1       7.749  -2.885  16.449  1.00  0.00     0.020 A 
ATOM     16  C   UNL     1       9.991  -1.826  15.159  1.00  0.00     0.093 A 
ATOM     17  C   UNL     1       8.153  -3.398  15.214  1.00  0.00     0.047 A 
ATOM     18  C   UNL     1       9.272  -2.872  14.566  1.00  0.00     0.119 A 
BRANCH  14  19
ATOM     19  O   UNL     1      10.310  -0.251  16.967  1.00  0.00    -0.507 OA
ATOM     20  H   UNL     1      10.532   0.588  16.444  1.00  0.00     0.293 HD
ENDBRANCH  14  19
BRANCH  18  21
ATOM     21  O   UNL     1       9.664  -3.395  13.336  1.00  0.00    -0.508 OA
ATOM     22  H   UNL     1       9.313  -3.017  12.463  1.00  0.00     0.293 HD
ENDBRANCH  18  21
ENDBRANCH  11  13
ENDBRANCH   2  11
TORSDOF 6
ENDMDL
MODEL 7
REMARK VINA RESULT:    -5.235      3.122      5.295
REMARK INTER + INTRA:          -7.389
REMARK INTER:                  -6.217
REMARK INTRA:                  -1.172
REMARK UNBOUND:                -0.777
REMARK SMILES O=C(C=Cc1ccc(O)cc1)c1ccc(O)cc1O
REMARK SMILES IDX 4 1 3 2 5 3 6 4 7 5 8 6 11 7 10 8 9 9 2 11 1 12 12 13 18 14
REMARK SMILES IDX 13 15 17 16 14 17 15 18 19 19 16 21
REMARK H PARENT 9 10 19 20 16 22
REMARK Flexibility Score: inf
ROOT
ATOM      1  C   UNL     1       6.312  -1.490  19.568  1.00  0.00     0.012 C 
ATOM      2  C   UNL     1       6.432  -2.605  18.829  1.00  0.00     0.053 C 
ENDROOT
BRANCH   1   3
ATOM      3  C   UNL     1       6.746  -0.138  19.158  1.00  0.00    -0.025 A 
ATOM      4  C   UNL     1       5.898   0.706  18.419  1.00  0.00     0.012 A 
ATOM      5  C   UNL     1       6.311   1.999  18.083  1.00  0.00     0.047 A 
ATOM      6  C   UNL     1       7.561   2.469  18.498  1.00  0.00     0.115 A 
ATOM      7  C   UNL     1       7.986   0.348  19.598  1.00  0.00     0.012 A 
ATOM      8  C   UNL     1       8.397   1.641  19.260  1.00  0.00     0.047 A 
BRANCH   6   9
ATOM      9  O   UNL     1       7.961   3.759  18.155  1.00  0.00    -0.508 OA
ATOM     10  H   UNL     1       7.518   4.266  17.398  1.00  0.00     0.293 HD
ENDBRANCH   6   9
ENDBRANCH   1   3
BRANCH   2  11
ATOM     11  C   UNL     1       7.188  -2.710  17.556  1.00  0.00     0.189 C 
ATOM     12  O   UNL     1       6.574  -2.886  16.469  1.00  0.00    -0.289 OA
BRANCH  11  13
ATOM     13  C   UNL     1       8.665  -2.576  17.530  1.00  0.00     0.064 A 
ATOM     14  C   UNL     1       9.297  -1.843  16.502  1.00  0.00     0.130 A 
ATOM     15  C   UNL     1       9.456  -3.158  18.539  1.00  0.00     0.020 A 
ATOM     16  C   UNL     1      10.694  -1.710  16.494  1.00  0.00     0.093 A 
ATOM     17  C   UNL     1      10.845  -3.022  18.520  1.00  0.00     0.047 A 
ATOM     18  C   UNL     1      11.468  -2.299  17.500  1.00  0.00     0.119 A 
BRANCH  14  19
ATOM     19  O   UNL     1       8.541  -1.261  15.484  1.00  0.00    -0.507 OA
ATOM     20  H   UNL     1       8.942  -1.048  14.579  1.00  0.00     0.293 HD
ENDBRANCH  14  19
BRANCH  18  21
ATOM     21  O   UNL     1      12.855  -2.171  17.496  1.00  0.00    -0.508 OA
ATOM     22  H   UNL     1      13.404  -2.319  18.336  1.00  0.00     0.293 HD
ENDBRANCH  18  21
ENDBRANCH  11  13
ENDBRANCH   2  11
TORSDOF 6
ENDMDL
MODEL 8
REMARK VINA RESULT:    -5.231      1.524      5.216
REMARK INTER + INTRA:          -7.384
REMARK INTER:                  -6.862
REMARK INTRA:                  -0.522
REMARK UNBOUND:                -0.777
REMARK SMILES O=C(C=Cc1ccc(O)cc1)c1ccc(O)cc1O
REMARK SMILES IDX 4 1 3 2 5 3 6 4 7 5 8 6 11 7 10 8 9 9 2 11 1 12 12 13 18 14
REMARK SMILES IDX 13 15 17 16 14 17 15 18 19 19 16 21
REMARK H PARENT 9 10 19 20 16 22
REMARK Flexibility Score: inf
ROOT
ATOM      1  C   UNL     1       6.824  -3.953  19.429  1.00  0.00     0.012 C 
ATOM      2  C   UNL     1       6.328  -2.859  18.828  1.00  0.00     0.053 C 
ENDROOT
BRANCH   1   3
ATOM      3  C   UNL     1       8.258  -4.248  19.625  1.00  0.00    -0.025 A 
ATOM      4  C   UNL     1       8.780  -5.528  19.369  1.00  0.00     0.012 A 
ATOM      5  C   UNL     1      10.150  -5.773  19.515  1.00  0.00     0.047 A 
ATOM      6  C   UNL     1      11.012  -4.739  19.894  1.00  0.00     0.115 A 
ATOM      7  C   UNL     1       9.131  -3.208  19.976  1.00  0.00     0.012 A 
ATOM      8  C   UNL     1      10.500  -3.454  20.121  1.00  0.00     0.047 A 
BRANCH   6   9
ATOM      9  O   UNL     1      12.374  -4.997  20.038  1.00  0.00    -0.508 OA
ATOM     10  H   UNL     1      12.731  -5.542  20.813  1.00  0.00     0.293 HD
ENDBRANCH   6   9
ENDBRANCH   1   3
BRANCH   2  11
ATOM     11  C   UNL     1       7.130  -1.850  18.091  1.00  0.00     0.189 C 
ATOM     12  O   UNL     1       7.211  -0.669  18.525  1.00  0.00    -0.289 OA
BRANCH  11  13
ATOM     13  C   UNL     1       7.873  -2.214  16.861  1.00  0.00     0.064 A 
ATOM     14  C   UNL     1       9.066  -1.540  16.522  1.00  0.00     0.130 A 
ATOM     15  C   UNL     1       7.414  -3.249  16.025  1.00  0.00     0.020 A 
ATOM     16  C   UNL     1       9.771  -1.901  15.364  1.00  0.00     0.093 A 
ATOM     17  C   UNL     1       8.121  -3.599  14.873  1.00  0.00     0.047 A 
ATOM     18  C   UNL     1       9.298  -2.928  14.539  1.00  0.00     0.119 A 
BRANCH  14  19
ATOM     19  O   UNL     1       9.543  -0.504  17.327  1.00  0.00    -0.507 OA
ATOM     20  H   UNL     1       8.984   0.317  17.525  1.00  0.00     0.293 HD
ENDBRANCH  14  19
BRANCH  18  21
ATOM     21  O   UNL     1       9.993  -3.289  13.386  1.00  0.00    -0.508 OA
ATOM     22  H   UNL     1       9.807  -4.163  12.907  1.00  0.00     0.293 HD
ENDBRANCH  18  21
ENDBRANCH  11  13
ENDBRANCH   2  11
TORSDOF 6
ENDMDL
MODEL 9
REMARK VINA RESULT:    -5.013      2.659      6.403
REMARK INTER + INTRA:          -7.108
REMARK INTER:                  -6.851
REMARK INTRA:                  -0.257
REMARK UNBOUND:                -0.777
REMARK SMILES O=C(C=Cc1ccc(O)cc1)c1ccc(O)cc1O
REMARK SMILES IDX 4 1 3 2 5 3 6 4 7 5 8 6 11 7 10 8 9 9 2 11 1 12 12 13 18 14
REMARK SMILES IDX 13 15 17 16 14 17 15 18 19 19 16 21
REMARK H PARENT 9 10 19 20 16 22
REMARK Flexibility Score: inf
ROOT
ATOM      1  C   UNL     1      11.666  -3.752  19.805  1.00  0.00     0.012 C 
ATOM      2  C   UNL     1      11.830  -2.687  19.003  1.00  0.00     0.053 C 
ENDROOT
BRANCH   1   3
ATOM      3  C   UNL     1      10.528  -4.694  19.757  1.00  0.00    -0.025 A 
ATOM      4  C   UNL     1      10.734  -6.084  19.757  1.00  0.00     0.012 A 
ATOM      5  C   UNL     1       9.641  -6.958  19.759  1.00  0.00     0.047 A 
ATOM      6  C   UNL     1       8.337  -6.453  19.786  1.00  0.00     0.115 A 
ATOM      7  C   UNL     1       9.220  -4.193  19.814  1.00  0.00     0.012 A 
ATOM      8  C   UNL     1       8.129  -5.067  19.817  1.00  0.00     0.047 A 
BRANCH   6   9
ATOM      9  O   UNL     1       7.258  -7.334  19.787  1.00  0.00    -0.508 OA
ATOM     10  H   UNL     1       7.061  -7.929  20.583  1.00  0.00     0.293 HD
ENDBRANCH   6   9
ENDBRANCH   1   3
BRANCH   2  11
ATOM     11  C   UNL     1      10.813  -2.162  18.059  1.00  0.00     0.189 C 
ATOM     12  O   UNL     1      10.379  -2.892  17.127  1.00  0.00    -0.289 OA
BRANCH  11  13
ATOM     13  C   UNL     1      10.263  -0.793  18.211  1.00  0.00     0.064 A 
ATOM     14  C   UNL     1       8.875  -0.564  18.093  1.00  0.00     0.130 A 
ATOM     15  C   UNL     1      11.112   0.293  18.495  1.00  0.00     0.020 A 
ATOM     16  C   UNL     1       8.362   0.732  18.252  1.00  0.00     0.093 A 
ATOM     17  C   UNL     1      10.592   1.581  18.649  1.00  0.00     0.047 A 
ATOM     18  C   UNL     1       9.220   1.804  18.528  1.00  0.00     0.119 A 
BRANCH  14  19
ATOM     19  O   UNL     1       8.009  -1.619  17.804  1.00  0.00    -0.507 OA
ATOM     20  H   UNL     1       8.343  -2.569  17.697  1.00  0.00     0.293 HD
ENDBRANCH  14  19
BRANCH  18  21
ATOM     21  O   UNL     1       8.716   3.094  18.685  1.00  0.00    -0.508 OA
ATOM     22  H   UNL     1       8.342   3.412  19.572  1.00  0.00     0.293 HD
ENDBRANCH  18  21
ENDBRANCH  11  13
ENDBRANCH   2  11
TORSDOF 6
ENDMDL
