MODEL 1
REMARK VINA RESULT:    -6.253      0.000      0.000
REMARK INTER + INTRA:          -6.712
REMARK INTER:                  -6.619
REMARK INTRA:                  -0.093
REMARK UNBOUND:                -0.093
REMARK SMILES C=C(C)[C@H]1CC=C(C)C(=O)C1
REMARK SMILES IDX 8 1 7 2 6 3 5 4 4 5 11 6 9 7 10 8 2 9 1 10 3 11
REMARK H PARENT
REMARK Flexibility Score: inf
ROOT
ATOM      1  C   UNL     1      22.903 -21.990  16.718  1.00  0.00     0.048 C 
ATOM      2  C   UNL     1      23.042 -22.612  18.080  1.00  0.00    -0.012 C 
ATOM      3  C   UNL     1      22.584 -21.961  19.163  1.00  0.00    -0.019 C 
ATOM      4  C   UNL     1      22.713 -22.528  20.551  1.00  0.00     0.036 C 
ATOM      5  C   UNL     1      22.631 -24.067  20.531  1.00  0.00     0.025 C 
ATOM      6  C   UNL     1      23.681 -24.645  19.563  1.00  0.00     0.089 C 
ATOM      7  C   UNL     1      23.570 -23.993  18.212  1.00  0.00     0.158 C 
ATOM      8  O   UNL     1      23.968 -24.620  17.193  1.00  0.00    -0.295 OA
ENDROOT
BRANCH   5   9
ATOM      9  C   UNL     1      22.771 -24.657  21.928  1.00  0.00    -0.077 C 
ATOM     10  C   UNL     1      23.776 -24.293  22.743  1.00  0.00     0.008 C 
ATOM     11  C   UNL     1      21.771 -25.669  22.424  1.00  0.00     0.039 C 
ENDBRANCH   5   9
TORSDOF 1
ENDMDL
MODEL 2
REMARK VINA RESULT:    -6.160      2.333      3.423
REMARK INTER + INTRA:          -6.613
REMARK INTER:                  -6.525
REMARK INTRA:                  -0.089
REMARK UNBOUND:                -0.093
REMARK SMILES C=C(C)[C@H]1CC=C(C)C(=O)C1
REMARK SMILES IDX 8 1 7 2 6 3 5 4 4 5 11 6 9 7 10 8 2 9 1 10 3 11
REMARK H PARENT
REMARK Flexibility Score: inf
ROOT
ATOM      1  C   UNL     1      24.071 -19.735  15.237  1.00  0.00     0.048 C 
ATOM      2  C   UNL     1      23.662 -20.501  16.465  1.00  0.00    -0.012 C 
ATOM      3  C   UNL     1      22.913 -21.609  16.344  1.00  0.00    -0.019 C 
ATOM      4  C   UNL     1      22.460 -22.403  17.539  1.00  0.00     0.036 C 
ATOM      5  C   UNL     1      23.502 -22.342  18.672  1.00  0.00     0.025 C 
ATOM      6  C   UNL     1      23.819 -20.877  19.029  1.00  0.00     0.089 C 
ATOM      7  C   UNL     1      24.187 -20.100  17.794  1.00  0.00     0.158 C 
ATOM      8  O   UNL     1      24.919 -19.081  17.908  1.00  0.00    -0.295 OA
ENDROOT
BRANCH   5   9
ATOM      9  C   UNL     1      23.053 -23.133  19.894  1.00  0.00    -0.077 C 
ATOM     10  C   UNL     1      23.493 -24.382  20.120  1.00  0.00     0.008 C 
ATOM     11  C   UNL     1      22.098 -22.516  20.883  1.00  0.00     0.039 C 
ENDBRANCH   5   9
TORSDOF 1
ENDMDL
MODEL 3
REMARK VINA RESULT:    -6.150      4.867      6.187
REMARK INTER + INTRA:          -6.603
REMARK INTER:                  -6.510
REMARK INTRA:                  -0.093
REMARK UNBOUND:                -0.093
REMARK SMILES C=C(C)[C@H]1CC=C(C)C(=O)C1
REMARK SMILES IDX 8 1 7 2 6 3 5 4 4 5 11 6 9 7 10 8 2 9 1 10 3 11
REMARK H PARENT
REMARK Flexibility Score: inf
ROOT
ATOM      1  C   UNL     1      28.748 -17.965  20.889  1.00  0.00     0.048 C 
ATOM      2  C   UNL     1      27.563 -18.706  20.331  1.00  0.00    -0.012 C 
ATOM      3  C   UNL     1      26.322 -18.234  20.534  1.00  0.00    -0.019 C 
ATOM      4  C   UNL     1      25.101 -18.944  20.014  1.00  0.00     0.036 C 
ATOM      5  C   UNL     1      25.403 -19.666  18.687  1.00  0.00     0.025 C 
ATOM      6  C   UNL     1      26.604 -20.616  18.858  1.00  0.00     0.089 C 
ATOM      7  C   UNL     1      27.775 -19.886  19.456  1.00  0.00     0.158 C 
ATOM      8  O   UNL     1      28.941 -20.311  19.234  1.00  0.00    -0.295 OA
ENDROOT
BRANCH   5   9
ATOM      9  C   UNL     1      24.179 -20.399  18.154  1.00  0.00    -0.077 C 
ATOM     10  C   UNL     1      23.503 -21.277  18.915  1.00  0.00     0.008 C 
ATOM     11  C   UNL     1      23.701 -20.147  16.748  1.00  0.00     0.039 C 
ENDBRANCH   5   9
TORSDOF 1
ENDMDL
MODEL 4
REMARK VINA RESULT:    -6.061      3.469      4.872
REMARK INTER + INTRA:          -6.508
REMARK INTER:                  -6.414
REMARK INTRA:                  -0.094
REMARK UNBOUND:                -0.093
REMARK SMILES C=C(C)[C@H]1CC=C(C)C(=O)C1
REMARK SMILES IDX 8 1 7 2 6 3 5 4 4 5 11 6 9 7 10 8 2 9 1 10 3 11
REMARK H PARENT
REMARK Flexibility Score: inf
ROOT
ATOM      1  C   UNL     1      22.254 -22.554  16.006  1.00  0.00     0.048 C 
ATOM      2  C   UNL     1      22.966 -21.619  16.944  1.00  0.00    -0.012 C 
ATOM      3  C   UNL     1      22.994 -21.884  18.261  1.00  0.00    -0.019 C 
ATOM      4  C   UNL     1      23.676 -20.973  19.246  1.00  0.00     0.036 C 
ATOM      5  C   UNL     1      24.900 -20.286  18.610  1.00  0.00     0.025 C 
ATOM      6  C   UNL     1      24.488 -19.550  17.320  1.00  0.00     0.089 C 
ATOM      7  C   UNL     1      23.739 -20.474  16.400  1.00  0.00     0.158 C 
ATOM      8  O   UNL     1      23.744 -20.242  15.161  1.00  0.00    -0.295 OA
ENDROOT
BRANCH   5   9
ATOM      9  C   UNL     1      25.595 -19.352  19.591  1.00  0.00    -0.077 C 
ATOM     10  C   UNL     1      24.892 -18.553  20.413  1.00  0.00     0.008 C 
ATOM     11  C   UNL     1      27.099 -19.310  19.659  1.00  0.00     0.039 C 
ENDBRANCH   5   9
TORSDOF 1
ENDMDL
MODEL 5
REMARK VINA RESULT:    -6.055      2.252      3.547
REMARK INTER + INTRA:          -6.503
REMARK INTER:                  -6.409
REMARK INTRA:                  -0.094
REMARK UNBOUND:                -0.093
REMARK SMILES C=C(C)[C@H]1CC=C(C)C(=O)C1
REMARK SMILES IDX 8 1 7 2 6 3 5 4 4 5 11 6 9 7 10 8 2 9 1 10 3 11
REMARK H PARENT
REMARK Flexibility Score: inf
ROOT
ATOM      1  C   UNL     1      24.538 -24.777  18.832  1.00  0.00     0.048 C 
ATOM      2  C   UNL     1      23.807 -23.680  19.555  1.00  0.00    -0.012 C 
ATOM      3  C   UNL     1      23.770 -22.442  19.034  1.00  0.00    -0.019 C 
ATOM      4  C   UNL     1      23.068 -21.304  19.724  1.00  0.00     0.036 C 
ATOM      5  C   UNL     1      21.842 -21.804  20.512  1.00  0.00     0.025 C 
ATOM      6  C   UNL     1      22.256 -22.918  21.493  1.00  0.00     0.089 C 
ATOM      7  C   UNL     1      23.025 -23.994  20.778  1.00  0.00     0.158 C 
ATOM      8  O   UNL     1      23.028 -25.163  21.250  1.00  0.00    -0.295 OA
ENDROOT
BRANCH   5   9
ATOM      9  C   UNL     1      21.128 -20.665  21.226  1.00  0.00    -0.077 C 
ATOM     10  C   UNL     1      21.812 -19.705  21.870  1.00  0.00     0.008 C 
ATOM     11  C   UNL     1      19.623 -20.594  21.217  1.00  0.00     0.039 C 
ENDBRANCH   5   9
TORSDOF 1
ENDMDL
MODEL 6
REMARK VINA RESULT:    -6.038      2.081      3.140
REMARK INTER + INTRA:          -6.484
REMARK INTER:                  -6.395
REMARK INTRA:                  -0.089
REMARK UNBOUND:                -0.093
REMARK SMILES C=C(C)[C@H]1CC=C(C)C(=O)C1
REMARK SMILES IDX 8 1 7 2 6 3 5 4 4 5 11 6 9 7 10 8 2 9 1 10 3 11
REMARK H PARENT
REMARK Flexibility Score: inf
ROOT
ATOM      1  C   UNL     1      24.122 -18.999  15.715  1.00  0.00     0.048 C 
ATOM      2  C   UNL     1      23.987 -20.021  16.810  1.00  0.00    -0.012 C 
ATOM      3  C   UNL     1      24.453 -19.749  18.040  1.00  0.00    -0.019 C 
ATOM      4  C   UNL     1      24.360 -20.742  19.168  1.00  0.00     0.036 C 
ATOM      5  C   UNL     1      23.095 -21.612  19.038  1.00  0.00     0.025 C 
ATOM      6  C   UNL     1      23.054 -22.291  17.656  1.00  0.00     0.089 C 
ATOM      7  C   UNL     1      23.232 -21.275  16.562  1.00  0.00     0.158 C 
ATOM      8  O   UNL     1      22.762 -21.518  15.417  1.00  0.00    -0.295 OA
ENDROOT
BRANCH   5   9
ATOM      9  C   UNL     1      22.993 -22.629  20.167  1.00  0.00    -0.077 C 
ATOM     10  C   UNL     1      22.244 -22.391  21.257  1.00  0.00     0.008 C 
ATOM     11  C   UNL     1      23.738 -23.935  20.076  1.00  0.00     0.039 C 
ENDBRANCH   5   9
TORSDOF 1
ENDMDL
MODEL 7
REMARK VINA RESULT:    -6.030      1.843      4.752
REMARK INTER + INTRA:          -6.476
REMARK INTER:                  -6.382
REMARK INTRA:                  -0.094
REMARK UNBOUND:                -0.093
REMARK SMILES C=C(C)[C@H]1CC=C(C)C(=O)C1
REMARK SMILES IDX 8 1 7 2 6 3 5 4 4 5 11 6 9 7 10 8 2 9 1 10 3 11
REMARK H PARENT
REMARK Flexibility Score: inf
ROOT
ATOM      1  C   UNL     1      23.362 -24.407  22.244  1.00  0.00     0.048 C 
ATOM      2  C   UNL     1      23.308 -23.798  20.870  1.00  0.00    -0.012 C 
ATOM      3  C   UNL     1      23.855 -24.447  19.829  1.00  0.00    -0.019 C 
ATOM      4  C   UNL     1      23.845 -23.876  18.436  1.00  0.00     0.036 C 
ATOM      5  C   UNL     1      22.579 -23.032  18.192  1.00  0.00     0.025 C 
ATOM      6  C   UNL     1      22.448 -21.942  19.272  1.00  0.00     0.089 C 
ATOM      7  C   UNL     1      22.545 -22.545  20.647  1.00  0.00     0.158 C 
ATOM      8  O   UNL     1      22.000 -21.952  21.617  1.00  0.00    -0.295 OA
ENDROOT
BRANCH   5   9
ATOM      9  C   UNL     1      22.560 -22.438  16.790  1.00  0.00    -0.077 C 
ATOM     10  C   UNL     1      23.136 -21.252  16.525  1.00  0.00     0.008 C 
ATOM     11  C   UNL     1      21.890 -23.180  15.663  1.00  0.00     0.039 C 
ENDBRANCH   5   9
TORSDOF 1
ENDMDL
MODEL 8
REMARK VINA RESULT:    -5.985      1.974      4.382
REMARK INTER + INTRA:          -6.428
REMARK INTER:                  -6.334
REMARK INTRA:                  -0.094
REMARK UNBOUND:                -0.093
REMARK SMILES C=C(C)[C@H]1CC=C(C)C(=O)C1
REMARK SMILES IDX 8 1 7 2 6 3 5 4 4 5 11 6 9 7 10 8 2 9 1 10 3 11
REMARK H PARENT
REMARK Flexibility Score: inf
ROOT
ATOM      1  C   UNL     1      22.257 -24.825  21.683  1.00  0.00     0.048 C 
ATOM      2  C   UNL     1      22.687 -23.649  20.851  1.00  0.00    -0.012 C 
ATOM      3  C   UNL     1      22.248 -22.416  21.156  1.00  0.00    -0.019 C 
ATOM      4  C   UNL     1      22.632 -21.207  20.347  1.00  0.00     0.036 C 
ATOM      5  C   UNL     1      24.051 -21.357  19.766  1.00  0.00     0.025 C 
ATOM      6  C   UNL     1      24.160 -22.662  18.954  1.00  0.00     0.089 C 
ATOM      7  C   UNL     1      23.689 -23.834  19.772  1.00  0.00     0.158 C 
ATOM      8  O   UNL     1      24.131 -24.984  19.506  1.00  0.00    -0.295 OA
ENDROOT
BRANCH   5   9
ATOM      9  C   UNL     1      24.450 -20.145  18.934  1.00  0.00    -0.077 C 
ATOM     10  C   UNL     1      24.112 -20.045  17.637  1.00  0.00     0.008 C 
ATOM     11  C   UNL     1      25.238 -19.025  19.562  1.00  0.00     0.039 C 
ENDBRANCH   5   9
TORSDOF 1
ENDMDL
MODEL 9
REMARK VINA RESULT:    -5.974      2.236      3.889
REMARK INTER + INTRA:          -6.416
REMARK INTER:                  -6.323
REMARK INTRA:                  -0.094
REMARK UNBOUND:                -0.093
REMARK SMILES C=C(C)[C@H]1CC=C(C)C(=O)C1
REMARK SMILES IDX 8 1 7 2 6 3 5 4 4 5 11 6 9 7 10 8 2 9 1 10 3 11
REMARK H PARENT
REMARK Flexibility Score: inf
ROOT
ATOM      1  C   UNL     1      21.597 -21.375  21.227  1.00  0.00     0.048 C 
ATOM      2  C   UNL     1      22.395 -22.398  20.466  1.00  0.00    -0.012 C 
ATOM      3  C   UNL     1      22.756 -22.156  19.195  1.00  0.00    -0.019 C 
ATOM      4  C   UNL     1      23.539 -23.152  18.382  1.00  0.00     0.036 C 
ATOM      5  C   UNL     1      24.496 -23.966  19.275  1.00  0.00     0.025 C 
ATOM      6  C   UNL     1      23.716 -24.633  20.424  1.00  0.00     0.089 C 
ATOM      7  C   UNL     1      22.885 -23.617  21.159  1.00  0.00     0.158 C 
ATOM      8  O   UNL     1      22.577 -23.830  22.362  1.00  0.00    -0.295 OA
ENDROOT
BRANCH   5   9
ATOM      9  C   UNL     1      25.287 -24.987  18.468  1.00  0.00    -0.077 C 
ATOM     10  C   UNL     1      24.693 -25.757  17.539  1.00  0.00     0.008 C 
ATOM     11  C   UNL     1      26.767 -25.149  18.699  1.00  0.00     0.039 C 
ENDBRANCH   5   9
TORSDOF 1
ENDMDL
