MODEL 1
REMARK VINA RESULT:    -2.644      0.000      0.000
REMARK INTER + INTRA:          -3.509
REMARK INTER:                  -3.339
REMARK INTRA:                  -0.170
REMARK UNBOUND:                -0.170
REMARK SMILES CCCCC[C@@H](C)O
REMARK SMILES IDX 4 1 3 2 2 3 1 4 5 5 6 6 7 7 8 8
REMARK H PARENT 8 9
REMARK Flexibility Score: inf
ROOT
ATOM      1  C   UNL     1     109.542 112.763 108.239  1.00  0.00     0.003 C 
ENDROOT
BRANCH   1   2
ATOM      2  C   UNL     1     108.363 111.786 108.350  1.00  0.00    -0.000 C 
BRANCH   2   3
ATOM      3  C   UNL     1     107.969 111.497 109.807  1.00  0.00    -0.003 C 
ATOM      4  C   UNL     1     107.739 110.010 110.075  1.00  0.00     0.004 C 
ENDBRANCH   2   3
ENDBRANCH   1   2
BRANCH   1   5
ATOM      5  C   UNL     1     110.198 112.987 109.612  1.00  0.00     0.031 C 
BRANCH   5   6
ATOM      6  C   UNL     1     111.739 113.063 109.575  1.00  0.00     0.111 C 
ATOM      7  C   UNL     1     112.286 113.647 108.263  1.00  0.00     0.038 C 
BRANCH   6   8
ATOM      8  O   UNL     1     112.247 113.746 110.696  1.00  0.00    -0.393 OA
ATOM      9  H   UNL     1     113.000 114.317 110.394  1.00  0.00     0.210 HD
ENDBRANCH   6   8
ENDBRANCH   5   6
ENDBRANCH   1   5
TORSDOF 5
ENDMDL
MODEL 2
REMARK VINA RESULT:    -2.631     11.702     14.585
REMARK INTER + INTRA:          -3.493
REMARK INTER:                  -3.314
REMARK INTRA:                  -0.179
REMARK UNBOUND:                -0.170
REMARK SMILES CCCCC[C@@H](C)O
REMARK SMILES IDX 4 1 3 2 2 3 1 4 5 5 6 6 7 7 8 8
REMARK H PARENT 8 9
REMARK Flexibility Score: inf
ROOT
ATOM      1  C   UNL     1     122.462 119.260 108.212  1.00  0.00     0.003 C 
ENDROOT
BRANCH   1   2
ATOM      2  C   UNL     1     123.670 120.193 108.389  1.00  0.00    -0.000 C 
BRANCH   2   3
ATOM      3  C   UNL     1     123.960 120.512 109.864  1.00  0.00    -0.003 C 
ATOM      4  C   UNL     1     124.223 121.998 110.107  1.00  0.00     0.004 C 
ENDBRANCH   2   3
ENDBRANCH   1   2
BRANCH   1   5
ATOM      5  C   UNL     1     121.829 118.923 109.573  1.00  0.00     0.031 C 
BRANCH   5   6
ATOM      6  C   UNL     1     120.290 119.032 109.601  1.00  0.00     0.111 C 
ATOM      7  C   UNL     1     119.632 118.673 108.259  1.00  0.00     0.038 C 
BRANCH   6   8
ATOM      8  O   UNL     1     119.741 118.286 110.661  1.00  0.00    -0.393 OA
ATOM      9  H   UNL     1     120.485 117.823 111.129  1.00  0.00     0.210 HD
ENDBRANCH   6   8
ENDBRANCH   5   6
ENDBRANCH   1   5
TORSDOF 5
ENDMDL
MODEL 3
REMARK VINA RESULT:    -2.627      9.027     10.326
REMARK INTER + INTRA:          -3.488
REMARK INTER:                  -3.283
REMARK INTRA:                  -0.205
REMARK UNBOUND:                -0.170
REMARK SMILES CCCCC[C@@H](C)O
REMARK SMILES IDX 4 1 3 2 2 3 1 4 5 5 6 6 7 7 8 8
REMARK H PARENT 8 9
REMARK Flexibility Score: inf
ROOT
ATOM      1  C   UNL     1     118.901 109.321 108.354  1.00  0.00     0.003 C 
ENDROOT
BRANCH   1   2
ATOM      2  C   UNL     1     120.192 108.489 108.388  1.00  0.00    -0.000 C 
BRANCH   2   3
ATOM      3  C   UNL     1     120.617 108.115 109.817  1.00  0.00    -0.003 C 
ATOM      4  C   UNL     1     122.077 107.672 109.903  1.00  0.00     0.004 C 
ENDBRANCH   2   3
ENDBRANCH   1   2
BRANCH   1   5
ATOM      5  C   UNL     1     118.680 110.042 109.695  1.00  0.00     0.031 C 
BRANCH   5   6
ATOM      6  C   UNL     1     119.022 111.547 109.670  1.00  0.00     0.111 C 
ATOM      7  C   UNL     1     118.897 112.174 108.272  1.00  0.00     0.038 C 
BRANCH   6   8
ATOM      8  O   UNL     1     118.273 112.259 110.625  1.00  0.00    -0.393 OA
ATOM      9  H   UNL     1     117.623 112.834 110.142  1.00  0.00     0.210 HD
ENDBRANCH   6   8
ENDBRANCH   5   6
ENDBRANCH   1   5
TORSDOF 5
ENDMDL
MODEL 4
REMARK VINA RESULT:    -2.616      8.726     10.359
REMARK INTER + INTRA:          -3.474
REMARK INTER:                  -3.298
REMARK INTRA:                  -0.176
REMARK UNBOUND:                -0.170
REMARK SMILES CCCCC[C@@H](C)O
REMARK SMILES IDX 4 1 3 2 2 3 1 4 5 5 6 6 7 7 8 8
REMARK H PARENT 8 9
REMARK Flexibility Score: inf
ROOT
ATOM      1  C   UNL     1     112.804 122.548 108.331  1.00  0.00     0.003 C 
ENDROOT
BRANCH   1   2
ATOM      2  C   UNL     1     111.932 123.807 108.437  1.00  0.00    -0.000 C 
BRANCH   2   3
ATOM      3  C   UNL     1     111.472 124.091 109.875  1.00  0.00    -0.003 C 
ATOM      4  C   UNL     1     109.953 124.192 110.003  1.00  0.00     0.004 C 
ENDBRANCH   2   3
ENDBRANCH   1   2
BRANCH   1   5
ATOM      5  C   UNL     1     112.941 121.862 109.701  1.00  0.00     0.031 C 
BRANCH   5   6
ATOM      6  C   UNL     1     112.967 120.320 109.640  1.00  0.00     0.111 C 
ATOM      7  C   UNL     1     113.457 119.776 108.289  1.00  0.00     0.038 C 
BRANCH   6   8
ATOM      8  O   UNL     1     113.698 119.776 110.713  1.00  0.00    -0.393 OA
ATOM      9  H   UNL     1     114.661 119.951 110.549  1.00  0.00     0.210 HD
ENDBRANCH   6   8
ENDBRANCH   5   6
ENDBRANCH   1   5
TORSDOF 5
ENDMDL
MODEL 5
REMARK VINA RESULT:    -2.600      6.376      7.369
REMARK INTER + INTRA:          -3.453
REMARK INTER:                  -3.279
REMARK INTRA:                  -0.174
REMARK UNBOUND:                -0.170
REMARK SMILES CCCCC[C@@H](C)O
REMARK SMILES IDX 4 1 3 2 2 3 1 4 5 5 6 6 7 7 8 8
REMARK H PARENT 8 9
REMARK Flexibility Score: inf
ROOT
ATOM      1  C   UNL     1     117.217 110.105 108.068  1.00  0.00     0.003 C 
ENDROOT
BRANCH   1   2
ATOM      2  C   UNL     1     115.693 110.266 107.981  1.00  0.00    -0.000 C 
BRANCH   2   3
ATOM      3  C   UNL     1     114.937 109.201 108.791  1.00  0.00    -0.003 C 
ATOM      4  C   UNL     1     114.816 107.870 108.051  1.00  0.00     0.004 C 
ENDBRANCH   2   3
ENDBRANCH   1   2
BRANCH   1   5
ATOM      5  C   UNL     1     117.706 110.311 109.512  1.00  0.00     0.031 C 
BRANCH   5   6
ATOM      6  C   UNL     1     118.679 111.496 109.689  1.00  0.00     0.111 C 
ATOM      7  C   UNL     1     118.973 112.241 108.377  1.00  0.00     0.038 C 
BRANCH   6   8
ATOM      8  O   UNL     1     118.237 112.376 110.696  1.00  0.00    -0.393 OA
ATOM      9  H   UNL     1     117.509 111.927 111.199  1.00  0.00     0.210 HD
ENDBRANCH   6   8
ENDBRANCH   5   6
ENDBRANCH   1   5
TORSDOF 5
ENDMDL
MODEL 6
REMARK VINA RESULT:    -2.562     11.826     13.025
REMARK INTER + INTRA:          -3.406
REMARK INTER:                  -3.309
REMARK INTRA:                  -0.097
REMARK UNBOUND:                -0.170
REMARK SMILES CCCCC[C@@H](C)O
REMARK SMILES IDX 4 1 3 2 2 3 1 4 5 5 6 6 7 7 8 8
REMARK H PARENT 8 9
REMARK Flexibility Score: inf
ROOT
ATOM      1  C   UNL     1     121.555 116.481 108.429  1.00  0.00     0.003 C 
ENDROOT
BRANCH   1   2
ATOM      2  C   UNL     1     122.462 115.293 108.783  1.00  0.00    -0.000 C 
BRANCH   2   3
ATOM      3  C   UNL     1     123.446 114.943 107.656  1.00  0.00    -0.003 C 
ATOM      4  C   UNL     1     124.771 114.386 108.178  1.00  0.00     0.004 C 
ENDBRANCH   2   3
ENDBRANCH   1   2
BRANCH   1   5
ATOM      5  C   UNL     1     121.721 117.618 109.451  1.00  0.00     0.031 C 
BRANCH   5   6
ATOM      6  C   UNL     1     120.522 118.587 109.522  1.00  0.00     0.111 C 
ATOM      7  C   UNL     1     119.772 118.723 108.187  1.00  0.00     0.038 C 
BRANCH   6   8
ATOM      8  O   UNL     1     119.649 118.248 110.573  1.00  0.00    -0.393 OA
ATOM      9  H   UNL     1     118.898 117.722 110.192  1.00  0.00     0.210 HD
ENDBRANCH   6   8
ENDBRANCH   5   6
ENDBRANCH   1   5
TORSDOF 5
ENDMDL
MODEL 7
REMARK VINA RESULT:    -2.561      2.041      3.300
REMARK INTER + INTRA:          -3.405
REMARK INTER:                  -3.150
REMARK INTRA:                  -0.255
REMARK UNBOUND:                -0.170
REMARK SMILES CCCCC[C@@H](C)O
REMARK SMILES IDX 4 1 3 2 2 3 1 4 5 5 6 6 7 7 8 8
REMARK H PARENT 8 9
REMARK Flexibility Score: inf
ROOT
ATOM      1  C   UNL     1     109.709 113.281 108.116  1.00  0.00     0.003 C 
ENDROOT
BRANCH   1   2
ATOM      2  C   UNL     1     109.077 114.644 107.794  1.00  0.00    -0.000 C 
BRANCH   2   3
ATOM      3  C   UNL     1     109.784 115.807 108.506  1.00  0.00    -0.003 C 
ATOM      4  C   UNL     1     108.930 117.073 108.564  1.00  0.00     0.004 C 
ENDBRANCH   2   3
ENDBRANCH   1   2
BRANCH   1   5
ATOM      5  C   UNL     1     110.221 113.246 109.566  1.00  0.00     0.031 C 
BRANCH   5   6
ATOM      6  C   UNL     1     111.725 112.927 109.700  1.00  0.00     0.111 C 
ATOM      7  C   UNL     1     112.470 112.941 108.355  1.00  0.00     0.038 C 
BRANCH   6   8
ATOM      8  O   UNL     1     112.347 113.766 110.644  1.00  0.00    -0.393 OA
ATOM      9  H   UNL     1     112.293 113.324 111.531  1.00  0.00     0.210 HD
ENDBRANCH   6   8
ENDBRANCH   5   6
ENDBRANCH   1   5
TORSDOF 5
ENDMDL
MODEL 8
REMARK VINA RESULT:    -2.545      8.925     11.562
REMARK INTER + INTRA:          -3.385
REMARK INTER:                  -3.282
REMARK INTRA:                  -0.103
REMARK UNBOUND:                -0.170
REMARK SMILES CCCCC[C@@H](C)O
REMARK SMILES IDX 4 1 3 2 2 3 1 4 5 5 6 6 7 7 8 8
REMARK H PARENT 8 9
REMARK Flexibility Score: inf
ROOT
ATOM      1  C   UNL     1     115.487 121.540 108.252  1.00  0.00     0.003 C 
ENDROOT
BRANCH   1   2
ATOM      2  C   UNL     1     116.674 122.471 108.539  1.00  0.00    -0.000 C 
BRANCH   2   3
ATOM      3  C   UNL     1     116.555 123.822 107.816  1.00  0.00    -0.003 C 
ATOM      4  C   UNL     1     117.630 124.820 108.245  1.00  0.00     0.004 C 
ENDBRANCH   2   3
ENDBRANCH   1   2
BRANCH   1   5
ATOM      5  C   UNL     1     114.428 121.646 109.362  1.00  0.00     0.031 C 
BRANCH   5   6
ATOM      6  C   UNL     1     113.509 120.412 109.483  1.00  0.00     0.111 C 
ATOM      7  C   UNL     1     113.586 119.477 108.266  1.00  0.00     0.038 C 
BRANCH   6   8
ATOM      8  O   UNL     1     113.740 119.716 110.685  1.00  0.00    -0.393 OA
ATOM      9  H   UNL     1     113.599 118.748 110.513  1.00  0.00     0.210 HD
ENDBRANCH   6   8
ENDBRANCH   5   6
ENDBRANCH   1   5
TORSDOF 5
ENDMDL
MODEL 9
REMARK VINA RESULT:    -2.511      9.014      9.976
REMARK INTER + INTRA:          -3.341
REMARK INTER:                  -3.028
REMARK INTRA:                  -0.313
REMARK UNBOUND:                -0.170
REMARK SMILES CCCCC[C@@H](C)O
REMARK SMILES IDX 4 1 3 2 2 3 1 4 5 5 6 6 7 7 8 8
REMARK H PARENT 8 9
REMARK Flexibility Score: inf
ROOT
ATOM      1  C   UNL     1     119.784 109.232 109.672  1.00  0.00     0.003 C 
ENDROOT
BRANCH   1   2
ATOM      2  C   UNL     1     120.032 108.377 108.420  1.00  0.00    -0.000 C 
BRANCH   2   3
ATOM      3  C   UNL     1     119.248 108.877 107.197  1.00  0.00    -0.003 C 
ATOM      4  C   UNL     1     120.155 109.433 106.099  1.00  0.00     0.004 C 
ENDBRANCH   2   3
ENDBRANCH   1   2
BRANCH   1   5
ATOM      5  C   UNL     1     118.628 110.219 109.439  1.00  0.00     0.031 C 
BRANCH   5   6
ATOM      6  C   UNL     1     119.018 111.703 109.599  1.00  0.00     0.111 C 
ATOM      7  C   UNL     1     118.984 112.486 108.277  1.00  0.00     0.038 C 
BRANCH   6   8
ATOM      8  O   UNL     1     118.244 112.333 110.593  1.00  0.00    -0.393 OA
ATOM      9  H   UNL     1     118.101 111.684 111.330  1.00  0.00     0.210 HD
ENDBRANCH   6   8
ENDBRANCH   5   6
ENDBRANCH   1   5
TORSDOF 5
ENDMDL
