MODEL 1
REMARK VINA RESULT:    -4.315      0.000      0.000
REMARK INTER + INTRA:          -7.113
REMARK INTER:                  -5.829
REMARK INTRA:                  -1.284
REMARK UNBOUND:                -1.284
REMARK SMILES CC(=O)CCC=C(C)CCC=C(C)C
REMARK SMILES IDX 7 1 6 2 8 3 9 4 10 5 11 6 13 7 12 8 14 9 5 10 4 11 2 12 3 13
REMARK SMILES IDX 1 14
REMARK H PARENT
REMARK Flexibility Score: inf
ROOT
ATOM      1  C   UNL     1       3.796   7.639  12.344  1.00  0.00    -0.077 C 
ATOM      2  C   UNL     1       4.865   6.964  12.827  1.00  0.00    -0.028 C 
ATOM      3  C   UNL     1       3.929   8.645  11.224  1.00  0.00     0.039 C 
ENDROOT
BRANCH   1   4
ATOM      4  C   UNL     1       2.428   7.364  12.929  1.00  0.00     0.034 C 
BRANCH   4   5
ATOM      5  C   UNL     1       1.983   8.519  13.833  1.00  0.00     0.032 C 
BRANCH   5   6
ATOM      6  C   UNL     1       2.518   8.338  15.232  1.00  0.00    -0.028 C 
ATOM      7  C   UNL     1       3.884   8.839  17.213  1.00  0.00     0.039 C 
ATOM      8  C   UNL     1       3.476   9.113  15.788  1.00  0.00    -0.080 C 
ATOM      9  C   UNL     1       4.154  10.223  15.020  1.00  0.00     0.039 C 
ENDBRANCH   5   6
ENDBRANCH   4   5
ENDBRANCH   1   4
BRANCH   2  10
ATOM     10  C   UNL     1       6.286   7.176  12.368  1.00  0.00     0.035 C 
BRANCH  10  11
ATOM     11  C   UNL     1       7.068   8.005  13.391  1.00  0.00     0.079 C 
BRANCH  11  12
ATOM     12  C   UNL     1       7.708   9.198  12.732  1.00  0.00     0.130 C 
ATOM     13  O   UNL     1       8.814   9.083  12.225  1.00  0.00    -0.300 OA
ATOM     14  C   UNL     1       7.014  10.526  12.673  1.00  0.00     0.087 C 
ENDBRANCH  11  12
ENDBRANCH  10  11
ENDBRANCH   2  10
TORSDOF 6
ENDMDL
MODEL 2
REMARK VINA RESULT:    -4.209     16.925     19.890
REMARK INTER + INTRA:          -6.969
REMARK INTER:                  -5.765
REMARK INTRA:                  -1.205
REMARK UNBOUND:                -1.284
REMARK SMILES CC(=O)CCC=C(C)CCC=C(C)C
REMARK SMILES IDX 7 1 6 2 8 3 9 4 10 5 11 6 13 7 12 8 14 9 5 10 4 11 2 12 3 13
REMARK SMILES IDX 1 14
REMARK H PARENT
REMARK Flexibility Score: inf
ROOT
ATOM      1  C   UNL     1      19.270  19.650   8.638  1.00  0.00    -0.077 C 
ATOM      2  C   UNL     1      19.006  19.979   9.924  1.00  0.00    -0.028 C 
ATOM      3  C   UNL     1      18.239  18.983   7.758  1.00  0.00     0.039 C 
ENDROOT
BRANCH   1   4
ATOM      4  C   UNL     1      20.630  19.977   8.061  1.00  0.00     0.034 C 
BRANCH   4   5
ATOM      5  C   UNL     1      21.214  21.230   8.724  1.00  0.00     0.032 C 
BRANCH   5   6
ATOM      6  C   UNL     1      20.685  22.479   8.063  1.00  0.00    -0.028 C 
ATOM      7  C   UNL     1      19.633  24.696   7.932  1.00  0.00     0.039 C 
ATOM      8  C   UNL     1      20.075  23.490   8.720  1.00  0.00    -0.080 C 
ATOM      9  C   UNL     1      19.811  23.434  10.207  1.00  0.00     0.039 C 
ENDBRANCH   5   6
ENDBRANCH   4   5
ENDBRANCH   1   4
BRANCH   2  10
ATOM     10  C   UNL     1      17.713  19.668  10.635  1.00  0.00     0.035 C 
BRANCH  10  11
ATOM     11  C   UNL     1      16.986  20.958  11.027  1.00  0.00     0.079 C 
BRANCH  11  12
ATOM     12  C   UNL     1      16.217  21.514   9.858  1.00  0.00     0.130 C 
ATOM     13  O   UNL     1      16.447  22.651   9.474  1.00  0.00    -0.300 OA
ATOM     14  C   UNL     1      15.181  20.698   9.144  1.00  0.00     0.087 C 
ENDBRANCH  11  12
ENDBRANCH  10  11
ENDBRANCH   2  10
TORSDOF 6
ENDMDL
MODEL 3
REMARK VINA RESULT:    -4.189     17.203     20.281
REMARK INTER + INTRA:          -6.943
REMARK INTER:                  -5.834
REMARK INTRA:                  -1.109
REMARK UNBOUND:                -1.284
REMARK SMILES CC(=O)CCC=C(C)CCC=C(C)C
REMARK SMILES IDX 7 1 6 2 8 3 9 4 10 5 11 6 13 7 12 8 14 9 5 10 4 11 2 12 3 13
REMARK SMILES IDX 1 14
REMARK H PARENT
REMARK Flexibility Score: inf
ROOT
ATOM      1  C   UNL     1      20.696  21.010   8.501  1.00  0.00    -0.077 C 
ATOM      2  C   UNL     1      20.240  19.985   7.745  1.00  0.00    -0.028 C 
ATOM      3  C   UNL     1      20.957  20.855   9.981  1.00  0.00     0.039 C 
ENDROOT
BRANCH   1   4
ATOM      4  C   UNL     1      20.970  22.344   7.841  1.00  0.00     0.034 C 
BRANCH   4   5
ATOM      5  C   UNL     1      20.806  23.490   8.845  1.00  0.00     0.032 C 
BRANCH   5   6
ATOM      6  C   UNL     1      19.654  24.383   8.453  1.00  0.00    -0.028 C 
ATOM      7  C   UNL     1      17.355  25.252   8.480  1.00  0.00     0.039 C 
ATOM      8  C   UNL     1      18.397  24.260   8.932  1.00  0.00    -0.080 C 
ATOM      9  C   UNL     1      18.008  23.156   9.888  1.00  0.00     0.039 C 
ENDBRANCH   5   6
ENDBRANCH   4   5
ENDBRANCH   1   4
BRANCH   2  10
ATOM     10  C   UNL     1      19.882  18.623   8.283  1.00  0.00     0.035 C 
BRANCH  10  11
ATOM     11  C   UNL     1      18.390  18.336   8.084  1.00  0.00     0.079 C 
BRANCH  11  12
ATOM     12  C   UNL     1      17.552  19.264   8.922  1.00  0.00     0.130 C 
ATOM     13  O   UNL     1      16.799  20.054   8.373  1.00  0.00    -0.300 OA
ATOM     14  C   UNL     1      17.612  19.234  10.420  1.00  0.00     0.087 C 
ENDBRANCH  11  12
ENDBRANCH  10  11
ENDBRANCH   2  10
TORSDOF 6
ENDMDL
MODEL 4
REMARK VINA RESULT:    -4.154     16.551     18.645
REMARK INTER + INTRA:          -6.895
REMARK INTER:                  -5.404
REMARK INTRA:                  -1.491
REMARK UNBOUND:                -1.284
REMARK SMILES CC(=O)CCC=C(C)CCC=C(C)C
REMARK SMILES IDX 7 1 6 2 8 3 9 4 10 5 11 6 13 7 12 8 14 9 5 10 4 11 2 12 3 13
REMARK SMILES IDX 1 14
REMARK H PARENT
REMARK Flexibility Score: inf
ROOT
ATOM      1  C   UNL     1      20.694  20.035   9.070  1.00  0.00    -0.077 C 
ATOM      2  C   UNL     1      20.729  19.332  10.226  1.00  0.00    -0.028 C 
ATOM      3  C   UNL     1      20.822  19.362   7.724  1.00  0.00     0.039 C 
ENDROOT
BRANCH   1   4
ATOM      4  C   UNL     1      20.502  21.535   9.129  1.00  0.00     0.034 C 
BRANCH   4   5
ATOM      5  C   UNL     1      19.286  21.893   9.989  1.00  0.00     0.032 C 
BRANCH   5   6
ATOM      6  C   UNL     1      18.005  21.526   9.282  1.00  0.00    -0.028 C 
ATOM      7  C   UNL     1      15.807  20.466   8.989  1.00  0.00     0.039 C 
ATOM      8  C   UNL     1      17.057  20.711   9.795  1.00  0.00    -0.080 C 
ATOM      9  C   UNL     1      17.224  20.032  11.135  1.00  0.00     0.039 C 
ENDBRANCH   5   6
ENDBRANCH   4   5
ENDBRANCH   1   4
BRANCH   2  10
ATOM     10  C   UNL     1      20.961  17.845  10.313  1.00  0.00     0.035 C 
BRANCH  10  11
ATOM     11  C   UNL     1      19.644  17.104  10.564  1.00  0.00     0.079 C 
BRANCH  11  12
ATOM     12  C   UNL     1      19.057  16.605   9.270  1.00  0.00     0.130 C 
ATOM     13  O   UNL     1      19.626  15.715   8.657  1.00  0.00    -0.300 OA
ATOM     14  C   UNL     1      17.780  17.169   8.721  1.00  0.00     0.087 C 
ENDBRANCH  11  12
ENDBRANCH  10  11
ENDBRANCH   2  10
TORSDOF 6
ENDMDL
MODEL 5
REMARK VINA RESULT:    -4.131      2.551      4.691
REMARK INTER + INTRA:          -6.865
REMARK INTER:                  -6.205
REMARK INTRA:                  -0.660
REMARK UNBOUND:                -1.284
REMARK SMILES CC(=O)CCC=C(C)CCC=C(C)C
REMARK SMILES IDX 7 1 6 2 8 3 9 4 10 5 11 6 13 7 12 8 14 9 5 10 4 11 2 12 3 13
REMARK SMILES IDX 1 14
REMARK H PARENT
REMARK Flexibility Score: inf
ROOT
ATOM      1  C   UNL     1       3.638   9.129  15.985  1.00  0.00    -0.077 C 
ATOM      2  C   UNL     1       2.664   8.374  15.428  1.00  0.00    -0.028 C 
ATOM      3  C   UNL     1       4.265  10.291  15.250  1.00  0.00     0.039 C 
ENDROOT
BRANCH   1   4
ATOM      4  C   UNL     1       4.100   8.812  17.391  1.00  0.00     0.034 C 
BRANCH   4   5
ATOM      5  C   UNL     1       3.765   9.964  18.345  1.00  0.00     0.032 C 
BRANCH   5   6
ATOM      6  C   UNL     1       3.317   9.436  19.684  1.00  0.00    -0.028 C 
ATOM      7  C   UNL     1       3.369   9.110  22.120  1.00  0.00     0.039 C 
ATOM      8  C   UNL     1       3.957   9.672  20.851  1.00  0.00    -0.080 C 
ATOM      9  C   UNL     1       5.243  10.463  20.913  1.00  0.00     0.039 C 
ENDBRANCH   5   6
ENDBRANCH   4   5
ENDBRANCH   1   4
BRANCH   2  10
ATOM     10  C   UNL     1       2.147   8.550  14.022  1.00  0.00     0.035 C 
BRANCH  10  11
ATOM     11  C   UNL     1       2.559   7.368  13.140  1.00  0.00     0.079 C 
BRANCH  11  12
ATOM     12  C   UNL     1       3.868   7.649  12.449  1.00  0.00     0.130 C 
ATOM     13  O   UNL     1       3.916   8.506  11.580  1.00  0.00    -0.300 OA
ATOM     14  C   UNL     1       5.119   6.908  12.813  1.00  0.00     0.087 C 
ENDBRANCH  11  12
ENDBRANCH  10  11
ENDBRANCH   2  10
TORSDOF 6
ENDMDL
MODEL 6
REMARK VINA RESULT:    -4.127     17.448     19.808
REMARK INTER + INTRA:          -6.859
REMARK INTER:                  -5.619
REMARK INTRA:                  -1.241
REMARK UNBOUND:                -1.284
REMARK SMILES CC(=O)CCC=C(C)CCC=C(C)C
REMARK SMILES IDX 7 1 6 2 8 3 9 4 10 5 11 6 13 7 12 8 14 9 5 10 4 11 2 12 3 13
REMARK SMILES IDX 1 14
REMARK H PARENT
REMARK Flexibility Score: inf
ROOT
ATOM      1  C   UNL     1      17.112  21.342   9.915  1.00  0.00    -0.077 C 
ATOM      2  C   UNL     1      17.861  22.354   9.419  1.00  0.00    -0.028 C 
ATOM      3  C   UNL     1      16.848  21.196  11.396  1.00  0.00     0.039 C 
ENDROOT
BRANCH   1   4
ATOM      4  C   UNL     1      16.505  20.339   8.957  1.00  0.00     0.034 C 
BRANCH   4   5
ATOM      5  C   UNL     1      17.286  19.021   8.986  1.00  0.00     0.032 C 
BRANCH   5   6
ATOM      6  C   UNL     1      18.536  19.122   8.147  1.00  0.00    -0.028 C 
ATOM      7  C   UNL     1      20.948  19.201   7.685  1.00  0.00     0.039 C 
ATOM      8  C   UNL     1      19.791  19.136   8.648  1.00  0.00    -0.080 C 
ATOM      9  C   UNL     1      20.061  19.105  10.135  1.00  0.00     0.039 C 
ENDBRANCH   5   6
ENDBRANCH   4   5
ENDBRANCH   1   4
BRANCH   2  10
ATOM     10  C   UNL     1      18.561  23.389  10.263  1.00  0.00     0.035 C 
BRANCH  10  11
ATOM     11  C   UNL     1      19.666  24.084   9.462  1.00  0.00     0.079 C 
BRANCH  11  12
ATOM     12  C   UNL     1      20.731  23.099   9.058  1.00  0.00     0.130 C 
ATOM     13  O   UNL     1      21.285  22.428   9.915  1.00  0.00    -0.300 OA
ATOM     14  C   UNL     1      21.122  22.915   7.622  1.00  0.00     0.087 C 
ENDBRANCH  11  12
ENDBRANCH  10  11
ENDBRANCH   2  10
TORSDOF 6
ENDMDL
MODEL 7
REMARK VINA RESULT:    -4.096      2.362      5.187
REMARK INTER + INTRA:          -6.817
REMARK INTER:                  -6.071
REMARK INTRA:                  -0.746
REMARK UNBOUND:                -1.284
REMARK SMILES CC(=O)CCC=C(C)CCC=C(C)C
REMARK SMILES IDX 7 1 6 2 8 3 9 4 10 5 11 6 13 7 12 8 14 9 5 10 4 11 2 12 3 13
REMARK SMILES IDX 1 14
REMARK H PARENT
REMARK Flexibility Score: inf
ROOT
ATOM      1  C   UNL     1       3.390   8.019  13.781  1.00  0.00    -0.077 C 
ATOM      2  C   UNL     1       4.276   8.538  14.662  1.00  0.00    -0.028 C 
ATOM      3  C   UNL     1       1.966   8.516  13.696  1.00  0.00     0.039 C 
ENDROOT
BRANCH   1   4
ATOM      4  C   UNL     1       3.845   6.922  12.842  1.00  0.00     0.034 C 
BRANCH   4   5
ATOM      5  C   UNL     1       5.374   6.828  12.818  1.00  0.00     0.032 C 
BRANCH   5   6
ATOM      6  C   UNL     1       5.927   7.436  11.554  1.00  0.00    -0.028 C 
ATOM      7  C   UNL     1       7.386   8.858  10.177  1.00  0.00     0.039 C 
ATOM      8  C   UNL     1       6.904   8.370  11.520  1.00  0.00    -0.080 C 
ATOM      9  C   UNL     1       7.508   8.942  12.781  1.00  0.00     0.039 C 
ENDBRANCH   5   6
ENDBRANCH   4   5
ENDBRANCH   1   4
BRANCH   2  10
ATOM     10  C   UNL     1       3.943   9.596  15.683  1.00  0.00     0.035 C 
BRANCH  10  11
ATOM     11  C   UNL     1       3.621   8.960  17.039  1.00  0.00     0.079 C 
BRANCH  11  12
ATOM     12  C   UNL     1       4.061   9.857  18.166  1.00  0.00     0.130 C 
ATOM     13  O   UNL     1       4.561  10.942  17.910  1.00  0.00    -0.300 OA
ATOM     14  C   UNL     1       3.890   9.453  19.600  1.00  0.00     0.087 C 
ENDBRANCH  11  12
ENDBRANCH  10  11
ENDBRANCH   2  10
TORSDOF 6
ENDMDL
MODEL 8
REMARK VINA RESULT:    -4.085     17.618     19.821
REMARK INTER + INTRA:          -6.802
REMARK INTER:                  -5.471
REMARK INTRA:                  -1.331
REMARK UNBOUND:                -1.284
REMARK SMILES CC(=O)CCC=C(C)CCC=C(C)C
REMARK SMILES IDX 7 1 6 2 8 3 9 4 10 5 11 6 13 7 12 8 14 9 5 10 4 11 2 12 3 13
REMARK SMILES IDX 1 14
REMARK H PARENT
REMARK Flexibility Score: inf
ROOT
ATOM      1  C   UNL     1      20.268  19.942   8.633  1.00  0.00    -0.077 C 
ATOM      2  C   UNL     1      20.569  21.158   8.122  1.00  0.00    -0.028 C 
ATOM      3  C   UNL     1      20.750  19.509   9.998  1.00  0.00     0.039 C 
ENDROOT
BRANCH   1   4
ATOM      4  C   UNL     1      19.410  18.996   7.821  1.00  0.00     0.034 C 
BRANCH   4   5
ATOM      5  C   UNL     1      18.082  18.721   8.535  1.00  0.00     0.032 C 
BRANCH   5   6
ATOM      6  C   UNL     1      17.231  19.966   8.579  1.00  0.00    -0.028 C 
ATOM      7  C   UNL     1      16.042  21.858   9.602  1.00  0.00     0.039 C 
ATOM      8  C   UNL     1      16.863  20.599   9.715  1.00  0.00    -0.080 C 
ATOM      9  C   UNL     1      17.235  20.072  11.082  1.00  0.00     0.039 C 
ENDBRANCH   5   6
ENDBRANCH   4   5
ENDBRANCH   1   4
BRANCH   2  10
ATOM     10  C   UNL     1      21.452  22.174   8.802  1.00  0.00     0.035 C 
BRANCH  10  11
ATOM     11  C   UNL     1      20.906  23.590   8.596  1.00  0.00     0.079 C 
BRANCH  11  12
ATOM     12  C   UNL     1      19.557  23.742   9.247  1.00  0.00     0.130 C 
ATOM     13  O   UNL     1      18.608  24.124   8.579  1.00  0.00    -0.300 OA
ATOM     14  C   UNL     1      19.347  23.424  10.697  1.00  0.00     0.087 C 
ENDBRANCH  11  12
ENDBRANCH  10  11
ENDBRANCH   2  10
TORSDOF 6
ENDMDL
MODEL 9
REMARK VINA RESULT:    -4.042     17.391     19.708
REMARK INTER + INTRA:          -6.745
REMARK INTER:                  -5.516
REMARK INTRA:                  -1.228
REMARK UNBOUND:                -1.284
REMARK SMILES CC(=O)CCC=C(C)CCC=C(C)C
REMARK SMILES IDX 7 1 6 2 8 3 9 4 10 5 11 6 13 7 12 8 14 9 5 10 4 11 2 12 3 13
REMARK SMILES IDX 1 14
REMARK H PARENT
REMARK Flexibility Score: inf
ROOT
ATOM      1  C   UNL     1      17.672  20.610   9.808  1.00  0.00    -0.077 C 
ATOM      2  C   UNL     1      18.375  20.303   8.693  1.00  0.00    -0.028 C 
ATOM      3  C   UNL     1      17.489  19.618  10.933  1.00  0.00     0.039 C 
ENDROOT
BRANCH   1   4
ATOM      4  C   UNL     1      17.069  21.991   9.939  1.00  0.00     0.034 C 
BRANCH   4   5
ATOM      5  C   UNL     1      18.056  23.062   9.461  1.00  0.00     0.032 C 
BRANCH   5   6
ATOM      6  C   UNL     1      18.969  23.486  10.584  1.00  0.00    -0.028 C 
ATOM      7  C   UNL     1      21.102  23.864  11.746  1.00  0.00     0.039 C 
ATOM      8  C   UNL     1      20.314  23.357  10.565  1.00  0.00    -0.080 C 
ATOM      9  C   UNL     1      21.040  22.709   9.408  1.00  0.00     0.039 C 
ENDBRANCH   5   6
ENDBRANCH   4   5
ENDBRANCH   1   4
BRANCH   2  10
ATOM     10  C   UNL     1      18.985  18.952   8.415  1.00  0.00     0.035 C 
BRANCH  10  11
ATOM     11  C   UNL     1      20.502  18.989   8.627  1.00  0.00     0.079 C 
BRANCH  11  12
ATOM     12  C   UNL     1      20.860  18.490  10.002  1.00  0.00     0.130 C 
ATOM     13  O   UNL     1      21.327  19.269  10.820  1.00  0.00    -0.300 OA
ATOM     14  C   UNL     1      20.644  17.060  10.397  1.00  0.00     0.087 C 
ENDBRANCH  11  12
ENDBRANCH  10  11
ENDBRANCH   2  10
TORSDOF 6
ENDMDL
