MODEL 1
REMARK VINA RESULT:    -2.889      0.000      0.000
REMARK INTER + INTRA:          -5.079
REMARK INTER:                  -4.240
REMARK INTRA:                  -0.839
REMARK UNBOUND:                -0.839
REMARK SMILES O=C([O-])CCCCCCCC(=O)[O-]
REMARK SMILES IDX 7 1 6 2 5 3 4 4 2 5 1 6 3 7 8 8 9 9 10 10 11 11 12 12 13 13
REMARK H PARENT
REMARK Flexibility Score: inf
ROOT
ATOM      1  C   UNL     1      21.269  65.858  19.129  1.00  0.00     0.000 C 
ENDROOT
BRANCH   1   2
ATOM      2  C   UNL     1      20.252  64.899  18.491  1.00  0.00     0.000 C 
BRANCH   2   3
ATOM      3  C   UNL     1      18.923  65.588  18.145  1.00  0.00     0.006 C 
BRANCH   3   4
ATOM      4  C   UNL     1      19.165  66.895  17.385  1.00  0.00     0.053 C 
BRANCH   4   5
ATOM      5  C   UNL     1      19.666  66.613  16.003  1.00  0.00     0.041 C 
ATOM      6  O   UNL     1      20.596  67.306  15.513  1.00  0.00    -0.550 OA
ATOM      7  O   UNL     1      19.073  65.618  15.238  1.00  0.00    -0.550 OA
ENDBRANCH   4   5
ENDBRANCH   3   4
ENDBRANCH   2   3
ENDBRANCH   1   2
BRANCH   1   8
ATOM      8  C   UNL     1      22.595  65.913  18.357  1.00  0.00     0.000 C 
BRANCH   8   9
ATOM      9  C   UNL     1      23.001  67.363  18.065  1.00  0.00     0.006 C 
BRANCH   9  10
ATOM     10  C   UNL     1      22.121  68.347  18.841  1.00  0.00     0.053 C 
BRANCH  10  11
ATOM     11  C   UNL     1      22.060  69.665  18.136  1.00  0.00     0.041 C 
ATOM     12  O   UNL     1      23.042  70.451  18.174  1.00  0.00    -0.550 OA
ATOM     13  O   UNL     1      20.897  70.047  17.477  1.00  0.00    -0.550 OA
ENDBRANCH  10  11
ENDBRANCH   9  10
ENDBRANCH   8   9
ENDBRANCH   1   8
TORSDOF 8
ENDMDL
MODEL 2
REMARK VINA RESULT:    -2.854      1.607      2.252
REMARK INTER + INTRA:          -5.028
REMARK INTER:                  -4.392
REMARK INTRA:                  -0.636
REMARK UNBOUND:                -0.839
REMARK SMILES O=C([O-])CCCCCCCC(=O)[O-]
REMARK SMILES IDX 7 1 6 2 5 3 4 4 2 5 1 6 3 7 8 8 9 9 10 10 11 11 12 12 13 13
REMARK H PARENT
REMARK Flexibility Score: inf
ROOT
ATOM      1  C   UNL     1      22.757  66.238  18.382  1.00  0.00     0.000 C 
ENDROOT
BRANCH   1   2
ATOM      2  C   UNL     1      21.433  65.845  19.057  1.00  0.00     0.000 C 
BRANCH   2   3
ATOM      3  C   UNL     1      20.452  65.169  18.088  1.00  0.00     0.006 C 
BRANCH   3   4
ATOM      4  C   UNL     1      19.002  65.489  18.464  1.00  0.00     0.053 C 
BRANCH   4   5
ATOM      5  C   UNL     1      18.763  66.965  18.419  1.00  0.00     0.041 C 
ATOM      6  O   UNL     1      18.969  67.609  17.356  1.00  0.00    -0.550 OA
ATOM      7  O   UNL     1      18.358  67.639  19.564  1.00  0.00    -0.550 OA
ENDBRANCH   4   5
ENDBRANCH   3   4
ENDBRANCH   2   3
ENDBRANCH   1   2
BRANCH   1   8
ATOM      8  C   UNL     1      22.666  67.579  17.639  1.00  0.00     0.000 C 
BRANCH   8   9
ATOM      9  C   UNL     1      22.168  68.691  18.572  1.00  0.00     0.006 C 
BRANCH   9  10
ATOM     10  C   UNL     1      22.663  70.063  18.106  1.00  0.00     0.053 C 
BRANCH  10  11
ATOM     11  C   UNL     1      21.763  70.612  17.045  1.00  0.00     0.041 C 
ATOM     12  O   UNL     1      22.246  71.058  15.972  1.00  0.00    -0.550 OA
ATOM     13  O   UNL     1      20.392  70.677  17.263  1.00  0.00    -0.550 OA
ENDBRANCH  10  11
ENDBRANCH   9  10
ENDBRANCH   8   9
ENDBRANCH   1   8
TORSDOF 8
ENDMDL
MODEL 3
REMARK VINA RESULT:    -2.846      2.417      4.587
REMARK INTER + INTRA:          -5.016
REMARK INTER:                  -4.257
REMARK INTRA:                  -0.760
REMARK UNBOUND:                -0.839
REMARK SMILES O=C([O-])CCCCCCCC(=O)[O-]
REMARK SMILES IDX 7 1 6 2 5 3 4 4 2 5 1 6 3 7 8 8 9 9 10 10 11 11 12 12 13 13
REMARK H PARENT
REMARK Flexibility Score: inf
ROOT
ATOM      1  C   UNL     1      22.049  70.524  16.867  1.00  0.00     0.000 C 
ENDROOT
BRANCH   1   2
ATOM      2  C   UNL     1      22.493  70.193  18.300  1.00  0.00     0.000 C 
BRANCH   2   3
ATOM      3  C   UNL     1      22.094  68.774  18.731  1.00  0.00     0.006 C 
BRANCH   3   4
ATOM      4  C   UNL     1      22.730  67.724  17.816  1.00  0.00     0.053 C 
BRANCH   4   5
ATOM      5  C   UNL     1      22.537  66.351  18.379  1.00  0.00     0.041 C 
ATOM      6  O   UNL     1      23.336  65.425  18.079  1.00  0.00    -0.550 OA
ATOM      7  O   UNL     1      21.447  66.082  19.196  1.00  0.00    -0.550 OA
ENDBRANCH   4   5
ENDBRANCH   3   4
ENDBRANCH   2   3
ENDBRANCH   1   2
BRANCH   1   8
ATOM      8  C   UNL     1      20.555  70.868  16.775  1.00  0.00     0.000 C 
BRANCH   8   9
ATOM      9  C   UNL     1      19.768  69.723  16.123  1.00  0.00     0.006 C 
BRANCH   9  10
ATOM     10  C   UNL     1      18.632  69.249  17.034  1.00  0.00     0.053 C 
BRANCH  10  11
ATOM     11  C   UNL     1      18.797  67.799  17.364  1.00  0.00     0.041 C 
ATOM     12  O   UNL     1      19.317  67.014  16.530  1.00  0.00    -0.550 OA
ATOM     13  O   UNL     1      18.328  67.306  18.576  1.00  0.00    -0.550 OA
ENDBRANCH  10  11
ENDBRANCH   9  10
ENDBRANCH   8   9
ENDBRANCH   1   8
TORSDOF 8
ENDMDL
MODEL 4
REMARK VINA RESULT:    -2.815      2.305      3.916
REMARK INTER + INTRA:          -4.971
REMARK INTER:                  -4.087
REMARK INTRA:                  -0.884
REMARK UNBOUND:                -0.839
REMARK SMILES O=C([O-])CCCCCCCC(=O)[O-]
REMARK SMILES IDX 7 1 6 2 5 3 4 4 2 5 1 6 3 7 8 8 9 9 10 10 11 11 12 12 13 13
REMARK H PARENT
REMARK Flexibility Score: inf
ROOT
ATOM      1  C   UNL     1      22.000  70.195  16.710  1.00  0.00     0.000 C 
ENDROOT
BRANCH   1   2
ATOM      2  C   UNL     1      20.700  70.986  16.497  1.00  0.00     0.000 C 
BRANCH   2   3
ATOM      3  C   UNL     1      19.448  70.101  16.576  1.00  0.00     0.006 C 
BRANCH   3   4
ATOM      4  C   UNL     1      19.668  68.773  15.846  1.00  0.00     0.053 C 
BRANCH   4   5
ATOM      5  C   UNL     1      19.277  67.623  16.720  1.00  0.00     0.041 C 
ATOM      6  O   UNL     1      19.304  66.448  16.270  1.00  0.00    -0.550 OA
ATOM      7  O   UNL     1      18.837  67.854  18.017  1.00  0.00    -0.550 OA
ENDBRANCH   4   5
ENDBRANCH   3   4
ENDBRANCH   2   3
ENDBRANCH   1   2
BRANCH   1   8
ATOM      8  C   UNL     1      22.420  70.134  18.187  1.00  0.00     0.000 C 
BRANCH   8   9
ATOM      9  C   UNL     1      22.261  68.714  18.744  1.00  0.00     0.006 C 
BRANCH   9  10
ATOM     10  C   UNL     1      22.837  67.676  17.777  1.00  0.00     0.053 C 
BRANCH  10  11
ATOM     11  C   UNL     1      22.583  66.291  18.282  1.00  0.00     0.041 C 
ATOM     12  O   UNL     1      21.612  66.064  19.050  1.00  0.00    -0.550 OA
ATOM     13  O   UNL     1      23.450  65.259  17.945  1.00  0.00    -0.550 OA
ENDBRANCH  10  11
ENDBRANCH   9  10
ENDBRANCH   8   9
ENDBRANCH   1   8
TORSDOF 8
ENDMDL
MODEL 5
REMARK VINA RESULT:    -2.808      2.114      4.394
REMARK INTER + INTRA:          -4.961
REMARK INTER:                  -4.472
REMARK INTRA:                  -0.489
REMARK UNBOUND:                -0.839
REMARK SMILES O=C([O-])CCCCCCCC(=O)[O-]
REMARK SMILES IDX 7 1 6 2 5 3 4 4 2 5 1 6 3 7 8 8 9 9 10 10 11 11 12 12 13 13
REMARK H PARENT
REMARK Flexibility Score: inf
ROOT
ATOM      1  C   UNL     1      22.802  67.510  17.672  1.00  0.00     0.000 C 
ENDROOT
BRANCH   1   2
ATOM      2  C   UNL     1      22.341  68.640  18.607  1.00  0.00     0.000 C 
BRANCH   2   3
ATOM      3  C   UNL     1      22.637  70.036  18.041  1.00  0.00     0.006 C 
BRANCH   3   4
ATOM      4  C   UNL     1      21.481  70.528  17.165  1.00  0.00     0.053 C 
BRANCH   4   5
ATOM      5  C   UNL     1      21.995  71.032  15.854  1.00  0.00     0.041 C 
ATOM      6  O   UNL     1      22.763  72.030  15.815  1.00  0.00    -0.550 OA
ATOM      7  O   UNL     1      21.589  70.431  14.670  1.00  0.00    -0.550 OA
ENDBRANCH   4   5
ENDBRANCH   3   4
ENDBRANCH   2   3
ENDBRANCH   1   2
BRANCH   1   8
ATOM      8  C   UNL     1      22.442  66.116  18.207  1.00  0.00     0.000 C 
BRANCH   8   9
ATOM      9  C   UNL     1      21.243  66.187  19.161  1.00  0.00     0.006 C 
BRANCH   9  10
ATOM     10  C   UNL     1      19.960  65.721  18.468  1.00  0.00     0.053 C 
BRANCH  10  11
ATOM     11  C   UNL     1      18.843  66.682  18.731  1.00  0.00     0.041 C 
ATOM     12  O   UNL     1      17.880  66.348  19.468  1.00  0.00    -0.550 OA
ATOM     13  O   UNL     1      18.844  67.931  18.121  1.00  0.00    -0.550 OA
ENDBRANCH  10  11
ENDBRANCH   9  10
ENDBRANCH   8   9
ENDBRANCH   1   8
TORSDOF 8
ENDMDL
MODEL 6
REMARK VINA RESULT:    -2.808      1.880      4.445
REMARK INTER + INTRA:          -4.961
REMARK INTER:                  -4.260
REMARK INTRA:                  -0.701
REMARK UNBOUND:                -0.839
REMARK SMILES O=C([O-])CCCCCCCC(=O)[O-]
REMARK SMILES IDX 7 1 6 2 5 3 4 4 2 5 1 6 3 7 8 8 9 9 10 10 11 11 12 12 13 13
REMARK H PARENT
REMARK Flexibility Score: inf
ROOT
ATOM      1  C   UNL     1      19.315  67.755  18.618  1.00  0.00     0.000 C 
ENDROOT
BRANCH   1   2
ATOM      2  C   UNL     1      19.288  68.064  17.113  1.00  0.00     0.000 C 
BRANCH   2   3
ATOM      3  C   UNL     1      20.610  68.659  16.607  1.00  0.00     0.006 C 
BRANCH   3   4
ATOM      4  C   UNL     1      21.020  69.875  17.442  1.00  0.00     0.053 C 
BRANCH   4   5
ATOM      5  C   UNL     1      22.383  69.676  18.025  1.00  0.00     0.041 C 
ATOM      6  O   UNL     1      23.170  70.651  18.145  1.00  0.00    -0.550 OA
ATOM      7  O   UNL     1      22.804  68.404  18.391  1.00  0.00    -0.550 OA
ENDBRANCH   4   5
ENDBRANCH   3   4
ENDBRANCH   2   3
ENDBRANCH   1   2
BRANCH   1   8
ATOM      8  C   UNL     1      18.549  66.471  18.971  1.00  0.00     0.000 C 
BRANCH   8   9
ATOM      9  C   UNL     1      19.384  65.226  18.645  1.00  0.00     0.006 C 
BRANCH   9  10
ATOM     10  C   UNL     1      20.838  65.407  19.092  1.00  0.00     0.053 C 
BRANCH  10  11
ATOM     11  C   UNL     1      21.773  65.125  17.958  1.00  0.00     0.041 C 
ATOM     12  O   UNL     1      21.327  64.975  16.791  1.00  0.00    -0.550 OA
ATOM     13  O   UNL     1      23.133  64.978  18.200  1.00  0.00    -0.550 OA
ENDBRANCH  10  11
ENDBRANCH   9  10
ENDBRANCH   8   9
ENDBRANCH   1   8
TORSDOF 8
ENDMDL
MODEL 7
REMARK VINA RESULT:    -2.765      1.782      2.728
REMARK INTER + INTRA:          -4.897
REMARK INTER:                  -4.089
REMARK INTRA:                  -0.808
REMARK UNBOUND:                -0.839
REMARK SMILES O=C([O-])CCCCCCCC(=O)[O-]
REMARK SMILES IDX 7 1 6 2 5 3 4 4 2 5 1 6 3 7 8 8 9 9 10 10 11 11 12 12 13 13
REMARK H PARENT
REMARK Flexibility Score: inf
ROOT
ATOM      1  C   UNL     1      19.013  67.497  18.847  1.00  0.00     0.000 C 
ENDROOT
BRANCH   1   2
ATOM      2  C   UNL     1      18.465  66.087  19.114  1.00  0.00     0.000 C 
BRANCH   2   3
ATOM      3  C   UNL     1      19.391  64.981  18.588  1.00  0.00     0.006 C 
BRANCH   3   4
ATOM      4  C   UNL     1      20.828  65.191  19.073  1.00  0.00     0.053 C 
BRANCH   4   5
ATOM      5  C   UNL     1      21.789  65.075  17.933  1.00  0.00     0.041 C 
ATOM      6  O   UNL     1      21.362  64.945  16.755  1.00  0.00    -0.550 OA
ATOM      7  O   UNL     1      23.156  65.061  18.174  1.00  0.00    -0.550 OA
ENDBRANCH   4   5
ENDBRANCH   3   4
ENDBRANCH   2   3
ENDBRANCH   1   2
BRANCH   1   8
ATOM      8  C   UNL     1      18.977  67.873  17.358  1.00  0.00     0.000 C 
BRANCH   8   9
ATOM      9  C   UNL     1      20.352  68.357  16.880  1.00  0.00     0.006 C 
BRANCH   9  10
ATOM     10  C   UNL     1      21.224  68.788  18.063  1.00  0.00     0.053 C 
BRANCH  10  11
ATOM     11  C   UNL     1      21.748  70.173  17.851  1.00  0.00     0.041 C 
ATOM     12  O   UNL     1      22.821  70.536  18.399  1.00  0.00    -0.550 OA
ATOM     13  O   UNL     1      21.023  71.080  17.088  1.00  0.00    -0.550 OA
ENDBRANCH  10  11
ENDBRANCH   9  10
ENDBRANCH   8   9
ENDBRANCH   1   8
TORSDOF 8
ENDMDL
MODEL 8
REMARK VINA RESULT:    -2.709      2.138      3.244
REMARK INTER + INTRA:          -4.815
REMARK INTER:                  -4.065
REMARK INTRA:                  -0.750
REMARK UNBOUND:                -0.839
REMARK SMILES O=C([O-])CCCCCCCC(=O)[O-]
REMARK SMILES IDX 7 1 6 2 5 3 4 4 2 5 1 6 3 7 8 8 9 9 10 10 11 11 12 12 13 13
REMARK H PARENT
REMARK Flexibility Score: inf
ROOT
ATOM      1  C   UNL     1      18.960  66.083  19.006  1.00  0.00     0.000 C 
ENDROOT
BRANCH   1   2
ATOM      2  C   UNL     1      19.938  65.029  18.467  1.00  0.00     0.000 C 
BRANCH   2   3
ATOM      3  C   UNL     1      21.314  65.094  19.145  1.00  0.00     0.006 C 
BRANCH   3   4
ATOM      4  C   UNL     1      22.440  64.923  18.121  1.00  0.00     0.053 C 
BRANCH   4   5
ATOM      5  C   UNL     1      23.135  66.226  17.884  1.00  0.00     0.041 C 
ATOM      6  O   UNL     1      23.849  66.386  16.859  1.00  0.00    -0.550 OA
ATOM      7  O   UNL     1      23.035  67.248  18.819  1.00  0.00    -0.550 OA
ENDBRANCH   4   5
ENDBRANCH   3   4
ENDBRANCH   2   3
ENDBRANCH   1   2
BRANCH   1   8
ATOM      8  C   UNL     1      19.449  67.520  18.769  1.00  0.00     0.000 C 
BRANCH   8   9
ATOM      9  C   UNL     1      19.288  67.919  17.296  1.00  0.00     0.006 C 
BRANCH   9  10
ATOM     10  C   UNL     1      20.568  68.564  16.759  1.00  0.00     0.053 C 
BRANCH  10  11
ATOM     11  C   UNL     1      20.738  69.940  17.321  1.00  0.00     0.041 C 
ATOM     12  O   UNL     1      19.974  70.872  16.958  1.00  0.00    -0.550 OA
ATOM     13  O   UNL     1      21.773  70.204  18.210  1.00  0.00    -0.550 OA
ENDBRANCH  10  11
ENDBRANCH   9  10
ENDBRANCH   8   9
ENDBRANCH   1   8
TORSDOF 8
ENDMDL
MODEL 9
REMARK VINA RESULT:    -2.704      2.220      4.057
REMARK INTER + INTRA:          -4.808
REMARK INTER:                  -3.996
REMARK INTRA:                  -0.813
REMARK UNBOUND:                -0.839
REMARK SMILES O=C([O-])CCCCCCCC(=O)[O-]
REMARK SMILES IDX 7 1 6 2 5 3 4 4 2 5 1 6 3 7 8 8 9 9 10 10 11 11 12 12 13 13
REMARK H PARENT
REMARK Flexibility Score: inf
ROOT
ATOM      1  C   UNL     1      22.365  69.891  18.377  1.00  0.00     0.000 C 
ENDROOT
BRANCH   1   2
ATOM      2  C   UNL     1      21.944  70.481  17.022  1.00  0.00     0.000 C 
BRANCH   2   3
ATOM      3  C   UNL     1      21.621  69.400  15.979  1.00  0.00     0.006 C 
BRANCH   3   4
ATOM      4  C   UNL     1      20.227  69.612  15.383  1.00  0.00     0.053 C 
BRANCH   4   5
ATOM      5  C   UNL     1      19.214  68.786  16.110  1.00  0.00     0.041 C 
ATOM      6  O   UNL     1      18.558  69.282  17.064  1.00  0.00    -0.550 OA
ATOM      7  O   UNL     1      19.029  67.453  15.767  1.00  0.00    -0.550 OA
ENDBRANCH   4   5
ENDBRANCH   3   4
ENDBRANCH   2   3
ENDBRANCH   1   2
BRANCH   1   8
ATOM      8  C   UNL     1      22.312  68.355  18.395  1.00  0.00     0.000 C 
BRANCH   8   9
ATOM      9  C   UNL     1      21.099  67.858  19.193  1.00  0.00     0.006 C 
BRANCH   9  10
ATOM     10  C   UNL     1      20.669  66.464  18.726  1.00  0.00     0.053 C 
BRANCH  10  11
ATOM     11  C   UNL     1      19.204  66.264  18.955  1.00  0.00     0.041 C 
ATOM     12  O   UNL     1      18.520  67.166  19.505  1.00  0.00    -0.550 OA
ATOM     13  O   UNL     1      18.605  65.060  18.606  1.00  0.00    -0.550 OA
ENDBRANCH  10  11
ENDBRANCH   9  10
ENDBRANCH   8   9
ENDBRANCH   1   8
TORSDOF 8
ENDMDL
