MODEL 1
REMARK VINA RESULT:    -4.786      0.000      0.000
REMARK INTER + INTRA:          -5.801
REMARK INTER:                  -5.485
REMARK INTRA:                  -0.316
REMARK UNBOUND:                -0.316
REMARK SMILES COc1ccc(C(C)=O)c(O)c1
REMARK SMILES IDX 6 1 10 2 12 3 3 4 4 5 5 6 7 7 8 8 9 9 11 10 2 12 1 13
REMARK H PARENT 11 11
REMARK Flexibility Score: inf
ROOT
ATOM      1  C   UNL     1      22.705 -16.522  -9.755  1.00  0.00     0.059 A 
ATOM      2  C   UNL     1      23.431 -17.560  -9.128  1.00  0.00     0.130 A 
ATOM      3  C   UNL     1      23.222 -18.893  -9.515  1.00  0.00     0.093 A 
ATOM      4  C   UNL     1      22.290 -19.216 -10.505  1.00  0.00     0.122 A 
ATOM      5  C   UNL     1      21.555 -18.187 -11.116  1.00  0.00     0.047 A 
ATOM      6  C   UNL     1      21.759 -16.857 -10.741  1.00  0.00     0.019 A 
ENDROOT
BRANCH   1   7
ATOM      7  C   UNL     1      22.893 -15.088  -9.403  1.00  0.00     0.163 C 
ATOM      8  C   UNL     1      21.789 -14.081  -9.512  1.00  0.00     0.093 C 
ATOM      9  O   UNL     1      24.020 -14.695  -8.994  1.00  0.00    -0.294 OA
ENDBRANCH   1   7
BRANCH   2  10
ATOM     10  O   UNL     1      24.341 -17.283  -8.109  1.00  0.00    -0.507 OA
ATOM     11  H   UNL     1      24.984 -17.986  -7.760  1.00  0.00     0.293 HD
ENDBRANCH   2  10
BRANCH   4  12
ATOM     12  O   UNL     1      22.124 -20.566 -10.849  1.00  0.00    -0.497 OA
ATOM     13  C   UNL     1      21.064 -21.066 -11.657  1.00  0.00     0.278 C 
ENDBRANCH   4  12
TORSDOF 3
ENDMDL
MODEL 2
REMARK VINA RESULT:    -4.732      1.454      4.734
REMARK INTER + INTRA:          -5.740
REMARK INTER:                  -5.403
REMARK INTRA:                  -0.337
REMARK UNBOUND:                -0.316
REMARK SMILES COc1ccc(C(C)=O)c(O)c1
REMARK SMILES IDX 6 1 10 2 12 3 3 4 4 5 5 6 7 7 8 8 9 9 11 10 2 12 1 13
REMARK H PARENT 11 11
REMARK Flexibility Score: inf
ROOT
ATOM      1  C   UNL     1      22.952 -19.582 -10.461  1.00  0.00     0.059 A 
ATOM      2  C   UNL     1      23.997 -19.022  -9.691  1.00  0.00     0.130 A 
ATOM      3  C   UNL     1      23.888 -17.707  -9.213  1.00  0.00     0.093 A 
ATOM      4  C   UNL     1      22.763 -16.929  -9.501  1.00  0.00     0.122 A 
ATOM      5  C   UNL     1      21.732 -17.478 -10.282  1.00  0.00     0.047 A 
ATOM      6  C   UNL     1      21.830 -18.787 -10.758  1.00  0.00     0.019 A 
ENDROOT
BRANCH   1   7
ATOM      7  C   UNL     1      23.000 -20.975 -10.982  1.00  0.00     0.163 C 
ATOM      8  C   UNL     1      21.842 -21.918 -10.865  1.00  0.00     0.093 C 
ATOM      9  O   UNL     1      24.050 -21.388 -11.546  1.00  0.00    -0.294 OA
ENDBRANCH   1   7
BRANCH   2  10
ATOM     10  O   UNL     1      25.153 -19.751  -9.414  1.00  0.00    -0.507 OA
ATOM     11  H   UNL     1      25.334 -20.138  -8.494  1.00  0.00     0.293 HD
ENDBRANCH   2  10
BRANCH   4  12
ATOM     12  O   UNL     1      22.710 -15.621  -8.996  1.00  0.00    -0.497 OA
ATOM     13  C   UNL     1      23.724 -14.641  -9.194  1.00  0.00     0.278 C 
ENDBRANCH   4  12
TORSDOF 3
ENDMDL
MODEL 3
REMARK VINA RESULT:    -4.618      1.309      1.923
REMARK INTER + INTRA:          -5.609
REMARK INTER:                  -5.314
REMARK INTRA:                  -0.295
REMARK UNBOUND:                -0.316
REMARK SMILES COc1ccc(C(C)=O)c(O)c1
REMARK SMILES IDX 6 1 10 2 12 3 3 4 4 5 5 6 7 7 8 8 9 9 11 10 2 12 1 13
REMARK H PARENT 11 11
REMARK Flexibility Score: inf
ROOT
ATOM      1  C   UNL     1      22.537 -18.129  -9.895  1.00  0.00     0.059 A 
ATOM      2  C   UNL     1      23.151 -19.400  -9.966  1.00  0.00     0.130 A 
ATOM      3  C   UNL     1      22.580 -20.410 -10.756  1.00  0.00     0.093 A 
ATOM      4  C   UNL     1      21.397 -20.184 -11.465  1.00  0.00     0.122 A 
ATOM      5  C   UNL     1      20.776 -18.927 -11.381  1.00  0.00     0.047 A 
ATOM      6  C   UNL     1      21.340 -17.914 -10.601  1.00  0.00     0.019 A 
ENDROOT
BRANCH   1   7
ATOM      7  C   UNL     1      23.103 -17.011  -9.089  1.00  0.00     0.163 C 
ATOM      8  C   UNL     1      22.813 -15.574  -9.394  1.00  0.00     0.093 C 
ATOM      9  O   UNL     1      23.854 -17.274  -8.111  1.00  0.00    -0.294 OA
ENDBRANCH   1   7
BRANCH   2  10
ATOM     10  O   UNL     1      24.310 -19.678  -9.243  1.00  0.00    -0.507 OA
ATOM     11  H   UNL     1      24.557 -20.623  -8.971  1.00  0.00     0.293 HD
ENDBRANCH   2  10
BRANCH   4  12
ATOM     12  O   UNL     1      20.873 -21.232 -12.237  1.00  0.00    -0.497 OA
ATOM     13  C   UNL     1      21.232 -22.601 -12.085  1.00  0.00     0.278 C 
ENDBRANCH   4  12
TORSDOF 3
ENDMDL
MODEL 4
REMARK VINA RESULT:    -4.602      2.109      5.172
REMARK INTER + INTRA:          -5.591
REMARK INTER:                  -5.316
REMARK INTRA:                  -0.275
REMARK UNBOUND:                -0.316
REMARK SMILES COc1ccc(C(C)=O)c(O)c1
REMARK SMILES IDX 6 1 10 2 12 3 3 4 4 5 5 6 7 7 8 8 9 9 11 10 2 12 1 13
REMARK H PARENT 11 11
REMARK Flexibility Score: inf
ROOT
ATOM      1  C   UNL     1      21.152 -17.852 -11.379  1.00  0.00     0.059 A 
ATOM      2  C   UNL     1      21.289 -16.554 -11.922  1.00  0.00     0.130 A 
ATOM      3  C   UNL     1      21.879 -15.535 -11.159  1.00  0.00     0.093 A 
ATOM      4  C   UNL     1      22.322 -15.777  -9.856  1.00  0.00     0.122 A 
ATOM      5  C   UNL     1      22.170 -17.062  -9.308  1.00  0.00     0.047 A 
ATOM      6  C   UNL     1      21.588 -18.084 -10.062  1.00  0.00     0.019 A 
ENDROOT
BRANCH   1   7
ATOM      7  C   UNL     1      20.551 -18.979 -12.143  1.00  0.00     0.163 C 
ATOM      8  C   UNL     1      20.828 -20.414 -11.811  1.00  0.00     0.093 C 
ATOM      9  O   UNL     1      19.778 -18.730 -13.107  1.00  0.00    -0.294 OA
ENDBRANCH   1   7
BRANCH   2  10
ATOM     10  O   UNL     1      20.825 -16.261 -13.204  1.00  0.00    -0.507 OA
ATOM     11  H   UNL     1      20.101 -16.814 -13.650  1.00  0.00     0.293 HD
ENDBRANCH   2  10
BRANCH   4  12
ATOM     12  O   UNL     1      22.903 -14.719  -9.141  1.00  0.00    -0.497 OA
ATOM     13  C   UNL     1      24.088 -14.036  -9.537  1.00  0.00     0.278 C 
ENDBRANCH   4  12
TORSDOF 3
ENDMDL
MODEL 5
REMARK VINA RESULT:    -4.572      2.037      2.291
REMARK INTER + INTRA:          -5.556
REMARK INTER:                  -5.221
REMARK INTRA:                  -0.335
REMARK UNBOUND:                -0.316
REMARK SMILES COc1ccc(C(C)=O)c(O)c1
REMARK SMILES IDX 6 1 10 2 12 3 3 4 4 5 5 6 7 7 8 8 9 9 11 10 2 12 1 13
REMARK H PARENT 11 11
REMARK Flexibility Score: inf
ROOT
ATOM      1  C   UNL     1      23.637 -17.955 -10.457  1.00  0.00     0.059 A 
ATOM      2  C   UNL     1      23.971 -19.020  -9.591  1.00  0.00     0.130 A 
ATOM      3  C   UNL     1      24.312 -20.274 -10.123  1.00  0.00     0.093 A 
ATOM      4  C   UNL     1      24.311 -20.494 -11.503  1.00  0.00     0.122 A 
ATOM      5  C   UNL     1      23.961 -19.440 -12.364  1.00  0.00     0.047 A 
ATOM      6  C   UNL     1      23.625 -18.188 -11.844  1.00  0.00     0.019 A 
ENDROOT
BRANCH   1   7
ATOM      7  C   UNL     1      23.284 -16.598  -9.957  1.00  0.00     0.163 C 
ATOM      8  C   UNL     1      22.122 -15.820 -10.495  1.00  0.00     0.093 C 
ATOM      9  O   UNL     1      23.981 -16.075  -9.046  1.00  0.00    -0.294 OA
ENDBRANCH   1   7
BRANCH   2  10
ATOM     10  O   UNL     1      23.947 -18.854  -8.207  1.00  0.00    -0.507 OA
ATOM     11  H   UNL     1      23.090 -18.636  -7.710  1.00  0.00     0.293 HD
ENDBRANCH   2  10
BRANCH   4  12
ATOM     12  O   UNL     1      24.659 -21.768 -11.976  1.00  0.00    -0.497 OA
ATOM     13  C   UNL     1      23.774 -22.637 -12.674  1.00  0.00     0.278 C 
ENDBRANCH   4  12
TORSDOF 3
ENDMDL
MODEL 6
REMARK VINA RESULT:    -4.564      1.536      4.960
REMARK INTER + INTRA:          -5.547
REMARK INTER:                  -5.250
REMARK INTRA:                  -0.297
REMARK UNBOUND:                -0.316
REMARK SMILES COc1ccc(C(C)=O)c(O)c1
REMARK SMILES IDX 6 1 10 2 12 3 3 4 4 5 5 6 7 7 8 8 9 9 11 10 2 12 1 13
REMARK H PARENT 11 11
REMARK Flexibility Score: inf
ROOT
ATOM      1  C   UNL     1      22.295 -20.208 -10.938  1.00  0.00     0.059 A 
ATOM      2  C   UNL     1      23.324 -19.898 -10.019  1.00  0.00     0.130 A 
ATOM      3  C   UNL     1      23.358 -18.637  -9.405  1.00  0.00     0.093 A 
ATOM      4  C   UNL     1      22.394 -17.668  -9.699  1.00  0.00     0.122 A 
ATOM      5  C   UNL     1      21.381 -17.968 -10.626  1.00  0.00     0.047 A 
ATOM      6  C   UNL     1      21.338 -19.223 -11.239  1.00  0.00     0.019 A 
ENDROOT
BRANCH   1   7
ATOM      7  C   UNL     1      22.194 -21.532 -11.609  1.00  0.00     0.163 C 
ATOM      8  C   UNL     1      21.078 -22.492 -11.331  1.00  0.00     0.093 C 
ATOM      9  O   UNL     1      23.075 -21.869 -12.446  1.00  0.00    -0.294 OA
ENDBRANCH   1   7
BRANCH   2  10
ATOM     10  O   UNL     1      24.327 -20.822  -9.728  1.00  0.00    -0.507 OA
ATOM     11  H   UNL     1      24.353 -21.737 -10.164  1.00  0.00     0.293 HD
ENDBRANCH   2  10
BRANCH   4  12
ATOM     12  O   UNL     1      22.480 -16.425  -9.054  1.00  0.00    -0.497 OA
ATOM     13  C   UNL     1      23.519 -15.477  -9.270  1.00  0.00     0.278 C 
ENDBRANCH   4  12
TORSDOF 3
ENDMDL
MODEL 7
REMARK VINA RESULT:    -4.519      2.262      3.132
REMARK INTER + INTRA:          -5.495
REMARK INTER:                  -5.164
REMARK INTRA:                  -0.331
REMARK UNBOUND:                -0.316
REMARK SMILES COc1ccc(C(C)=O)c(O)c1
REMARK SMILES IDX 6 1 10 2 12 3 3 4 4 5 5 6 7 7 8 8 9 9 11 10 2 12 1 13
REMARK H PARENT 11 11
REMARK Flexibility Score: inf
ROOT
ATOM      1  C   UNL     1      21.786 -16.298 -10.745  1.00  0.00     0.059 A 
ATOM      2  C   UNL     1      21.440 -15.895 -12.055  1.00  0.00     0.130 A 
ATOM      3  C   UNL     1      20.854 -16.815 -12.939  1.00  0.00     0.093 A 
ATOM      4  C   UNL     1      20.620 -18.137 -12.549  1.00  0.00     0.122 A 
ATOM      5  C   UNL     1      20.981 -18.544 -11.253  1.00  0.00     0.047 A 
ATOM      6  C   UNL     1      21.560 -17.634 -10.366  1.00  0.00     0.019 A 
ENDROOT
BRANCH   1   7
ATOM      7  C   UNL     1      22.393 -15.367  -9.756  1.00  0.00     0.163 C 
ATOM      8  C   UNL     1      23.682 -15.668  -9.053  1.00  0.00     0.093 C 
ATOM      9  O   UNL     1      21.811 -14.280  -9.493  1.00  0.00    -0.294 OA
ENDBRANCH   1   7
BRANCH   2  10
ATOM     10  O   UNL     1      21.692 -14.597 -12.496  1.00  0.00    -0.507 OA
ATOM     11  H   UNL     1      21.534 -13.791 -11.902  1.00  0.00     0.293 HD
ENDBRANCH   2  10
BRANCH   4  12
ATOM     12  O   UNL     1      20.033 -19.011 -13.476  1.00  0.00    -0.497 OA
ATOM     13  C   UNL     1      20.740 -19.668 -14.522  1.00  0.00     0.278 C 
ENDBRANCH   4  12
TORSDOF 3
ENDMDL
MODEL 8
REMARK VINA RESULT:    -4.516      2.273      2.742
REMARK INTER + INTRA:          -5.492
REMARK INTER:                  -5.158
REMARK INTRA:                  -0.334
REMARK UNBOUND:                -0.316
REMARK SMILES COc1ccc(C(C)=O)c(O)c1
REMARK SMILES IDX 6 1 10 2 12 3 3 4 4 5 5 6 7 7 8 8 9 9 11 10 2 12 1 13
REMARK H PARENT 11 11
REMARK Flexibility Score: inf
ROOT
ATOM      1  C   UNL     1      21.334 -16.195 -12.103  1.00  0.00     0.059 A 
ATOM      2  C   UNL     1      21.634 -16.874 -10.900  1.00  0.00     0.130 A 
ATOM      3  C   UNL     1      21.253 -18.216 -10.740  1.00  0.00     0.093 A 
ATOM      4  C   UNL     1      20.562 -18.892 -11.750  1.00  0.00     0.122 A 
ATOM      5  C   UNL     1      20.247 -18.213 -12.938  1.00  0.00     0.047 A 
ATOM      6  C   UNL     1      20.626 -16.879 -13.108  1.00  0.00     0.019 A 
ENDROOT
BRANCH   1   7
ATOM      7  C   UNL     1      21.726 -14.779 -12.341  1.00  0.00     0.163 C 
ATOM      8  C   UNL     1      22.490 -14.350 -13.556  1.00  0.00     0.093 C 
ATOM      9  O   UNL     1      21.406 -13.899 -11.496  1.00  0.00    -0.294 OA
ENDBRANCH   1   7
BRANCH   2  10
ATOM     10  O   UNL     1      22.287 -16.224  -9.854  1.00  0.00    -0.507 OA
ATOM     11  H   UNL     1      21.792 -15.618  -9.210  1.00  0.00     0.293 HD
ENDBRANCH   2  10
BRANCH   4  12
ATOM     12  O   UNL     1      20.207 -20.232 -11.532  1.00  0.00    -0.497 OA
ATOM     13  C   UNL     1      21.052 -21.343 -11.809  1.00  0.00     0.278 C 
ENDBRANCH   4  12
TORSDOF 3
ENDMDL
MODEL 9
REMARK VINA RESULT:    -4.489      1.441      5.093
REMARK INTER + INTRA:          -5.461
REMARK INTER:                  -5.123
REMARK INTRA:                  -0.338
REMARK UNBOUND:                -0.316
REMARK SMILES COc1ccc(C(C)=O)c(O)c1
REMARK SMILES IDX 6 1 10 2 12 3 3 4 4 5 5 6 7 7 8 8 9 9 11 10 2 12 1 13
REMARK H PARENT 11 11
REMARK Flexibility Score: inf
ROOT
ATOM      1  C   UNL     1      23.012 -19.279 -10.536  1.00  0.00     0.059 A 
ATOM      2  C   UNL     1      21.806 -18.564 -10.718  1.00  0.00     0.130 A 
ATOM      3  C   UNL     1      21.711 -17.232 -10.287  1.00  0.00     0.093 A 
ATOM      4  C   UNL     1      22.789 -16.599  -9.662  1.00  0.00     0.122 A 
ATOM      5  C   UNL     1      23.983 -17.314  -9.465  1.00  0.00     0.047 A 
ATOM      6  C   UNL     1      24.088 -18.640  -9.895  1.00  0.00     0.019 A 
ENDROOT
BRANCH   1   7
ATOM      7  C   UNL     1      23.182 -20.688 -10.986  1.00  0.00     0.163 C 
ATOM      8  C   UNL     1      24.294 -21.112 -11.897  1.00  0.00     0.093 C 
ATOM      9  O   UNL     1      22.368 -21.565 -10.591  1.00  0.00    -0.294 OA
ENDBRANCH   1   7
BRANCH   2  10
ATOM     10  O   UNL     1      20.695 -19.171 -11.300  1.00  0.00    -0.507 OA
ATOM     11  H   UNL     1      19.813 -19.257 -10.808  1.00  0.00     0.293 HD
ENDBRANCH   2  10
BRANCH   4  12
ATOM     12  O   UNL     1      22.635 -15.266  -9.252  1.00  0.00    -0.497 OA
ATOM     13  C   UNL     1      23.713 -14.376  -8.987  1.00  0.00     0.278 C 
ENDBRANCH   4  12
TORSDOF 3
ENDMDL
