MODEL 1
REMARK VINA RESULT:    -2.536      0.000      0.000
REMARK INTER + INTRA:          -2.838
REMARK INTER:                  -2.833
REMARK INTRA:                  -0.005
REMARK UNBOUND:                -0.005
REMARK SMILES CCCC(=O)[O-]
REMARK SMILES IDX 3 1 4 2 5 3 6 4 2 5 1 6
REMARK H PARENT
REMARK Flexibility Score: inf
ROOT
ATOM      1  C   UNL     1      65.191  67.548  47.299  1.00  0.00     0.052 C 
ENDROOT
BRANCH   1   2
ATOM      2  C   UNL     1      66.190  67.638  46.187  1.00  0.00     0.041 C 
ATOM      3  O   UNL     1      67.119  68.488  46.239  1.00  0.00    -0.550 OA
ATOM      4  O   UNL     1      66.077  66.809  45.079  1.00  0.00    -0.550 OA
ENDBRANCH   1   2
BRANCH   1   5
ATOM      5  C   UNL     1      63.892  68.291  46.960  1.00  0.00     0.003 C 
ATOM      6  C   UNL     1      63.054  68.596  48.201  1.00  0.00     0.004 C 
ENDBRANCH   1   5
TORSDOF 2
ENDMDL
MODEL 2
REMARK VINA RESULT:    -2.512      2.575      3.543
REMARK INTER + INTRA:          -2.811
REMARK INTER:                  -2.779
REMARK INTRA:                  -0.032
REMARK UNBOUND:                -0.005
REMARK SMILES CCCC(=O)[O-]
REMARK SMILES IDX 3 1 4 2 5 3 6 4 2 5 1 6
REMARK H PARENT
REMARK Flexibility Score: inf
ROOT
ATOM      1  C   UNL     1      64.354  68.283  46.581  1.00  0.00     0.052 C 
ENDROOT
BRANCH   1   2
ATOM      2  C   UNL     1      63.937  68.294  48.020  1.00  0.00     0.041 C 
ATOM      3  O   UNL     1      62.786  68.690  48.341  1.00  0.00    -0.550 OA
ATOM      4  O   UNL     1      64.830  67.899  49.007  1.00  0.00    -0.550 OA
ENDBRANCH   1   2
BRANCH   1   5
ATOM      5  C   UNL     1      65.791  67.774  46.408  1.00  0.00     0.003 C 
ATOM      6  C   UNL     1      65.856  66.475  45.603  1.00  0.00     0.004 C 
ENDBRANCH   1   5
TORSDOF 2
ENDMDL
MODEL 3
REMARK VINA RESULT:    -2.472      2.705      3.406
REMARK INTER + INTRA:          -2.767
REMARK INTER:                  -2.727
REMARK INTRA:                  -0.039
REMARK UNBOUND:                -0.005
REMARK SMILES CCCC(=O)[O-]
REMARK SMILES IDX 3 1 4 2 5 3 6 4 2 5 1 6
REMARK H PARENT
REMARK Flexibility Score: inf
ROOT
ATOM      1  C   UNL     1      65.007  68.223  48.811  1.00  0.00     0.052 C 
ENDROOT
BRANCH   1   2
ATOM      2  C   UNL     1      63.852  68.417  47.877  1.00  0.00     0.041 C 
ATOM      3  O   UNL     1      62.712  68.701  48.332  1.00  0.00    -0.550 OA
ATOM      4  O   UNL     1      64.026  68.250  46.510  1.00  0.00    -0.550 OA
ENDBRANCH   1   2
BRANCH   1   5
ATOM      5  C   UNL     1      65.244  66.739  49.124  1.00  0.00     0.003 C 
ATOM      6  C   UNL     1      66.324  66.122  48.235  1.00  0.00     0.004 C 
ENDBRANCH   1   5
TORSDOF 2
ENDMDL
MODEL 4
REMARK VINA RESULT:    -2.448     22.749     23.186
REMARK INTER + INTRA:          -2.740
REMARK INTER:                  -2.701
REMARK INTRA:                  -0.039
REMARK UNBOUND:                -0.005
REMARK SMILES CCCC(=O)[O-]
REMARK SMILES IDX 3 1 4 2 5 3 6 4 2 5 1 6
REMARK H PARENT
REMARK Flexibility Score: inf
ROOT
ATOM      1  C   UNL     1      55.762  82.711  32.887  1.00  0.00     0.052 C 
ENDROOT
BRANCH   1   2
ATOM      2  C   UNL     1      54.739  81.817  32.257  1.00  0.00     0.041 C 
ATOM      3  O   UNL     1      53.767  81.392  32.936  1.00  0.00    -0.550 OA
ATOM      4  O   UNL     1      54.877  81.424  30.932  1.00  0.00    -0.550 OA
ENDBRANCH   1   2
BRANCH   1   5
ATOM      5  C   UNL     1      55.922  84.027  32.114  1.00  0.00     0.003 C 
ATOM      6  C   UNL     1      54.996  85.125  32.637  1.00  0.00     0.004 C 
ENDBRANCH   1   5
TORSDOF 2
ENDMDL
MODEL 5
REMARK VINA RESULT:    -2.427      1.271      1.619
REMARK INTER + INTRA:          -2.716
REMARK INTER:                  -2.683
REMARK INTRA:                  -0.033
REMARK UNBOUND:                -0.005
REMARK SMILES CCCC(=O)[O-]
REMARK SMILES IDX 3 1 4 2 5 3 6 4 2 5 1 6
REMARK H PARENT
REMARK Flexibility Score: inf
ROOT
ATOM      1  C   UNL     1      65.433  67.570  47.556  1.00  0.00     0.052 C 
ENDROOT
BRANCH   1   2
ATOM      2  C   UNL     1      66.585  68.526  47.523  1.00  0.00     0.041 C 
ATOM      3  O   UNL     1      66.972  69.087  48.583  1.00  0.00    -0.550 OA
ATOM      4  O   UNL     1      67.209  68.826  46.319  1.00  0.00    -0.550 OA
ENDBRANCH   1   2
BRANCH   1   5
ATOM      5  C   UNL     1      64.151  68.203  47.000  1.00  0.00     0.003 C 
ATOM      6  C   UNL     1      63.179  68.614  48.106  1.00  0.00     0.004 C 
ENDBRANCH   1   5
TORSDOF 2
ENDMDL
MODEL 6
REMARK VINA RESULT:    -2.417     23.007     23.490
REMARK INTER + INTRA:          -2.705
REMARK INTER:                  -2.652
REMARK INTRA:                  -0.053
REMARK UNBOUND:                -0.005
REMARK SMILES CCCC(=O)[O-]
REMARK SMILES IDX 3 1 4 2 5 3 6 4 2 5 1 6
REMARK H PARENT
REMARK Flexibility Score: inf
ROOT
ATOM      1  C   UNL     1      55.397  82.139  32.611  1.00  0.00     0.052 C 
ENDROOT
BRANCH   1   2
ATOM      2  C   UNL     1      54.093  82.030  31.883  1.00  0.00     0.041 C 
ATOM      3  O   UNL     1      54.034  81.428  30.778  1.00  0.00    -0.550 OA
ATOM      4  O   UNL     1      52.951  82.623  32.406  1.00  0.00    -0.550 OA
ENDBRANCH   1   2
BRANCH   1   5
ATOM      5  C   UNL     1      55.950  83.570  32.580  1.00  0.00     0.003 C 
ATOM      6  C   UNL     1      56.602  83.913  31.240  1.00  0.00     0.004 C 
ENDBRANCH   1   5
TORSDOF 2
ENDMDL
MODEL 7
REMARK VINA RESULT:    -2.416     23.011     23.474
REMARK INTER + INTRA:          -2.704
REMARK INTER:                  -2.644
REMARK INTRA:                  -0.060
REMARK UNBOUND:                -0.005
REMARK SMILES CCCC(=O)[O-]
REMARK SMILES IDX 3 1 4 2 5 3 6 4 2 5 1 6
REMARK H PARENT
REMARK Flexibility Score: inf
ROOT
ATOM      1  C   UNL     1      55.410  82.175  32.635  1.00  0.00     0.052 C 
ENDROOT
BRANCH   1   2
ATOM      2  C   UNL     1      54.133  82.080  31.859  1.00  0.00     0.041 C 
ATOM      3  O   UNL     1      53.075  82.590  32.316  1.00  0.00    -0.550 OA
ATOM      4  O   UNL     1      54.101  81.398  30.649  1.00  0.00    -0.550 OA
ENDBRANCH   1   2
BRANCH   1   5
ATOM      5  C   UNL     1      56.001  83.590  32.587  1.00  0.00     0.003 C 
ATOM      6  C   UNL     1      56.601  83.925  31.221  1.00  0.00     0.004 C 
ENDBRANCH   1   5
TORSDOF 2
ENDMDL
MODEL 8
REMARK VINA RESULT:    -2.377      6.010      7.381
REMARK INTER + INTRA:          -2.660
REMARK INTER:                  -2.646
REMARK INTRA:                  -0.015
REMARK UNBOUND:                -0.005
REMARK SMILES CCCC(=O)[O-]
REMARK SMILES IDX 3 1 4 2 5 3 6 4 2 5 1 6
REMARK H PARENT
REMARK Flexibility Score: inf
ROOT
ATOM      1  C   UNL     1      66.521  66.551  40.273  1.00  0.00     0.052 C 
ENDROOT
BRANCH   1   2
ATOM      2  C   UNL     1      67.153  65.872  41.450  1.00  0.00     0.041 C 
ATOM      3  O   UNL     1      68.101  65.061  41.279  1.00  0.00    -0.550 OA
ATOM      4  O   UNL     1      66.672  66.109  42.732  1.00  0.00    -0.550 OA
ENDBRANCH   1   2
BRANCH   1   5
ATOM      5  C   UNL     1      67.144  66.090  38.949  1.00  0.00     0.003 C 
ATOM      6  C   UNL     1      67.048  67.157  37.858  1.00  0.00     0.004 C 
ENDBRANCH   1   5
TORSDOF 2
ENDMDL
MODEL 9
REMARK VINA RESULT:    -2.351     23.015     23.496
REMARK INTER + INTRA:          -2.631
REMARK INTER:                  -2.593
REMARK INTRA:                  -0.038
REMARK UNBOUND:                -0.005
REMARK SMILES CCCC(=O)[O-]
REMARK SMILES IDX 3 1 4 2 5 3 6 4 2 5 1 6
REMARK H PARENT
REMARK Flexibility Score: inf
ROOT
ATOM      1  C   UNL     1      54.600  83.654  31.986  1.00  0.00     0.052 C 
ENDROOT
BRANCH   1   2
ATOM      2  C   UNL     1      54.273  82.220  32.273  1.00  0.00     0.041 C 
ATOM      3  O   UNL     1      55.184  81.420  32.613  1.00  0.00    -0.550 OA
ATOM      4  O   UNL     1      52.970  81.761  32.133  1.00  0.00    -0.550 OA
ENDBRANCH   1   2
BRANCH   1   5
ATOM      5  C   UNL     1      56.083  83.960  32.233  1.00  0.00     0.003 C 
ATOM      6  C   UNL     1      56.876  84.086  30.932  1.00  0.00     0.004 C 
ENDBRANCH   1   5
TORSDOF 2
ENDMDL
