MODEL 1
REMARK VINA RESULT:    -4.849      0.000      0.000
REMARK INTER + INTRA:          -7.420
REMARK INTER:                  -6.549
REMARK INTRA:                  -0.871
REMARK UNBOUND:                -0.871
REMARK SMILES O=c1c(-c2ccc(O)cc2)coc2c([C@H]3O[C@H](CO)[C@H](O)[C@@H](O)[C@@H]3O)c(O)ccc12
REMARK SMILES IDX 3 1 11 2 12 3 13 4 30 5 2 6 1 7 29 8 28 9 26 10 14 11 4 12
REMARK SMILES IDX 5 13 6 14 7 15 10 16 9 17 8 18 15 20 24 21 16 22 22 23 17 24
REMARK SMILES IDX 20 25 25 26 23 28 18 30 19 31 21 33 27 35
REMARK H PARENT 8 19 25 27 23 29 19 32 21 34 27 36
REMARK Flexibility Score: inf
ROOT
ATOM      1  C   UNL     1    -101.143  25.999 -26.590  1.00  0.00     0.065 A 
ATOM      2  C   UNL     1    -100.599  25.211 -27.616  1.00  0.00     0.208 A 
ATOM      3  O   UNL     1     -99.294  25.209 -27.854  1.00  0.00    -0.463 OA
ATOM      4  C   UNL     1     -98.424  25.936 -27.156  1.00  0.00     0.147 A 
ATOM      5  C   UNL     1     -98.886  26.758 -26.102  1.00  0.00     0.066 A 
ATOM      6  C   UNL     1    -100.263  26.779 -25.817  1.00  0.00     0.200 A 
ATOM      7  O   UNL     1    -100.706  27.476 -24.861  1.00  0.00    -0.288 OA
ATOM      8  C   UNL     1     -97.968  27.529 -25.371  1.00  0.00     0.020 A 
ATOM      9  C   UNL     1     -96.613  27.493 -25.689  1.00  0.00     0.047 A 
ATOM     10  C   UNL     1     -96.144  26.686 -26.733  1.00  0.00     0.125 A 
ATOM     11  C   UNL     1     -97.045  25.884 -27.470  1.00  0.00     0.069 A 
ENDROOT
BRANCH   1  12
ATOM     12  C   UNL     1    -102.607  25.989 -26.346  1.00  0.00    -0.011 A 
ATOM     13  C   UNL     1    -103.509  26.289 -27.383  1.00  0.00     0.013 A 
ATOM     14  C   UNL     1    -104.887  26.269 -27.149  1.00  0.00     0.047 A 
ATOM     15  C   UNL     1    -105.381  25.945 -25.879  1.00  0.00     0.115 A 
ATOM     16  C   UNL     1    -103.112  25.657 -25.076  1.00  0.00     0.013 A 
ATOM     17  C   UNL     1    -104.491  25.639 -24.845  1.00  0.00     0.047 A 
BRANCH  15  18
ATOM     18  O   UNL     1    -106.753  25.922 -25.635  1.00  0.00    -0.508 OA
ATOM     19  H   UNL     1    -107.336  25.159 -25.959  1.00  0.00     0.293 HD
ENDBRANCH  15  18
ENDBRANCH   1  12
BRANCH  11  20
ATOM     20  C   UNL     1     -96.545  25.020 -28.620  1.00  0.00     0.188 C 
ATOM     21  C   UNL     1     -95.750  23.811 -28.073  1.00  0.00     0.179 C 
ATOM     22  O   UNL     1     -95.751  25.826 -29.483  1.00  0.00    -0.362 OA
ATOM     23  C   UNL     1     -95.214  22.974 -29.245  1.00  0.00     0.177 C 
ATOM     24  C   UNL     1     -95.277  25.122 -30.625  1.00  0.00     0.176 C 
ATOM     25  C   UNL     1     -94.442  23.880 -30.225  1.00  0.00     0.177 C 
BRANCH  21  26
ATOM     26  O   UNL     1     -96.582  23.000 -27.281  1.00  0.00    -0.387 OA
ATOM     27  H   UNL     1     -96.160  22.102 -27.241  1.00  0.00     0.211 HD
ENDBRANCH  21  26
BRANCH  23  28
ATOM     28  O   UNL     1     -94.401  21.925 -28.783  1.00  0.00    -0.387 OA
ATOM     29  H   UNL     1     -93.763  22.302 -28.122  1.00  0.00     0.211 HD
ENDBRANCH  23  28
BRANCH  24  30
ATOM     30  C   UNL     1     -96.399  24.842 -31.649  1.00  0.00     0.191 C 
BRANCH  30  31
ATOM     31  O   UNL     1     -95.855  24.754 -32.936  1.00  0.00    -0.394 OA
ATOM     32  H   UNL     1     -96.036  23.829 -33.250  1.00  0.00     0.210 HD
ENDBRANCH  30  31
ENDBRANCH  24  30
BRANCH  25  33
ATOM     33  O   UNL     1     -93.992  23.170 -31.353  1.00  0.00    -0.388 OA
ATOM     34  H   UNL     1     -93.183  22.656 -31.093  1.00  0.00     0.211 HD
ENDBRANCH  25  33
ENDBRANCH  11  20
BRANCH  10  35
ATOM     35  O   UNL     1     -94.783  26.686 -27.041  1.00  0.00    -0.507 OA
ATOM     36  H   UNL     1     -94.275  25.825 -27.211  1.00  0.00     0.293 HD
ENDBRANCH  10  35
TORSDOF 9
ENDMDL
MODEL 2
REMARK VINA RESULT:    -4.774      4.452      8.852
REMARK INTER + INTRA:          -7.319
REMARK INTER:                  -6.332
REMARK INTRA:                  -0.987
REMARK UNBOUND:                -0.871
REMARK SMILES O=c1c(-c2ccc(O)cc2)coc2c([C@H]3O[C@H](CO)[C@H](O)[C@@H](O)[C@@H]3O)c(O)ccc12
REMARK SMILES IDX 3 1 11 2 12 3 13 4 30 5 2 6 1 7 29 8 28 9 26 10 14 11 4 12
REMARK SMILES IDX 5 13 6 14 7 15 10 16 9 17 8 18 15 20 24 21 16 22 22 23 17 24
REMARK SMILES IDX 20 25 25 26 23 28 18 30 19 31 21 33 27 35
REMARK H PARENT 8 19 25 27 23 29 19 32 21 34 27 36
REMARK Flexibility Score: inf
ROOT
ATOM      1  C   UNL     1     -96.059  26.938 -34.917  1.00  0.00     0.065 A 
ATOM      2  C   UNL     1     -96.138  25.679 -34.304  1.00  0.00     0.208 A 
ATOM      3  O   UNL     1     -96.283  25.569 -32.990  1.00  0.00    -0.463 OA
ATOM      4  C   UNL     1     -96.360  26.618 -32.175  1.00  0.00     0.147 A 
ATOM      5  C   UNL     1     -96.290  27.926 -32.708  1.00  0.00     0.066 A 
ATOM      6  C   UNL     1     -96.145  28.080 -34.099  1.00  0.00     0.200 A 
ATOM      7  O   UNL     1     -96.113  29.233 -34.613  1.00  0.00    -0.288 OA
ATOM      8  C   UNL     1     -96.366  29.031 -31.846  1.00  0.00     0.020 A 
ATOM      9  C   UNL     1     -96.498  28.842 -30.473  1.00  0.00     0.047 A 
ATOM     10  C   UNL     1     -96.564  27.551 -29.932  1.00  0.00     0.125 A 
ATOM     11  C   UNL     1     -96.512  26.422 -30.781  1.00  0.00     0.069 A 
ENDROOT
BRANCH   1  12
ATOM     12  C   UNL     1     -95.891  27.036 -36.389  1.00  0.00    -0.011 A 
ATOM     13  C   UNL     1     -96.904  27.593 -37.191  1.00  0.00     0.013 A 
ATOM     14  C   UNL     1     -96.736  27.691 -38.575  1.00  0.00     0.047 A 
ATOM     15  C   UNL     1     -95.554  27.239 -39.175  1.00  0.00     0.115 A 
ATOM     16  C   UNL     1     -94.704  26.592 -36.999  1.00  0.00     0.013 A 
ATOM     17  C   UNL     1     -94.540  26.691 -38.384  1.00  0.00     0.047 A 
BRANCH  15  18
ATOM     18  O   UNL     1     -95.377  27.332 -40.553  1.00  0.00    -0.508 OA
ATOM     19  H   UNL     1     -94.767  26.695 -41.054  1.00  0.00     0.293 HD
ENDBRANCH  15  18
ENDBRANCH   1  12
BRANCH  11  20
ATOM     20  C   UNL     1     -96.562  25.016 -30.198  1.00  0.00     0.188 C 
ATOM     21  C   UNL     1     -98.000  24.681 -29.736  1.00  0.00     0.179 C 
ATOM     22  O   UNL     1     -95.632  24.935 -29.124  1.00  0.00    -0.362 OA
ATOM     23  C   UNL     1     -98.026  23.278 -29.110  1.00  0.00     0.177 C 
ATOM     24  C   UNL     1     -95.562  23.638 -28.543  1.00  0.00     0.176 C 
ATOM     25  C   UNL     1     -96.942  23.173 -28.017  1.00  0.00     0.177 C 
BRANCH  21  26
ATOM     26  O   UNL     1     -98.880  24.704 -30.832  1.00  0.00    -0.387 OA
ATOM     27  H   UNL     1     -99.453  25.508 -30.728  1.00  0.00     0.211 HD
ENDBRANCH  21  26
BRANCH  23  28
ATOM     28  O   UNL     1     -99.297  22.984 -28.587  1.00  0.00    -0.387 OA
ATOM     29  H   UNL     1     -99.381  23.446 -27.712  1.00  0.00     0.211 HD
ENDBRANCH  23  28
BRANCH  24  30
ATOM     30  C   UNL     1     -94.845  22.623 -29.459  1.00  0.00     0.191 C 
BRANCH  30  31
ATOM     31  O   UNL     1     -94.086  21.737 -28.682  1.00  0.00    -0.394 OA
ATOM     32  H   UNL     1     -94.433  20.828 -28.882  1.00  0.00     0.210 HD
ENDBRANCH  30  31
ENDBRANCH  24  30
BRANCH  25  33
ATOM     33  O   UNL     1     -96.880  21.882 -27.463  1.00  0.00    -0.388 OA
ATOM     34  H   UNL     1     -96.019  21.469 -27.734  1.00  0.00     0.211 HD
ENDBRANCH  25  33
ENDBRANCH  11  20
BRANCH  10  35
ATOM     35  O   UNL     1     -96.676  27.393 -28.551  1.00  0.00    -0.507 OA
ATOM     36  H   UNL     1     -96.882  26.492 -28.133  1.00  0.00     0.293 HD
ENDBRANCH  10  35
TORSDOF 9
ENDMDL
MODEL 3
REMARK VINA RESULT:    -4.394      4.176      9.381
REMARK INTER + INTRA:          -6.807
REMARK INTER:                  -5.671
REMARK INTRA:                  -1.136
REMARK UNBOUND:                -0.871
REMARK SMILES O=c1c(-c2ccc(O)cc2)coc2c([C@H]3O[C@H](CO)[C@H](O)[C@@H](O)[C@@H]3O)c(O)ccc12
REMARK SMILES IDX 3 1 11 2 12 3 13 4 30 5 2 6 1 7 29 8 28 9 26 10 14 11 4 12
REMARK SMILES IDX 5 13 6 14 7 15 10 16 9 17 8 18 15 20 24 21 16 22 22 23 17 24
REMARK SMILES IDX 20 25 25 26 23 28 18 30 19 31 21 33 27 35
REMARK H PARENT 8 19 25 27 23 29 19 32 21 34 27 36
REMARK Flexibility Score: inf
ROOT
ATOM      1  C   UNL     1     -96.892  25.845 -35.540  1.00  0.00     0.065 A 
ATOM      2  C   UNL     1     -96.300  26.195 -34.318  1.00  0.00     0.208 A 
ATOM      3  O   UNL     1     -96.686  25.623 -33.185  1.00  0.00    -0.463 OA
ATOM      4  C   UNL     1     -97.640  24.697 -33.124  1.00  0.00     0.147 A 
ATOM      5  C   UNL     1     -98.290  24.283 -34.310  1.00  0.00     0.066 A 
ATOM      6  C   UNL     1     -97.900  24.863 -35.531  1.00  0.00     0.200 A 
ATOM      7  O   UNL     1     -98.436  24.493 -36.613  1.00  0.00    -0.288 OA
ATOM      8  C   UNL     1     -99.300  23.311 -34.243  1.00  0.00     0.020 A 
ATOM      9  C   UNL     1     -99.669  22.766 -33.016  1.00  0.00     0.047 A 
ATOM     10  C   UNL     1     -99.036  23.171 -31.834  1.00  0.00     0.125 A 
ATOM     11  C   UNL     1     -98.000  24.132 -31.877  1.00  0.00     0.069 A 
ENDROOT
BRANCH   1  12
ATOM     12  C   UNL     1     -96.448  26.504 -36.794  1.00  0.00    -0.011 A 
ATOM     13  C   UNL     1     -95.242  26.128 -37.414  1.00  0.00     0.013 A 
ATOM     14  C   UNL     1     -94.834  26.745 -38.599  1.00  0.00     0.047 A 
ATOM     15  C   UNL     1     -95.627  27.742 -39.183  1.00  0.00     0.115 A 
ATOM     16  C   UNL     1     -97.241  27.499 -37.392  1.00  0.00     0.013 A 
ATOM     17  C   UNL     1     -96.830  28.115 -38.578  1.00  0.00     0.047 A 
BRANCH  15  18
ATOM     18  O   UNL     1     -95.229  28.364 -40.365  1.00  0.00    -0.508 OA
ATOM     19  H   UNL     1     -95.032  29.358 -40.401  1.00  0.00     0.293 HD
ENDBRANCH  15  18
ENDBRANCH   1  12
BRANCH  11  20
ATOM     20  C   UNL     1     -97.322  24.593 -30.594  1.00  0.00     0.188 C 
ATOM     21  C   UNL     1     -96.229  23.581 -30.175  1.00  0.00     0.179 C 
ATOM     22  O   UNL     1     -98.313  24.745 -29.585  1.00  0.00    -0.362 OA
ATOM     23  C   UNL     1     -95.585  24.035 -28.857  1.00  0.00     0.177 C 
ATOM     24  C   UNL     1     -97.786  25.228 -28.354  1.00  0.00     0.176 C 
ATOM     25  C   UNL     1     -96.679  24.295 -27.802  1.00  0.00     0.177 C 
BRANCH  21  26
ATOM     26  O   UNL     1     -95.232  23.505 -31.164  1.00  0.00    -0.387 OA
ATOM     27  H   UNL     1     -95.601  23.931 -31.982  1.00  0.00     0.211 HD
ENDBRANCH  21  26
BRANCH  23  28
ATOM     28  O   UNL     1     -94.659  23.083 -28.395  1.00  0.00    -0.387 OA
ATOM     29  H   UNL     1     -94.670  22.316 -29.026  1.00  0.00     0.211 HD
ENDBRANCH  23  28
BRANCH  24  30
ATOM     30  C   UNL     1     -97.395  26.719 -28.427  1.00  0.00     0.191 C 
BRANCH  30  31
ATOM     31  O   UNL     1     -97.470  27.292 -27.151  1.00  0.00    -0.394 OA
ATOM     32  H   UNL     1     -98.290  27.851 -27.147  1.00  0.00     0.210 HD
ENDBRANCH  30  31
ENDBRANCH  24  30
BRANCH  25  33
ATOM     33  O   UNL     1     -96.141  24.782 -26.597  1.00  0.00    -0.388 OA
ATOM     34  H   UNL     1     -95.433  25.441 -26.818  1.00  0.00     0.211 HD
ENDBRANCH  25  33
ENDBRANCH  11  20
BRANCH  10  35
ATOM     35  O   UNL     1     -99.440  22.621 -30.617  1.00  0.00    -0.507 OA
ATOM     36  H   UNL     1     -98.859  21.962 -30.111  1.00  0.00     0.293 HD
ENDBRANCH  10  35
TORSDOF 9
ENDMDL
MODEL 4
REMARK VINA RESULT:    -4.243      4.457      7.337
REMARK INTER + INTRA:          -6.602
REMARK INTER:                  -5.496
REMARK INTRA:                  -1.107
REMARK UNBOUND:                -0.871
REMARK SMILES O=c1c(-c2ccc(O)cc2)coc2c([C@H]3O[C@H](CO)[C@H](O)[C@@H](O)[C@@H]3O)c(O)ccc12
REMARK SMILES IDX 3 1 11 2 12 3 13 4 30 5 2 6 1 7 29 8 28 9 26 10 14 11 4 12
REMARK SMILES IDX 5 13 6 14 7 15 10 16 9 17 8 18 15 20 24 21 16 22 22 23 17 24
REMARK SMILES IDX 20 25 25 26 23 28 18 30 19 31 21 33 27 35
REMARK H PARENT 8 19 25 27 23 29 19 32 21 34 27 36
REMARK Flexibility Score: inf
ROOT
ATOM      1  C   UNL     1     -96.493  30.164 -31.061  1.00  0.00     0.065 A 
ATOM      2  C   UNL     1     -96.540  28.781 -31.291  1.00  0.00     0.208 A 
ATOM      3  O   UNL     1     -96.623  27.925 -30.281  1.00  0.00    -0.463 OA
ATOM      4  C   UNL     1     -96.666  28.303 -29.006  1.00  0.00     0.147 A 
ATOM      5  C   UNL     1     -96.625  29.679 -28.682  1.00  0.00     0.066 A 
ATOM      6  C   UNL     1     -96.545  30.615 -29.729  1.00  0.00     0.200 A 
ATOM      7  O   UNL     1     -96.540  31.853 -29.478  1.00  0.00    -0.288 OA
ATOM      8  C   UNL     1     -96.665  30.076 -27.337  1.00  0.00     0.020 A 
ATOM      9  C   UNL     1     -96.732  29.121 -26.325  1.00  0.00     0.047 A 
ATOM     10  C   UNL     1     -96.769  27.755 -26.633  1.00  0.00     0.125 A 
ATOM     11  C   UNL     1     -96.753  27.330 -27.981  1.00  0.00     0.069 A 
ENDROOT
BRANCH   1  12
ATOM     12  C   UNL     1     -96.394  31.102 -32.206  1.00  0.00    -0.011 A 
ATOM     13  C   UNL     1     -97.514  31.841 -32.627  1.00  0.00     0.013 A 
ATOM     14  C   UNL     1     -97.412  32.730 -33.700  1.00  0.00     0.047 A 
ATOM     15  C   UNL     1     -96.190  32.897 -34.363  1.00  0.00     0.115 A 
ATOM     16  C   UNL     1     -95.168  31.281 -32.872  1.00  0.00     0.013 A 
ATOM     17  C   UNL     1     -95.070  32.171 -33.946  1.00  0.00     0.047 A 
BRANCH  15  18
ATOM     18  O   UNL     1     -96.077  33.780 -35.435  1.00  0.00    -0.508 OA
ATOM     19  H   UNL     1     -96.841  33.925 -36.085  1.00  0.00     0.293 HD
ENDBRANCH  15  18
ENDBRANCH   1  12
BRANCH  11  20
ATOM     20  C   UNL     1     -96.771  25.846 -28.322  1.00  0.00     0.188 C 
ATOM     21  C   UNL     1     -98.209  25.288 -28.196  1.00  0.00     0.179 C 
ATOM     22  O   UNL     1     -95.866  25.169 -27.458  1.00  0.00    -0.362 OA
ATOM     23  C   UNL     1     -98.205  23.782 -28.499  1.00  0.00     0.177 C 
ATOM     24  C   UNL     1     -95.768  23.776 -27.733  1.00  0.00     0.176 C 
ATOM     25  C   UNL     1     -97.146  23.075 -27.628  1.00  0.00     0.177 C 
BRANCH  21  26
ATOM     26  O   UNL     1     -99.062  25.931 -29.110  1.00  0.00    -0.387 OA
ATOM     27  H   UNL     1     -98.677  26.830 -29.284  1.00  0.00     0.211 HD
ENDBRANCH  21  26
BRANCH  23  28
ATOM     28  O   UNL     1     -99.478  23.223 -28.293  1.00  0.00    -0.387 OA
ATOM     29  H   UNL     1     -99.536  22.939 -27.343  1.00  0.00     0.211 HD
ENDBRANCH  23  28
BRANCH  24  30
ATOM     30  C   UNL     1     -94.997  23.488 -29.039  1.00  0.00     0.191 C 
BRANCH  30  31
ATOM     31  O   UNL     1     -94.331  22.260 -28.936  1.00  0.00    -0.394 OA
ATOM     32  H   UNL     1     -94.818  21.740 -28.244  1.00  0.00     0.210 HD
ENDBRANCH  30  31
ENDBRANCH  24  30
BRANCH  25  33
ATOM     33  O   UNL     1     -97.055  21.703 -27.922  1.00  0.00    -0.388 OA
ATOM     34  H   UNL     1     -97.211  21.196 -27.082  1.00  0.00     0.211 HD
ENDBRANCH  25  33
ENDBRANCH  11  20
BRANCH  10  35
ATOM     35  O   UNL     1     -96.817  26.821 -25.598  1.00  0.00    -0.507 OA
ATOM     36  H   UNL     1     -97.651  26.276 -25.410  1.00  0.00     0.293 HD
ENDBRANCH  10  35
TORSDOF 9
ENDMDL
MODEL 5
REMARK VINA RESULT:    -4.175     11.757     13.315
REMARK INTER + INTRA:          -6.510
REMARK INTER:                  -5.384
REMARK INTRA:                  -1.126
REMARK UNBOUND:                -0.871
REMARK SMILES O=c1c(-c2ccc(O)cc2)coc2c([C@H]3O[C@H](CO)[C@H](O)[C@@H](O)[C@@H]3O)c(O)ccc12
REMARK SMILES IDX 3 1 11 2 12 3 13 4 30 5 2 6 1 7 29 8 28 9 26 10 14 11 4 12
REMARK SMILES IDX 5 13 6 14 7 15 10 16 9 17 8 18 15 20 24 21 16 22 22 23 17 24
REMARK SMILES IDX 20 25 25 26 23 28 18 30 19 31 21 33 27 35
REMARK H PARENT 8 19 25 27 23 29 19 32 21 34 27 36
REMARK Flexibility Score: inf
ROOT
ATOM      1  C   UNL     1    -101.012  26.915 -40.944  1.00  0.00     0.065 A 
ATOM      2  C   UNL     1    -100.457  25.740 -41.472  1.00  0.00     0.208 A 
ATOM      3  O   UNL     1     -99.264  25.313 -41.080  1.00  0.00    -0.463 OA
ATOM      4  C   UNL     1     -98.521  25.952 -40.180  1.00  0.00     0.147 A 
ATOM      5  C   UNL     1     -99.003  27.145 -39.594  1.00  0.00     0.066 A 
ATOM      6  C   UNL     1    -100.269  27.622 -39.981  1.00  0.00     0.200 A 
ATOM      7  O   UNL     1    -100.745  28.667 -39.454  1.00  0.00    -0.288 OA
ATOM      8  C   UNL     1     -98.216  27.821 -38.649  1.00  0.00     0.020 A 
ATOM      9  C   UNL     1     -96.962  27.327 -38.298  1.00  0.00     0.047 A 
ATOM     10  C   UNL     1     -96.472  26.148 -38.875  1.00  0.00     0.125 A 
ATOM     11  C   UNL     1     -97.254  25.437 -39.812  1.00  0.00     0.069 A 
ENDROOT
BRANCH   1  12
ATOM     12  C   UNL     1    -102.346  27.375 -41.402  1.00  0.00    -0.011 A 
ATOM     13  C   UNL     1    -103.515  26.955 -40.743  1.00  0.00     0.013 A 
ATOM     14  C   UNL     1    -104.768  27.400 -41.174  1.00  0.00     0.047 A 
ATOM     15  C   UNL     1    -104.869  28.273 -42.265  1.00  0.00     0.115 A 
ATOM     16  C   UNL     1    -102.456  28.258 -42.492  1.00  0.00     0.013 A 
ATOM     17  C   UNL     1    -103.711  28.700 -42.921  1.00  0.00     0.047 A 
BRANCH  15  18
ATOM     18  O   UNL     1    -106.113  28.722 -42.702  1.00  0.00    -0.508 OA
ATOM     19  H   UNL     1    -106.674  28.182 -43.352  1.00  0.00     0.293 HD
ENDBRANCH  15  18
ENDBRANCH   1  12
BRANCH  11  20
ATOM     20  C   UNL     1     -96.718  24.166 -40.459  1.00  0.00     0.188 C 
ATOM     21  C   UNL     1     -96.682  23.016 -39.424  1.00  0.00     0.179 C 
ATOM     22  O   UNL     1     -95.427  24.436 -40.991  1.00  0.00    -0.362 OA
ATOM     23  C   UNL     1     -96.098  21.755 -40.078  1.00  0.00     0.177 C 
ATOM     24  C   UNL     1     -94.858  23.322 -41.669  1.00  0.00     0.176 C 
ATOM     25  C   UNL     1     -94.745  22.086 -40.740  1.00  0.00     0.177 C 
BRANCH  21  26
ATOM     26  O   UNL     1     -97.981  22.730 -38.969  1.00  0.00    -0.387 OA
ATOM     27  H   UNL     1     -98.203  23.408 -38.277  1.00  0.00     0.211 HD
ENDBRANCH  21  26
BRANCH  23  28
ATOM     28  O   UNL     1     -95.956  20.720 -39.136  1.00  0.00    -0.387 OA
ATOM     29  H   UNL     1     -95.788  21.136 -38.250  1.00  0.00     0.211 HD
ENDBRANCH  23  28
BRANCH  24  30
ATOM     30  C   UNL     1     -95.542  23.047 -43.025  1.00  0.00     0.191 C 
BRANCH  30  31
ATOM     31  O   UNL     1     -94.579  22.694 -43.979  1.00  0.00    -0.394 OA
ATOM     32  H   UNL     1     -95.071  22.556 -44.830  1.00  0.00     0.210 HD
ENDBRANCH  30  31
ENDBRANCH  24  30
BRANCH  25  33
ATOM     33  O   UNL     1     -94.204  20.976 -41.414  1.00  0.00    -0.388 OA
ATOM     34  H   UNL     1     -93.617  21.312 -42.141  1.00  0.00     0.211 HD
ENDBRANCH  25  33
ENDBRANCH  11  20
BRANCH  10  35
ATOM     35  O   UNL     1     -95.204  25.688 -38.518  1.00  0.00    -0.507 OA
ATOM     36  H   UNL     1     -95.072  24.793 -38.059  1.00  0.00     0.293 HD
ENDBRANCH  10  35
TORSDOF 9
ENDMDL
MODEL 6
REMARK VINA RESULT:    -4.077      4.802     10.136
REMARK INTER + INTRA:          -6.378
REMARK INTER:                  -5.302
REMARK INTRA:                  -1.076
REMARK UNBOUND:                -0.871
REMARK SMILES O=c1c(-c2ccc(O)cc2)coc2c([C@H]3O[C@H](CO)[C@H](O)[C@@H](O)[C@@H]3O)c(O)ccc12
REMARK SMILES IDX 3 1 11 2 12 3 13 4 30 5 2 6 1 7 29 8 28 9 26 10 14 11 4 12
REMARK SMILES IDX 5 13 6 14 7 15 10 16 9 17 8 18 15 20 24 21 16 22 22 23 17 24
REMARK SMILES IDX 20 25 25 26 23 28 18 30 19 31 21 33 27 35
REMARK H PARENT 8 19 25 27 23 29 19 32 21 34 27 36
REMARK Flexibility Score: inf
ROOT
ATOM      1  C   UNL     1     -97.278  25.527 -36.208  1.00  0.00     0.065 A 
ATOM      2  C   UNL     1     -97.551  26.033 -34.929  1.00  0.00     0.208 A 
ATOM      3  O   UNL     1     -98.045  25.251 -33.978  1.00  0.00    -0.463 OA
ATOM      4  C   UNL     1     -98.312  23.960 -34.160  1.00  0.00     0.147 A 
ATOM      5  C   UNL     1     -98.066  23.366 -35.420  1.00  0.00     0.066 A 
ATOM      6  C   UNL     1     -97.535  24.165 -36.449  1.00  0.00     0.200 A 
ATOM      7  O   UNL     1     -97.271  23.659 -37.576  1.00  0.00    -0.288 OA
ATOM      8  C   UNL     1     -98.354  22.006 -35.613  1.00  0.00     0.020 A 
ATOM      9  C   UNL     1     -98.891  21.248 -34.575  1.00  0.00     0.047 A 
ATOM     10  C   UNL     1     -99.143  21.827 -33.324  1.00  0.00     0.125 A 
ATOM     11  C   UNL     1     -98.841  23.189 -33.098  1.00  0.00     0.069 A 
ENDROOT
BRANCH   1  12
ATOM     12  C   UNL     1     -96.731  26.422 -37.258  1.00  0.00    -0.011 A 
ATOM     13  C   UNL     1     -95.391  26.313 -37.667  1.00  0.00     0.013 A 
ATOM     14  C   UNL     1     -94.884  27.153 -38.663  1.00  0.00     0.047 A 
ATOM     15  C   UNL     1     -95.711  28.109 -39.265  1.00  0.00     0.115 A 
ATOM     16  C   UNL     1     -97.557  27.380 -37.873  1.00  0.00     0.013 A 
ATOM     17  C   UNL     1     -97.047  28.219 -38.869  1.00  0.00     0.047 A 
BRANCH  15  18
ATOM     18  O   UNL     1     -95.217  28.951 -40.259  1.00  0.00    -0.508 OA
ATOM     19  H   UNL     1     -95.052  29.937 -40.085  1.00  0.00     0.293 HD
ENDBRANCH  15  18
ENDBRANCH   1  12
BRANCH  11  20
ATOM     20  C   UNL     1     -99.133  23.829 -31.747  1.00  0.00     0.188 C 
ATOM     21  C   UNL     1     -98.063  23.405 -30.713  1.00  0.00     0.179 C 
ATOM     22  O   UNL     1    -100.441  23.450 -31.336  1.00  0.00    -0.362 OA
ATOM     23  C   UNL     1     -98.395  24.022 -29.346  1.00  0.00     0.177 C 
ATOM     24  C   UNL     1    -100.833  24.043 -30.104  1.00  0.00     0.176 C 
ATOM     25  C   UNL     1     -99.850  23.688 -28.961  1.00  0.00     0.177 C 
BRANCH  21  26
ATOM     26  O   UNL     1     -96.793  23.854 -31.116  1.00  0.00    -0.387 OA
ATOM     27  H   UNL     1     -96.743  23.739 -32.102  1.00  0.00     0.211 HD
ENDBRANCH  21  26
BRANCH  23  28
ATOM     28  O   UNL     1     -97.498  23.572 -28.360  1.00  0.00    -0.387 OA
ATOM     29  H   UNL     1     -96.792  24.262 -28.253  1.00  0.00     0.211 HD
ENDBRANCH  23  28
BRANCH  24  30
ATOM     30  C   UNL     1    -101.137  25.550 -30.248  1.00  0.00     0.191 C 
BRANCH  30  31
ATOM     31  O   UNL     1    -102.058  25.944 -29.269  1.00  0.00    -0.394 OA
ATOM     32  H   UNL     1    -102.952  25.901 -29.698  1.00  0.00     0.210 HD
ENDBRANCH  30  31
ENDBRANCH  24  30
BRANCH  25  33
ATOM     33  O   UNL     1    -100.223  24.292 -27.746  1.00  0.00    -0.388 OA
ATOM     34  H   UNL     1     -99.521  24.948 -27.498  1.00  0.00     0.211 HD
ENDBRANCH  25  33
ENDBRANCH  11  20
BRANCH  10  35
ATOM     35  O   UNL     1     -99.699  21.048 -32.309  1.00  0.00    -0.507 OA
ATOM     36  H   UNL     1     -99.120  20.526 -31.660  1.00  0.00     0.293 HD
ENDBRANCH  10  35
TORSDOF 9
ENDMDL
MODEL 7
REMARK VINA RESULT:    -4.000      2.907      3.613
REMARK INTER + INTRA:          -6.275
REMARK INTER:                  -5.193
REMARK INTRA:                  -1.081
REMARK UNBOUND:                -0.871
REMARK SMILES O=c1c(-c2ccc(O)cc2)coc2c([C@H]3O[C@H](CO)[C@H](O)[C@@H](O)[C@@H]3O)c(O)ccc12
REMARK SMILES IDX 3 1 11 2 12 3 13 4 30 5 2 6 1 7 29 8 28 9 26 10 14 11 4 12
REMARK SMILES IDX 5 13 6 14 7 15 10 16 9 17 8 18 15 20 24 21 16 22 22 23 17 24
REMARK SMILES IDX 20 25 25 26 23 28 18 30 19 31 21 33 27 35
REMARK H PARENT 8 19 25 27 23 29 19 32 21 34 27 36
REMARK Flexibility Score: inf
ROOT
ATOM      1  C   UNL     1    -102.906  24.508 -29.529  1.00  0.00     0.065 A 
ATOM      2  C   UNL     1    -101.700  24.149 -30.148  1.00  0.00     0.208 A 
ATOM      3  O   UNL     1    -100.534  24.519 -29.633  1.00  0.00    -0.463 OA
ATOM      4  C   UNL     1    -100.424  25.239 -28.519  1.00  0.00     0.147 A 
ATOM      5  C   UNL     1    -101.591  25.643 -27.829  1.00  0.00     0.066 A 
ATOM      6  C   UNL     1    -102.844  25.262 -28.343  1.00  0.00     0.200 A 
ATOM      7  O   UNL     1    -103.904  25.577 -27.734  1.00  0.00    -0.288 OA
ATOM      8  C   UNL     1    -101.473  26.408 -26.658  1.00  0.00     0.020 A 
ATOM      9  C   UNL     1    -100.217  26.777 -26.185  1.00  0.00     0.047 A 
ATOM     10  C   UNL     1     -99.054  26.387 -26.862  1.00  0.00     0.125 A 
ATOM     11  C   UNL     1     -99.145  25.598 -28.031  1.00  0.00     0.069 A 
ENDROOT
BRANCH   1  12
ATOM     12  C   UNL     1    -104.198  24.088 -30.127  1.00  0.00    -0.011 A 
ATOM     13  C   UNL     1    -105.037  25.026 -30.755  1.00  0.00     0.013 A 
ATOM     14  C   UNL     1    -106.248  24.623 -31.324  1.00  0.00     0.047 A 
ATOM     15  C   UNL     1    -106.634  23.277 -31.278  1.00  0.00     0.115 A 
ATOM     16  C   UNL     1    -104.590  22.738 -30.092  1.00  0.00     0.013 A 
ATOM     17  C   UNL     1    -105.803  22.338 -30.661  1.00  0.00     0.047 A 
BRANCH  15  18
ATOM     18  O   UNL     1    -107.839  22.865 -31.842  1.00  0.00    -0.508 OA
ATOM     19  H   UNL     1    -108.623  23.500 -31.943  1.00  0.00     0.293 HD
ENDBRANCH  15  18
ENDBRANCH   1  12
BRANCH  11  20
ATOM     20  C   UNL     1     -97.886  25.188 -28.784  1.00  0.00     0.188 C 
ATOM     21  C   UNL     1     -97.300  23.891 -28.177  1.00  0.00     0.179 C 
ATOM     22  O   UNL     1     -96.954  26.261 -28.731  1.00  0.00    -0.362 OA
ATOM     23  C   UNL     1     -96.007  23.514 -28.917  1.00  0.00     0.177 C 
ATOM     24  C   UNL     1     -95.758  25.998 -29.456  1.00  0.00     0.176 C 
ATOM     25  C   UNL     1     -95.048  24.721 -28.941  1.00  0.00     0.177 C 
BRANCH  21  26
ATOM     26  O   UNL     1     -98.220  22.835 -28.307  1.00  0.00    -0.387 OA
ATOM     27  H   UNL     1     -97.693  21.993 -28.344  1.00  0.00     0.211 HD
ENDBRANCH  21  26
BRANCH  23  28
ATOM     28  O   UNL     1     -95.395  22.397 -28.323  1.00  0.00    -0.387 OA
ATOM     29  H   UNL     1     -94.634  22.124 -28.900  1.00  0.00     0.211 HD
ENDBRANCH  23  28
BRANCH  24  30
ATOM     30  C   UNL     1     -95.975  26.043 -30.984  1.00  0.00     0.191 C 
BRANCH  30  31
ATOM     31  O   UNL     1     -94.757  26.296 -31.628  1.00  0.00    -0.394 OA
ATOM     32  H   UNL     1     -94.046  26.045 -30.983  1.00  0.00     0.210 HD
ENDBRANCH  30  31
ENDBRANCH  24  30
BRANCH  25  33
ATOM     33  O   UNL     1     -93.877  24.446 -29.671  1.00  0.00    -0.388 OA
ATOM     34  H   UNL     1     -93.637  23.494 -29.524  1.00  0.00     0.211 HD
ENDBRANCH  25  33
ENDBRANCH  11  20
BRANCH  10  35
ATOM     35  O   UNL     1     -97.810  26.788 -26.374  1.00  0.00    -0.507 OA
ATOM     36  H   UNL     1     -96.950  26.350 -26.684  1.00  0.00     0.293 HD
ENDBRANCH  10  35
TORSDOF 9
ENDMDL
MODEL 8
REMARK VINA RESULT:    -3.994      2.977      8.962
REMARK INTER + INTRA:          -6.266
REMARK INTER:                  -5.213
REMARK INTRA:                  -1.054
REMARK UNBOUND:                -0.871
REMARK SMILES O=c1c(-c2ccc(O)cc2)coc2c([C@H]3O[C@H](CO)[C@H](O)[C@@H](O)[C@@H]3O)c(O)ccc12
REMARK SMILES IDX 3 1 11 2 12 3 13 4 30 5 2 6 1 7 29 8 28 9 26 10 14 11 4 12
REMARK SMILES IDX 5 13 6 14 7 15 10 16 9 17 8 18 15 20 24 21 16 22 22 23 17 24
REMARK SMILES IDX 20 25 25 26 23 28 18 30 19 31 21 33 27 35
REMARK H PARENT 8 19 25 27 23 29 19 32 21 34 27 36
REMARK Flexibility Score: inf
ROOT
ATOM      1  C   UNL     1     -95.850  24.682 -33.486  1.00  0.00     0.065 A 
ATOM      2  C   UNL     1     -97.095  25.136 -33.028  1.00  0.00     0.208 A 
ATOM      3  O   UNL     1     -97.481  24.920 -31.778  1.00  0.00    -0.463 OA
ATOM      4  C   UNL     1     -96.736  24.273 -30.886  1.00  0.00     0.147 A 
ATOM      5  C   UNL     1     -95.464  23.781 -31.262  1.00  0.00     0.066 A 
ATOM      6  C   UNL     1     -95.019  24.000 -32.578  1.00  0.00     0.200 A 
ATOM      7  O   UNL     1     -93.875  23.604 -32.938  1.00  0.00    -0.288 OA
ATOM      8  C   UNL     1     -94.681  23.093 -30.321  1.00  0.00     0.020 A 
ATOM      9  C   UNL     1     -95.158  22.884 -29.029  1.00  0.00     0.047 A 
ATOM     10  C   UNL     1     -96.418  23.362 -28.647  1.00  0.00     0.125 A 
ATOM     11  C   UNL     1     -97.216  24.078 -29.569  1.00  0.00     0.069 A 
ENDROOT
BRANCH   1  12
ATOM     12  C   UNL     1     -95.441  24.931 -34.891  1.00  0.00    -0.011 A 
ATOM     13  C   UNL     1     -95.721  23.988 -35.897  1.00  0.00     0.013 A 
ATOM     14  C   UNL     1     -95.342  24.233 -37.220  1.00  0.00     0.047 A 
ATOM     15  C   UNL     1     -94.684  25.423 -37.556  1.00  0.00     0.115 A 
ATOM     16  C   UNL     1     -94.787  26.127 -35.238  1.00  0.00     0.013 A 
ATOM     17  C   UNL     1     -94.409  26.368 -36.563  1.00  0.00     0.047 A 
BRANCH  15  18
ATOM     18  O   UNL     1     -94.302  25.676 -38.871  1.00  0.00    -0.508 OA
ATOM     19  H   UNL     1     -93.339  25.574 -39.173  1.00  0.00     0.293 HD
ENDBRANCH  15  18
ENDBRANCH   1  12
BRANCH  11  20
ATOM     20  C   UNL     1     -98.596  24.582 -29.165  1.00  0.00     0.188 C 
ATOM     21  C   UNL     1     -98.470  25.641 -28.044  1.00  0.00     0.179 C 
ATOM     22  O   UNL     1     -99.384  23.471 -28.754  1.00  0.00    -0.362 OA
ATOM     23  C   UNL     1     -99.870  26.107 -27.617  1.00  0.00     0.177 C 
ATOM     24  C   UNL     1    -100.717  23.831 -28.407  1.00  0.00     0.176 C 
ATOM     25  C   UNL     1    -100.746  24.885 -27.273  1.00  0.00     0.177 C 
BRANCH  21  26
ATOM     26  O   UNL     1     -97.744  26.753 -28.505  1.00  0.00    -0.387 OA
ATOM     27  H   UNL     1     -98.007  26.900 -29.452  1.00  0.00     0.211 HD
ENDBRANCH  21  26
BRANCH  23  28
ATOM     28  O   UNL     1     -99.795  26.994 -26.529  1.00  0.00    -0.387 OA
ATOM     29  H   UNL     1    -100.401  26.657 -25.818  1.00  0.00     0.211 HD
ENDBRANCH  23  28
BRANCH  24  30
ATOM     30  C   UNL     1    -101.569  24.190 -29.643  1.00  0.00     0.191 C 
BRANCH  30  31
ATOM     31  O   UNL     1    -102.883  23.739 -29.460  1.00  0.00    -0.394 OA
ATOM     32  H   UNL     1    -103.471  24.514 -29.659  1.00  0.00     0.210 HD
ENDBRANCH  30  31
ENDBRANCH  24  30
BRANCH  25  33
ATOM     33  O   UNL     1    -102.062  25.259 -26.944  1.00  0.00    -0.388 OA
ATOM     34  H   UNL     1    -102.249  26.138 -27.366  1.00  0.00     0.211 HD
ENDBRANCH  25  33
ENDBRANCH  11  20
BRANCH  10  35
ATOM     35  O   UNL     1     -96.877  23.122 -27.352  1.00  0.00    -0.507 OA
ATOM     36  H   UNL     1     -97.862  23.181 -27.115  1.00  0.00     0.293 HD
ENDBRANCH  10  35
TORSDOF 9
ENDMDL
MODEL 9
REMARK VINA RESULT:    -3.989     11.653     13.286
REMARK INTER + INTRA:          -6.259
REMARK INTER:                  -5.699
REMARK INTRA:                  -0.560
REMARK UNBOUND:                -0.871
REMARK SMILES O=c1c(-c2ccc(O)cc2)coc2c([C@H]3O[C@H](CO)[C@H](O)[C@@H](O)[C@@H]3O)c(O)ccc12
REMARK SMILES IDX 3 1 11 2 12 3 13 4 30 5 2 6 1 7 29 8 28 9 26 10 14 11 4 12
REMARK SMILES IDX 5 13 6 14 7 15 10 16 9 17 8 18 15 20 24 21 16 22 22 23 17 24
REMARK SMILES IDX 20 25 25 26 23 28 18 30 19 31 21 33 27 35
REMARK H PARENT 8 19 25 27 23 29 19 32 21 34 27 36
REMARK Flexibility Score: inf
ROOT
ATOM      1  C   UNL     1    -100.347  26.756 -40.543  1.00  0.00     0.065 A 
ATOM      2  C   UNL     1     -99.741  25.607 -41.070  1.00  0.00     0.208 A 
ATOM      3  O   UNL     1     -98.508  25.264 -40.720  1.00  0.00    -0.463 OA
ATOM      4  C   UNL     1     -97.771  25.968 -39.863  1.00  0.00     0.147 A 
ATOM      5  C   UNL     1     -98.305  27.141 -39.281  1.00  0.00     0.066 A 
ATOM      6  C   UNL     1     -99.613  27.529 -39.624  1.00  0.00     0.200 A 
ATOM      7  O   UNL     1    -100.133  28.553 -39.098  1.00  0.00    -0.288 OA
ATOM      8  C   UNL     1     -97.525  27.885 -38.382  1.00  0.00     0.020 A 
ATOM      9  C   UNL     1     -96.229  27.478 -38.074  1.00  0.00     0.047 A 
ATOM     10  C   UNL     1     -95.689  26.320 -38.648  1.00  0.00     0.125 A 
ATOM     11  C   UNL     1     -96.461  25.542 -39.538  1.00  0.00     0.069 A 
ENDROOT
BRANCH   1  12
ATOM     12  C   UNL     1    -101.725  27.122 -40.954  1.00  0.00    -0.011 A 
ATOM     13  C   UNL     1    -102.835  26.694 -40.204  1.00  0.00     0.013 A 
ATOM     14  C   UNL     1    -104.130  27.050 -40.592  1.00  0.00     0.047 A 
ATOM     15  C   UNL     1    -104.332  27.841 -41.730  1.00  0.00     0.115 A 
ATOM     16  C   UNL     1    -101.937  27.922 -42.091  1.00  0.00     0.013 A 
ATOM     17  C   UNL     1    -103.234  28.276 -42.476  1.00  0.00     0.047 A 
BRANCH  15  18
ATOM     18  O   UNL     1    -105.619  28.201 -42.125  1.00  0.00    -0.508 OA
ATOM     19  H   UNL     1    -105.777  28.914 -42.828  1.00  0.00     0.293 HD
ENDBRANCH  15  18
ENDBRANCH   1  12
BRANCH  11  20
ATOM     20  C   UNL     1     -95.872  24.293 -40.182  1.00  0.00     0.188 C 
ATOM     21  C   UNL     1     -96.057  24.346 -41.717  1.00  0.00     0.179 C 
ATOM     22  O   UNL     1     -96.501  23.149 -39.615  1.00  0.00    -0.362 OA
ATOM     23  C   UNL     1     -95.498  23.062 -42.348  1.00  0.00     0.177 C 
ATOM     24  C   UNL     1     -95.979  21.922 -40.113  1.00  0.00     0.176 C 
ATOM     25  C   UNL     1     -96.112  21.829 -41.654  1.00  0.00     0.177 C 
BRANCH  21  26
ATOM     26  O   UNL     1     -95.368  25.449 -42.252  1.00  0.00    -0.387 OA
ATOM     27  H   UNL     1     -96.013  26.203 -42.293  1.00  0.00     0.211 HD
ENDBRANCH  21  26
BRANCH  23  28
ATOM     28  O   UNL     1     -95.743  23.033 -43.732  1.00  0.00    -0.387 OA
ATOM     29  H   UNL     1     -96.678  22.727 -43.869  1.00  0.00     0.211 HD
ENDBRANCH  23  28
BRANCH  24  30
ATOM     30  C   UNL     1     -94.566  21.621 -39.568  1.00  0.00     0.191 C 
BRANCH  30  31
ATOM     31  O   UNL     1     -94.354  20.236 -39.542  1.00  0.00    -0.394 OA
ATOM     32  H   UNL     1     -95.200  19.821 -39.856  1.00  0.00     0.210 HD
ENDBRANCH  30  31
ENDBRANCH  24  30
BRANCH  25  33
ATOM     33  O   UNL     1     -95.576  20.626 -42.150  1.00  0.00    -0.388 OA
ATOM     34  H   UNL     1     -95.441  20.729 -43.129  1.00  0.00     0.211 HD
ENDBRANCH  25  33
ENDBRANCH  11  20
BRANCH  10  35
ATOM     35  O   UNL     1     -94.381  25.948 -38.334  1.00  0.00    -0.507 OA
ATOM     36  H   UNL     1     -94.109  25.700 -37.389  1.00  0.00     0.293 HD
ENDBRANCH  10  35
TORSDOF 9
ENDMDL
