MODEL 1
REMARK VINA RESULT:    -3.528      0.000      0.000
REMARK INTER + INTRA:          -9.216
REMARK INTER:                  -6.415
REMARK INTRA:                  -2.801
REMARK UNBOUND:                -2.801
REMARK SMILES CCCCCCCCCCCCCC[C@@H](C)C(=O)[O-]
REMARK SMILES IDX 9 1 10 2 11 3 12 4 13 5 14 6 15 7 16 8 17 9 18 10 19 11 8 12
REMARK SMILES IDX 7 13 6 14 5 15 4 16 3 17 2 18 1 19
REMARK H PARENT
REMARK Flexibility Score: inf
ROOT
ATOM      1  C   UNL     1       7.261   1.803  50.890  1.00  0.00     0.000 C 
ENDROOT
BRANCH   1   2
ATOM      2  C   UNL     1       6.434   1.864  52.188  1.00  0.00     0.000 C 
BRANCH   2   3
ATOM      3  C   UNL     1       6.521   3.241  52.876  1.00  0.00     0.000 C 
BRANCH   3   4
ATOM      4  C   UNL     1       7.581   4.184  52.270  1.00  0.00     0.000 C 
BRANCH   4   5
ATOM      5  C   UNL     1       7.008   5.505  51.718  1.00  0.00     0.001 C 
BRANCH   5   6
ATOM      6  C   UNL     1       7.675   5.930  50.397  1.00  0.00     0.009 C 
BRANCH   6   7
ATOM      7  C   UNL     1       6.671   6.574  49.420  1.00  0.00     0.032 C 
ATOM      8  C   UNL     1       5.680   7.467  50.176  1.00  0.00     0.014 C 
BRANCH   7   9
ATOM      9  C   UNL     1       7.378   7.378  48.362  1.00  0.00     0.044 C 
ATOM     10  O   UNL     1       6.851   8.428  47.908  1.00  0.00    -0.550 OA
ATOM     11  O   UNL     1       8.616   6.969  47.880  1.00  0.00    -0.550 OA
ENDBRANCH   7   9
ENDBRANCH   6   7
ENDBRANCH   5   6
ENDBRANCH   4   5
ENDBRANCH   3   4
ENDBRANCH   2   3
ENDBRANCH   1   2
BRANCH   1  12
ATOM     12  C   UNL     1       6.638   0.873  49.837  1.00  0.00     0.000 C 
BRANCH  12  13
ATOM     13  C   UNL     1       6.755   1.434  48.411  1.00  0.00    -0.000 C 
BRANCH  13  14
ATOM     14  C   UNL     1       6.371   2.922  48.324  1.00  0.00    -0.000 C 
BRANCH  14  15
ATOM     15  C   UNL     1       4.859   3.210  48.430  1.00  0.00    -0.000 C 
BRANCH  15  16
ATOM     16  C   UNL     1       4.411   3.868  49.750  1.00  0.00    -0.000 C 
BRANCH  16  17
ATOM     17  C   UNL     1       3.286   3.124  50.500  1.00  0.00    -0.000 C 
BRANCH  17  18
ATOM     18  C   UNL     1       2.926   1.745  49.921  1.00  0.00    -0.003 C 
ATOM     19  C   UNL     1       3.098   0.611  50.932  1.00  0.00     0.004 C 
ENDBRANCH  17  18
ENDBRANCH  16  17
ENDBRANCH  15  16
ENDBRANCH  14  15
ENDBRANCH  13  14
ENDBRANCH  12  13
ENDBRANCH   1  12
TORSDOF 14
ENDMDL
MODEL 2
REMARK VINA RESULT:    -3.380      1.636      2.971
REMARK INTER + INTRA:          -8.946
REMARK INTER:                  -6.848
REMARK INTRA:                  -2.098
REMARK UNBOUND:                -2.801
REMARK SMILES CCCCCCCCCCCCCC[C@@H](C)C(=O)[O-]
REMARK SMILES IDX 9 1 10 2 11 3 12 4 13 5 14 6 15 7 16 8 17 9 18 10 19 11 8 12
REMARK SMILES IDX 7 13 6 14 5 15 4 16 3 17 2 18 1 19
REMARK H PARENT
REMARK Flexibility Score: inf
ROOT
ATOM      1  C   UNL     1       5.134   3.661  48.867  1.00  0.00     0.000 C 
ENDROOT
BRANCH   1   2
ATOM      2  C   UNL     1       5.504   4.361  50.188  1.00  0.00     0.000 C 
BRANCH   2   3
ATOM      3  C   UNL     1       7.028   4.512  50.367  1.00  0.00     0.000 C 
BRANCH   3   4
ATOM      4  C   UNL     1       7.500   5.968  50.556  1.00  0.00     0.000 C 
BRANCH   4   5
ATOM      5  C   UNL     1       6.727   6.998  49.708  1.00  0.00     0.001 C 
BRANCH   5   6
ATOM      6  C   UNL     1       7.191   7.018  48.240  1.00  0.00     0.009 C 
BRANCH   6   7
ATOM      7  C   UNL     1       7.695   8.409  47.809  1.00  0.00     0.032 C 
ATOM      8  C   UNL     1       7.069   9.504  48.680  1.00  0.00     0.014 C 
BRANCH   7   9
ATOM      9  C   UNL     1       9.196   8.493  47.883  1.00  0.00     0.044 C 
ATOM     10  O   UNL     1       9.752   9.566  48.237  1.00  0.00    -0.550 OA
ATOM     11  O   UNL     1       9.978   7.389  47.562  1.00  0.00    -0.550 OA
ENDBRANCH   7   9
ENDBRANCH   6   7
ENDBRANCH   5   6
ENDBRANCH   4   5
ENDBRANCH   3   4
ENDBRANCH   2   3
ENDBRANCH   1   2
BRANCH   1  12
ATOM     12  C   UNL     1       6.348   3.447  47.952  1.00  0.00     0.000 C 
BRANCH  12  13
ATOM     13  C   UNL     1       6.526   1.976  47.541  1.00  0.00    -0.000 C 
BRANCH  13  14
ATOM     14  C   UNL     1       6.978   1.083  48.710  1.00  0.00    -0.000 C 
BRANCH  14  15
ATOM     15  C   UNL     1       5.901   0.116  49.242  1.00  0.00    -0.000 C 
BRANCH  15  16
ATOM     16  C   UNL     1       5.729   0.107  50.774  1.00  0.00    -0.000 C 
BRANCH  16  17
ATOM     17  C   UNL     1       6.710   1.015  51.545  1.00  0.00    -0.000 C 
BRANCH  17  18
ATOM     18  C   UNL     1       6.106   1.729  52.765  1.00  0.00    -0.003 C 
ATOM     19  C   UNL     1       4.582   1.830  52.703  1.00  0.00     0.004 C 
ENDBRANCH  17  18
ENDBRANCH  16  17
ENDBRANCH  15  16
ENDBRANCH  14  15
ENDBRANCH  13  14
ENDBRANCH  12  13
ENDBRANCH   1  12
TORSDOF 14
ENDMDL
MODEL 3
REMARK VINA RESULT:    -3.369      1.688      2.925
REMARK INTER + INTRA:          -8.927
REMARK INTER:                  -6.798
REMARK INTRA:                  -2.129
REMARK UNBOUND:                -2.801
REMARK SMILES CCCCCCCCCCCCCC[C@@H](C)C(=O)[O-]
REMARK SMILES IDX 9 1 10 2 11 3 12 4 13 5 14 6 15 7 16 8 17 9 18 10 19 11 8 12
REMARK SMILES IDX 7 13 6 14 5 15 4 16 3 17 2 18 1 19
REMARK H PARENT
REMARK Flexibility Score: inf
ROOT
ATOM      1  C   UNL     1       5.824   3.137  47.876  1.00  0.00     0.000 C 
ENDROOT
BRANCH   1   2
ATOM      2  C   UNL     1       6.674   4.347  48.305  1.00  0.00     0.000 C 
BRANCH   2   3
ATOM      3  C   UNL     1       6.198   4.957  49.638  1.00  0.00     0.000 C 
BRANCH   3   4
ATOM      4  C   UNL     1       7.343   5.404  50.572  1.00  0.00     0.000 C 
BRANCH   4   5
ATOM      5  C   UNL     1       7.709   6.896  50.452  1.00  0.00     0.001 C 
BRANCH   5   6
ATOM      6  C   UNL     1       6.478   7.786  50.197  1.00  0.00     0.009 C 
BRANCH   6   7
ATOM      7  C   UNL     1       6.703   8.769  49.031  1.00  0.00     0.032 C 
ATOM      8  C   UNL     1       7.232   8.030  47.797  1.00  0.00     0.014 C 
BRANCH   7   9
ATOM      9  C   UNL     1       5.435   9.502  48.683  1.00  0.00     0.044 C 
ATOM     10  O   UNL     1       5.467  10.478  47.887  1.00  0.00    -0.550 OA
ATOM     11  O   UNL     1       4.222   9.109  49.236  1.00  0.00    -0.550 OA
ENDBRANCH   7   9
ENDBRANCH   6   7
ENDBRANCH   5   6
ENDBRANCH   4   5
ENDBRANCH   3   4
ENDBRANCH   2   3
ENDBRANCH   1   2
BRANCH   1  12
ATOM     12  C   UNL     1       6.629   1.829  47.854  1.00  0.00     0.000 C 
BRANCH  12  13
ATOM     13  C   UNL     1       6.358   0.947  49.083  1.00  0.00    -0.000 C 
BRANCH  13  14
ATOM     14  C   UNL     1       7.034   1.481  50.359  1.00  0.00    -0.000 C 
BRANCH  14  15
ATOM     15  C   UNL     1       6.335   1.088  51.677  1.00  0.00    -0.000 C 
BRANCH  15  16
ATOM     16  C   UNL     1       4.795   1.111  51.632  1.00  0.00    -0.000 C 
BRANCH  16  17
ATOM     17  C   UNL     1       4.162   2.516  51.713  1.00  0.00    -0.000 C 
BRANCH  17  18
ATOM     18  C   UNL     1       3.267   2.890  50.519  1.00  0.00    -0.003 C 
ATOM     19  C   UNL     1       2.725   1.671  49.775  1.00  0.00     0.004 C 
ENDBRANCH  17  18
ENDBRANCH  16  17
ENDBRANCH  15  16
ENDBRANCH  14  15
ENDBRANCH  13  14
ENDBRANCH  12  13
ENDBRANCH   1  12
TORSDOF 14
ENDMDL
MODEL 4
REMARK VINA RESULT:    -3.351      1.162      3.182
REMARK INTER + INTRA:          -8.895
REMARK INTER:                  -6.245
REMARK INTRA:                  -2.650
REMARK UNBOUND:                -2.801
REMARK SMILES CCCCCCCCCCCCCC[C@@H](C)C(=O)[O-]
REMARK SMILES IDX 9 1 10 2 11 3 12 4 13 5 14 6 15 7 16 8 17 9 18 10 19 11 8 12
REMARK SMILES IDX 7 13 6 14 5 15 4 16 3 17 2 18 1 19
REMARK H PARENT
REMARK Flexibility Score: inf
ROOT
ATOM      1  C   UNL     1       3.702   3.372  50.775  1.00  0.00     0.000 C 
ENDROOT
BRANCH   1   2
ATOM      2  C   UNL     1       3.882   4.051  52.146  1.00  0.00     0.000 C 
BRANCH   2   3
ATOM      3  C   UNL     1       5.343   4.008  52.636  1.00  0.00     0.000 C 
BRANCH   3   4
ATOM      4  C   UNL     1       6.277   3.144  51.763  1.00  0.00     0.000 C 
BRANCH   4   5
ATOM      5  C   UNL     1       7.444   3.924  51.125  1.00  0.00     0.001 C 
BRANCH   5   6
ATOM      6  C   UNL     1       7.256   5.450  51.223  1.00  0.00     0.009 C 
BRANCH   6   7
ATOM      7  C   UNL     1       6.529   6.026  49.993  1.00  0.00     0.032 C 
ATOM      8  C   UNL     1       5.456   7.033  50.423  1.00  0.00     0.014 C 
BRANCH   7   9
ATOM      9  C   UNL     1       7.496   6.685  49.046  1.00  0.00     0.044 C 
ATOM     10  O   UNL     1       8.032   7.782  49.352  1.00  0.00    -0.550 OA
ATOM     11  O   UNL     1       7.804   6.087  47.829  1.00  0.00    -0.550 OA
ENDBRANCH   7   9
ENDBRANCH   6   7
ENDBRANCH   5   6
ENDBRANCH   4   5
ENDBRANCH   3   4
ENDBRANCH   2   3
ENDBRANCH   1   2
BRANCH   1  12
ATOM     12  C   UNL     1       2.712   2.199  50.824  1.00  0.00     0.000 C 
BRANCH  12  13
ATOM     13  C   UNL     1       3.253   0.940  50.127  1.00  0.00    -0.000 C 
BRANCH  13  14
ATOM     14  C   UNL     1       4.110   0.065  51.061  1.00  0.00    -0.000 C 
BRANCH  14  15
ATOM     15  C   UNL     1       5.564  -0.149  50.595  1.00  0.00    -0.000 C 
BRANCH  15  16
ATOM     16  C   UNL     1       5.809   0.081  49.091  1.00  0.00    -0.000 C 
BRANCH  16  17
ATOM     17  C   UNL     1       6.901   1.120  48.760  1.00  0.00    -0.000 C 
BRANCH  17  18
ATOM     18  C   UNL     1       6.609   1.994  47.529  1.00  0.00    -0.003 C 
ATOM     19  C   UNL     1       5.642   3.140  47.828  1.00  0.00     0.004 C 
ENDBRANCH  17  18
ENDBRANCH  16  17
ENDBRANCH  15  16
ENDBRANCH  14  15
ENDBRANCH  13  14
ENDBRANCH  12  13
ENDBRANCH   1  12
TORSDOF 14
ENDMDL
MODEL 5
REMARK VINA RESULT:    -3.310      3.352      6.522
REMARK INTER + INTRA:          -8.820
REMARK INTER:                  -6.668
REMARK INTRA:                  -2.152
REMARK UNBOUND:                -2.801
REMARK SMILES CCCCCCCCCCCCCC[C@@H](C)C(=O)[O-]
REMARK SMILES IDX 9 1 10 2 11 3 12 4 13 5 14 6 15 7 16 8 17 9 18 10 19 11 8 12
REMARK SMILES IDX 7 13 6 14 5 15 4 16 3 17 2 18 1 19
REMARK H PARENT
REMARK Flexibility Score: inf
ROOT
ATOM      1  C   UNL     1       4.240   4.117  50.111  1.00  0.00     0.000 C 
ENDROOT
BRANCH   1   2
ATOM      2  C   UNL     1       4.306   3.043  49.009  1.00  0.00     0.000 C 
BRANCH   2   3
ATOM      3  C   UNL     1       5.423   3.319  47.984  1.00  0.00     0.000 C 
BRANCH   3   4
ATOM      4  C   UNL     1       6.495   2.211  47.905  1.00  0.00     0.000 C 
BRANCH   4   5
ATOM      5  C   UNL     1       6.601   1.344  49.176  1.00  0.00     0.001 C 
BRANCH   5   6
ATOM      6  C   UNL     1       5.983  -0.054  48.989  1.00  0.00     0.009 C 
BRANCH   6   7
ATOM      7  C   UNL     1       5.397  -0.610  50.301  1.00  0.00     0.032 C 
ATOM      8  C   UNL     1       5.966   0.143  51.509  1.00  0.00     0.014 C 
BRANCH   7   9
ATOM      9  C   UNL     1       3.894  -0.524  50.308  1.00  0.00     0.044 C 
ATOM     10  O   UNL     1       3.316   0.377  50.971  1.00  0.00    -0.550 OA
ATOM     11  O   UNL     1       3.136  -1.437  49.584  1.00  0.00    -0.550 OA
ENDBRANCH   7   9
ENDBRANCH   6   7
ENDBRANCH   5   6
ENDBRANCH   4   5
ENDBRANCH   3   4
ENDBRANCH   2   3
ENDBRANCH   1   2
BRANCH   1  12
ATOM     12  C   UNL     1       4.656   3.577  51.487  1.00  0.00     0.000 C 
BRANCH  12  13
ATOM     13  C   UNL     1       5.834   4.356  52.096  1.00  0.00    -0.000 C 
BRANCH  13  14
ATOM     14  C   UNL     1       7.050   4.427  51.155  1.00  0.00    -0.000 C 
BRANCH  14  15
ATOM     15  C   UNL     1       7.543   5.854  50.839  1.00  0.00    -0.000 C 
BRANCH  15  16
ATOM     16  C   UNL     1       6.835   6.543  49.656  1.00  0.00    -0.000 C 
BRANCH  16  17
ATOM     17  C   UNL     1       7.536   6.378  48.292  1.00  0.00    -0.000 C 
BRANCH  17  18
ATOM     18  C   UNL     1       7.895   7.698  47.587  1.00  0.00    -0.003 C 
ATOM     19  C   UNL     1       9.390   8.014  47.640  1.00  0.00     0.004 C 
ENDBRANCH  17  18
ENDBRANCH  16  17
ENDBRANCH  15  16
ENDBRANCH  14  15
ENDBRANCH  13  14
ENDBRANCH  12  13
ENDBRANCH   1  12
TORSDOF 14
ENDMDL
MODEL 6
REMARK VINA RESULT:    -3.257      1.399      2.761
REMARK INTER + INTRA:          -8.724
REMARK INTER:                  -6.582
REMARK INTRA:                  -2.142
REMARK UNBOUND:                -2.801
REMARK SMILES CCCCCCCCCCCCCC[C@@H](C)C(=O)[O-]
REMARK SMILES IDX 9 1 10 2 11 3 12 4 13 5 14 6 15 7 16 8 17 9 18 10 19 11 8 12
REMARK SMILES IDX 7 13 6 14 5 15 4 16 3 17 2 18 1 19
REMARK H PARENT
REMARK Flexibility Score: inf
ROOT
ATOM      1  C   UNL     1       6.701   4.411  48.263  1.00  0.00     0.000 C 
ENDROOT
BRANCH   1   2
ATOM      2  C   UNL     1       6.215   5.081  49.562  1.00  0.00     0.000 C 
BRANCH   2   3
ATOM      3  C   UNL     1       7.382   5.560  50.448  1.00  0.00     0.000 C 
BRANCH   3   4
ATOM      4  C   UNL     1       7.023   6.734  51.384  1.00  0.00     0.000 C 
BRANCH   4   5
ATOM      5  C   UNL     1       5.809   7.562  50.919  1.00  0.00     0.001 C 
BRANCH   5   6
ATOM      6  C   UNL     1       6.222   8.848  50.179  1.00  0.00     0.009 C 
BRANCH   6   7
ATOM      7  C   UNL     1       6.280   8.647  48.652  1.00  0.00     0.032 C 
ATOM      8  C   UNL     1       5.552   9.786  47.930  1.00  0.00     0.014 C 
BRANCH   7   9
ATOM      9  C   UNL     1       7.702   8.561  48.166  1.00  0.00     0.044 C 
ATOM     10  O   UNL     1       8.059   7.611  47.420  1.00  0.00    -0.550 OA
ATOM     11  O   UNL     1       8.630   9.527  48.536  1.00  0.00    -0.550 OA
ENDBRANCH   7   9
ENDBRANCH   6   7
ENDBRANCH   5   6
ENDBRANCH   4   5
ENDBRANCH   3   4
ENDBRANCH   2   3
ENDBRANCH   1   2
BRANCH   1  12
ATOM     12  C   UNL     1       5.869   3.174  47.891  1.00  0.00     0.000 C 
BRANCH  12  13
ATOM     13  C   UNL     1       6.727   1.906  47.752  1.00  0.00    -0.000 C 
BRANCH  13  14
ATOM     14  C   UNL     1       6.376   0.833  48.799  1.00  0.00    -0.000 C 
BRANCH  14  15
ATOM     15  C   UNL     1       6.705   1.217  50.256  1.00  0.00    -0.000 C 
BRANCH  15  16
ATOM     16  C   UNL     1       5.503   1.208  51.221  1.00  0.00    -0.000 C 
BRANCH  16  17
ATOM     17  C   UNL     1       5.156   2.577  51.843  1.00  0.00    -0.000 C 
BRANCH  17  18
ATOM     18  C   UNL     1       3.761   3.115  51.482  1.00  0.00    -0.003 C 
ATOM     19  C   UNL     1       3.171   2.455  50.237  1.00  0.00     0.004 C 
ENDBRANCH  17  18
ENDBRANCH  16  17
ENDBRANCH  15  16
ENDBRANCH  14  15
ENDBRANCH  13  14
ENDBRANCH  12  13
ENDBRANCH   1  12
TORSDOF 14
ENDMDL
MODEL 7
REMARK VINA RESULT:    -3.228      1.173      2.599
REMARK INTER + INTRA:          -8.670
REMARK INTER:                  -6.586
REMARK INTRA:                  -2.084
REMARK UNBOUND:                -2.801
REMARK SMILES CCCCCCCCCCCCCC[C@@H](C)C(=O)[O-]
REMARK SMILES IDX 9 1 10 2 11 3 12 4 13 5 14 6 15 7 16 8 17 9 18 10 19 11 8 12
REMARK SMILES IDX 7 13 6 14 5 15 4 16 3 17 2 18 1 19
REMARK H PARENT
REMARK Flexibility Score: inf
ROOT
ATOM      1  C   UNL     1       6.316   0.893  48.965  1.00  0.00     0.000 C 
ENDROOT
BRANCH   1   2
ATOM      2  C   UNL     1       6.633   1.845  47.796  1.00  0.00     0.000 C 
BRANCH   2   3
ATOM      3  C   UNL     1       5.856   3.173  47.892  1.00  0.00     0.000 C 
BRANCH   3   4
ATOM      4  C   UNL     1       6.726   4.386  48.284  1.00  0.00     0.000 C 
BRANCH   4   5
ATOM      5  C   UNL     1       6.281   5.089  49.581  1.00  0.00     0.001 C 
BRANCH   5   6
ATOM      6  C   UNL     1       7.402   5.939  50.206  1.00  0.00     0.009 C 
BRANCH   6   7
ATOM      7  C   UNL     1       7.134   7.450  50.064  1.00  0.00     0.032 C 
ATOM      8  C   UNL     1       7.705   8.214  51.264  1.00  0.00     0.014 C 
BRANCH   7   9
ATOM      9  C   UNL     1       7.722   7.991  48.788  1.00  0.00     0.044 C 
ATOM     10  O   UNL     1       7.291   9.070  48.302  1.00  0.00    -0.550 OA
ATOM     11  O   UNL     1       8.741   7.305  48.138  1.00  0.00    -0.550 OA
ENDBRANCH   7   9
ENDBRANCH   6   7
ENDBRANCH   5   6
ENDBRANCH   4   5
ENDBRANCH   3   4
ENDBRANCH   2   3
ENDBRANCH   1   2
BRANCH   1  12
ATOM     12  C   UNL     1       7.081   1.257  50.246  1.00  0.00     0.000 C 
BRANCH  12  13
ATOM     13  C   UNL     1       6.198   1.183  51.502  1.00  0.00    -0.000 C 
BRANCH  13  14
ATOM     14  C   UNL     1       5.663   2.559  51.935  1.00  0.00    -0.000 C 
BRANCH  14  15
ATOM     15  C   UNL     1       4.126   2.662  52.016  1.00  0.00    -0.000 C 
BRANCH  15  16
ATOM     16  C   UNL     1       3.435   3.156  50.730  1.00  0.00    -0.000 C 
BRANCH  16  17
ATOM     17  C   UNL     1       3.015   2.044  49.747  1.00  0.00    -0.000 C 
BRANCH  17  18
ATOM     18  C   UNL     1       2.505   0.754  50.411  1.00  0.00    -0.003 C 
ATOM     19  C   UNL     1       1.142   0.927  51.080  1.00  0.00     0.004 C 
ENDBRANCH  17  18
ENDBRANCH  16  17
ENDBRANCH  15  16
ENDBRANCH  14  15
ENDBRANCH  13  14
ENDBRANCH  12  13
ENDBRANCH   1  12
TORSDOF 14
ENDMDL
MODEL 8
REMARK VINA RESULT:    -3.204      1.474      2.655
REMARK INTER + INTRA:          -8.627
REMARK INTER:                  -6.553
REMARK INTRA:                  -2.074
REMARK UNBOUND:                -2.801
REMARK SMILES CCCCCCCCCCCCCC[C@@H](C)C(=O)[O-]
REMARK SMILES IDX 9 1 10 2 11 3 12 4 13 5 14 6 15 7 16 8 17 9 18 10 19 11 8 12
REMARK SMILES IDX 7 13 6 14 5 15 4 16 3 17 2 18 1 19
REMARK H PARENT
REMARK Flexibility Score: inf
ROOT
ATOM      1  C   UNL     1       4.546   3.051  51.035  1.00  0.00     0.000 C 
ENDROOT
BRANCH   1   2
ATOM      2  C   UNL     1       5.714   3.284  52.011  1.00  0.00     0.000 C 
BRANCH   2   3
ATOM      3  C   UNL     1       6.933   3.933  51.326  1.00  0.00     0.000 C 
BRANCH   3   4
ATOM      4  C   UNL     1       7.590   5.064  52.145  1.00  0.00     0.000 C 
BRANCH   4   5
ATOM      5  C   UNL     1       7.509   6.452  51.480  1.00  0.00     0.001 C 
BRANCH   5   6
ATOM      6  C   UNL     1       7.334   6.365  49.953  1.00  0.00     0.009 C 
BRANCH   6   7
ATOM      7  C   UNL     1       7.868   7.619  49.234  1.00  0.00     0.032 C 
ATOM      8  C   UNL     1       8.456   7.249  47.868  1.00  0.00     0.014 C 
BRANCH   7   9
ATOM      9  C   UNL     1       6.787   8.653  49.062  1.00  0.00     0.044 C 
ATOM     10  O   UNL     1       6.418   9.350  50.043  1.00  0.00    -0.550 OA
ATOM     11  O   UNL     1       6.190   8.844  47.821  1.00  0.00    -0.550 OA
ENDBRANCH   7   9
ENDBRANCH   6   7
ENDBRANCH   5   6
ENDBRANCH   4   5
ENDBRANCH   3   4
ENDBRANCH   2   3
ENDBRANCH   1   2
BRANCH   1  12
ATOM     12  C   UNL     1       4.601   3.983  49.815  1.00  0.00     0.000 C 
BRANCH  12  13
ATOM     13  C   UNL     1       4.677   3.213  48.487  1.00  0.00    -0.000 C 
BRANCH  13  14
ATOM     14  C   UNL     1       6.093   3.206  47.884  1.00  0.00    -0.000 C 
BRANCH  14  15
ATOM     15  C   UNL     1       6.727   1.808  47.730  1.00  0.00    -0.000 C 
BRANCH  15  16
ATOM     16  C   UNL     1       6.796   0.977  49.027  1.00  0.00    -0.000 C 
BRANCH  16  17
ATOM     17  C   UNL     1       5.790  -0.190  49.107  1.00  0.00    -0.000 C 
BRANCH  17  18
ATOM     18  C   UNL     1       5.261  -0.491  50.520  1.00  0.00    -0.003 C 
ATOM     19  C   UNL     1       6.317  -0.291  51.606  1.00  0.00     0.004 C 
ENDBRANCH  17  18
ENDBRANCH  16  17
ENDBRANCH  15  16
ENDBRANCH  14  15
ENDBRANCH  13  14
ENDBRANCH  12  13
ENDBRANCH   1  12
TORSDOF 14
ENDMDL
MODEL 9
REMARK VINA RESULT:    -3.200      3.705      6.221
REMARK INTER + INTRA:          -8.620
REMARK INTER:                  -5.910
REMARK INTRA:                  -2.710
REMARK UNBOUND:                -2.801
REMARK SMILES CCCCCCCCCCCCCC[C@@H](C)C(=O)[O-]
REMARK SMILES IDX 9 1 10 2 11 3 12 4 13 5 14 6 15 7 16 8 17 9 18 10 19 11 8 12
REMARK SMILES IDX 7 13 6 14 5 15 4 16 3 17 2 18 1 19
REMARK H PARENT
REMARK Flexibility Score: inf
ROOT
ATOM      1  C   UNL     1       5.860   3.519  48.244  1.00  0.00     0.000 C 
ENDROOT
BRANCH   1   2
ATOM      2  C   UNL     1       6.670   2.412  47.544  1.00  0.00     0.000 C 
BRANCH   2   3
ATOM      3  C   UNL     1       6.804   1.145  48.411  1.00  0.00     0.000 C 
BRANCH   3   4
ATOM      4  C   UNL     1       5.643   0.934  49.405  1.00  0.00     0.000 C 
BRANCH   4   5
ATOM      5  C   UNL     1       6.001   0.046  50.613  1.00  0.00     0.001 C 
BRANCH   5   6
ATOM      6  C   UNL     1       4.942  -1.040  50.881  1.00  0.00     0.009 C 
BRANCH   6   7
ATOM      7  C   UNL     1       3.827  -1.039  49.817  1.00  0.00     0.032 C 
ATOM      8  C   UNL     1       3.659  -2.437  49.211  1.00  0.00     0.014 C 
BRANCH   7   9
ATOM      9  C   UNL     1       2.519  -0.574  50.397  1.00  0.00     0.044 C 
ATOM     10  O   UNL     1       1.492  -0.512  49.672  1.00  0.00    -0.550 OA
ATOM     11  O   UNL     1       2.435  -0.208  51.736  1.00  0.00    -0.550 OA
ENDBRANCH   7   9
ENDBRANCH   6   7
ENDBRANCH   5   6
ENDBRANCH   4   5
ENDBRANCH   3   4
ENDBRANCH   2   3
ENDBRANCH   1   2
BRANCH   1  12
ATOM     12  C   UNL     1       6.727   4.722  48.645  1.00  0.00     0.000 C 
BRANCH  12  13
ATOM     13  C   UNL     1       6.733   4.965  50.163  1.00  0.00    -0.000 C 
BRANCH  13  14
ATOM     14  C   UNL     1       7.425   3.833  50.944  1.00  0.00    -0.000 C 
BRANCH  14  15
ATOM     15  C   UNL     1       6.629   3.296  52.151  1.00  0.00    -0.000 C 
BRANCH  15  16
ATOM     16  C   UNL     1       5.225   3.907  52.331  1.00  0.00    -0.000 C 
BRANCH  16  17
ATOM     17  C   UNL     1       4.054   2.956  52.009  1.00  0.00    -0.000 C 
BRANCH  17  18
ATOM     18  C   UNL     1       3.192   3.378  50.807  1.00  0.00    -0.003 C 
ATOM     19  C   UNL     1       2.990   4.891  50.721  1.00  0.00     0.004 C 
ENDBRANCH  17  18
ENDBRANCH  16  17
ENDBRANCH  15  16
ENDBRANCH  14  15
ENDBRANCH  13  14
ENDBRANCH  12  13
ENDBRANCH   1  12
TORSDOF 14
ENDMDL
