MODEL 1
REMARK VINA RESULT:    -3.349      0.000      0.000
REMARK INTER + INTRA:          -4.507
REMARK INTER:                  -4.328
REMARK INTRA:                  -0.179
REMARK UNBOUND:                -0.179
REMARK SMILES CCCCCCC(=O)[O-]
REMARK SMILES IDX 5 1 6 2 7 3 8 4 9 5 4 6 3 7 2 8 1 9
REMARK H PARENT
REMARK Flexibility Score: inf
ROOT
ATOM      1  C   UNL     1      12.560  31.545  -9.600  1.00  0.00     0.006 C 
ENDROOT
BRANCH   1   2
ATOM      2  C   UNL     1      12.225  30.140 -10.116  1.00  0.00     0.053 C 
BRANCH   2   3
ATOM      3  C   UNL     1      11.846  29.216  -9.000  1.00  0.00     0.041 C 
ATOM      4  O   UNL     1      10.890  28.409  -9.141  1.00  0.00    -0.550 OA
ATOM      5  O   UNL     1      12.527  29.271  -7.790  1.00  0.00    -0.550 OA
ENDBRANCH   2   3
ENDBRANCH   1   2
BRANCH   1   6
ATOM      6  C   UNL     1      14.049  31.889  -9.779  1.00  0.00     0.000 C 
BRANCH   6   7
ATOM      7  C   UNL     1      14.763  32.174  -8.446  1.00  0.00    -0.000 C 
BRANCH   7   8
ATOM      8  C   UNL     1      16.204  32.697  -8.585  1.00  0.00    -0.003 C 
ATOM      9  C   UNL     1      16.324  33.869  -9.559  1.00  0.00     0.004 C 
ENDBRANCH   7   8
ENDBRANCH   6   7
ENDBRANCH   1   6
TORSDOF 5
ENDMDL
MODEL 2
REMARK VINA RESULT:    -3.302     18.770     19.957
REMARK INTER + INTRA:          -4.446
REMARK INTER:                  -4.310
REMARK INTRA:                  -0.136
REMARK UNBOUND:                -0.179
REMARK SMILES CCCCCCC(=O)[O-]
REMARK SMILES IDX 5 1 6 2 7 3 8 4 9 5 4 6 3 7 2 8 1 9
REMARK H PARENT
REMARK Flexibility Score: inf
ROOT
ATOM      1  C   UNL     1      28.368  20.143  -3.586  1.00  0.00     0.006 C 
ENDROOT
BRANCH   1   2
ATOM      2  C   UNL     1      27.944  21.147  -2.507  1.00  0.00     0.053 C 
BRANCH   2   3
ATOM      3  C   UNL     1      27.971  22.554  -3.019  1.00  0.00     0.041 C 
ATOM      4  O   UNL     1      28.733  22.869  -3.970  1.00  0.00    -0.550 OA
ATOM      5  O   UNL     1      27.179  23.527  -2.421  1.00  0.00    -0.550 OA
ENDBRANCH   2   3
ENDBRANCH   1   2
BRANCH   1   6
ATOM      6  C   UNL     1      28.651  18.748  -3.002  1.00  0.00     0.000 C 
BRANCH   6   7
ATOM      7  C   UNL     1      28.169  18.598  -1.548  1.00  0.00    -0.000 C 
BRANCH   7   8
ATOM      8  C   UNL     1      28.292  17.176  -0.972  1.00  0.00    -0.003 C 
ATOM      9  C   UNL     1      27.255  16.877   0.110  1.00  0.00     0.004 C 
ENDBRANCH   7   8
ENDBRANCH   6   7
ENDBRANCH   1   6
TORSDOF 5
ENDMDL
MODEL 3
REMARK VINA RESULT:    -3.274     18.049     19.393
REMARK INTER + INTRA:          -4.410
REMARK INTER:                  -4.333
REMARK INTRA:                  -0.077
REMARK UNBOUND:                -0.179
REMARK SMILES CCCCCCC(=O)[O-]
REMARK SMILES IDX 5 1 6 2 7 3 8 4 9 5 4 6 3 7 2 8 1 9
REMARK H PARENT
REMARK Flexibility Score: inf
ROOT
ATOM      1  C   UNL     1      28.018  21.851  -2.820  1.00  0.00     0.006 C 
ENDROOT
BRANCH   1   2
ATOM      2  C   UNL     1      28.572  23.202  -2.352  1.00  0.00     0.053 C 
BRANCH   2   3
ATOM      3  C   UNL     1      27.528  24.017  -1.652  1.00  0.00     0.041 C 
ATOM      4  O   UNL     1      27.842  24.741  -0.671  1.00  0.00    -0.550 OA
ATOM      5  O   UNL     1      26.202  23.947  -2.060  1.00  0.00    -0.550 OA
ENDBRANCH   2   3
ENDBRANCH   1   2
BRANCH   1   6
ATOM      6  C   UNL     1      28.804  20.667  -2.231  1.00  0.00     0.000 C 
BRANCH   6   7
ATOM      7  C   UNL     1      27.962  19.382  -2.124  1.00  0.00    -0.000 C 
BRANCH   7   8
ATOM      8  C   UNL     1      28.715  18.164  -1.559  1.00  0.00    -0.003 C 
ATOM      9  C   UNL     1      27.836  17.271  -0.684  1.00  0.00     0.004 C 
ENDBRANCH   7   8
ENDBRANCH   6   7
ENDBRANCH   1   6
TORSDOF 5
ENDMDL
MODEL 4
REMARK VINA RESULT:    -3.267     18.014     19.327
REMARK INTER + INTRA:          -4.400
REMARK INTER:                  -4.323
REMARK INTRA:                  -0.077
REMARK UNBOUND:                -0.179
REMARK SMILES CCCCCCC(=O)[O-]
REMARK SMILES IDX 5 1 6 2 7 3 8 4 9 5 4 6 3 7 2 8 1 9
REMARK H PARENT
REMARK Flexibility Score: inf
ROOT
ATOM      1  C   UNL     1      27.998  21.918  -2.780  1.00  0.00     0.006 C 
ENDROOT
BRANCH   1   2
ATOM      2  C   UNL     1      28.501  23.239  -2.184  1.00  0.00     0.053 C 
BRANCH   2   3
ATOM      3  C   UNL     1      27.390  24.019  -1.550  1.00  0.00     0.041 C 
ATOM      4  O   UNL     1      26.248  24.039  -2.079  1.00  0.00    -0.550 OA
ATOM      5  O   UNL     1      27.627  24.752  -0.394  1.00  0.00    -0.550 OA
ENDBRANCH   2   3
ENDBRANCH   1   2
BRANCH   1   6
ATOM      6  C   UNL     1      28.793  20.708  -2.262  1.00  0.00     0.000 C 
BRANCH   6   7
ATOM      7  C   UNL     1      27.945  19.426  -2.176  1.00  0.00    -0.000 C 
BRANCH   7   8
ATOM      8  C   UNL     1      28.720  18.168  -1.746  1.00  0.00    -0.003 C 
ATOM      9  C   UNL     1      27.971  17.327  -0.713  1.00  0.00     0.004 C 
ENDBRANCH   7   8
ENDBRANCH   6   7
ENDBRANCH   1   6
TORSDOF 5
ENDMDL
MODEL 5
REMARK VINA RESULT:    -3.181     17.804     18.960
REMARK INTER + INTRA:          -4.290
REMARK INTER:                  -4.026
REMARK INTRA:                  -0.265
REMARK UNBOUND:                -0.179
REMARK SMILES CCCCCCC(=O)[O-]
REMARK SMILES IDX 5 1 6 2 7 3 8 4 9 5 4 6 3 7 2 8 1 9
REMARK H PARENT
REMARK Flexibility Score: inf
ROOT
ATOM      1  C   UNL     1      28.652  21.240  -3.672  1.00  0.00     0.006 C 
ENDROOT
BRANCH   1   2
ATOM      2  C   UNL     1      27.889  20.571  -2.522  1.00  0.00     0.053 C 
BRANCH   2   3
ATOM      3  C   UNL     1      28.271  19.131  -2.367  1.00  0.00     0.041 C 
ATOM      4  O   UNL     1      27.902  18.482  -1.353  1.00  0.00    -0.550 OA
ATOM      5  O   UNL     1      29.066  18.515  -3.326  1.00  0.00    -0.550 OA
ENDBRANCH   2   3
ENDBRANCH   1   2
BRANCH   1   6
ATOM      6  C   UNL     1      28.654  22.773  -3.554  1.00  0.00     0.000 C 
BRANCH   6   7
ATOM      7  C   UNL     1      28.884  23.263  -2.113  1.00  0.00    -0.000 C 
BRANCH   7   8
ATOM      8  C   UNL     1      27.864  24.303  -1.615  1.00  0.00    -0.003 C 
ATOM      9  C   UNL     1      26.421  23.942  -1.967  1.00  0.00     0.004 C 
ENDBRANCH   7   8
ENDBRANCH   6   7
ENDBRANCH   1   6
TORSDOF 5
ENDMDL
MODEL 6
REMARK VINA RESULT:    -3.165     12.315     13.534
REMARK INTER + INTRA:          -4.269
REMARK INTER:                  -4.156
REMARK INTRA:                  -0.113
REMARK UNBOUND:                -0.179
REMARK SMILES CCCCCCC(=O)[O-]
REMARK SMILES IDX 5 1 6 2 7 3 8 4 9 5 4 6 3 7 2 8 1 9
REMARK H PARENT
REMARK Flexibility Score: inf
ROOT
ATOM      1  C   UNL     1      16.628  17.668  -9.734  1.00  0.00     0.006 C 
ENDROOT
BRANCH   1   2
ATOM      2  C   UNL     1      16.296  19.165  -9.716  1.00  0.00     0.053 C 
BRANCH   2   3
ATOM      3  C   UNL     1      14.818  19.405  -9.764  1.00  0.00     0.041 C 
ATOM      4  O   UNL     1      14.068  18.919  -8.878  1.00  0.00    -0.550 OA
ATOM      5  O   UNL     1      14.265  20.136 -10.808  1.00  0.00    -0.550 OA
ENDBRANCH   2   3
ENDBRANCH   1   2
BRANCH   1   6
ATOM      6  C   UNL     1      17.415  17.263 -10.991  1.00  0.00     0.000 C 
BRANCH   6   7
ATOM      7  C   UNL     1      18.766  17.991 -11.114  1.00  0.00    -0.000 C 
BRANCH   7   8
ATOM      8  C   UNL     1      19.997  17.068 -11.125  1.00  0.00    -0.003 C 
ATOM      9  C   UNL     1      21.319  17.833 -11.085  1.00  0.00     0.004 C 
ENDBRANCH   7   8
ENDBRANCH   6   7
ENDBRANCH   1   6
TORSDOF 5
ENDMDL
MODEL 7
REMARK VINA RESULT:    -3.114      2.996      5.222
REMARK INTER + INTRA:          -4.203
REMARK INTER:                  -4.087
REMARK INTRA:                  -0.116
REMARK UNBOUND:                -0.179
REMARK SMILES CCCCCCC(=O)[O-]
REMARK SMILES IDX 5 1 6 2 7 3 8 4 9 5 4 6 3 7 2 8 1 9
REMARK H PARENT
REMARK Flexibility Score: inf
ROOT
ATOM      1  C   UNL     1      14.020  31.822  -9.229  1.00  0.00     0.006 C 
ENDROOT
BRANCH   1   2
ATOM      2  C   UNL     1      14.863  32.795 -10.063  1.00  0.00     0.053 C 
BRANCH   2   3
ATOM      3  C   UNL     1      16.076  33.256  -9.316  1.00  0.00     0.041 C 
ATOM      4  O   UNL     1      16.510  32.592  -8.339  1.00  0.00    -0.550 OA
ATOM      5  O   UNL     1      16.707  34.440  -9.678  1.00  0.00    -0.550 OA
ENDBRANCH   2   3
ENDBRANCH   1   2
BRANCH   1   6
ATOM      6  C   UNL     1      12.606  31.636  -9.806  1.00  0.00     0.000 C 
BRANCH   6   7
ATOM      7  C   UNL     1      12.113  30.180  -9.729  1.00  0.00    -0.000 C 
BRANCH   7   8
ATOM      8  C   UNL     1      12.242  29.528  -8.340  1.00  0.00    -0.003 C 
ATOM      9  C   UNL     1      10.940  28.891  -7.856  1.00  0.00     0.004 C 
ENDBRANCH   7   8
ENDBRANCH   6   7
ENDBRANCH   1   6
TORSDOF 5
ENDMDL
MODEL 8
REMARK VINA RESULT:    -3.107     12.784     13.236
REMARK INTER + INTRA:          -4.194
REMARK INTER:                  -4.122
REMARK INTRA:                  -0.073
REMARK UNBOUND:                -0.179
REMARK SMILES CCCCCCC(=O)[O-]
REMARK SMILES IDX 5 1 6 2 7 3 8 4 9 5 4 6 3 7 2 8 1 9
REMARK H PARENT
REMARK Flexibility Score: inf
ROOT
ATOM      1  C   UNL     1      17.927  18.986 -11.124  1.00  0.00     0.006 C 
ENDROOT
BRANCH   1   2
ATOM      2  C   UNL     1      17.058  17.802 -10.682  1.00  0.00     0.053 C 
BRANCH   2   3
ATOM      3  C   UNL     1      16.001  18.225  -9.707  1.00  0.00     0.041 C 
ATOM      4  O   UNL     1      15.917  17.667  -8.582  1.00  0.00    -0.550 OA
ATOM      5  O   UNL     1      15.087  19.211 -10.057  1.00  0.00    -0.550 OA
ENDBRANCH   2   3
ENDBRANCH   1   2
BRANCH   1   6
ATOM      6  C   UNL     1      19.429  18.660 -11.056  1.00  0.00     0.000 C 
BRANCH   6   7
ATOM      7  C   UNL     1      20.317  19.916 -11.102  1.00  0.00    -0.000 C 
BRANCH   7   8
ATOM      8  C   UNL     1      21.829  19.640 -11.011  1.00  0.00    -0.003 C 
ATOM      9  C   UNL     1      22.530  20.489  -9.950  1.00  0.00     0.004 C 
ENDBRANCH   7   8
ENDBRANCH   6   7
ENDBRANCH   1   6
TORSDOF 5
ENDMDL
