MODEL 1
REMARK VINA RESULT:    -6.116      0.000      0.000
REMARK INTER + INTRA:          -6.474
REMARK INTER:                  -6.474
REMARK INTRA:                   0.000
REMARK UNBOUND:                 0.000
REMARK SMILES O=c1ccc2cc(O)c(O)cc2o1
REMARK SMILES IDX 4 1 3 2 2 3 1 4 13 5 12 6 11 7 9 8 7 9 6 10 5 11 8 12 10 14
REMARK H PARENT 8 13 10 15
REMARK Flexibility Score: inf
ROOT
ATOM      1  C   UNL     1       8.699  29.320   1.055  1.00  0.00     0.019 A 
ATOM      2  C   UNL     1       7.372  29.692   1.274  1.00  0.00     0.094 A 
ATOM      3  C   UNL     1       6.408  29.354   0.319  1.00  0.00     0.336 A 
ATOM      4  O   UNL     1       5.205  29.681   0.498  1.00  0.00    -0.246 OA
ATOM      5  O   UNL     1       6.752  28.688  -0.781  1.00  0.00    -0.423 OA
ATOM      6  C   UNL     1       8.006  28.315  -1.028  1.00  0.00     0.142 A 
ATOM      7  C   UNL     1       8.309  27.616  -2.200  1.00  0.00     0.098 A 
ATOM      8  C   UNL     1       9.628  27.221  -2.466  1.00  0.00     0.161 A 
ATOM      9  C   UNL     1      10.649  27.524  -1.552  1.00  0.00     0.158 A 
ATOM     10  C   UNL     1      10.350  28.225  -0.374  1.00  0.00     0.062 A 
ATOM     11  C   UNL     1       9.033  28.621  -0.109  1.00  0.00     0.022 A 
ENDROOT
BRANCH   9  12
ATOM     12  O   UNL     1      11.957  27.127  -1.824  1.00  0.00    -0.504 OA
ATOM     13  H   UNL     1      12.750  27.572  -1.377  1.00  0.00     0.293 HD
ENDBRANCH   9  12
BRANCH   8  14
ATOM     14  O   UNL     1       9.933  26.524  -3.634  1.00  0.00    -0.504 OA
ATOM     15  H   UNL     1      10.151  25.535  -3.620  1.00  0.00     0.293 HD
ENDBRANCH   8  14
TORSDOF 2
ENDMDL
MODEL 2
REMARK VINA RESULT:    -6.095      1.205      2.278
REMARK INTER + INTRA:          -6.451
REMARK INTER:                  -6.451
REMARK INTRA:                   0.000
REMARK UNBOUND:                 0.000
REMARK SMILES O=c1ccc2cc(O)c(O)cc2o1
REMARK SMILES IDX 4 1 3 2 2 3 1 4 13 5 12 6 11 7 9 8 7 9 6 10 5 11 8 12 10 14
REMARK H PARENT 8 13 10 15
REMARK Flexibility Score: inf
ROOT
ATOM      1  C   UNL     1       6.768  28.741  -0.673  1.00  0.00     0.019 A 
ATOM      2  C   UNL     1       6.539  29.437   0.514  1.00  0.00     0.094 A 
ATOM      3  C   UNL     1       7.616  29.690   1.370  1.00  0.00     0.336 A 
ATOM      4  O   UNL     1       7.429  30.317   2.446  1.00  0.00    -0.246 OA
ATOM      5  O   UNL     1       8.839  29.271   1.056  1.00  0.00    -0.423 OA
ATOM      6  C   UNL     1       9.101  28.604  -0.066  1.00  0.00     0.142 A 
ATOM      7  C   UNL     1      10.407  28.189  -0.344  1.00  0.00     0.098 A 
ATOM      8  C   UNL     1      10.688  27.485  -1.524  1.00  0.00     0.161 A 
ATOM      9  C   UNL     1       9.658  27.196  -2.431  1.00  0.00     0.158 A 
ATOM     10  C   UNL     1       8.345  27.610  -2.157  1.00  0.00     0.062 A 
ATOM     11  C   UNL     1       8.064  28.313  -0.978  1.00  0.00     0.022 A 
ENDROOT
BRANCH   9  12
ATOM     12  O   UNL     1       9.946  26.496  -3.601  1.00  0.00    -0.504 OA
ATOM     13  H   UNL     1      10.034  25.486  -3.607  1.00  0.00     0.293 HD
ENDBRANCH   9  12
BRANCH   8  14
ATOM     14  O   UNL     1      11.989  27.070  -1.803  1.00  0.00    -0.504 OA
ATOM     15  H   UNL     1      12.697  27.722  -2.121  1.00  0.00     0.293 HD
ENDBRANCH   8  14
TORSDOF 2
ENDMDL
MODEL 3
REMARK VINA RESULT:    -5.942      9.375     12.535
REMARK INTER + INTRA:          -6.289
REMARK INTER:                  -6.289
REMARK INTRA:                   0.000
REMARK UNBOUND:                 0.000
REMARK SMILES O=c1ccc2cc(O)c(O)cc2o1
REMARK SMILES IDX 4 1 3 2 2 3 1 4 13 5 12 6 11 7 9 8 7 9 6 10 5 11 8 12 10 14
REMARK H PARENT 8 13 10 15
REMARK Flexibility Score: inf
ROOT
ATOM      1  C   UNL     1       4.257  36.642   3.144  1.00  0.00     0.019 A 
ATOM      2  C   UNL     1       4.012  35.289   2.912  1.00  0.00     0.094 A 
ATOM      3  C   UNL     1       3.360  34.540   3.897  1.00  0.00     0.336 A 
ATOM      4  O   UNL     1       3.130  33.316   3.706  1.00  0.00    -0.246 OA
ATOM      5  O   UNL     1       2.978  35.111   5.036  1.00  0.00    -0.423 OA
ATOM      6  C   UNL     1       3.192  36.399   5.297  1.00  0.00     0.142 A 
ATOM      7  C   UNL     1       2.768  36.946   6.512  1.00  0.00     0.098 A 
ATOM      8  C   UNL     1       2.991  38.303   6.792  1.00  0.00     0.161 A 
ATOM      9  C   UNL     1       3.640  39.116   5.850  1.00  0.00     0.158 A 
ATOM     10  C   UNL     1       4.067  38.572   4.629  1.00  0.00     0.062 A 
ATOM     11  C   UNL     1       3.845  37.217   4.349  1.00  0.00     0.022 A 
ENDROOT
BRANCH   9  12
ATOM     12  O   UNL     1       3.856  40.462   6.137  1.00  0.00    -0.504 OA
ATOM     13  H   UNL     1       4.461  40.752   6.898  1.00  0.00     0.293 HD
ENDBRANCH   9  12
BRANCH   8  14
ATOM     14  O   UNL     1       2.570  38.850   8.002  1.00  0.00    -0.504 OA
ATOM     15  H   UNL     1       3.200  38.943   8.790  1.00  0.00     0.293 HD
ENDBRANCH   8  14
TORSDOF 2
ENDMDL
MODEL 4
REMARK VINA RESULT:    -5.903      9.388     12.537
REMARK INTER + INTRA:          -6.248
REMARK INTER:                  -6.248
REMARK INTRA:                   0.000
REMARK UNBOUND:                 0.000
REMARK SMILES O=c1ccc2cc(O)c(O)cc2o1
REMARK SMILES IDX 4 1 3 2 2 3 1 4 13 5 12 6 11 7 9 8 7 9 6 10 5 11 8 12 10 14
REMARK H PARENT 8 13 10 15
REMARK Flexibility Score: inf
ROOT
ATOM      1  C   UNL     1       3.082  35.102   4.914  1.00  0.00     0.019 A 
ATOM      2  C   UNL     1       3.519  34.627   3.678  1.00  0.00     0.094 A 
ATOM      3  C   UNL     1       4.139  35.514   2.792  1.00  0.00     0.336 A 
ATOM      4  O   UNL     1       4.540  35.104   1.671  1.00  0.00    -0.246 OA
ATOM      5  O   UNL     1       4.307  36.791   3.124  1.00  0.00    -0.423 OA
ATOM      6  C   UNL     1       3.904  37.285   4.293  1.00  0.00     0.142 A 
ATOM      7  C   UNL     1       4.108  38.636   4.588  1.00  0.00     0.098 A 
ATOM      8  C   UNL     1       3.686  39.162   5.818  1.00  0.00     0.161 A 
ATOM      9  C   UNL     1       3.057  38.331   6.757  1.00  0.00     0.158 A 
ATOM     10  C   UNL     1       2.850  36.974   6.467  1.00  0.00     0.062 A 
ATOM     11  C   UNL     1       3.271  36.448   5.238  1.00  0.00     0.022 A 
ENDROOT
BRANCH   9  12
ATOM     12  O   UNL     1       2.641  38.862   7.977  1.00  0.00    -0.504 OA
ATOM     13  H   UNL     1       3.273  39.386   8.571  1.00  0.00     0.293 HD
ENDBRANCH   9  12
BRANCH   8  14
ATOM     14  O   UNL     1       3.887  40.508   6.115  1.00  0.00    -0.504 OA
ATOM     15  H   UNL     1       4.202  41.166   5.410  1.00  0.00     0.293 HD
ENDBRANCH   8  14
TORSDOF 2
ENDMDL
MODEL 5
REMARK VINA RESULT:    -5.797      1.739      4.794
REMARK INTER + INTRA:          -6.136
REMARK INTER:                  -6.136
REMARK INTRA:                   0.000
REMARK UNBOUND:                 0.000
REMARK SMILES O=c1ccc2cc(O)c(O)cc2o1
REMARK SMILES IDX 4 1 3 2 2 3 1 4 13 5 12 6 11 7 9 8 7 9 6 10 5 11 8 12 10 14
REMARK H PARENT 8 13 10 15
REMARK Flexibility Score: inf
ROOT
ATOM      1  C   UNL     1       9.369  27.087  -1.614  1.00  0.00     0.019 A 
ATOM      2  C   UNL     1      10.648  27.162  -1.063  1.00  0.00     0.094 A 
ATOM      3  C   UNL     1      10.859  27.986   0.047  1.00  0.00     0.336 A 
ATOM      4  O   UNL     1      12.007  28.067   0.559  1.00  0.00    -0.246 OA
ATOM      5  O   UNL     1       9.855  28.686   0.569  1.00  0.00    -0.423 OA
ATOM      6  C   UNL     1       8.620  28.642   0.074  1.00  0.00     0.142 A 
ATOM      7  C   UNL     1       7.603  29.400   0.663  1.00  0.00     0.098 A 
ATOM      8  C   UNL     1       6.300  29.358   0.145  1.00  0.00     0.161 A 
ATOM      9  C   UNL     1       6.014  28.553  -0.967  1.00  0.00     0.158 A 
ATOM     10  C   UNL     1       7.030  27.791  -1.563  1.00  0.00     0.062 A 
ATOM     11  C   UNL     1       8.332  27.833  -1.047  1.00  0.00     0.022 A 
ENDROOT
BRANCH   9  12
ATOM     12  O   UNL     1       4.716  28.517  -1.475  1.00  0.00    -0.504 OA
ATOM     13  H   UNL     1       4.523  28.185  -2.413  1.00  0.00     0.293 HD
ENDBRANCH   9  12
BRANCH   8  14
ATOM     14  O   UNL     1       5.286  30.111   0.731  1.00  0.00    -0.504 OA
ATOM     15  H   UNL     1       4.810  29.800   1.570  1.00  0.00     0.293 HD
ENDBRANCH   8  14
TORSDOF 2
ENDMDL
MODEL 6
REMARK VINA RESULT:    -5.656      1.255      4.326
REMARK INTER + INTRA:          -5.987
REMARK INTER:                  -5.987
REMARK INTRA:                   0.000
REMARK UNBOUND:                 0.000
REMARK SMILES O=c1ccc2cc(O)c(O)cc2o1
REMARK SMILES IDX 4 1 3 2 2 3 1 4 13 5 12 6 11 7 9 8 7 9 6 10 5 11 8 12 10 14
REMARK H PARENT 8 13 10 15
REMARK Flexibility Score: inf
ROOT
ATOM      1  C   UNL     1      10.474  29.080   0.502  1.00  0.00     0.019 A 
ATOM      2  C   UNL     1      11.724  28.612   0.096  1.00  0.00     0.094 A 
ATOM      3  C   UNL     1      11.795  27.698  -0.960  1.00  0.00     0.336 A 
ATOM      4  O   UNL     1      12.914  27.264  -1.341  1.00  0.00    -0.246 OA
ATOM      5  O   UNL     1      10.686  27.283  -1.568  1.00  0.00    -0.423 OA
ATOM      6  C   UNL     1       9.474  27.704  -1.213  1.00  0.00     0.142 A 
ATOM      7  C   UNL     1       8.344  27.233  -1.888  1.00  0.00     0.098 A 
ATOM      8  C   UNL     1       7.065  27.674  -1.517  1.00  0.00     0.161 A 
ATOM      9  C   UNL     1       6.917  28.591  -0.466  1.00  0.00     0.158 A 
ATOM     10  C   UNL     1       8.048  29.067   0.215  1.00  0.00     0.062 A 
ATOM     11  C   UNL     1       9.326  28.627  -0.154  1.00  0.00     0.022 A 
ENDROOT
BRANCH   9  12
ATOM     12  O   UNL     1       5.643  29.024  -0.104  1.00  0.00    -0.504 OA
ATOM     13  H   UNL     1       5.469  29.980   0.183  1.00  0.00     0.293 HD
ENDBRANCH   9  12
BRANCH   8  14
ATOM     14  O   UNL     1       5.938  27.206  -2.188  1.00  0.00    -0.504 OA
ATOM     15  H   UNL     1       5.013  27.572  -1.991  1.00  0.00     0.293 HD
ENDBRANCH   8  14
TORSDOF 2
ENDMDL
MODEL 7
REMARK VINA RESULT:    -5.635      1.777      2.724
REMARK INTER + INTRA:          -5.964
REMARK INTER:                  -5.964
REMARK INTRA:                   0.000
REMARK UNBOUND:                 0.000
REMARK SMILES O=c1ccc2cc(O)c(O)cc2o1
REMARK SMILES IDX 4 1 3 2 2 3 1 4 13 5 12 6 11 7 9 8 7 9 6 10 5 11 8 12 10 14
REMARK H PARENT 8 13 10 15
REMARK Flexibility Score: inf
ROOT
ATOM      1  C   UNL     1       8.291  30.316   1.522  1.00  0.00     0.019 A 
ATOM      2  C   UNL     1       7.445  31.126   2.279  1.00  0.00     0.094 A 
ATOM      3  C   UNL     1       6.064  31.036   2.080  1.00  0.00     0.336 A 
ATOM      4  O   UNL     1       5.284  31.759   2.754  1.00  0.00    -0.246 OA
ATOM      5  O   UNL     1       5.566  30.191   1.181  1.00  0.00    -0.423 OA
ATOM      6  C   UNL     1       6.337  29.401   0.437  1.00  0.00     0.142 A 
ATOM      7  C   UNL     1       5.758  28.532  -0.492  1.00  0.00     0.098 A 
ATOM      8  C   UNL     1       6.567  27.698  -1.278  1.00  0.00     0.161 A 
ATOM      9  C   UNL     1       7.961  27.733  -1.132  1.00  0.00     0.158 A 
ATOM     10  C   UNL     1       8.548  28.603  -0.201  1.00  0.00     0.062 A 
ATOM     11  C   UNL     1       7.741  29.437   0.584  1.00  0.00     0.022 A 
ENDROOT
BRANCH   9  12
ATOM     12  O   UNL     1       8.757  26.900  -1.917  1.00  0.00    -0.504 OA
ATOM     13  H   UNL     1       9.736  27.103  -2.082  1.00  0.00     0.293 HD
ENDBRANCH   9  12
BRANCH   8  14
ATOM     14  O   UNL     1       5.992  26.830  -2.205  1.00  0.00    -0.504 OA
ATOM     15  H   UNL     1       6.254  25.853  -2.250  1.00  0.00     0.293 HD
ENDBRANCH   8  14
TORSDOF 2
ENDMDL
MODEL 8
REMARK VINA RESULT:    -5.629      7.670     10.605
REMARK INTER + INTRA:          -5.958
REMARK INTER:                  -5.958
REMARK INTRA:                   0.000
REMARK UNBOUND:                 0.000
REMARK SMILES O=c1ccc2cc(O)c(O)cc2o1
REMARK SMILES IDX 4 1 3 2 2 3 1 4 13 5 12 6 11 7 9 8 7 9 6 10 5 11 8 12 10 14
REMARK H PARENT 8 13 10 15
REMARK Flexibility Score: inf
ROOT
ATOM      1  C   UNL     1       0.816  29.068   1.671  1.00  0.00     0.019 A 
ATOM      2  C   UNL     1       1.963  28.489   2.215  1.00  0.00     0.094 A 
ATOM      3  C   UNL     1       2.493  29.015   3.396  1.00  0.00     0.336 A 
ATOM      4  O   UNL     1       3.528  28.506   3.903  1.00  0.00    -0.246 OA
ATOM      5  O   UNL     1       1.912  30.053   3.993  1.00  0.00    -0.423 OA
ATOM      6  C   UNL     1       0.817  30.636   3.508  1.00  0.00     0.142 A 
ATOM      7  C   UNL     1       0.250  31.724   4.177  1.00  0.00     0.098 A 
ATOM      8  C   UNL     1      -0.903  32.342   3.671  1.00  0.00     0.161 A 
ATOM      9  C   UNL     1      -1.492  31.866   2.489  1.00  0.00     0.158 A 
ATOM     10  C   UNL     1      -0.926  30.775   1.813  1.00  0.00     0.062 A 
ATOM     11  C   UNL     1       0.226  30.158   2.318  1.00  0.00     0.022 A 
ENDROOT
BRANCH   9  12
ATOM     12  O   UNL     1      -2.637  32.486   1.993  1.00  0.00    -0.504 OA
ATOM     13  H   UNL     1      -2.882  33.435   2.253  1.00  0.00     0.293 HD
ENDBRANCH   9  12
BRANCH   8  14
ATOM     14  O   UNL     1      -1.471  33.426   4.336  1.00  0.00    -0.504 OA
ATOM     15  H   UNL     1      -1.356  33.556   5.334  1.00  0.00     0.293 HD
ENDBRANCH   8  14
TORSDOF 2
ENDMDL
MODEL 9
REMARK VINA RESULT:    -5.587      1.091      4.602
REMARK INTER + INTRA:          -5.913
REMARK INTER:                  -5.913
REMARK INTRA:                   0.000
REMARK UNBOUND:                 0.000
REMARK SMILES O=c1ccc2cc(O)c(O)cc2o1
REMARK SMILES IDX 4 1 3 2 2 3 1 4 13 5 12 6 11 7 9 8 7 9 6 10 5 11 8 12 10 14
REMARK H PARENT 8 13 10 15
REMARK Flexibility Score: inf
ROOT
ATOM      1  C   UNL     1      10.011  28.264  -0.077  1.00  0.00     0.019 A 
ATOM      2  C   UNL     1      10.308  27.490  -1.198  1.00  0.00     0.094 A 
ATOM      3  C   UNL     1       9.287  27.190  -2.104  1.00  0.00     0.336 A 
ATOM      4  O   UNL     1       9.536  26.492  -3.123  1.00  0.00    -0.246 OA
ATOM      5  O   UNL     1       8.051  27.637  -1.900  1.00  0.00    -0.423 OA
ATOM      6  C   UNL     1       7.724  28.378  -0.843  1.00  0.00     0.142 A 
ATOM      7  C   UNL     1       6.408  28.821  -0.680  1.00  0.00     0.098 A 
ATOM      8  C   UNL     1       6.058  29.602   0.431  1.00  0.00     0.161 A 
ATOM      9  C   UNL     1       7.031  29.944   1.383  1.00  0.00     0.158 A 
ATOM     10  C   UNL     1       8.354  29.503   1.224  1.00  0.00     0.062 A 
ATOM     11  C   UNL     1       8.703  28.721   0.114  1.00  0.00     0.022 A 
ENDROOT
BRANCH   9  12
ATOM     12  O   UNL     1       6.675  30.721   2.483  1.00  0.00    -0.504 OA
ATOM     13  H   UNL     1       5.854  31.315   2.469  1.00  0.00     0.293 HD
ENDBRANCH   9  12
BRANCH   8  14
ATOM     14  O   UNL     1       4.747  30.044   0.596  1.00  0.00    -0.504 OA
ATOM     15  H   UNL     1       4.164  30.283  -0.197  1.00  0.00     0.293 HD
ENDBRANCH   8  14
TORSDOF 2
ENDMDL
