MODEL 1
REMARK VINA RESULT:    -4.070      0.000      0.000
REMARK INTER + INTRA:          -6.917
REMARK INTER:                  -6.330
REMARK INTRA:                  -0.587
REMARK UNBOUND:                -0.587
REMARK SMILES COc1cc(CNC(=O)CCCCC=CC(C)C)ccc1O
REMARK SMILES IDX 11 1 12 2 13 3 14 4 15 5 16 6 17 7 18 8 10 9 8 10 9 11 7 12
REMARK SMILES IDX 6 14 5 15 4 16 19 17 3 18 20 19 21 20 2 21 1 22 22 23
REMARK H PARENT 7 13 22 24
REMARK Flexibility Score: inf
ROOT
ATOM      1  C   UNL     1      85.425  31.636  64.300  1.00  0.00     0.010 C 
ENDROOT
BRANCH   1   2
ATOM      2  C   UNL     1      84.505  32.306  65.330  1.00  0.00     0.005 C 
BRANCH   2   3
ATOM      3  C   UNL     1      84.282  31.428  66.571  1.00  0.00     0.027 C 
BRANCH   3   4
ATOM      4  C   UNL     1      84.817  32.083  67.820  1.00  0.00    -0.031 C 
ATOM      5  C   UNL     1      86.105  32.372  68.096  1.00  0.00    -0.028 C 
BRANCH   5   6
ATOM      6  C   UNL     1      87.319  32.213  67.196  1.00  0.00     0.005 C 
ATOM      7  C   UNL     1      88.006  30.854  67.374  1.00  0.00     0.012 C 
ATOM      8  C   UNL     1      88.305  33.386  67.269  1.00  0.00     0.012 C 
ENDBRANCH   5   6
ENDBRANCH   3   4
ENDBRANCH   2   3
ENDBRANCH   1   2
BRANCH   1   9
ATOM      9  C   UNL     1      86.523  32.596  63.836  1.00  0.00     0.100 C 
BRANCH   9  10
ATOM     10  C   UNL     1      87.857  31.919  63.893  1.00  0.00     0.220 C 
ATOM     11  O   UNL     1      88.903  32.615  64.011  1.00  0.00    -0.275 OA
ATOM     12  N   UNL     1      87.937  30.486  63.874  1.00  0.00    -0.352 N 
ATOM     13  H   UNL     1      87.063  29.936  63.713  1.00  0.00     0.163 HD
BRANCH  12  14
ATOM     14  C   UNL     1      89.124  29.767  64.326  1.00  0.00     0.151 C 
BRANCH  14  15
ATOM     15  C   UNL     1      88.931  28.290  64.112  1.00  0.00    -0.025 A 
ATOM     16  C   UNL     1      89.087  27.731  62.834  1.00  0.00     0.056 A 
ATOM     17  C   UNL     1      88.674  27.451  65.204  1.00  0.00     0.009 A 
ATOM     18  C   UNL     1      88.969  26.341  62.639  1.00  0.00     0.160 A 
ATOM     19  C   UNL     1      88.550  26.073  65.019  1.00  0.00     0.050 A 
ATOM     20  C   UNL     1      88.693  25.515  63.745  1.00  0.00     0.157 A 
BRANCH  18  21
ATOM     21  O   UNL     1      89.123  25.752  61.374  1.00  0.00    -0.493 OA
ATOM     22  C   UNL     1      88.159  24.906  60.754  1.00  0.00     0.278 C 
ENDBRANCH  18  21
BRANCH  20  23
ATOM     23  O   UNL     1      88.560  24.133  63.597  1.00  0.00    -0.504 OA
ATOM     24  H   UNL     1      88.797  23.657  62.736  1.00  0.00     0.293 HD
ENDBRANCH  20  23
ENDBRANCH  14  15
ENDBRANCH  12  14
ENDBRANCH   9  10
ENDBRANCH   1   9
TORSDOF 10
ENDMDL
MODEL 2
REMARK VINA RESULT:    -3.983     15.553     18.103
REMARK INTER + INTRA:          -6.783
REMARK INTER:                  -6.237
REMARK INTRA:                  -0.545
REMARK UNBOUND:                -0.587
REMARK SMILES COc1cc(CNC(=O)CCCCC=CC(C)C)ccc1O
REMARK SMILES IDX 11 1 12 2 13 3 14 4 15 5 16 6 17 7 18 8 10 9 8 10 9 11 7 12
REMARK SMILES IDX 6 14 5 15 4 16 19 17 3 18 20 19 21 20 2 21 1 22 22 23
REMARK H PARENT 7 13 22 24
REMARK Flexibility Score: inf
ROOT
ATOM      1  C   UNL     1      78.009  36.125  51.316  1.00  0.00     0.010 C 
ENDROOT
BRANCH   1   2
ATOM      2  C   UNL     1      78.803  36.107  50.003  1.00  0.00     0.005 C 
BRANCH   2   3
ATOM      3  C   UNL     1      80.314  35.948  50.237  1.00  0.00     0.027 C 
BRANCH   3   4
ATOM      4  C   UNL     1      80.829  34.645  49.679  1.00  0.00    -0.031 C 
ATOM      5  C   UNL     1      81.252  33.572  50.380  1.00  0.00    -0.028 C 
BRANCH   5   6
ATOM      6  C   UNL     1      81.220  33.361  51.885  1.00  0.00     0.005 C 
ATOM      7  C   UNL     1      80.127  32.375  52.314  1.00  0.00     0.012 C 
ATOM      8  C   UNL     1      81.191  34.663  52.695  1.00  0.00     0.012 C 
ENDBRANCH   5   6
ENDBRANCH   3   4
ENDBRANCH   2   3
ENDBRANCH   1   2
BRANCH   1   9
ATOM      9  C   UNL     1      77.379  34.757  51.597  1.00  0.00     0.100 C 
BRANCH   9  10
ATOM     10  C   UNL     1      76.117  34.923  52.386  1.00  0.00     0.220 C 
ATOM     11  O   UNL     1      75.922  35.992  53.027  1.00  0.00    -0.275 OA
ATOM     12  N   UNL     1      75.115  33.897  52.362  1.00  0.00    -0.352 N 
ATOM     13  H   UNL     1      75.329  32.996  51.876  1.00  0.00     0.163 HD
BRANCH  12  14
ATOM     14  C   UNL     1      73.732  34.151  52.755  1.00  0.00     0.151 C 
BRANCH  14  15
ATOM     15  C   UNL     1      73.558  33.842  54.217  1.00  0.00    -0.025 A 
ATOM     16  C   UNL     1      72.584  34.512  54.973  1.00  0.00     0.056 A 
ATOM     17  C   UNL     1      74.315  32.825  54.814  1.00  0.00     0.009 A 
ATOM     18  C   UNL     1      72.375  34.182  56.327  1.00  0.00     0.160 A 
ATOM     19  C   UNL     1      74.118  32.496  56.157  1.00  0.00     0.050 A 
ATOM     20  C   UNL     1      73.156  33.170  56.915  1.00  0.00     0.157 A 
BRANCH  18  21
ATOM     21  O   UNL     1      71.405  34.831  57.109  1.00  0.00    -0.493 OA
ATOM     22  C   UNL     1      70.022  34.909  56.779  1.00  0.00     0.278 C 
ENDBRANCH  18  21
BRANCH  20  23
ATOM     23  O   UNL     1      72.987  32.816  58.255  1.00  0.00    -0.504 OA
ATOM     24  H   UNL     1      72.159  32.337  58.587  1.00  0.00     0.293 HD
ENDBRANCH  20  23
ENDBRANCH  14  15
ENDBRANCH  12  14
ENDBRANCH   9  10
ENDBRANCH   1   9
TORSDOF 10
ENDMDL
MODEL 3
REMARK VINA RESULT:    -3.249      2.844      7.463
REMARK INTER + INTRA:          -5.641
REMARK INTER:                  -5.082
REMARK INTRA:                  -0.559
REMARK UNBOUND:                -0.587
REMARK SMILES COc1cc(CNC(=O)CCCCC=CC(C)C)ccc1O
REMARK SMILES IDX 11 1 12 2 13 3 14 4 15 5 16 6 17 7 18 8 10 9 8 10 9 11 7 12
REMARK SMILES IDX 6 14 5 15 4 16 19 17 3 18 20 19 21 20 2 21 1 22 22 23
REMARK H PARENT 7 13 22 24
REMARK Flexibility Score: inf
ROOT
ATOM      1  C   UNL     1      86.225  28.017  64.373  1.00  0.00     0.010 C 
ENDROOT
BRANCH   1   2
ATOM      2  C   UNL     1      86.730  26.925  65.328  1.00  0.00     0.005 C 
BRANCH   2   3
ATOM      3  C   UNL     1      88.044  26.292  64.846  1.00  0.00     0.027 C 
BRANCH   3   4
ATOM      4  C   UNL     1      88.606  27.017  63.650  1.00  0.00    -0.031 C 
ATOM      5  C   UNL     1      88.959  26.476  62.465  1.00  0.00    -0.028 C 
BRANCH   5   6
ATOM      6  C   UNL     1      88.786  25.040  61.998  1.00  0.00     0.005 C 
ATOM      7  C   UNL     1      88.982  24.889  60.485  1.00  0.00     0.012 C 
ATOM      8  C   UNL     1      87.495  24.377  62.494  1.00  0.00     0.012 C 
ENDBRANCH   5   6
ENDBRANCH   3   4
ENDBRANCH   2   3
ENDBRANCH   1   2
BRANCH   1   9
ATOM      9  C   UNL     1      84.697  28.115  64.409  1.00  0.00     0.100 C 
BRANCH   9  10
ATOM     10  C   UNL     1      84.274  29.550  64.460  1.00  0.00     0.220 C 
ATOM     11  O   UNL     1      83.113  29.842  64.857  1.00  0.00    -0.275 OA
ATOM     12  N   UNL     1      85.205  30.586  64.114  1.00  0.00    -0.352 N 
ATOM     13  H   UNL     1      86.138  30.315  63.728  1.00  0.00     0.163 HD
BRANCH  12  14
ATOM     14  C   UNL     1      85.009  31.975  64.519  1.00  0.00     0.151 C 
BRANCH  14  15
ATOM     15  C   UNL     1      86.125  32.396  65.435  1.00  0.00    -0.025 A 
ATOM     16  C   UNL     1      87.113  33.287  64.989  1.00  0.00     0.056 A 
ATOM     17  C   UNL     1      86.139  31.963  66.768  1.00  0.00     0.009 A 
ATOM     18  C   UNL     1      88.125  33.733  65.862  1.00  0.00     0.160 A 
ATOM     19  C   UNL     1      87.142  32.395  67.638  1.00  0.00     0.050 A 
ATOM     20  C   UNL     1      88.134  33.274  67.192  1.00  0.00     0.157 A 
BRANCH  18  21
ATOM     21  O   UNL     1      89.125  34.627  65.446  1.00  0.00    -0.493 OA
ATOM     22  C   UNL     1      88.936  35.658  64.482  1.00  0.00     0.278 C 
ENDBRANCH  18  21
BRANCH  20  23
ATOM     23  O   UNL     1      89.122  33.684  68.089  1.00  0.00    -0.504 OA
ATOM     24  H   UNL     1      90.109  33.591  67.885  1.00  0.00     0.293 HD
ENDBRANCH  20  23
ENDBRANCH  14  15
ENDBRANCH  12  14
ENDBRANCH   9  10
ENDBRANCH   1   9
TORSDOF 10
ENDMDL
MODEL 4
REMARK VINA RESULT:    -3.036      2.155      6.155
REMARK INTER + INTRA:          -5.309
REMARK INTER:                  -4.342
REMARK INTRA:                  -0.967
REMARK UNBOUND:                -0.587
REMARK SMILES COc1cc(CNC(=O)CCCCC=CC(C)C)ccc1O
REMARK SMILES IDX 11 1 12 2 13 3 14 4 15 5 16 6 17 7 18 8 10 9 8 10 9 11 7 12
REMARK SMILES IDX 6 14 5 15 4 16 19 17 3 18 20 19 21 20 2 21 1 22 22 23
REMARK H PARENT 7 13 22 24
REMARK Flexibility Score: inf
ROOT
ATOM      1  C   UNL     1      86.390  26.701  63.962  1.00  0.00     0.010 C 
ENDROOT
BRANCH   1   2
ATOM      2  C   UNL     1      85.337  27.408  64.828  1.00  0.00     0.005 C 
BRANCH   2   3
ATOM      3  C   UNL     1      85.350  28.932  64.634  1.00  0.00     0.027 C 
BRANCH   3   4
ATOM      4  C   UNL     1      83.953  29.498  64.580  1.00  0.00    -0.031 C 
ATOM      5  C   UNL     1      83.561  30.729  64.968  1.00  0.00    -0.028 C 
BRANCH   5   6
ATOM      6  C   UNL     1      84.424  31.882  65.452  1.00  0.00     0.005 C 
ATOM      7  C   UNL     1      85.260  32.501  64.325  1.00  0.00     0.012 C 
ATOM      8  C   UNL     1      85.262  31.552  66.693  1.00  0.00     0.012 C 
ENDBRANCH   5   6
ENDBRANCH   3   4
ENDBRANCH   2   3
ENDBRANCH   1   2
BRANCH   1   9
ATOM      9  C   UNL     1      87.780  26.796  64.599  1.00  0.00     0.100 C 
BRANCH   9  10
ATOM     10  C   UNL     1      88.556  27.915  63.977  1.00  0.00     0.220 C 
ATOM     11  O   UNL     1      89.125  27.734  62.866  1.00  0.00    -0.275 OA
ATOM     12  N   UNL     1      88.600  29.200  64.614  1.00  0.00    -0.352 N 
ATOM     13  H   UNL     1      88.174  29.306  65.563  1.00  0.00     0.163 HD
BRANCH  12  14
ATOM     14  C   UNL     1      88.976  30.413  63.893  1.00  0.00     0.151 C 
BRANCH  14  15
ATOM     15  C   UNL     1      89.061  31.566  64.856  1.00  0.00    -0.025 A 
ATOM     16  C   UNL     1      89.017  32.888  64.388  1.00  0.00     0.056 A 
ATOM     17  C   UNL     1      89.102  31.325  66.236  1.00  0.00     0.009 A 
ATOM     18  C   UNL     1      89.032  33.970  65.290  1.00  0.00     0.160 A 
ATOM     19  C   UNL     1      89.125  32.392  67.137  1.00  0.00     0.050 A 
ATOM     20  C   UNL     1      89.093  33.710  66.672  1.00  0.00     0.157 A 
BRANCH  18  21
ATOM     21  O   UNL     1      88.986  35.303  64.852  1.00  0.00    -0.493 OA
ATOM     22  C   UNL     1      87.812  35.959  64.383  1.00  0.00     0.278 C 
ENDBRANCH  18  21
BRANCH  20  23
ATOM     23  O   UNL     1      89.118  34.751  67.601  1.00  0.00    -0.504 OA
ATOM     24  H   UNL     1      88.309  34.997  68.159  1.00  0.00     0.293 HD
ENDBRANCH  20  23
ENDBRANCH  14  15
ENDBRANCH  12  14
ENDBRANCH   9  10
ENDBRANCH   1   9
TORSDOF 10
ENDMDL
MODEL 5
REMARK VINA RESULT:    -2.964     15.384     17.985
REMARK INTER + INTRA:          -5.198
REMARK INTER:                  -4.931
REMARK INTRA:                  -0.267
REMARK UNBOUND:                -0.587
REMARK SMILES COc1cc(CNC(=O)CCCCC=CC(C)C)ccc1O
REMARK SMILES IDX 11 1 12 2 13 3 14 4 15 5 16 6 17 7 18 8 10 9 8 10 9 11 7 12
REMARK SMILES IDX 6 14 5 15 4 16 19 17 3 18 20 19 21 20 2 21 1 22 22 23
REMARK H PARENT 7 13 22 24
REMARK Flexibility Score: inf
ROOT
ATOM      1  C   UNL     1      78.559  36.125  51.443  1.00  0.00     0.010 C 
ENDROOT
BRANCH   1   2
ATOM      2  C   UNL     1      78.913  35.837  49.977  1.00  0.00     0.005 C 
BRANCH   2   3
ATOM      3  C   UNL     1      80.430  35.832  49.733  1.00  0.00     0.027 C 
BRANCH   3   4
ATOM      4  C   UNL     1      80.936  34.451  49.400  1.00  0.00    -0.031 C 
ATOM      5  C   UNL     1      81.116  33.424  50.257  1.00  0.00    -0.028 C 
BRANCH   5   6
ATOM      6  C   UNL     1      80.764  33.358  51.734  1.00  0.00     0.005 C 
ATOM      7  C   UNL     1      81.780  34.100  52.611  1.00  0.00     0.012 C 
ATOM      8  C   UNL     1      80.472  31.940  52.241  1.00  0.00     0.012 C 
ENDBRANCH   5   6
ENDBRANCH   3   4
ENDBRANCH   2   3
ENDBRANCH   1   2
BRANCH   1   9
ATOM      9  C   UNL     1      77.048  36.035  51.672  1.00  0.00     0.100 C 
BRANCH   9  10
ATOM     10  C   UNL     1      76.668  34.640  52.062  1.00  0.00     0.220 C 
ATOM     11  O   UNL     1      77.539  33.728  52.031  1.00  0.00    -0.275 OA
ATOM     12  N   UNL     1      75.339  34.360  52.523  1.00  0.00    -0.352 N 
ATOM     13  H   UNL     1      74.621  35.118  52.479  1.00  0.00     0.163 HD
BRANCH  12  14
ATOM     14  C   UNL     1      75.017  33.156  53.285  1.00  0.00     0.151 C 
BRANCH  14  15
ATOM     15  C   UNL     1      73.996  33.485  54.340  1.00  0.00    -0.025 A 
ATOM     16  C   UNL     1      74.068  32.890  55.609  1.00  0.00     0.056 A 
ATOM     17  C   UNL     1      73.013  34.451  54.086  1.00  0.00     0.009 A 
ATOM     18  C   UNL     1      73.151  33.242  56.619  1.00  0.00     0.160 A 
ATOM     19  C   UNL     1      72.097  34.801  55.081  1.00  0.00     0.050 A 
ATOM     20  C   UNL     1      72.160  34.201  56.342  1.00  0.00     0.157 A 
BRANCH  18  21
ATOM     21  O   UNL     1      73.200  32.667  57.899  1.00  0.00    -0.493 OA
ATOM     22  C   UNL     1      73.226  33.406  59.116  1.00  0.00     0.278 C 
ENDBRANCH  18  21
BRANCH  20  23
ATOM     23  O   UNL     1      71.227  34.574  57.311  1.00  0.00    -0.504 OA
ATOM     24  H   UNL     1      70.915  33.937  58.034  1.00  0.00     0.293 HD
ENDBRANCH  20  23
ENDBRANCH  14  15
ENDBRANCH  12  14
ENDBRANCH   9  10
ENDBRANCH   1   9
TORSDOF 10
ENDMDL
MODEL 6
REMARK VINA RESULT:    -2.892     15.701     18.082
REMARK INTER + INTRA:          -5.086
REMARK INTER:                  -3.939
REMARK INTRA:                  -1.147
REMARK UNBOUND:                -0.587
REMARK SMILES COc1cc(CNC(=O)CCCCC=CC(C)C)ccc1O
REMARK SMILES IDX 11 1 12 2 13 3 14 4 15 5 16 6 17 7 18 8 10 9 8 10 9 11 7 12
REMARK SMILES IDX 6 14 5 15 4 16 19 17 3 18 20 19 21 20 2 21 1 22 22 23
REMARK H PARENT 7 13 22 24
REMARK Flexibility Score: inf
ROOT
ATOM      1  C   UNL     1      77.715  33.238  51.627  1.00  0.00     0.010 C 
ENDROOT
BRANCH   1   2
ATOM      2  C   UNL     1      78.671  32.818  52.753  1.00  0.00     0.005 C 
BRANCH   2   3
ATOM      3  C   UNL     1      80.089  32.531  52.239  1.00  0.00     0.027 C 
BRANCH   3   4
ATOM      4  C   UNL     1      80.956  33.765  52.277  1.00  0.00    -0.031 C 
ATOM      5  C   UNL     1      81.152  34.650  51.277  1.00  0.00    -0.028 C 
BRANCH   5   6
ATOM      6  C   UNL     1      80.484  34.692  49.913  1.00  0.00     0.005 C 
ATOM      7  C   UNL     1      81.260  33.897  48.857  1.00  0.00     0.012 C 
ATOM      8  C   UNL     1      80.125  36.106  49.441  1.00  0.00     0.012 C 
ENDBRANCH   5   6
ENDBRANCH   3   4
ENDBRANCH   2   3
ENDBRANCH   1   2
BRANCH   1   9
ATOM      9  C   UNL     1      77.360  34.724  51.732  1.00  0.00     0.100 C 
BRANCH   9  10
ATOM     10  C   UNL     1      76.105  34.898  52.530  1.00  0.00     0.220 C 
ATOM     11  O   UNL     1      75.937  35.953  53.201  1.00  0.00    -0.275 OA
ATOM     12  N   UNL     1      75.078  33.897  52.481  1.00  0.00    -0.352 N 
ATOM     13  H   UNL     1      75.269  33.006  51.969  1.00  0.00     0.163 HD
BRANCH  12  14
ATOM     14  C   UNL     1      73.703  34.173  52.885  1.00  0.00     0.151 C 
BRANCH  14  15
ATOM     15  C   UNL     1      73.530  33.845  54.343  1.00  0.00    -0.025 A 
ATOM     16  C   UNL     1      72.507  34.447  55.091  1.00  0.00     0.056 A 
ATOM     17  C   UNL     1      74.342  32.872  54.943  1.00  0.00     0.009 A 
ATOM     18  C   UNL     1      72.302  34.096  56.440  1.00  0.00     0.160 A 
ATOM     19  C   UNL     1      74.149  32.523  56.282  1.00  0.00     0.050 A 
ATOM     20  C   UNL     1      73.138  33.131  57.032  1.00  0.00     0.157 A 
BRANCH  18  21
ATOM     21  O   UNL     1      71.285  34.678  57.213  1.00  0.00    -0.493 OA
ATOM     22  C   UNL     1      69.986  35.002  56.727  1.00  0.00     0.278 C 
ENDBRANCH  18  21
BRANCH  20  23
ATOM     23  O   UNL     1      72.975  32.758  58.367  1.00  0.00    -0.504 OA
ATOM     24  H   UNL     1      72.075  32.497  58.750  1.00  0.00     0.293 HD
ENDBRANCH  20  23
ENDBRANCH  14  15
ENDBRANCH  12  14
ENDBRANCH   9  10
ENDBRANCH   1   9
TORSDOF 10
ENDMDL
MODEL 7
REMARK VINA RESULT:    -2.611     15.274     17.189
REMARK INTER + INTRA:          -4.649
REMARK INTER:                  -3.993
REMARK INTRA:                  -0.656
REMARK UNBOUND:                -0.587
REMARK SMILES COc1cc(CNC(=O)CCCCC=CC(C)C)ccc1O
REMARK SMILES IDX 11 1 12 2 13 3 14 4 15 5 16 6 17 7 18 8 10 9 8 10 9 11 7 12
REMARK SMILES IDX 6 14 5 15 4 16 19 17 3 18 20 19 21 20 2 21 1 22 22 23
REMARK H PARENT 7 13 22 24
REMARK Flexibility Score: inf
ROOT
ATOM      1  C   UNL     1      74.032  33.604  53.956  1.00  0.00     0.010 C 
ENDROOT
BRANCH   1   2
ATOM      2  C   UNL     1      72.584  33.960  54.323  1.00  0.00     0.005 C 
BRANCH   2   3
ATOM      3  C   UNL     1      72.508  35.008  55.444  1.00  0.00     0.027 C 
BRANCH   3   4
ATOM      4  C   UNL     1      71.506  34.619  56.502  1.00  0.00    -0.031 C 
ATOM      5  C   UNL     1      71.756  33.958  57.652  1.00  0.00    -0.028 C 
BRANCH   5   6
ATOM      6  C   UNL     1      73.101  33.534  58.220  1.00  0.00     0.005 C 
ATOM      7  C   UNL     1      73.781  32.455  57.369  1.00  0.00     0.012 C 
ATOM      8  C   UNL     1      73.059  33.170  59.710  1.00  0.00     0.012 C 
ENDBRANCH   5   6
ENDBRANCH   3   4
ENDBRANCH   2   3
ENDBRANCH   1   2
BRANCH   1   9
ATOM      9  C   UNL     1      74.368  34.064  52.535  1.00  0.00     0.100 C 
BRANCH   9  10
ATOM     10  C   UNL     1      75.325  35.215  52.579  1.00  0.00     0.220 C 
ATOM     11  O   UNL     1      75.203  36.090  53.480  1.00  0.00    -0.275 OA
ATOM     12  N   UNL     1      76.406  35.287  51.638  1.00  0.00    -0.352 N 
ATOM     13  H   UNL     1      76.447  34.586  50.864  1.00  0.00     0.163 HD
BRANCH  12  14
ATOM     14  C   UNL     1      77.580  36.125  51.864  1.00  0.00     0.151 C 
BRANCH  14  15
ATOM     15  C   UNL     1      78.775  35.512  51.187  1.00  0.00    -0.025 A 
ATOM     16  C   UNL     1      79.472  34.455  51.792  1.00  0.00     0.056 A 
ATOM     17  C   UNL     1      79.151  35.941  49.906  1.00  0.00     0.009 A 
ATOM     18  C   UNL     1      80.552  33.836  51.133  1.00  0.00     0.160 A 
ATOM     19  C   UNL     1      80.225  35.337  49.249  1.00  0.00     0.050 A 
ATOM     20  C   UNL     1      80.928  34.291  49.856  1.00  0.00     0.157 A 
BRANCH  18  21
ATOM     21  O   UNL     1      81.266  32.775  51.712  1.00  0.00    -0.493 OA
ATOM     22  C   UNL     1      80.671  31.697  52.428  1.00  0.00     0.278 C 
ENDBRANCH  18  21
BRANCH  20  23
ATOM     23  O   UNL     1      81.997  33.713  49.169  1.00  0.00    -0.504 OA
ATOM     24  H   UNL     1      82.131  32.710  49.126  1.00  0.00     0.293 HD
ENDBRANCH  20  23
ENDBRANCH  14  15
ENDBRANCH  12  14
ENDBRANCH   9  10
ENDBRANCH   1   9
TORSDOF 10
ENDMDL
MODEL 8
REMARK VINA RESULT:    -2.436     15.143     17.808
REMARK INTER + INTRA:          -4.376
REMARK INTER:                  -4.054
REMARK INTRA:                  -0.322
REMARK UNBOUND:                -0.587
REMARK SMILES COc1cc(CNC(=O)CCCCC=CC(C)C)ccc1O
REMARK SMILES IDX 11 1 12 2 13 3 14 4 15 5 16 6 17 7 18 8 10 9 8 10 9 11 7 12
REMARK SMILES IDX 6 14 5 15 4 16 19 17 3 18 20 19 21 20 2 21 1 22 22 23
REMARK H PARENT 7 13 22 24
REMARK Flexibility Score: inf
ROOT
ATOM      1  C   UNL     1      79.933  31.931  52.156  1.00  0.00     0.010 C 
ENDROOT
BRANCH   1   2
ATOM      2  C   UNL     1      81.252  32.570  52.613  1.00  0.00     0.005 C 
BRANCH   2   3
ATOM      3  C   UNL     1      81.629  33.797  51.769  1.00  0.00     0.027 C 
BRANCH   3   4
ATOM      4  C   UNL     1      81.259  35.085  52.462  1.00  0.00    -0.031 C 
ATOM      5  C   UNL     1      80.498  36.083  51.965  1.00  0.00    -0.028 C 
BRANCH   5   6
ATOM      6  C   UNL     1      79.745  36.125  50.647  1.00  0.00     0.005 C 
ATOM      7  C   UNL     1      78.267  35.749  50.805  1.00  0.00     0.012 C 
ATOM      8  C   UNL     1      80.432  35.351  49.514  1.00  0.00     0.012 C 
ENDBRANCH   5   6
ENDBRANCH   3   4
ENDBRANCH   2   3
ENDBRANCH   1   2
BRANCH   1   9
ATOM      9  C   UNL     1      78.794  32.271  53.122  1.00  0.00     0.100 C 
BRANCH   9  10
ATOM     10  C   UNL     1      77.495  32.342  52.380  1.00  0.00     0.220 C 
ATOM     11  O   UNL     1      77.069  31.321  51.775  1.00  0.00    -0.275 OA
ATOM     12  N   UNL     1      76.716  33.547  52.411  1.00  0.00    -0.352 N 
ATOM     13  H   UNL     1      77.121  34.397  52.865  1.00  0.00     0.163 HD
BRANCH  12  14
ATOM     14  C   UNL     1      75.296  33.564  52.071  1.00  0.00     0.151 C 
BRANCH  14  15
ATOM     15  C   UNL     1      74.511  34.144  53.215  1.00  0.00    -0.025 A 
ATOM     16  C   UNL     1      73.992  33.309  54.217  1.00  0.00     0.056 A 
ATOM     17  C   UNL     1      74.361  35.533  53.330  1.00  0.00     0.009 A 
ATOM     18  C   UNL     1      73.310  33.854  55.323  1.00  0.00     0.160 A 
ATOM     19  C   UNL     1      73.681  36.080  54.420  1.00  0.00     0.050 A 
ATOM     20  C   UNL     1      73.154  35.249  55.413  1.00  0.00     0.157 A 
BRANCH  18  21
ATOM     21  O   UNL     1      72.783  33.045  56.343  1.00  0.00    -0.493 OA
ATOM     22  C   UNL     1      73.388  32.858  57.618  1.00  0.00     0.278 C 
ENDBRANCH  18  21
BRANCH  20  23
ATOM     23  O   UNL     1      72.479  35.832  56.487  1.00  0.00    -0.504 OA
ATOM     24  H   UNL     1      72.879  35.876  57.416  1.00  0.00     0.293 HD
ENDBRANCH  20  23
ENDBRANCH  14  15
ENDBRANCH  12  14
ENDBRANCH   9  10
ENDBRANCH   1   9
TORSDOF 10
ENDMDL
