MODEL 1
REMARK VINA RESULT:    22.026      0.000      0.000
REMARK INTER + INTRA:          49.843
REMARK INTER:                  50.353
REMARK INTRA:                  -0.511
REMARK UNBOUND:                -0.511
REMARK SMILES CCCCCCCCCCCCCCCCCCCCCCCC(=O)[O-]
REMARK SMILES IDX 13 1 14 2 15 3 16 4 17 5 18 6 19 7 20 8 21 9 22 10 23 11
REMARK SMILES IDX 24 12 25 13 26 14 12 15 11 16 10 17 9 18 8 19 7 20 6 21 5 22
REMARK SMILES IDX 4 23 3 24 2 25 1 26
REMARK H PARENT
REMARK Flexibility Score: inf
ROOT
ATOM      1  C   UNL     1      -8.678 -12.993  21.137  1.00  0.00     0.000 C 
ENDROOT
BRANCH   1   2
ATOM      2  C   UNL     1      -7.625 -13.207  22.241  1.00  0.00     0.000 C 
BRANCH   2   3
ATOM      3  C   UNL     1      -7.307 -11.930  23.040  1.00  0.00     0.000 C 
BRANCH   3   4
ATOM      4  C   UNL     1      -6.274 -12.181  24.156  1.00  0.00     0.000 C 
BRANCH   4   5
ATOM      5  C   UNL     1      -6.123 -10.965  25.089  1.00  0.00     0.000 C 
BRANCH   5   6
ATOM      6  C   UNL     1      -5.828  -9.653  24.332  1.00  0.00     0.000 C 
BRANCH   6   7
ATOM      7  C   UNL     1      -4.737  -8.791  25.000  1.00  0.00     0.000 C 
BRANCH   7   8
ATOM      8  C   UNL     1      -3.321  -9.223  24.585  1.00  0.00     0.000 C 
BRANCH   8   9
ATOM      9  C   UNL     1      -2.594  -8.151  23.757  1.00  0.00     0.000 C 
BRANCH   9  10
ATOM     10  C   UNL     1      -1.196  -7.818  24.311  1.00  0.00     0.006 C 
BRANCH  10  11
ATOM     11  C   UNL     1      -0.602  -8.982  25.117  1.00  0.00     0.053 C 
BRANCH  11  12
ATOM     12  C   UNL     1       0.324  -8.497  26.191  1.00  0.00     0.041 C 
ATOM     13  O   UNL     1       0.672  -7.287  26.231  1.00  0.00    -0.550 OA
ATOM     14  O   UNL     1       0.837  -9.391  27.123  1.00  0.00    -0.550 OA
ENDBRANCH  11  12
ENDBRANCH  10  11
ENDBRANCH   9  10
ENDBRANCH   8   9
ENDBRANCH   7   8
ENDBRANCH   6   7
ENDBRANCH   5   6
ENDBRANCH   4   5
ENDBRANCH   3   4
ENDBRANCH   2   3
ENDBRANCH   1   2
BRANCH   1  15
ATOM     15  C   UNL     1      -8.567 -14.031  20.008  1.00  0.00     0.000 C 
BRANCH  15  16
ATOM     16  C   UNL     1      -8.846 -13.387  18.646  1.00  0.00     0.000 C 
BRANCH  16  17
ATOM     17  C   UNL     1      -8.672 -14.400  17.505  1.00  0.00     0.000 C 
BRANCH  17  18
ATOM     18  C   UNL     1      -9.785 -15.461  17.543  1.00  0.00    -0.000 C 
BRANCH  18  19
ATOM     19  C   UNL     1      -9.568 -16.504  18.649  1.00  0.00    -0.000 C 
BRANCH  19  20
ATOM     20  C   UNL     1     -10.403 -17.776  18.435  1.00  0.00    -0.000 C 
BRANCH  20  21
ATOM     21  C   UNL     1      -9.990 -18.527  17.152  1.00  0.00    -0.000 C 
BRANCH  21  22
ATOM     22  C   UNL     1      -8.536 -19.029  17.171  1.00  0.00    -0.000 C 
BRANCH  22  23
ATOM     23  C   UNL     1      -7.962 -19.254  15.765  1.00  0.00    -0.000 C 
BRANCH  23  24
ATOM     24  C   UNL     1      -6.486 -19.662  15.833  1.00  0.00    -0.000 C 
BRANCH  24  25
ATOM     25  C   UNL     1      -6.133 -20.646  14.712  1.00  0.00    -0.003 C 
ATOM     26  C   UNL     1      -5.645 -19.913  13.466  1.00  0.00     0.004 C 
ENDBRANCH  24  25
ENDBRANCH  23  24
ENDBRANCH  22  23
ENDBRANCH  21  22
ENDBRANCH  20  21
ENDBRANCH  19  20
ENDBRANCH  18  19
ENDBRANCH  17  18
ENDBRANCH  16  17
ENDBRANCH  15  16
ENDBRANCH   1  15
TORSDOF 22
ENDMDL
MODEL 2
REMARK VINA RESULT:    22.799      4.386      5.690
REMARK INTER + INTRA:          51.612
REMARK INTER:                  51.606
REMARK INTRA:                   0.005
REMARK UNBOUND:                -0.511
REMARK SMILES CCCCCCCCCCCCCCCCCCCCCCCC(=O)[O-]
REMARK SMILES IDX 13 1 14 2 15 3 16 4 17 5 18 6 19 7 20 8 21 9 22 10 23 11
REMARK SMILES IDX 24 12 25 13 26 14 12 15 11 16 10 17 9 18 8 19 7 20 6 21 5 22
REMARK SMILES IDX 4 23 3 24 2 25 1 26
REMARK H PARENT
REMARK Flexibility Score: inf
ROOT
ATOM      1  C   UNL     1      -8.989 -13.349  20.648  1.00  0.00     0.000 C 
ENDROOT
BRANCH   1   2
ATOM      2  C   UNL     1      -7.927 -13.484  21.756  1.00  0.00     0.000 C 
BRANCH   2   3
ATOM      3  C   UNL     1      -7.550 -12.142  22.410  1.00  0.00     0.000 C 
BRANCH   3   4
ATOM      4  C   UNL     1      -6.397 -12.288  23.421  1.00  0.00     0.000 C 
BRANCH   4   5
ATOM      5  C   UNL     1      -6.827 -11.902  24.849  1.00  0.00     0.000 C 
BRANCH   5   6
ATOM      6  C   UNL     1      -6.463 -12.969  25.902  1.00  0.00     0.000 C 
BRANCH   6   7
ATOM      7  C   UNL     1      -5.448 -14.012  25.393  1.00  0.00     0.000 C 
BRANCH   7   8
ATOM      8  C   UNL     1      -4.955 -14.939  26.518  1.00  0.00     0.000 C 
BRANCH   8   9
ATOM      9  C   UNL     1      -4.574 -16.338  26.008  1.00  0.00     0.000 C 
BRANCH   9  10
ATOM     10  C   UNL     1      -5.672 -17.386  26.266  1.00  0.00     0.006 C 
BRANCH  10  11
ATOM     11  C   UNL     1      -5.488 -18.640  25.400  1.00  0.00     0.053 C 
BRANCH  11  12
ATOM     12  C   UNL     1      -5.549 -18.317  23.938  1.00  0.00     0.041 C 
ATOM     13  O   UNL     1      -4.622 -17.662  23.393  1.00  0.00    -0.550 OA
ATOM     14  O   UNL     1      -6.652 -18.703  23.185  1.00  0.00    -0.550 OA
ENDBRANCH  11  12
ENDBRANCH  10  11
ENDBRANCH   9  10
ENDBRANCH   8   9
ENDBRANCH   7   8
ENDBRANCH   6   7
ENDBRANCH   5   6
ENDBRANCH   4   5
ENDBRANCH   3   4
ENDBRANCH   2   3
ENDBRANCH   1   2
BRANCH   1  15
ATOM     15  C   UNL     1      -8.817 -14.398  19.537  1.00  0.00     0.000 C 
BRANCH  15  16
ATOM     16  C   UNL     1      -9.051 -13.773  18.156  1.00  0.00     0.000 C 
BRANCH  16  17
ATOM     17  C   UNL     1      -9.949 -14.665  17.288  1.00  0.00     0.000 C 
BRANCH  17  18
ATOM     18  C   UNL     1      -9.378 -16.088  17.191  1.00  0.00    -0.000 C 
BRANCH  18  19
ATOM     19  C   UNL     1      -9.896 -17.009  18.305  1.00  0.00    -0.000 C 
BRANCH  19  20
ATOM     20  C   UNL     1     -10.304 -18.396  17.786  1.00  0.00    -0.000 C 
BRANCH  20  21
ATOM     21  C   UNL     1      -9.311 -18.933  16.733  1.00  0.00    -0.000 C 
BRANCH  21  22
ATOM     22  C   UNL     1      -7.837 -18.673  17.087  1.00  0.00    -0.000 C 
BRANCH  22  23
ATOM     23  C   UNL     1      -6.896 -19.770  16.572  1.00  0.00    -0.000 C 
BRANCH  23  24
ATOM     24  C   UNL     1      -6.100 -19.283  15.355  1.00  0.00    -0.000 C 
BRANCH  24  25
ATOM     25  C   UNL     1      -6.618 -19.929  14.064  1.00  0.00    -0.003 C 
ATOM     26  C   UNL     1      -5.619 -20.943  13.514  1.00  0.00     0.004 C 
ENDBRANCH  24  25
ENDBRANCH  23  24
ENDBRANCH  22  23
ENDBRANCH  21  22
ENDBRANCH  20  21
ENDBRANCH  19  20
ENDBRANCH  18  19
ENDBRANCH  17  18
ENDBRANCH  16  17
ENDBRANCH  15  16
ENDBRANCH   1  15
TORSDOF 22
ENDMDL
MODEL 3
REMARK VINA RESULT:    23.847      5.285     13.091
REMARK INTER + INTRA:          54.006
REMARK INTER:                  54.515
REMARK INTRA:                  -0.509
REMARK UNBOUND:                -0.511
REMARK SMILES CCCCCCCCCCCCCCCCCCCCCCCC(=O)[O-]
REMARK SMILES IDX 13 1 14 2 15 3 16 4 17 5 18 6 19 7 20 8 21 9 22 10 23 11
REMARK SMILES IDX 24 12 25 13 26 14 12 15 11 16 10 17 9 18 8 19 7 20 6 21 5 22
REMARK SMILES IDX 4 23 3 24 2 25 1 26
REMARK H PARENT
REMARK Flexibility Score: inf
ROOT
ATOM      1  C   UNL     1      -7.934 -13.378  21.899  1.00  0.00     0.000 C 
ENDROOT
BRANCH   1   2
ATOM      2  C   UNL     1      -8.814 -13.238  20.642  1.00  0.00     0.000 C 
BRANCH   2   3
ATOM      3  C   UNL     1      -8.640 -14.396  19.642  1.00  0.00     0.000 C 
BRANCH   3   4
ATOM      4  C   UNL     1      -8.921 -13.960  18.191  1.00  0.00     0.000 C 
BRANCH   4   5
ATOM      5  C   UNL     1      -9.766 -14.999  17.428  1.00  0.00     0.000 C 
BRANCH   5   6
ATOM      6  C   UNL     1      -9.782 -16.384  18.107  1.00  0.00     0.000 C 
BRANCH   6   7
ATOM      7  C   UNL     1      -9.796 -17.558  17.107  1.00  0.00     0.000 C 
BRANCH   7   8
ATOM      8  C   UNL     1      -8.838 -18.687  17.524  1.00  0.00     0.000 C 
BRANCH   8   9
ATOM      9  C   UNL     1      -7.514 -18.657  16.745  1.00  0.00     0.000 C 
BRANCH   9  10
ATOM     10  C   UNL     1      -7.493 -19.648  15.567  1.00  0.00     0.006 C 
BRANCH  10  11
ATOM     11  C   UNL     1      -6.067 -20.088  15.208  1.00  0.00     0.053 C 
BRANCH  11  12
ATOM     12  C   UNL     1      -5.822 -20.025  13.731  1.00  0.00     0.041 C 
ATOM     13  O   UNL     1      -5.870 -18.921  13.126  1.00  0.00    -0.550 OA
ATOM     14  O   UNL     1      -5.584 -21.192  13.014  1.00  0.00    -0.550 OA
ENDBRANCH  11  12
ENDBRANCH  10  11
ENDBRANCH   9  10
ENDBRANCH   8   9
ENDBRANCH   7   8
ENDBRANCH   6   7
ENDBRANCH   5   6
ENDBRANCH   4   5
ENDBRANCH   3   4
ENDBRANCH   2   3
ENDBRANCH   1   2
BRANCH   1  15
ATOM     15  C   UNL     1      -7.474 -12.017  22.449  1.00  0.00     0.000 C 
BRANCH  15  16
ATOM     16  C   UNL     1      -6.767 -12.186  23.799  1.00  0.00     0.000 C 
BRANCH  16  17
ATOM     17  C   UNL     1      -5.515 -11.303  23.885  1.00  0.00     0.000 C 
BRANCH  17  18
ATOM     18  C   UNL     1      -5.887  -9.861  24.269  1.00  0.00    -0.000 C 
BRANCH  18  19
ATOM     19  C   UNL     1      -4.919  -9.255  25.294  1.00  0.00    -0.000 C 
BRANCH  19  20
ATOM     20  C   UNL     1      -3.728  -8.541  24.634  1.00  0.00    -0.000 C 
BRANCH  20  21
ATOM     21  C   UNL     1      -2.647  -9.537  24.166  1.00  0.00    -0.000 C 
BRANCH  21  22
ATOM     22  C   UNL     1      -1.236  -9.203  24.680  1.00  0.00    -0.000 C 
BRANCH  22  23
ATOM     23  C   UNL     1      -0.955  -7.695  24.721  1.00  0.00    -0.000 C 
BRANCH  23  24
ATOM     24  C   UNL     1       0.417  -7.409  25.343  1.00  0.00    -0.000 C 
BRANCH  24  25
ATOM     25  C   UNL     1       0.459  -7.849  26.811  1.00  0.00    -0.003 C 
ATOM     26  C   UNL     1       0.988  -9.274  26.946  1.00  0.00     0.004 C 
ENDBRANCH  24  25
ENDBRANCH  23  24
ENDBRANCH  22  23
ENDBRANCH  21  22
ENDBRANCH  20  21
ENDBRANCH  19  20
ENDBRANCH  18  19
ENDBRANCH  17  18
ENDBRANCH  16  17
ENDBRANCH  15  16
ENDBRANCH   1  15
TORSDOF 22
ENDMDL
MODEL 4
REMARK VINA RESULT:    23.981      5.919     11.365
REMARK INTER + INTRA:          54.313
REMARK INTER:                  55.003
REMARK INTRA:                  -0.690
REMARK UNBOUND:                -0.511
REMARK SMILES CCCCCCCCCCCCCCCCCCCCCCCC(=O)[O-]
REMARK SMILES IDX 13 1 14 2 15 3 16 4 17 5 18 6 19 7 20 8 21 9 22 10 23 11
REMARK SMILES IDX 24 12 25 13 26 14 12 15 11 16 10 17 9 18 8 19 7 20 6 21 5 22
REMARK SMILES IDX 4 23 3 24 2 25 1 26
REMARK H PARENT
REMARK Flexibility Score: inf
ROOT
ATOM      1  C   UNL     1      -8.954 -13.174  20.584  1.00  0.00     0.000 C 
ENDROOT
BRANCH   1   2
ATOM      2  C   UNL     1      -8.577 -13.797  19.226  1.00  0.00     0.000 C 
BRANCH   2   3
ATOM      3  C   UNL     1      -9.611 -13.526  18.118  1.00  0.00     0.000 C 
BRANCH   3   4
ATOM      4  C   UNL     1      -9.413 -14.444  16.897  1.00  0.00     0.000 C 
BRANCH   4   5
ATOM      5  C   UNL     1      -9.000 -15.871  17.306  1.00  0.00     0.000 C 
BRANCH   5   6
ATOM      6  C   UNL     1      -9.977 -16.521  18.308  1.00  0.00     0.000 C 
BRANCH   6   7
ATOM      7  C   UNL     1     -10.292 -17.996  17.990  1.00  0.00     0.000 C 
BRANCH   7   8
ATOM      8  C   UNL     1      -9.032 -18.787  17.597  1.00  0.00     0.000 C 
BRANCH   8   9
ATOM      9  C   UNL     1      -8.988 -19.121  16.097  1.00  0.00     0.000 C 
BRANCH   9  10
ATOM     10  C   UNL     1      -7.557 -19.118  15.528  1.00  0.00     0.006 C 
BRANCH  10  11
ATOM     11  C   UNL     1      -7.414 -20.056  14.321  1.00  0.00     0.053 C 
BRANCH  11  12
ATOM     12  C   UNL     1      -6.031 -20.011  13.745  1.00  0.00     0.041 C 
ATOM     13  O   UNL     1      -5.254 -20.993  13.882  1.00  0.00    -0.550 OA
ATOM     14  O   UNL     1      -5.585 -18.867  13.094  1.00  0.00    -0.550 OA
ENDBRANCH  11  12
ENDBRANCH  10  11
ENDBRANCH   9  10
ENDBRANCH   8   9
ENDBRANCH   7   8
ENDBRANCH   6   7
ENDBRANCH   5   6
ENDBRANCH   4   5
ENDBRANCH   3   4
ENDBRANCH   2   3
ENDBRANCH   1   2
BRANCH   1  15
ATOM     15  C   UNL     1      -7.902 -13.449  21.670  1.00  0.00     0.000 C 
BRANCH  15  16
ATOM     16  C   UNL     1      -7.726 -12.228  22.580  1.00  0.00     0.000 C 
BRANCH  16  17
ATOM     17  C   UNL     1      -6.434 -12.329  23.402  1.00  0.00     0.000 C 
BRANCH  17  18
ATOM     18  C   UNL     1      -6.680 -11.910  24.861  1.00  0.00    -0.000 C 
BRANCH  18  19
ATOM     19  C   UNL     1      -6.253 -12.990  25.865  1.00  0.00    -0.000 C 
BRANCH  19  20
ATOM     20  C   UNL     1      -5.579 -14.194  25.189  1.00  0.00    -0.000 C 
BRANCH  20  21
ATOM     21  C   UNL     1      -4.635 -14.942  26.154  1.00  0.00    -0.000 C 
BRANCH  21  22
ATOM     22  C   UNL     1      -5.276 -16.178  26.809  1.00  0.00    -0.000 C 
BRANCH  22  23
ATOM     23  C   UNL     1      -5.117 -17.451  25.967  1.00  0.00    -0.000 C 
BRANCH  23  24
ATOM     24  C   UNL     1      -4.582 -17.120  24.568  1.00  0.00    -0.000 C 
BRANCH  24  25
ATOM     25  C   UNL     1      -5.250 -17.995  23.501  1.00  0.00    -0.003 C 
ATOM     26  C   UNL     1      -6.229 -18.983  24.130  1.00  0.00     0.004 C 
ENDBRANCH  24  25
ENDBRANCH  23  24
ENDBRANCH  22  23
ENDBRANCH  21  22
ENDBRANCH  20  21
ENDBRANCH  19  20
ENDBRANCH  18  19
ENDBRANCH  17  18
ENDBRANCH  16  17
ENDBRANCH  15  16
ENDBRANCH   1  15
TORSDOF 22
ENDMDL
MODEL 5
REMARK VINA RESULT:    24.316      5.382     12.280
REMARK INTER + INTRA:          55.080
REMARK INTER:                  56.189
REMARK INTRA:                  -1.109
REMARK UNBOUND:                -0.511
REMARK SMILES CCCCCCCCCCCCCCCCCCCCCCCC(=O)[O-]
REMARK SMILES IDX 13 1 14 2 15 3 16 4 17 5 18 6 19 7 20 8 21 9 22 10 23 11
REMARK SMILES IDX 24 12 25 13 26 14 12 15 11 16 10 17 9 18 8 19 7 20 6 21 5 22
REMARK SMILES IDX 4 23 3 24 2 25 1 26
REMARK H PARENT
REMARK Flexibility Score: inf
ROOT
ATOM      1  C   UNL     1      -7.205 -13.200  22.162  1.00  0.00     0.000 C 
ENDROOT
BRANCH   1   2
ATOM      2  C   UNL     1      -8.496 -12.881  21.385  1.00  0.00     0.000 C 
BRANCH   2   3
ATOM      3  C   UNL     1      -8.902 -13.985  20.391  1.00  0.00     0.000 C 
BRANCH   3   4
ATOM      4  C   UNL     1      -8.859 -13.499  18.929  1.00  0.00     0.000 C 
BRANCH   4   5
ATOM      5  C   UNL     1      -8.441 -14.621  17.959  1.00  0.00     0.000 C 
BRANCH   5   6
ATOM      6  C   UNL     1      -9.626 -15.493  17.494  1.00  0.00     0.000 C 
BRANCH   6   7
ATOM      7  C   UNL     1     -10.076 -16.528  18.545  1.00  0.00     0.000 C 
BRANCH   7   8
ATOM      8  C   UNL     1      -9.960 -17.971  18.025  1.00  0.00     0.000 C 
BRANCH   8   9
ATOM      9  C   UNL     1      -9.088 -18.077  16.764  1.00  0.00     0.000 C 
BRANCH   9  10
ATOM     10  C   UNL     1      -8.309 -19.403  16.689  1.00  0.00     0.006 C 
BRANCH  10  11
ATOM     11  C   UNL     1      -6.893 -19.209  16.127  1.00  0.00     0.053 C 
BRANCH  11  12
ATOM     12  C   UNL     1      -6.773 -19.741  14.731  1.00  0.00     0.041 C 
ATOM     13  O   UNL     1      -5.645 -20.048  14.263  1.00  0.00    -0.550 OA
ATOM     14  O   UNL     1      -7.904 -19.858  13.931  1.00  0.00    -0.550 OA
ENDBRANCH  11  12
ENDBRANCH  10  11
ENDBRANCH   9  10
ENDBRANCH   8   9
ENDBRANCH   7   8
ENDBRANCH   6   7
ENDBRANCH   5   6
ENDBRANCH   4   5
ENDBRANCH   3   4
ENDBRANCH   2   3
ENDBRANCH   1   2
BRANCH   1  15
ATOM     15  C   UNL     1      -7.128 -12.459  23.507  1.00  0.00     0.000 C 
BRANCH  15  16
ATOM     16  C   UNL     1      -6.286 -11.184  23.380  1.00  0.00     0.000 C 
BRANCH  16  17
ATOM     17  C   UNL     1      -5.781 -10.712  24.750  1.00  0.00     0.000 C 
BRANCH  17  18
ATOM     18  C   UNL     1      -5.743  -9.177  24.820  1.00  0.00    -0.000 C 
BRANCH  18  19
ATOM     19  C   UNL     1      -4.350  -8.636  25.172  1.00  0.00    -0.000 C 
BRANCH  19  20
ATOM     20  C   UNL     1      -3.250  -9.185  24.249  1.00  0.00    -0.000 C 
BRANCH  20  21
ATOM     21  C   UNL     1      -2.316  -8.067  23.739  1.00  0.00    -0.000 C 
BRANCH  21  22
ATOM     22  C   UNL     1      -3.063  -6.876  23.114  1.00  0.00    -0.000 C 
BRANCH  22  23
ATOM     23  C   UNL     1      -3.585  -7.172  21.701  1.00  0.00    -0.000 C 
BRANCH  23  24
ATOM     24  C   UNL     1      -2.452  -7.094  20.671  1.00  0.00    -0.000 C 
BRANCH  24  25
ATOM     25  C   UNL     1      -2.979  -7.342  19.252  1.00  0.00    -0.003 C 
ATOM     26  C   UNL     1      -4.432  -7.806  19.276  1.00  0.00     0.004 C 
ENDBRANCH  24  25
ENDBRANCH  23  24
ENDBRANCH  22  23
ENDBRANCH  21  22
ENDBRANCH  20  21
ENDBRANCH  19  20
ENDBRANCH  18  19
ENDBRANCH  17  18
ENDBRANCH  16  17
ENDBRANCH  15  16
ENDBRANCH   1  15
TORSDOF 22
ENDMDL
MODEL 6
REMARK VINA RESULT:    24.472      2.683      3.291
REMARK INTER + INTRA:          55.434
REMARK INTER:                  56.602
REMARK INTRA:                  -1.168
REMARK UNBOUND:                -0.511
REMARK SMILES CCCCCCCCCCCCCCCCCCCCCCCC(=O)[O-]
REMARK SMILES IDX 13 1 14 2 15 3 16 4 17 5 18 6 19 7 20 8 21 9 22 10 23 11
REMARK SMILES IDX 24 12 25 13 26 14 12 15 11 16 10 17 9 18 8 19 7 20 6 21 5 22
REMARK SMILES IDX 4 23 3 24 2 25 1 26
REMARK H PARENT
REMARK Flexibility Score: inf
ROOT
ATOM      1  C   UNL     1      -7.648 -13.250  21.904  1.00  0.00     0.000 C 
ENDROOT
BRANCH   1   2
ATOM      2  C   UNL     1      -7.652 -12.197  23.028  1.00  0.00     0.000 C 
BRANCH   2   3
ATOM      3  C   UNL     1      -6.302 -12.078  23.761  1.00  0.00     0.000 C 
BRANCH   3   4
ATOM      4  C   UNL     1      -5.760 -10.635  23.755  1.00  0.00     0.000 C 
BRANCH   4   5
ATOM      5  C   UNL     1      -5.794  -9.999  25.158  1.00  0.00     0.000 C 
BRANCH   5   6
ATOM      6  C   UNL     1      -4.848  -8.788  25.297  1.00  0.00     0.000 C 
BRANCH   6   7
ATOM      7  C   UNL     1      -3.529  -8.945  24.514  1.00  0.00     0.000 C 
BRANCH   7   8
ATOM      8  C   UNL     1      -3.247  -7.739  23.603  1.00  0.00     0.000 C 
BRANCH   8   9
ATOM      9  C   UNL     1      -1.794  -7.702  23.103  1.00  0.00     0.000 C 
BRANCH   9  10
ATOM     10  C   UNL     1      -1.693  -7.708  21.566  1.00  0.00     0.006 C 
BRANCH  10  11
ATOM     11  C   UNL     1      -2.889  -7.006  20.907  1.00  0.00     0.053 C 
BRANCH  11  12
ATOM     12  C   UNL     1      -3.236  -7.626  19.587  1.00  0.00     0.041 C 
ATOM     13  O   UNL     1      -4.352  -7.395  19.051  1.00  0.00    -0.550 OA
ATOM     14  O   UNL     1      -2.343  -8.494  18.969  1.00  0.00    -0.550 OA
ENDBRANCH  11  12
ENDBRANCH  10  11
ENDBRANCH   9  10
ENDBRANCH   8   9
ENDBRANCH   7   8
ENDBRANCH   6   7
ENDBRANCH   5   6
ENDBRANCH   4   5
ENDBRANCH   3   4
ENDBRANCH   2   3
ENDBRANCH   1   2
BRANCH   1  15
ATOM     15  C   UNL     1      -8.912 -13.184  21.031  1.00  0.00     0.000 C 
BRANCH  15  16
ATOM     16  C   UNL     1      -8.891 -14.279  19.958  1.00  0.00     0.000 C 
BRANCH  16  17
ATOM     17  C   UNL     1      -8.957 -13.676  18.548  1.00  0.00     0.000 C 
BRANCH  17  18
ATOM     18  C   UNL     1      -9.593 -14.667  17.559  1.00  0.00    -0.000 C 
BRANCH  18  19
ATOM     19  C   UNL     1      -8.948 -16.059  17.622  1.00  0.00    -0.000 C 
BRANCH  19  20
ATOM     20  C   UNL     1      -9.985 -17.189  17.723  1.00  0.00    -0.000 C 
BRANCH  20  21
ATOM     21  C   UNL     1      -9.421 -18.535  17.221  1.00  0.00    -0.000 C 
BRANCH  21  22
ATOM     22  C   UNL     1      -7.917 -18.713  17.491  1.00  0.00    -0.000 C 
BRANCH  22  23
ATOM     23  C   UNL     1      -7.159 -19.292  16.289  1.00  0.00    -0.000 C 
BRANCH  23  24
ATOM     24  C   UNL     1      -8.118 -19.603  15.133  1.00  0.00    -0.000 C 
BRANCH  24  25
ATOM     25  C   UNL     1      -7.373 -19.642  13.794  1.00  0.00    -0.003 C 
ATOM     26  C   UNL     1      -5.879 -19.879  13.999  1.00  0.00     0.004 C 
ENDBRANCH  24  25
ENDBRANCH  23  24
ENDBRANCH  22  23
ENDBRANCH  21  22
ENDBRANCH  20  21
ENDBRANCH  19  20
ENDBRANCH  18  19
ENDBRANCH  17  18
ENDBRANCH  16  17
ENDBRANCH  15  16
ENDBRANCH   1  15
TORSDOF 22
ENDMDL
MODEL 7
REMARK VINA RESULT:    24.482      3.307      4.593
REMARK INTER + INTRA:          55.458
REMARK INTER:                  56.558
REMARK INTRA:                  -1.100
REMARK UNBOUND:                -0.511
REMARK SMILES CCCCCCCCCCCCCCCCCCCCCCCC(=O)[O-]
REMARK SMILES IDX 13 1 14 2 15 3 16 4 17 5 18 6 19 7 20 8 21 9 22 10 23 11
REMARK SMILES IDX 24 12 25 13 26 14 12 15 11 16 10 17 9 18 8 19 7 20 6 21 5 22
REMARK SMILES IDX 4 23 3 24 2 25 1 26
REMARK H PARENT
REMARK Flexibility Score: inf
ROOT
ATOM      1  C   UNL     1      -8.953 -13.169  21.080  1.00  0.00     0.000 C 
ENDROOT
BRANCH   1   2
ATOM      2  C   UNL     1      -7.673 -13.386  21.909  1.00  0.00     0.000 C 
BRANCH   2   3
ATOM      3  C   UNL     1      -7.175 -12.109  22.612  1.00  0.00     0.000 C 
BRANCH   3   4
ATOM      4  C   UNL     1      -6.425 -12.419  23.922  1.00  0.00     0.000 C 
BRANCH   4   5
ATOM      5  C   UNL     1      -6.345 -11.190  24.847  1.00  0.00     0.000 C 
BRANCH   5   6
ATOM      6  C   UNL     1      -5.389 -10.098  24.324  1.00  0.00     0.000 C 
BRANCH   6   7
ATOM      7  C   UNL     1      -5.119  -8.976  25.347  1.00  0.00     0.000 C 
BRANCH   7   8
ATOM      8  C   UNL     1      -3.640  -8.557  25.374  1.00  0.00     0.000 C 
BRANCH   8   9
ATOM      9  C   UNL     1      -3.009  -8.526  23.973  1.00  0.00     0.000 C 
BRANCH   9  10
ATOM     10  C   UNL     1      -1.472  -8.427  24.013  1.00  0.00     0.006 C 
BRANCH  10  11
ATOM     11  C   UNL     1      -0.871  -9.257  25.157  1.00  0.00     0.053 C 
BRANCH  11  12
ATOM     12  C   UNL     1       0.114  -8.462  25.959  1.00  0.00     0.041 C 
ATOM     13  O   UNL     1       0.578  -8.925  27.034  1.00  0.00    -0.550 OA
ATOM     14  O   UNL     1       0.488  -7.190  25.541  1.00  0.00    -0.550 OA
ENDBRANCH  11  12
ENDBRANCH  10  11
ENDBRANCH   9  10
ENDBRANCH   8   9
ENDBRANCH   7   8
ENDBRANCH   6   7
ENDBRANCH   5   6
ENDBRANCH   4   5
ENDBRANCH   3   4
ENDBRANCH   2   3
ENDBRANCH   1   2
BRANCH   1  15
ATOM     15  C   UNL     1      -9.121 -14.221  19.971  1.00  0.00     0.000 C 
BRANCH  15  16
ATOM     16  C   UNL     1      -8.625 -13.679  18.625  1.00  0.00     0.000 C 
BRANCH  16  17
ATOM     17  C   UNL     1      -9.154 -14.524  17.457  1.00  0.00     0.000 C 
BRANCH  17  18
ATOM     18  C   UNL     1     -10.550 -14.047  17.026  1.00  0.00    -0.000 C 
BRANCH  18  19
ATOM     19  C   UNL     1     -10.623 -13.711  15.530  1.00  0.00    -0.000 C 
BRANCH  19  20
ATOM     20  C   UNL     1      -9.239 -13.669  14.864  1.00  0.00    -0.000 C 
BRANCH  20  21
ATOM     21  C   UNL     1      -9.158 -12.584  13.770  1.00  0.00    -0.000 C 
BRANCH  21  22
ATOM     22  C   UNL     1      -9.034 -13.151  12.346  1.00  0.00    -0.000 C 
BRANCH  22  23
ATOM     23  C   UNL     1     -10.393 -13.474  11.710  1.00  0.00    -0.000 C 
BRANCH  23  24
ATOM     24  C   UNL     1     -11.202 -12.195  11.465  1.00  0.00    -0.000 C 
BRANCH  24  25
ATOM     25  C   UNL     1     -12.250 -12.407  10.366  1.00  0.00    -0.003 C 
ATOM     26  C   UNL     1     -12.830 -13.818  10.420  1.00  0.00     0.004 C 
ENDBRANCH  24  25
ENDBRANCH  23  24
ENDBRANCH  22  23
ENDBRANCH  21  22
ENDBRANCH  20  21
ENDBRANCH  19  20
ENDBRANCH  18  19
ENDBRANCH  17  18
ENDBRANCH  16  17
ENDBRANCH  15  16
ENDBRANCH   1  15
TORSDOF 22
ENDMDL
MODEL 8
REMARK VINA RESULT:    24.643      5.685      7.437
REMARK INTER + INTRA:          55.825
REMARK INTER:                  56.947
REMARK INTRA:                  -1.122
REMARK UNBOUND:                -0.511
REMARK SMILES CCCCCCCCCCCCCCCCCCCCCCCC(=O)[O-]
REMARK SMILES IDX 13 1 14 2 15 3 16 4 17 5 18 6 19 7 20 8 21 9 22 10 23 11
REMARK SMILES IDX 24 12 25 13 26 14 12 15 11 16 10 17 9 18 8 19 7 20 6 21 5 22
REMARK SMILES IDX 4 23 3 24 2 25 1 26
REMARK H PARENT
REMARK Flexibility Score: inf
ROOT
ATOM      1  C   UNL     1      -9.127 -14.425  19.671  1.00  0.00     0.000 C 
ENDROOT
BRANCH   1   2
ATOM      2  C   UNL     1      -8.960 -13.212  20.606  1.00  0.00     0.000 C 
BRANCH   2   3
ATOM      3  C   UNL     1      -7.995 -13.471  21.778  1.00  0.00     0.000 C 
BRANCH   3   4
ATOM      4  C   UNL     1      -7.612 -12.173  22.516  1.00  0.00     0.000 C 
BRANCH   4   5
ATOM      5  C   UNL     1      -6.354 -12.353  23.387  1.00  0.00     0.000 C 
BRANCH   5   6
ATOM      6  C   UNL     1      -6.586 -11.990  24.869  1.00  0.00     0.000 C 
BRANCH   6   7
ATOM      7  C   UNL     1      -6.589 -13.214  25.807  1.00  0.00     0.000 C 
BRANCH   7   8
ATOM      8  C   UNL     1      -5.384 -14.138  25.560  1.00  0.00     0.000 C 
BRANCH   8   9
ATOM      9  C   UNL     1      -5.094 -15.062  26.754  1.00  0.00     0.000 C 
BRANCH   9  10
ATOM     10  C   UNL     1      -5.110 -16.553  26.370  1.00  0.00     0.006 C 
BRANCH  10  11
ATOM     11  C   UNL     1      -4.349 -16.821  25.064  1.00  0.00     0.053 C 
BRANCH  11  12
ATOM     12  C   UNL     1      -5.038 -17.853  24.223  1.00  0.00     0.041 C 
ATOM     13  O   UNL     1      -5.039 -17.752  22.968  1.00  0.00    -0.550 OA
ATOM     14  O   UNL     1      -5.716 -18.905  24.829  1.00  0.00    -0.550 OA
ENDBRANCH  11  12
ENDBRANCH  10  11
ENDBRANCH   9  10
ENDBRANCH   8   9
ENDBRANCH   7   8
ENDBRANCH   6   7
ENDBRANCH   5   6
ENDBRANCH   4   5
ENDBRANCH   3   4
ENDBRANCH   2   3
ENDBRANCH   1   2
BRANCH   1  15
ATOM     15  C   UNL     1      -8.302 -14.292  18.380  1.00  0.00     0.000 C 
BRANCH  15  16
ATOM     16  C   UNL     1      -9.152 -14.634  17.152  1.00  0.00     0.000 C 
BRANCH  16  17
ATOM     17  C   UNL     1     -10.396 -13.738  17.069  1.00  0.00     0.000 C 
BRANCH  17  18
ATOM     18  C   UNL     1     -10.666 -13.312  15.617  1.00  0.00    -0.000 C 
BRANCH  18  19
ATOM     19  C   UNL     1      -9.393 -13.295  14.760  1.00  0.00    -0.000 C 
BRANCH  19  20
ATOM     20  C   UNL     1      -9.550 -12.459  13.480  1.00  0.00    -0.000 C 
BRANCH  20  21
ATOM     21  C   UNL     1      -9.637 -13.345  12.220  1.00  0.00    -0.000 C 
BRANCH  21  22
ATOM     22  C   UNL     1     -11.077 -13.598  11.741  1.00  0.00    -0.000 C 
BRANCH  22  23
ATOM     23  C   UNL     1     -11.646 -12.436  10.917  1.00  0.00    -0.000 C 
BRANCH  23  24
ATOM     24  C   UNL     1     -11.761 -12.818   9.436  1.00  0.00    -0.000 C 
BRANCH  24  25
ATOM     25  C   UNL     1     -11.398 -11.635   8.532  1.00  0.00    -0.003 C 
ATOM     26  C   UNL     1     -12.128 -11.717   7.194  1.00  0.00     0.004 C 
ENDBRANCH  24  25
ENDBRANCH  23  24
ENDBRANCH  22  23
ENDBRANCH  21  22
ENDBRANCH  20  21
ENDBRANCH  19  20
ENDBRANCH  18  19
ENDBRANCH  17  18
ENDBRANCH  16  17
ENDBRANCH  15  16
ENDBRANCH   1  15
TORSDOF 22
ENDMDL
