MODEL 1
REMARK VINA RESULT:    -3.031      0.000      0.000
REMARK INTER + INTRA:          -4.001
REMARK INTER:                  -3.740
REMARK INTRA:                  -0.261
REMARK UNBOUND:                -0.261
REMARK SMILES C=CCc1ccc(OC)c(OC)c1
REMARK SMILES IDX 7 1 10 2 13 3 4 4 5 5 6 6 8 7 9 8 11 9 12 10 3 11 2 12 1 13
REMARK H PARENT
REMARK Flexibility Score: inf
ROOT
ATOM      1  C   UNL     1     114.916 128.939 115.862  1.00  0.00     0.160 A 
ATOM      2  C   UNL     1     114.648 129.087 117.232  1.00  0.00     0.160 A 
ATOM      3  C   UNL     1     113.425 128.627 117.757  1.00  0.00     0.054 A 
ATOM      4  C   UNL     1     112.475 128.016 116.924  1.00  0.00    -0.040 A 
ATOM      5  C   UNL     1     112.745 127.882 115.557  1.00  0.00     0.008 A 
ATOM      6  C   UNL     1     113.956 128.334 115.028  1.00  0.00     0.051 A 
ENDROOT
BRANCH   1   7
ATOM      7  O   UNL     1     116.143 129.406 115.367  1.00  0.00    -0.493 OA
ATOM      8  C   UNL     1     117.324 128.618 115.265  1.00  0.00     0.278 C 
ENDBRANCH   1   7
BRANCH   2   9
ATOM      9  O   UNL     1     115.623 129.699 118.039  1.00  0.00    -0.493 OA
ATOM     10  C   UNL     1     116.494 129.000 118.922  1.00  0.00     0.278 C 
ENDBRANCH   2   9
BRANCH   4  11
ATOM     11  C   UNL     1     111.159 127.555 117.490  1.00  0.00     0.062 C 
BRANCH  11  12
ATOM     12  C   UNL     1     111.328 126.276 118.261  1.00  0.00    -0.030 C 
ATOM     13  C   UNL     1     110.353 125.366 118.335  1.00  0.00     0.004 C 
ENDBRANCH  11  12
ENDBRANCH   4  11
TORSDOF 4
ENDMDL
MODEL 2
REMARK VINA RESULT:    -3.022     12.587     14.997
REMARK INTER + INTRA:          -3.989
REMARK INTER:                  -3.726
REMARK INTRA:                  -0.263
REMARK UNBOUND:                -0.261
REMARK SMILES C=CCc1ccc(OC)c(OC)c1
REMARK SMILES IDX 7 1 10 2 13 3 4 4 5 5 6 6 8 7 9 8 11 9 12 10 3 11 2 12 1 13
REMARK H PARENT
REMARK Flexibility Score: inf
ROOT
ATOM      1  C   UNL     1     128.942 124.270 115.881  1.00  0.00     0.160 A 
ATOM      2  C   UNL     1     129.101 124.535 117.249  1.00  0.00     0.160 A 
ATOM      3  C   UNL     1     128.613 125.742 117.788  1.00  0.00     0.054 A 
ATOM      4  C   UNL     1     127.964 126.678 116.968  1.00  0.00    -0.040 A 
ATOM      5  C   UNL     1     127.818 126.410 115.601  1.00  0.00     0.008 A 
ATOM      6  C   UNL     1     128.297 125.216 115.060  1.00  0.00     0.051 A 
ENDROOT
BRANCH   1   7
ATOM      7  O   UNL     1     129.436 123.059 115.373  1.00  0.00    -0.493 OA
ATOM      8  C   UNL     1     128.686 121.852 115.289  1.00  0.00     0.278 C 
ENDBRANCH   1   7
BRANCH   2   9
ATOM      9  O   UNL     1     129.752 123.575 118.043  1.00  0.00    -0.493 OA
ATOM     10  C   UNL     1     129.092 122.677 118.928  1.00  0.00     0.278 C 
ENDBRANCH   2   9
BRANCH   4  11
ATOM     11  C   UNL     1     127.473 127.978 117.547  1.00  0.00     0.062 C 
BRANCH  11  12
ATOM     12  C   UNL     1     126.264 127.754 118.412  1.00  0.00    -0.030 C 
ATOM     13  C   UNL     1     125.204 128.565 118.360  1.00  0.00     0.004 C 
ENDBRANCH  11  12
ENDBRANCH   4  11
TORSDOF 4
ENDMDL
MODEL 3
REMARK VINA RESULT:    -2.815      3.008      4.812
REMARK INTER + INTRA:          -3.734
REMARK INTER:                  -3.416
REMARK INTRA:                  -0.318
REMARK UNBOUND:                -0.261
REMARK SMILES C=CCc1ccc(OC)c(OC)c1
REMARK SMILES IDX 7 1 10 2 13 3 4 4 5 5 6 6 8 7 9 8 11 9 12 10 3 11 2 12 1 13
REMARK H PARENT
REMARK Flexibility Score: inf
ROOT
ATOM      1  C   UNL     1     117.718 127.045 117.844  1.00  0.00     0.160 A 
ATOM      2  C   UNL     1     117.931 126.914 116.463  1.00  0.00     0.160 A 
ATOM      3  C   UNL     1     117.201 127.719 115.566  1.00  0.00     0.054 A 
ATOM      4  C   UNL     1     116.269 128.653 116.041  1.00  0.00    -0.040 A 
ATOM      5  C   UNL     1     116.055 128.770 117.421  1.00  0.00     0.008 A 
ATOM      6  C   UNL     1     116.775 127.978 118.317  1.00  0.00     0.051 A 
ENDROOT
BRANCH   1   7
ATOM      7  O   UNL     1     118.461 126.232 118.714  1.00  0.00    -0.493 OA
ATOM      8  C   UNL     1     117.944 125.091 119.391  1.00  0.00     0.278 C 
ENDBRANCH   1   7
BRANCH   2   9
ATOM      9  O   UNL     1     118.875 125.973 116.020  1.00  0.00    -0.493 OA
ATOM     10  C   UNL     1     119.970 126.270 115.160  1.00  0.00     0.278 C 
ENDBRANCH   2   9
BRANCH   4  11
ATOM     11  C   UNL     1     115.472 129.487 115.073  1.00  0.00     0.062 C 
BRANCH  11  12
ATOM     12  C   UNL     1     114.006 129.177 115.184  1.00  0.00    -0.030 C 
ATOM     13  C   UNL     1     113.532 127.944 114.982  1.00  0.00     0.004 C 
ENDBRANCH  11  12
ENDBRANCH   4  11
TORSDOF 4
ENDMDL
MODEL 4
REMARK VINA RESULT:    -2.754     12.993     15.302
REMARK INTER + INTRA:          -3.658
REMARK INTER:                  -3.309
REMARK INTRA:                  -0.349
REMARK UNBOUND:                -0.261
REMARK SMILES C=CCc1ccc(OC)c(OC)c1
REMARK SMILES IDX 7 1 10 2 13 3 4 4 5 5 6 6 8 7 9 8 11 9 12 10 3 11 2 12 1 13
REMARK H PARENT
REMARK Flexibility Score: inf
ROOT
ATOM      1  C   UNL     1     128.199 126.667 116.823  1.00  0.00     0.160 A 
ATOM      2  C   UNL     1     128.927 125.752 117.598  1.00  0.00     0.160 A 
ATOM      3  C   UNL     1     129.432 124.579 117.002  1.00  0.00     0.054 A 
ATOM      4  C   UNL     1     129.218 124.322 115.639  1.00  0.00    -0.040 A 
ATOM      5  C   UNL     1     128.481 125.236 114.875  1.00  0.00     0.008 A 
ATOM      6  C   UNL     1     127.978 126.401 115.458  1.00  0.00     0.051 A 
ENDROOT
BRANCH   1   7
ATOM      7  O   UNL     1     127.710 127.828 117.443  1.00  0.00    -0.493 OA
ATOM      8  C   UNL     1     126.369 128.000 117.891  1.00  0.00     0.278 C 
ENDBRANCH   1   7
BRANCH   2   9
ATOM      9  O   UNL     1     129.127 126.042 118.959  1.00  0.00    -0.493 OA
ATOM     10  C   UNL     1     128.424 125.419 120.028  1.00  0.00     0.278 C 
ENDBRANCH   2   9
BRANCH   4  11
ATOM     11  C   UNL     1     129.735 123.052 115.019  1.00  0.00     0.062 C 
BRANCH  11  12
ATOM     12  C   UNL     1     129.106 121.849 115.664  1.00  0.00    -0.030 C 
ATOM     13  C   UNL     1     127.788 121.634 115.614  1.00  0.00     0.004 C 
ENDBRANCH  11  12
ENDBRANCH   4  11
TORSDOF 4
ENDMDL
MODEL 5
REMARK VINA RESULT:    -2.749      1.865      4.577
REMARK INTER + INTRA:          -3.653
REMARK INTER:                  -3.312
REMARK INTRA:                  -0.341
REMARK UNBOUND:                -0.261
REMARK SMILES C=CCc1ccc(OC)c(OC)c1
REMARK SMILES IDX 7 1 10 2 13 3 4 4 5 5 6 6 8 7 9 8 11 9 12 10 3 11 2 12 1 13
REMARK H PARENT
REMARK Flexibility Score: inf
ROOT
ATOM      1  C   UNL     1     112.313 128.165 116.904  1.00  0.00     0.160 A 
ATOM      2  C   UNL     1     113.208 128.982 117.612  1.00  0.00     0.160 A 
ATOM      3  C   UNL     1     114.343 129.502 116.960  1.00  0.00     0.054 A 
ATOM      4  C   UNL     1     114.583 129.217 115.608  1.00  0.00    -0.040 A 
ATOM      5  C   UNL     1     113.690 128.393 114.910  1.00  0.00     0.008 A 
ATOM      6  C   UNL     1     112.562 127.874 115.548  1.00  0.00     0.051 A 
ENDROOT
BRANCH   1   7
ATOM      7  O   UNL     1     111.190 127.662 117.578  1.00  0.00    -0.493 OA
ATOM      8  C   UNL     1     111.024 126.304 117.969  1.00  0.00     0.278 C 
ENDBRANCH   1   7
BRANCH   2   9
ATOM      9  O   UNL     1     112.936 129.251 118.964  1.00  0.00    -0.493 OA
ATOM     10  C   UNL     1     113.541 128.572 120.060  1.00  0.00     0.278 C 
ENDBRANCH   2   9
BRANCH   4  11
ATOM     11  C   UNL     1     115.815 129.753 114.928  1.00  0.00     0.062 C 
BRANCH  11  12
ATOM     12  C   UNL     1     117.059 129.245 115.601  1.00  0.00    -0.030 C 
ATOM     13  C   UNL     1     117.344 127.940 115.657  1.00  0.00     0.004 C 
ENDBRANCH  11  12
ENDBRANCH   4  11
TORSDOF 4
ENDMDL
MODEL 6
REMARK VINA RESULT:    -2.745     13.907     15.697
REMARK INTER + INTRA:          -3.647
REMARK INTER:                  -3.321
REMARK INTRA:                  -0.326
REMARK UNBOUND:                -0.261
REMARK SMILES C=CCc1ccc(OC)c(OC)c1
REMARK SMILES IDX 7 1 10 2 13 3 4 4 5 5 6 6 8 7 9 8 11 9 12 10 3 11 2 12 1 13
REMARK H PARENT
REMARK Flexibility Score: inf
ROOT
ATOM      1  C   UNL     1     126.733 121.031 117.777  1.00  0.00     0.160 A 
ATOM      2  C   UNL     1     126.763 121.138 116.378  1.00  0.00     0.160 A 
ATOM      3  C   UNL     1     127.669 122.028 115.767  1.00  0.00     0.054 A 
ATOM      4  C   UNL     1     128.544 122.801 116.544  1.00  0.00    -0.040 A 
ATOM      5  C   UNL     1     128.501 122.696 117.939  1.00  0.00     0.008 A 
ATOM      6  C   UNL     1     127.608 121.816 118.554  1.00  0.00     0.051 A 
ENDROOT
BRANCH   1   7
ATOM      7  O   UNL     1     125.822 120.135 118.359  1.00  0.00    -0.493 OA
ATOM      8  C   UNL     1     124.810 120.504 119.289  1.00  0.00     0.278 C 
ENDBRANCH   1   7
BRANCH   2   9
ATOM      9  O   UNL     1     125.876 120.346 115.630  1.00  0.00    -0.493 OA
ATOM     10  C   UNL     1     126.258 119.201 114.875  1.00  0.00     0.278 C 
ENDBRANCH   2   9
BRANCH   4  11
ATOM     11  C   UNL     1     129.487 123.771 115.882  1.00  0.00     0.062 C 
BRANCH  11  12
ATOM     12  C   UNL     1     128.736 124.725 114.997  1.00  0.00    -0.030 C 
ATOM     13  C   UNL     1     128.201 125.853 115.475  1.00  0.00     0.004 C 
ENDBRANCH  11  12
ENDBRANCH   4  11
TORSDOF 4
ENDMDL
MODEL 7
REMARK VINA RESULT:    -2.694     14.021     15.335
REMARK INTER + INTRA:          -3.585
REMARK INTER:                  -3.264
REMARK INTRA:                  -0.321
REMARK UNBOUND:                -0.261
REMARK SMILES C=CCc1ccc(OC)c(OC)c1
REMARK SMILES IDX 7 1 10 2 13 3 4 4 5 5 6 6 8 7 9 8 11 9 12 10 3 11 2 12 1 13
REMARK H PARENT
REMARK Flexibility Score: inf
ROOT
ATOM      1  C   UNL     1     128.163 122.127 117.553  1.00  0.00     0.160 A 
ATOM      2  C   UNL     1     128.544 121.937 116.216  1.00  0.00     0.160 A 
ATOM      3  C   UNL     1     127.834 121.024 115.411  1.00  0.00     0.054 A 
ATOM      4  C   UNL     1     126.745 120.310 115.933  1.00  0.00    -0.040 A 
ATOM      5  C   UNL     1     126.376 120.498 117.271  1.00  0.00     0.008 A 
ATOM      6  C   UNL     1     127.074 121.401 118.075  1.00  0.00     0.051 A 
ENDROOT
BRANCH   1   7
ATOM      7  O   UNL     1     128.887 123.044 118.330  1.00  0.00    -0.493 OA
ATOM      8  C   UNL     1     128.430 124.346 118.678  1.00  0.00     0.278 C 
ENDBRANCH   1   7
BRANCH   2   9
ATOM      9  O   UNL     1     129.636 122.671 115.724  1.00  0.00    -0.493 OA
ATOM     10  C   UNL     1     129.527 123.810 114.877  1.00  0.00     0.278 C 
ENDBRANCH   2   9
BRANCH   4  11
ATOM     11  C   UNL     1     126.011 119.315 115.074  1.00  0.00     0.062 C 
BRANCH  11  12
ATOM     12  C   UNL     1     124.582 119.734 114.875  1.00  0.00    -0.030 C 
ATOM     13  C   UNL     1     123.564 118.917 115.164  1.00  0.00     0.004 C 
ENDBRANCH  11  12
ENDBRANCH   4  11
TORSDOF 4
ENDMDL
MODEL 8
REMARK VINA RESULT:    -2.629     12.802     14.742
REMARK INTER + INTRA:          -3.505
REMARK INTER:                  -3.185
REMARK INTRA:                  -0.320
REMARK UNBOUND:                -0.261
REMARK SMILES C=CCc1ccc(OC)c(OC)c1
REMARK SMILES IDX 7 1 10 2 13 3 4 4 5 5 6 6 8 7 9 8 11 9 12 10 3 11 2 12 1 13
REMARK H PARENT
REMARK Flexibility Score: inf
ROOT
ATOM      1  C   UNL     1     127.741 121.561 116.035  1.00  0.00     0.160 A 
ATOM      2  C   UNL     1     127.129 121.485 117.295  1.00  0.00     0.160 A 
ATOM      3  C   UNL     1     126.049 120.603 117.494  1.00  0.00     0.054 A 
ATOM      4  C   UNL     1     125.586 119.794 116.445  1.00  0.00    -0.040 A 
ATOM      5  C   UNL     1     126.196 119.883 115.187  1.00  0.00     0.008 A 
ATOM      6  C   UNL     1     127.267 120.754 114.982  1.00  0.00     0.051 A 
ENDROOT
BRANCH   1   7
ATOM      7  O   UNL     1     128.816 122.448 115.866  1.00  0.00    -0.493 OA
ATOM      8  C   UNL     1     129.828 122.310 114.875  1.00  0.00     0.278 C 
ENDBRANCH   1   7
BRANCH   2   9
ATOM      9  O   UNL     1     127.620 122.305 118.325  1.00  0.00    -0.493 OA
ATOM     10  C   UNL     1     128.524 121.876 119.337  1.00  0.00     0.278 C 
ENDBRANCH   2   9
BRANCH   4  11
ATOM     11  C   UNL     1     124.412 118.876 116.659  1.00  0.00     0.062 C 
BRANCH  11  12
ATOM     12  C   UNL     1     123.510 118.873 115.457  1.00  0.00    -0.030 C 
ATOM     13  C   UNL     1     122.410 119.630 115.403  1.00  0.00     0.004 C 
ENDBRANCH  11  12
ENDBRANCH   4  11
TORSDOF 4
ENDMDL
