MODEL 1
REMARK VINA RESULT:    -6.059      0.000      0.000
REMARK INTER + INTRA:          -7.372
REMARK INTER:                  -7.299
REMARK INTRA:                  -0.073
REMARK UNBOUND:                -0.073
REMARK SMILES O=c1c(O)c(-c2ccc(O)c(O)c2)oc2cc(O)cc(O)c12
REMARK SMILES IDX 5 1 3 2 2 3 1 4 22 5 20 6 19 7 17 8 16 9 15 10 14 11 6 12
REMARK SMILES IDX 7 13 8 14 9 15 13 16 11 17 10 18 12 20 4 22 21 24 18 26
REMARK H PARENT 10 19 12 21 4 23 21 25 18 27
REMARK Flexibility Score: inf
ROOT
ATOM      1  C   UNL     1     -32.910 -54.752  67.124  1.00  0.00     0.180 A 
ATOM      2  C   UNL     1     -33.120 -54.116  65.888  1.00  0.00     0.208 A 
ATOM      3  C   UNL     1     -33.011 -52.717  65.815  1.00  0.00     0.238 A 
ATOM      4  O   UNL     1     -33.145 -52.159  64.695  1.00  0.00    -0.285 OA
ATOM      5  C   UNL     1     -32.711 -51.973  66.980  1.00  0.00     0.111 A 
ATOM      6  C   UNL     1     -32.616 -50.549  67.030  1.00  0.00     0.134 A 
ATOM      7  C   UNL     1     -32.185 -49.926  68.209  1.00  0.00     0.093 A 
ATOM      8  C   UNL     1     -31.909 -50.669  69.356  1.00  0.00     0.123 A 
ATOM      9  C   UNL     1     -32.056 -52.056  69.336  1.00  0.00     0.094 A 
ATOM     10  C   UNL     1     -32.449 -52.709  68.165  1.00  0.00     0.146 A 
ATOM     11  O   UNL     1     -32.566 -54.032  68.185  1.00  0.00    -0.452 OA
ENDROOT
BRANCH   1  12
ATOM     12  C   UNL     1     -33.032 -56.220  67.286  1.00  0.00     0.025 A 
ATOM     13  C   UNL     1     -33.978 -56.739  68.184  1.00  0.00     0.016 A 
ATOM     14  C   UNL     1     -34.125 -58.121  68.337  1.00  0.00     0.051 A 
ATOM     15  C   UNL     1     -33.339 -59.001  67.583  1.00  0.00     0.157 A 
ATOM     16  C   UNL     1     -32.260 -57.107  66.516  1.00  0.00     0.062 A 
ATOM     17  C   UNL     1     -32.408 -58.494  66.668  1.00  0.00     0.158 A 
BRANCH  15  18
ATOM     18  O   UNL     1     -33.480 -60.379  67.734  1.00  0.00    -0.504 OA
ATOM     19  H   UNL     1     -33.416 -61.009  66.943  1.00  0.00     0.293 HD
ENDBRANCH  15  18
BRANCH  17  20
ATOM     20  O   UNL     1     -31.637 -59.373  65.909  1.00  0.00    -0.504 OA
ATOM     21  H   UNL     1     -32.058 -60.129  65.381  1.00  0.00     0.293 HD
ENDBRANCH  17  20
ENDBRANCH   1  12
BRANCH   2  22
ATOM     22  O   UNL     1     -33.393 -54.873  64.746  1.00  0.00    -0.502 OA
ATOM     23  H   UNL     1     -33.561 -55.872  64.783  1.00  0.00     0.293 HD
ENDBRANCH   2  22
BRANCH   6  24
ATOM     24  O   UNL     1     -32.957 -49.707  65.968  1.00  0.00    -0.507 OA
ATOM     25  H   UNL     1     -32.672 -48.743  65.883  1.00  0.00     0.293 HD
ENDBRANCH   6  24
BRANCH   8  26
ATOM     26  O   UNL     1     -31.498 -50.015  70.516  1.00  0.00    -0.508 OA
ATOM     27  H   UNL     1     -32.123 -49.408  71.032  1.00  0.00     0.293 HD
ENDBRANCH   8  26
TORSDOF 6
ENDMDL
MODEL 2
REMARK VINA RESULT:    -5.556     12.341     14.849
REMARK INTER + INTRA:          -6.766
REMARK INTER:                  -6.450
REMARK INTRA:                  -0.316
REMARK UNBOUND:                -0.073
REMARK SMILES O=c1c(O)c(-c2ccc(O)c(O)c2)oc2cc(O)cc(O)c12
REMARK SMILES IDX 5 1 3 2 2 3 1 4 22 5 20 6 19 7 17 8 16 9 15 10 14 11 6 12
REMARK SMILES IDX 7 13 8 14 9 15 13 16 11 17 10 18 12 20 4 22 21 24 18 26
REMARK H PARENT 10 19 12 21 4 23 21 25 18 27
REMARK Flexibility Score: inf
ROOT
ATOM      1  C   UNL     1     -27.194 -55.474  55.295  1.00  0.00     0.180 A 
ATOM      2  C   UNL     1     -26.289 -56.519  55.038  1.00  0.00     0.208 A 
ATOM      3  C   UNL     1     -26.748 -57.845  55.087  1.00  0.00     0.238 A 
ATOM      4  O   UNL     1     -25.947 -58.772  54.802  1.00  0.00    -0.285 OA
ATOM      5  C   UNL     1     -28.101 -58.110  55.409  1.00  0.00     0.111 A 
ATOM      6  C   UNL     1     -28.665 -59.417  55.525  1.00  0.00     0.134 A 
ATOM      7  C   UNL     1     -30.045 -59.558  55.719  1.00  0.00     0.093 A 
ATOM      8  C   UNL     1     -30.869 -58.444  55.865  1.00  0.00     0.123 A 
ATOM      9  C   UNL     1     -30.320 -57.163  55.813  1.00  0.00     0.094 A 
ATOM     10  C   UNL     1     -28.952 -56.988  55.584  1.00  0.00     0.146 A 
ATOM     11  O   UNL     1     -28.471 -55.752  55.529  1.00  0.00    -0.452 OA
ENDROOT
BRANCH   1  12
ATOM     12  C   UNL     1     -26.778 -54.052  55.287  1.00  0.00     0.025 A 
ATOM     13  C   UNL     1     -26.363 -53.446  56.484  1.00  0.00     0.016 A 
ATOM     14  C   UNL     1     -25.948 -52.112  56.496  1.00  0.00     0.051 A 
ATOM     15  C   UNL     1     -25.927 -51.370  55.308  1.00  0.00     0.157 A 
ATOM     16  C   UNL     1     -26.736 -53.309  54.094  1.00  0.00     0.062 A 
ATOM     17  C   UNL     1     -26.317 -51.970  54.105  1.00  0.00     0.158 A 
BRANCH  15  18
ATOM     18  O   UNL     1     -25.516 -50.038  55.316  1.00  0.00    -0.504 OA
ATOM     19  H   UNL     1     -26.101 -49.305  55.700  1.00  0.00     0.293 HD
ENDBRANCH  15  18
BRANCH  17  20
ATOM     20  O   UNL     1     -26.282 -51.232  52.923  1.00  0.00    -0.504 OA
ATOM     21  H   UNL     1     -25.800 -51.573  52.098  1.00  0.00     0.293 HD
ENDBRANCH  17  20
ENDBRANCH   1  12
BRANCH   2  22
ATOM     22  O   UNL     1     -24.963 -56.233  54.701  1.00  0.00    -0.502 OA
ATOM     23  H   UNL     1     -24.654 -56.144  53.740  1.00  0.00     0.293 HD
ENDBRANCH   2  22
BRANCH   6  24
ATOM     24  O   UNL     1     -27.915 -60.596  55.486  1.00  0.00    -0.507 OA
ATOM     25  H   UNL     1     -28.276 -61.514  55.698  1.00  0.00     0.293 HD
ENDBRANCH   6  24
BRANCH   8  26
ATOM     26  O   UNL     1     -32.236 -58.622  56.073  1.00  0.00    -0.508 OA
ATOM     27  H   UNL     1     -32.713 -59.462  55.770  1.00  0.00     0.293 HD
ENDBRANCH   8  26
TORSDOF 6
ENDMDL
MODEL 3
REMARK VINA RESULT:    -5.506     17.685     19.731
REMARK INTER + INTRA:          -6.705
REMARK INTER:                  -6.517
REMARK INTRA:                  -0.188
REMARK UNBOUND:                -0.073
REMARK SMILES O=c1c(O)c(-c2ccc(O)c(O)c2)oc2cc(O)cc(O)c12
REMARK SMILES IDX 5 1 3 2 2 3 1 4 22 5 20 6 19 7 17 8 16 9 15 10 14 11 6 12
REMARK SMILES IDX 7 13 8 14 9 15 13 16 11 17 10 18 12 20 4 22 21 24 18 26
REMARK H PARENT 10 19 12 21 4 23 21 25 18 27
REMARK Flexibility Score: inf
ROOT
ATOM      1  C   UNL     1     -20.755 -64.367  57.478  1.00  0.00     0.180 A 
ATOM      2  C   UNL     1     -22.073 -64.773  57.209  1.00  0.00     0.208 A 
ATOM      3  C   UNL     1     -22.507 -66.027  57.667  1.00  0.00     0.238 A 
ATOM      4  O   UNL     1     -23.704 -66.361  57.471  1.00  0.00    -0.285 OA
ATOM      5  C   UNL     1     -21.612 -66.865  58.374  1.00  0.00     0.111 A 
ATOM      6  C   UNL     1     -21.932 -68.173  58.851  1.00  0.00     0.134 A 
ATOM      7  C   UNL     1     -21.012 -68.861  59.652  1.00  0.00     0.093 A 
ATOM      8  C   UNL     1     -19.761 -68.318  59.938  1.00  0.00     0.123 A 
ATOM      9  C   UNL     1     -19.414 -67.066  59.429  1.00  0.00     0.094 A 
ATOM     10  C   UNL     1     -20.325 -66.340  58.657  1.00  0.00     0.146 A 
ATOM     11  O   UNL     1     -19.960 -65.147  58.200  1.00  0.00    -0.452 OA
ENDROOT
BRANCH   1  12
ATOM     12  C   UNL     1     -20.217 -63.069  57.005  1.00  0.00     0.025 A 
ATOM     13  C   UNL     1     -20.055 -62.849  55.628  1.00  0.00     0.016 A 
ATOM     14  C   UNL     1     -19.569 -61.626  55.159  1.00  0.00     0.051 A 
ATOM     15  C   UNL     1     -19.254 -60.600  56.059  1.00  0.00     0.157 A 
ATOM     16  C   UNL     1     -19.919 -62.030  57.904  1.00  0.00     0.062 A 
ATOM     17  C   UNL     1     -19.433 -60.800  57.433  1.00  0.00     0.158 A 
BRANCH  15  18
ATOM     18  O   UNL     1     -18.767 -59.379  55.596  1.00  0.00    -0.504 OA
ATOM     19  H   UNL     1     -18.640 -59.201  54.607  1.00  0.00     0.293 HD
ENDBRANCH  15  18
BRANCH  17  20
ATOM     20  O   UNL     1     -19.131 -59.773  58.326  1.00  0.00    -0.504 OA
ATOM     21  H   UNL     1     -19.559 -59.725  59.244  1.00  0.00     0.293 HD
ENDBRANCH  17  20
ENDBRANCH   1  12
BRANCH   2  22
ATOM     22  O   UNL     1     -22.946 -63.919  56.528  1.00  0.00    -0.502 OA
ATOM     23  H   UNL     1     -22.862 -62.910  56.570  1.00  0.00     0.293 HD
ENDBRANCH   2  22
BRANCH   6  24
ATOM     24  O   UNL     1     -23.119 -68.846  58.545  1.00  0.00    -0.507 OA
ATOM     25  H   UNL     1     -23.444 -69.679  59.010  1.00  0.00     0.293 HD
ENDBRANCH   6  24
BRANCH   8  26
ATOM     26  O   UNL     1     -18.863 -69.037  60.726  1.00  0.00    -0.508 OA
ATOM     27  H   UNL     1     -19.007 -69.154  61.721  1.00  0.00     0.293 HD
ENDBRANCH   8  26
TORSDOF 6
ENDMDL
MODEL 4
REMARK VINA RESULT:    -5.497     16.501     18.911
REMARK INTER + INTRA:          -6.695
REMARK INTER:                  -6.371
REMARK INTRA:                  -0.324
REMARK UNBOUND:                -0.073
REMARK SMILES O=c1c(O)c(-c2ccc(O)c(O)c2)oc2cc(O)cc(O)c12
REMARK SMILES IDX 5 1 3 2 2 3 1 4 22 5 20 6 19 7 17 8 16 9 15 10 14 11 6 12
REMARK SMILES IDX 7 13 8 14 9 15 13 16 11 17 10 18 12 20 4 22 21 24 18 26
REMARK H PARENT 10 19 12 21 4 23 21 25 18 27
REMARK Flexibility Score: inf
ROOT
ATOM      1  C   UNL     1     -21.711 -64.444  57.667  1.00  0.00     0.180 A 
ATOM      2  C   UNL     1     -21.145 -65.698  57.951  1.00  0.00     0.208 A 
ATOM      3  C   UNL     1     -21.944 -66.848  57.840  1.00  0.00     0.238 A 
ATOM      4  O   UNL     1     -21.415 -67.972  58.042  1.00  0.00    -0.285 OA
ATOM      5  C   UNL     1     -23.302 -66.726  57.463  1.00  0.00     0.111 A 
ATOM      6  C   UNL     1     -24.215 -67.820  57.357  1.00  0.00     0.134 A 
ATOM      7  C   UNL     1     -25.501 -67.599  56.849  1.00  0.00     0.093 A 
ATOM      8  C   UNL     1     -25.929 -66.318  56.505  1.00  0.00     0.123 A 
ATOM      9  C   UNL     1     -25.066 -65.233  56.660  1.00  0.00     0.094 A 
ATOM     10  C   UNL     1     -23.764 -65.426  57.130  1.00  0.00     0.146 A 
ATOM     11  O   UNL     1     -22.970 -64.369  57.252  1.00  0.00    -0.452 OA
ENDROOT
BRANCH   1  12
ATOM     12  C   UNL     1     -20.939 -63.185  57.786  1.00  0.00     0.025 A 
ATOM     13  C   UNL     1     -20.211 -62.714  56.682  1.00  0.00     0.016 A 
ATOM     14  C   UNL     1     -19.493 -61.518  56.766  1.00  0.00     0.051 A 
ATOM     15  C   UNL     1     -19.506 -60.768  57.949  1.00  0.00     0.157 A 
ATOM     16  C   UNL     1     -20.966 -62.419  58.965  1.00  0.00     0.062 A 
ATOM     17  C   UNL     1     -20.246 -61.217  59.049  1.00  0.00     0.158 A 
BRANCH  15  18
ATOM     18  O   UNL     1     -18.789 -59.577  58.038  1.00  0.00    -0.504 OA
ATOM     19  H   UNL     1     -19.071 -58.749  57.525  1.00  0.00     0.293 HD
ENDBRANCH  15  18
BRANCH  17  20
ATOM     20  O   UNL     1     -20.269 -60.463  60.221  1.00  0.00    -0.504 OA
ATOM     21  H   UNL     1     -21.083 -59.922  60.489  1.00  0.00     0.293 HD
ENDBRANCH  17  20
ENDBRANCH   1  12
BRANCH   2  22
ATOM     22  O   UNL     1     -19.795 -65.796  58.300  1.00  0.00    -0.502 OA
ATOM     23  H   UNL     1     -19.050 -65.499  57.680  1.00  0.00     0.293 HD
ENDBRANCH   2  22
BRANCH   6  24
ATOM     24  O   UNL     1     -23.918 -69.125  57.761  1.00  0.00    -0.507 OA
ATOM     25  H   UNL     1     -23.528 -69.837  57.162  1.00  0.00     0.293 HD
ENDBRANCH   6  24
BRANCH   8  26
ATOM     26  O   UNL     1     -27.222 -66.132  56.017  1.00  0.00    -0.508 OA
ATOM     27  H   UNL     1     -27.482 -65.296  55.510  1.00  0.00     0.293 HD
ENDBRANCH   8  26
TORSDOF 6
ENDMDL
MODEL 5
REMARK VINA RESULT:    -5.416     14.476     17.312
REMARK INTER + INTRA:          -6.597
REMARK INTER:                  -6.282
REMARK INTRA:                  -0.315
REMARK UNBOUND:                -0.073
REMARK SMILES O=c1c(O)c(-c2ccc(O)c(O)c2)oc2cc(O)cc(O)c12
REMARK SMILES IDX 5 1 3 2 2 3 1 4 22 5 20 6 19 7 17 8 16 9 15 10 14 11 6 12
REMARK SMILES IDX 7 13 8 14 9 15 13 16 11 17 10 18 12 20 4 22 21 24 18 26
REMARK H PARENT 10 19 12 21 4 23 21 25 18 27
REMARK Flexibility Score: inf
ROOT
ATOM      1  C   UNL     1     -25.722 -65.619  56.153  1.00  0.00     0.180 A 
ATOM      2  C   UNL     1     -24.430 -66.088  55.860  1.00  0.00     0.208 A 
ATOM      3  C   UNL     1     -23.320 -65.359  56.316  1.00  0.00     0.238 A 
ATOM      4  O   UNL     1     -22.167 -65.815  56.097  1.00  0.00    -0.285 OA
ATOM      5  C   UNL     1     -23.516 -64.162  57.044  1.00  0.00     0.111 A 
ATOM      6  C   UNL     1     -22.464 -63.322  57.521  1.00  0.00     0.134 A 
ATOM      7  C   UNL     1     -22.771 -62.230  58.344  1.00  0.00     0.093 A 
ATOM      8  C   UNL     1     -24.092 -61.911  58.653  1.00  0.00     0.123 A 
ATOM      9  C   UNL     1     -25.131 -62.689  58.143  1.00  0.00     0.094 A 
ATOM     10  C   UNL     1     -24.855 -63.806  57.350  1.00  0.00     0.146 A 
ATOM     11  O   UNL     1     -25.873 -64.528  56.895  1.00  0.00    -0.452 OA
ENDROOT
BRANCH   1  12
ATOM     12  C   UNL     1     -26.941 -66.319  55.685  1.00  0.00     0.025 A 
ATOM     13  C   UNL     1     -27.417 -66.083  54.385  1.00  0.00     0.016 A 
ATOM     14  C   UNL     1     -28.552 -66.748  53.915  1.00  0.00     0.051 A 
ATOM     15  C   UNL     1     -29.218 -67.670  54.733  1.00  0.00     0.157 A 
ATOM     16  C   UNL     1     -27.600 -67.260  56.494  1.00  0.00     0.062 A 
ATOM     17  C   UNL     1     -28.740 -67.930  56.022  1.00  0.00     0.158 A 
BRANCH  15  18
ATOM     18  O   UNL     1     -30.353 -68.333  54.269  1.00  0.00    -0.504 OA
ATOM     19  H   UNL     1     -31.144 -67.827  53.887  1.00  0.00     0.293 HD
ENDBRANCH  15  18
BRANCH  17  20
ATOM     20  O   UNL     1     -29.397 -68.858  56.829  1.00  0.00    -0.504 OA
ATOM     21  H   UNL     1     -29.152 -69.842  56.814  1.00  0.00     0.293 HD
ENDBRANCH  17  20
ENDBRANCH   1  12
BRANCH   2  22
ATOM     22  O   UNL     1     -24.260 -67.285  55.158  1.00  0.00    -0.502 OA
ATOM     23  H   UNL     1     -23.370 -67.767  55.111  1.00  0.00     0.293 HD
ENDBRANCH   2  22
BRANCH   6  24
ATOM     24  O   UNL     1     -21.116 -63.500  57.196  1.00  0.00    -0.507 OA
ATOM     25  H   UNL     1     -20.575 -64.322  57.415  1.00  0.00     0.293 HD
ENDBRANCH   6  24
BRANCH   8  26
ATOM     26  O   UNL     1     -24.361 -60.808  59.461  1.00  0.00    -0.508 OA
ATOM     27  H   UNL     1     -24.022 -59.883  59.226  1.00  0.00     0.293 HD
ENDBRANCH   8  26
TORSDOF 6
ENDMDL
MODEL 6
REMARK VINA RESULT:    -5.345     16.781     19.109
REMARK INTER + INTRA:          -6.511
REMARK INTER:                  -6.211
REMARK INTRA:                  -0.300
REMARK UNBOUND:                -0.073
REMARK SMILES O=c1c(O)c(-c2ccc(O)c(O)c2)oc2cc(O)cc(O)c12
REMARK SMILES IDX 5 1 3 2 2 3 1 4 22 5 20 6 19 7 17 8 16 9 15 10 14 11 6 12
REMARK SMILES IDX 7 13 8 14 9 15 13 16 11 17 10 18 12 20 4 22 21 24 18 26
REMARK H PARENT 10 19 12 21 4 23 21 25 18 27
REMARK Flexibility Score: inf
ROOT
ATOM      1  C   UNL     1     -23.837 -66.323  56.654  1.00  0.00     0.180 A 
ATOM      2  C   UNL     1     -24.722 -65.354  57.156  1.00  0.00     0.208 A 
ATOM      3  C   UNL     1     -25.599 -64.707  56.270  1.00  0.00     0.238 A 
ATOM      4  O   UNL     1     -26.426 -63.881  56.735  1.00  0.00    -0.285 OA
ATOM      5  C   UNL     1     -25.566 -65.025  54.892  1.00  0.00     0.111 A 
ATOM      6  C   UNL     1     -26.381 -64.403  53.897  1.00  0.00     0.134 A 
ATOM      7  C   UNL     1     -26.359 -64.888  52.583  1.00  0.00     0.093 A 
ATOM      8  C   UNL     1     -25.506 -65.926  52.214  1.00  0.00     0.123 A 
ATOM      9  C   UNL     1     -24.661 -66.502  53.164  1.00  0.00     0.094 A 
ATOM     10  C   UNL     1     -24.687 -66.064  54.491  1.00  0.00     0.146 A 
ATOM     11  O   UNL     1     -23.876 -66.646  55.367  1.00  0.00    -0.452 OA
ENDROOT
BRANCH   1  12
ATOM     12  C   UNL     1     -22.866 -67.029  57.522  1.00  0.00     0.025 A 
ATOM     13  C   UNL     1     -23.118 -68.357  57.902  1.00  0.00     0.016 A 
ATOM     14  C   UNL     1     -22.205 -69.049  58.703  1.00  0.00     0.051 A 
ATOM     15  C   UNL     1     -21.021 -68.429  59.121  1.00  0.00     0.157 A 
ATOM     16  C   UNL     1     -21.666 -66.417  57.927  1.00  0.00     0.062 A 
ATOM     17  C   UNL     1     -20.749 -67.113  58.730  1.00  0.00     0.158 A 
BRANCH  15  18
ATOM     18  O   UNL     1     -20.110 -69.115  59.922  1.00  0.00    -0.504 OA
ATOM     19  H   UNL     1     -19.162 -69.294  59.612  1.00  0.00     0.293 HD
ENDBRANCH  15  18
BRANCH  17  20
ATOM     20  O   UNL     1     -19.564 -66.503  59.136  1.00  0.00    -0.504 OA
ATOM     21  H   UNL     1     -18.940 -66.058  58.472  1.00  0.00     0.293 HD
ENDBRANCH  17  20
ENDBRANCH   1  12
BRANCH   2  22
ATOM     22  O   UNL     1     -24.752 -65.073  58.525  1.00  0.00    -0.502 OA
ATOM     23  H   UNL     1     -25.553 -64.646  58.975  1.00  0.00     0.293 HD
ENDBRANCH   2  22
BRANCH   6  24
ATOM     24  O   UNL     1     -27.203 -63.298  54.141  1.00  0.00    -0.507 OA
ATOM     25  H   UNL     1     -27.393 -62.565  53.476  1.00  0.00     0.293 HD
ENDBRANCH   6  24
BRANCH   8  26
ATOM     26  O   UNL     1     -25.498 -66.373  50.894  1.00  0.00    -0.508 OA
ATOM     27  H   UNL     1     -26.330 -66.338  50.318  1.00  0.00     0.293 HD
ENDBRANCH   8  26
TORSDOF 6
ENDMDL
MODEL 7
REMARK VINA RESULT:    -5.341     14.495     17.335
REMARK INTER + INTRA:          -6.507
REMARK INTER:                  -6.197
REMARK INTRA:                  -0.310
REMARK UNBOUND:                -0.073
REMARK SMILES O=c1c(O)c(-c2ccc(O)c(O)c2)oc2cc(O)cc(O)c12
REMARK SMILES IDX 5 1 3 2 2 3 1 4 22 5 20 6 19 7 17 8 16 9 15 10 14 11 6 12
REMARK SMILES IDX 7 13 8 14 9 15 13 16 11 17 10 18 12 20 4 22 21 24 18 26
REMARK H PARENT 10 19 12 21 4 23 21 25 18 27
REMARK Flexibility Score: inf
ROOT
ATOM      1  C   UNL     1     -26.253 -64.177  56.301  1.00  0.00     0.180 A 
ATOM      2  C   UNL     1     -26.905 -63.607  55.194  1.00  0.00     0.208 A 
ATOM      3  C   UNL     1     -27.976 -64.297  54.605  1.00  0.00     0.238 A 
ATOM      4  O   UNL     1     -28.590 -63.756  53.649  1.00  0.00    -0.285 OA
ATOM      5  C   UNL     1     -28.371 -65.555  55.119  1.00  0.00     0.111 A 
ATOM      6  C   UNL     1     -29.418 -66.361  54.576  1.00  0.00     0.134 A 
ATOM      7  C   UNL     1     -29.810 -67.527  55.245  1.00  0.00     0.093 A 
ATOM      8  C   UNL     1     -29.153 -67.951  56.398  1.00  0.00     0.123 A 
ATOM      9  C   UNL     1     -28.089 -67.203  56.905  1.00  0.00     0.094 A 
ATOM     10  C   UNL     1     -27.699 -66.016  56.280  1.00  0.00     0.146 A 
ATOM     11  O   UNL     1     -26.689 -65.327  56.801  1.00  0.00    -0.452 OA
ENDROOT
BRANCH   1  12
ATOM     12  C   UNL     1     -25.099 -63.522  56.960  1.00  0.00     0.025 A 
ATOM     13  C   UNL     1     -23.794 -63.862  56.567  1.00  0.00     0.016 A 
ATOM     14  C   UNL     1     -22.692 -63.241  57.161  1.00  0.00     0.051 A 
ATOM     15  C   UNL     1     -22.879 -62.261  58.144  1.00  0.00     0.157 A 
ATOM     16  C   UNL     1     -25.282 -62.524  57.933  1.00  0.00     0.062 A 
ATOM     17  C   UNL     1     -24.175 -61.899  58.528  1.00  0.00     0.158 A 
BRANCH  15  18
ATOM     18  O   UNL     1     -21.782 -61.642  58.740  1.00  0.00    -0.504 OA
ATOM     19  H   UNL     1     -20.964 -61.382  58.202  1.00  0.00     0.293 HD
ENDBRANCH  15  18
BRANCH  17  20
ATOM     20  O   UNL     1     -24.358 -60.914  59.497  1.00  0.00    -0.504 OA
ATOM     21  H   UNL     1     -24.606 -61.147  60.452  1.00  0.00     0.293 HD
ENDBRANCH  17  20
ENDBRANCH   1  12
BRANCH   2  22
ATOM     22  O   UNL     1     -26.512 -62.354  54.717  1.00  0.00    -0.502 OA
ATOM     23  H   UNL     1     -25.552 -62.141  54.472  1.00  0.00     0.293 HD
ENDBRANCH   2  22
BRANCH   6  24
ATOM     24  O   UNL     1     -30.079 -66.075  53.377  1.00  0.00    -0.507 OA
ATOM     25  H   UNL     1     -29.778 -65.388  52.704  1.00  0.00     0.293 HD
ENDBRANCH   6  24
BRANCH   8  26
ATOM     26  O   UNL     1     -29.559 -69.125  57.030  1.00  0.00    -0.508 OA
ATOM     27  H   UNL     1     -28.995 -69.564  57.747  1.00  0.00     0.293 HD
ENDBRANCH   8  26
TORSDOF 6
ENDMDL
MODEL 8
REMARK VINA RESULT:    -5.296     18.606     19.997
REMARK INTER + INTRA:          -6.452
REMARK INTER:                  -6.432
REMARK INTRA:                  -0.020
REMARK UNBOUND:                -0.073
REMARK SMILES O=c1c(O)c(-c2ccc(O)c(O)c2)oc2cc(O)cc(O)c12
REMARK SMILES IDX 5 1 3 2 2 3 1 4 22 5 20 6 19 7 17 8 16 9 15 10 14 11 6 12
REMARK SMILES IDX 7 13 8 14 9 15 13 16 11 17 10 18 12 20 4 22 21 24 18 26
REMARK H PARENT 10 19 12 21 4 23 21 25 18 27
REMARK Flexibility Score: inf
ROOT
ATOM      1  C   UNL     1     -17.678 -58.831  54.878  1.00  0.00     0.180 A 
ATOM      2  C   UNL     1     -17.969 -59.151  53.541  1.00  0.00     0.208 A 
ATOM      3  C   UNL     1     -18.530 -58.167  52.712  1.00  0.00     0.238 A 
ATOM      4  O   UNL     1     -18.738 -58.444  51.501  1.00  0.00    -0.285 OA
ATOM      5  C   UNL     1     -18.808 -56.882  53.234  1.00  0.00     0.111 A 
ATOM      6  C   UNL     1     -19.413 -55.820  52.494  1.00  0.00     0.134 A 
ATOM      7  C   UNL     1     -19.521 -54.549  53.073  1.00  0.00     0.093 A 
ATOM      8  C   UNL     1     -19.107 -54.318  54.384  1.00  0.00     0.123 A 
ATOM      9  C   UNL     1     -18.570 -55.363  55.137  1.00  0.00     0.094 A 
ATOM     10  C   UNL     1     -18.415 -56.633  54.574  1.00  0.00     0.146 A 
ATOM     11  O   UNL     1     -17.889 -57.597  55.321  1.00  0.00    -0.452 OA
ENDROOT
BRANCH   1  12
ATOM     12  C   UNL     1     -17.110 -59.823  55.821  1.00  0.00     0.025 A 
ATOM     13  C   UNL     1     -15.916 -60.485  55.490  1.00  0.00     0.016 A 
ATOM     14  C   UNL     1     -15.351 -61.408  56.374  1.00  0.00     0.051 A 
ATOM     15  C   UNL     1     -15.963 -61.672  57.606  1.00  0.00     0.157 A 
ATOM     16  C   UNL     1     -17.709 -60.075  57.067  1.00  0.00     0.062 A 
ATOM     17  C   UNL     1     -17.141 -61.001  57.956  1.00  0.00     0.158 A 
BRANCH  15  18
ATOM     18  O   UNL     1     -15.404 -62.594  58.488  1.00  0.00    -0.504 OA
ATOM     19  H   UNL     1     -14.422 -62.840  58.446  1.00  0.00     0.293 HD
ENDBRANCH  15  18
BRANCH  17  20
ATOM     20  O   UNL     1     -17.740 -61.255  59.188  1.00  0.00    -0.504 OA
ATOM     21  H   UNL     1     -17.363 -61.943  59.830  1.00  0.00     0.293 HD
ENDBRANCH  17  20
ENDBRANCH   1  12
BRANCH   2  22
ATOM     22  O   UNL     1     -17.666 -60.421  53.041  1.00  0.00    -0.502 OA
ATOM     23  H   UNL     1     -16.724 -60.795  53.043  1.00  0.00     0.293 HD
ENDBRANCH   2  22
BRANCH   6  24
ATOM     24  O   UNL     1     -19.943 -55.968  51.209  1.00  0.00    -0.507 OA
ATOM     25  H   UNL     1     -19.553 -55.556  50.375  1.00  0.00     0.293 HD
ENDBRANCH   6  24
BRANCH   8  26
ATOM     26  O   UNL     1     -19.244 -53.045  54.934  1.00  0.00    -0.508 OA
ATOM     27  H   UNL     1     -19.644 -52.905  55.854  1.00  0.00     0.293 HD
ENDBRANCH   8  26
TORSDOF 6
ENDMDL
MODEL 9
REMARK VINA RESULT:    -5.286     16.388     19.010
REMARK INTER + INTRA:          -6.440
REMARK INTER:                  -6.111
REMARK INTRA:                  -0.329
REMARK UNBOUND:                -0.073
REMARK SMILES O=c1c(O)c(-c2ccc(O)c(O)c2)oc2cc(O)cc(O)c12
REMARK SMILES IDX 5 1 3 2 2 3 1 4 22 5 20 6 19 7 17 8 16 9 15 10 14 11 6 12
REMARK SMILES IDX 7 13 8 14 9 15 13 16 11 17 10 18 12 20 4 22 21 24 18 26
REMARK H PARENT 10 19 12 21 4 23 21 25 18 27
REMARK Flexibility Score: inf
ROOT
ATOM      1  C   UNL     1     -24.190 -66.304  57.061  1.00  0.00     0.180 A 
ATOM      2  C   UNL     1     -24.336 -67.465  57.840  1.00  0.00     0.208 A 
ATOM      3  C   UNL     1     -23.204 -68.011  58.466  1.00  0.00     0.238 A 
ATOM      4  O   UNL     1     -23.350 -69.018  59.206  1.00  0.00    -0.285 OA
ATOM      5  C   UNL     1     -21.939 -67.400  58.291  1.00  0.00     0.111 A 
ATOM      6  C   UNL     1     -20.718 -67.891  58.846  1.00  0.00     0.134 A 
ATOM      7  C   UNL     1     -19.547 -67.133  58.717  1.00  0.00     0.093 A 
ATOM      8  C   UNL     1     -19.538 -65.938  57.999  1.00  0.00     0.123 A 
ATOM      9  C   UNL     1     -20.712 -65.479  57.402  1.00  0.00     0.094 A 
ATOM     10  C   UNL     1     -21.905 -66.194  57.544  1.00  0.00     0.146 A 
ATOM     11  O   UNL     1     -23.003 -65.716  56.970  1.00  0.00    -0.452 OA
ENDROOT
BRANCH   1  12
ATOM     12  C   UNL     1     -25.333 -65.683  56.350  1.00  0.00     0.025 A 
ATOM     13  C   UNL     1     -26.005 -64.599  56.937  1.00  0.00     0.016 A 
ATOM     14  C   UNL     1     -27.071 -63.986  56.274  1.00  0.00     0.051 A 
ATOM     15  C   UNL     1     -27.470 -64.437  55.010  1.00  0.00     0.157 A 
ATOM     16  C   UNL     1     -25.723 -66.120  55.072  1.00  0.00     0.062 A 
ATOM     17  C   UNL     1     -26.793 -65.503  54.406  1.00  0.00     0.158 A 
BRANCH  15  18
ATOM     18  O   UNL     1     -28.535 -63.830  54.347  1.00  0.00    -0.504 OA
ATOM     19  H   UNL     1     -28.508 -63.656  53.349  1.00  0.00     0.293 HD
ENDBRANCH  15  18
BRANCH  17  20
ATOM     20  O   UNL     1     -27.183 -65.942  53.142  1.00  0.00    -0.504 OA
ATOM     21  H   UNL     1     -27.829 -65.408  52.570  1.00  0.00     0.293 HD
ENDBRANCH  17  20
ENDBRANCH   1  12
BRANCH   2  22
ATOM     22  O   UNL     1     -25.598 -68.038  58.017  1.00  0.00    -0.502 OA
ATOM     23  H   UNL     1     -25.940 -68.792  57.432  1.00  0.00     0.293 HD
ENDBRANCH   2  22
BRANCH   6  24
ATOM     24  O   UNL     1     -20.598 -69.119  59.503  1.00  0.00    -0.507 OA
ATOM     25  H   UNL     1     -20.761 -69.262  60.488  1.00  0.00     0.293 HD
ENDBRANCH   6  24
BRANCH   8  26
ATOM     26  O   UNL     1     -18.351 -65.218  57.878  1.00  0.00    -0.508 OA
ATOM     27  H   UNL     1     -18.223 -64.326  58.339  1.00  0.00     0.293 HD
ENDBRANCH   8  26
TORSDOF 6
ENDMDL
