MODEL 1
REMARK VINA RESULT:    -6.815      0.000      0.000
REMARK INTER + INTRA:          -7.334
REMARK INTER:                  -7.412
REMARK INTRA:                   0.079
REMARK UNBOUND:                 0.079
REMARK SMILES CC(=O)[C@@H]1CC[C@H]2[C@H]3CC=C4C[C@@H](O)CC[C@@]4(C)[C@H]3CC[C@@]12C
REMARK SMILES IDX 4 1 5 2 6 3 7 4 22 5 21 6 20 7 19 8 8 9 9 10 10 11 11 12
REMARK SMILES IDX 17 13 16 14 15 15 13 16 12 17 18 18 23 19 2 20 1 21 3 22
REMARK SMILES IDX 14 23
REMARK H PARENT 14 24
REMARK Flexibility Score: inf
ROOT
ATOM      1  C   UNL     1     169.150 177.479 179.766  1.00  0.00     0.062 C 
ATOM      2  C   UNL     1     169.197 177.119 181.250  1.00  0.00     0.012 C 
ATOM      3  C   UNL     1     170.069 178.177 181.902  1.00  0.00     0.005 C 
ATOM      4  C   UNL     1     171.080 178.628 180.831  1.00  0.00    -0.001 C 
ATOM      5  C   UNL     1     170.547 178.114 179.451  1.00  0.00    -0.020 C 
ATOM      6  C   UNL     1     171.474 177.014 178.865  1.00  0.00     0.008 C 
ATOM      7  C   UNL     1     172.957 177.422 178.769  1.00  0.00     0.005 C 
ATOM      8  C   UNL     1     173.449 178.396 179.886  1.00  0.00     0.003 C 
ATOM      9  C   UNL     1     172.572 178.273 181.157  1.00  0.00     0.000 C 
ATOM     10  C   UNL     1     172.814 176.919 181.886  1.00  0.00     0.031 C 
ATOM     11  C   UNL     1     174.184 176.306 181.680  1.00  0.00    -0.027 C 
ATOM     12  C   UNL     1     175.158 176.852 180.919  1.00  0.00    -0.065 C 
ATOM     13  C   UNL     1     174.969 178.207 180.246  1.00  0.00    -0.008 C 
ATOM     14  C   UNL     1     175.851 178.281 178.961  1.00  0.00     0.014 C 
ATOM     15  C   UNL     1     177.343 177.945 179.191  1.00  0.00     0.033 C 
ATOM     16  C   UNL     1     177.607 176.939 180.339  1.00  0.00     0.118 C 
ATOM     17  C   UNL     1     176.401 176.038 180.626  1.00  0.00     0.063 C 
ATOM     18  C   UNL     1     175.425 179.330 181.220  1.00  0.00     0.016 C 
ATOM     19  C   UNL     1     170.451 179.267 178.412  1.00  0.00     0.012 C 
ENDROOT
BRANCH   1  20
ATOM     20  C   UNL     1     167.955 178.384 179.484  1.00  0.00     0.133 C 
ATOM     21  C   UNL     1     167.003 178.086 178.363  1.00  0.00     0.088 C 
ATOM     22  O   UNL     1     167.753 179.371 180.177  1.00  0.00    -0.300 OA
ENDBRANCH   1  20
BRANCH  16  23
ATOM     23  O   UNL     1     178.714 176.134 180.027  1.00  0.00    -0.393 OA
ATOM     24  H   UNL     1     179.475 176.747 179.856  1.00  0.00     0.210 HD
ENDBRANCH  16  23
TORSDOF 2
ENDMDL
MODEL 2
REMARK VINA RESULT:    -6.348      8.023     11.047
REMARK INTER + INTRA:          -6.826
REMARK INTER:                  -6.896
REMARK INTRA:                   0.070
REMARK UNBOUND:                 0.079
REMARK SMILES CC(=O)[C@@H]1CC[C@H]2[C@H]3CC=C4C[C@@H](O)CC[C@@]4(C)[C@H]3CC[C@@]12C
REMARK SMILES IDX 4 1 5 2 6 3 7 4 22 5 21 6 20 7 19 8 8 9 9 10 10 11 11 12
REMARK SMILES IDX 17 13 16 14 15 15 13 16 12 17 18 18 23 19 2 20 1 21 3 22
REMARK SMILES IDX 14 23
REMARK H PARENT 14 24
REMARK Flexibility Score: inf
ROOT
ATOM      1  C   UNL     1     176.885 172.440 179.883  1.00  0.00     0.062 C 
ATOM      2  C   UNL     1     176.357 172.206 181.298  1.00  0.00     0.012 C 
ATOM      3  C   UNL     1     177.513 171.598 182.071  1.00  0.00     0.005 C 
ATOM      4  C   UNL     1     178.353 170.809 181.050  1.00  0.00    -0.001 C 
ATOM      5  C   UNL     1     177.903 171.277 179.626  1.00  0.00    -0.020 C 
ATOM      6  C   UNL     1     177.176 170.136 178.863  1.00  0.00     0.008 C 
ATOM      7  C   UNL     1     177.971 168.819 178.788  1.00  0.00     0.005 C 
ATOM      8  C   UNL     1     178.884 168.525 180.020  1.00  0.00     0.003 C 
ATOM      9  C   UNL     1     178.366 169.258 181.282  1.00  0.00     0.000 C 
ATOM     10  C   UNL     1     177.041 168.628 181.802  1.00  0.00     0.031 C 
ATOM     11  C   UNL     1     176.846 167.162 181.474  1.00  0.00    -0.027 C 
ATOM     12  C   UNL     1     177.727 166.413 180.774  1.00  0.00    -0.065 C 
ATOM     13  C   UNL     1     179.060 166.989 180.308  1.00  0.00    -0.008 C 
ATOM     14  C   UNL     1     179.534 166.239 179.025  1.00  0.00     0.014 C 
ATOM     15  C   UNL     1     179.578 164.700 179.164  1.00  0.00     0.033 C 
ATOM     16  C   UNL     1     178.535 164.112 180.148  1.00  0.00     0.118 C 
ATOM     17  C   UNL     1     177.318 165.023 180.333  1.00  0.00     0.063 C 
ATOM     18  C   UNL     1     180.125 166.778 181.422  1.00  0.00     0.016 C 
ATOM     19  C   UNL     1     179.116 171.734 178.766  1.00  0.00     0.012 C 
ENDROOT
BRANCH   1  20
ATOM     20  C   UNL     1     177.469 173.843 179.766  1.00  0.00     0.133 C 
ATOM     21  C   UNL     1     177.110 174.740 178.618  1.00  0.00     0.088 C 
ATOM     22  O   UNL     1     178.242 174.261 180.616  1.00  0.00    -0.300 OA
ENDBRANCH   1  20
BRANCH  16  23
ATOM     23  O   UNL     1     178.101 162.857 179.693  1.00  0.00    -0.393 OA
ATOM     24  H   UNL     1     178.081 162.902 178.702  1.00  0.00     0.210 HD
ENDBRANCH  16  23
TORSDOF 2
ENDMDL
MODEL 3
REMARK VINA RESULT:    -6.111      9.133     12.049
REMARK INTER + INTRA:          -6.568
REMARK INTER:                  -6.754
REMARK INTRA:                   0.186
REMARK UNBOUND:                 0.079
REMARK SMILES CC(=O)[C@@H]1CC[C@H]2[C@H]3CC=C4C[C@@H](O)CC[C@@]4(C)[C@H]3CC[C@@]12C
REMARK SMILES IDX 4 1 5 2 6 3 7 4 22 5 21 6 20 7 19 8 8 9 9 10 10 11 11 12
REMARK SMILES IDX 17 13 16 14 15 15 13 16 12 17 18 18 23 19 2 20 1 21 3 22
REMARK SMILES IDX 14 23
REMARK H PARENT 14 24
REMARK Flexibility Score: inf
ROOT
ATOM      1  C   UNL     1     161.206 175.883 173.537  1.00  0.00     0.062 C 
ATOM      2  C   UNL     1     161.896 177.134 172.997  1.00  0.00     0.012 C 
ATOM      3  C   UNL     1     163.266 177.161 173.649  1.00  0.00     0.005 C 
ATOM      4  C   UNL     1     163.108 176.479 175.021  1.00  0.00    -0.001 C 
ATOM      5  C   UNL     1     161.742 175.715 174.999  1.00  0.00    -0.020 C 
ATOM      6  C   UNL     1     160.724 176.357 175.982  1.00  0.00     0.008 C 
ATOM      7  C   UNL     1     161.248 176.515 177.422  1.00  0.00     0.005 C 
ATOM      8  C   UNL     1     162.781 176.784 177.543  1.00  0.00     0.003 C 
ATOM      9  C   UNL     1     163.336 177.428 176.248  1.00  0.00     0.000 C 
ATOM     10  C   UNL     1     162.840 178.895 176.085  1.00  0.00     0.031 C 
ATOM     11  C   UNL     1     162.513 179.617 177.375  1.00  0.00    -0.027 C 
ATOM     12  C   UNL     1     162.617 179.068 178.605  1.00  0.00    -0.065 C 
ATOM     13  C   UNL     1     163.159 177.655 178.797  1.00  0.00    -0.008 C 
ATOM     14  C   UNL     1     162.560 177.037 180.097  1.00  0.00     0.014 C 
ATOM     15  C   UNL     1     162.740 177.909 181.361  1.00  0.00     0.033 C 
ATOM     16  C   UNL     1     162.775 179.435 181.092  1.00  0.00     0.118 C 
ATOM     17  C   UNL     1     162.059 179.823 179.794  1.00  0.00     0.063 C 
ATOM     18  C   UNL     1     164.706 177.718 178.950  1.00  0.00     0.016 C 
ATOM     19  C   UNL     1     161.917 174.221 175.396  1.00  0.00     0.012 C 
ENDROOT
BRANCH   1  20
ATOM     20  C   UNL     1     161.472 174.698 172.616  1.00  0.00     0.133 C 
ATOM     21  C   UNL     1     162.773 174.562 171.882  1.00  0.00     0.088 C 
ATOM     22  O   UNL     1     160.622 173.832 172.465  1.00  0.00    -0.300 OA
ENDBRANCH   1  20
BRANCH  16  23
ATOM     23  O   UNL     1     162.186 180.125 182.162  1.00  0.00    -0.393 OA
ATOM     24  H   UNL     1     162.204 179.512 182.943  1.00  0.00     0.210 HD
ENDBRANCH  16  23
TORSDOF 2
ENDMDL
MODEL 4
REMARK VINA RESULT:    -6.077      3.942      5.685
REMARK INTER + INTRA:          -6.531
REMARK INTER:                  -6.718
REMARK INTRA:                   0.187
REMARK UNBOUND:                 0.079
REMARK SMILES CC(=O)[C@@H]1CC[C@H]2[C@H]3CC=C4C[C@@H](O)CC[C@@]4(C)[C@H]3CC[C@@]12C
REMARK SMILES IDX 4 1 5 2 6 3 7 4 22 5 21 6 20 7 19 8 8 9 9 10 10 11 11 12
REMARK SMILES IDX 17 13 16 14 15 15 13 16 12 17 18 18 23 19 2 20 1 21 3 22
REMARK SMILES IDX 14 23
REMARK H PARENT 14 24
REMARK Flexibility Score: inf
ROOT
ATOM      1  C   UNL     1     173.051 179.449 173.687  1.00  0.00     0.062 C 
ATOM      2  C   UNL     1     174.443 179.141 173.136  1.00  0.00     0.012 C 
ATOM      3  C   UNL     1     174.877 177.854 173.813  1.00  0.00     0.005 C 
ATOM      4  C   UNL     1     174.195 177.837 175.194  1.00  0.00    -0.001 C 
ATOM      5  C   UNL     1     173.066 178.920 175.161  1.00  0.00    -0.020 C 
ATOM      6  C   UNL     1     173.395 180.103 176.113  1.00  0.00     0.008 C 
ATOM      7  C   UNL     1     173.716 179.681 177.559  1.00  0.00     0.005 C 
ATOM      8  C   UNL     1     174.423 178.296 177.703  1.00  0.00     0.003 C 
ATOM      9  C   UNL     1     175.185 177.924 176.407  1.00  0.00     0.000 C 
ATOM     10  C   UNL     1     176.441 178.822 176.208  1.00  0.00     0.031 C 
ATOM     11  C   UNL     1     177.051 179.375 177.479  1.00  0.00    -0.027 C 
ATOM     12  C   UNL     1     176.572 179.143 178.721  1.00  0.00    -0.065 C 
ATOM     13  C   UNL     1     175.382 178.217 178.948  1.00  0.00    -0.008 C 
ATOM     14  C   UNL     1     174.631 178.639 180.248  1.00  0.00     0.014 C 
ATOM     15  C   UNL     1     175.533 178.750 181.499  1.00  0.00     0.033 C 
ATOM     16  C   UNL     1     176.999 179.155 181.202  1.00  0.00     0.118 C 
ATOM     17  C   UNL     1     177.145 179.924 179.885  1.00  0.00     0.063 C 
ATOM     18  C   UNL     1     175.895 176.760 179.128  1.00  0.00     0.016 C 
ATOM     19  C   UNL     1     171.693 178.325 175.589  1.00  0.00     0.012 C 
ENDROOT
BRANCH   1  20
ATOM     20  C   UNL     1     171.985 178.827 172.792  1.00  0.00     0.133 C 
ATOM     21  C   UNL     1     172.236 177.540 172.064  1.00  0.00     0.088 C 
ATOM     22  O   UNL     1     170.899 179.373 172.659  1.00  0.00    -0.300 OA
ENDBRANCH   1  20
BRANCH  16  23
ATOM     23  O   UNL     1     177.500 179.944 182.249  1.00  0.00    -0.393 OA
ATOM     24  H   UNL     1     178.324 179.498 182.576  1.00  0.00     0.210 HD
ENDBRANCH  16  23
TORSDOF 2
ENDMDL
MODEL 5
REMARK VINA RESULT:    -5.995      1.362      6.993
REMARK INTER + INTRA:          -6.442
REMARK INTER:                  -6.993
REMARK INTRA:                   0.551
REMARK UNBOUND:                 0.079
REMARK SMILES CC(=O)[C@@H]1CC[C@H]2[C@H]3CC=C4C[C@@H](O)CC[C@@]4(C)[C@H]3CC[C@@]12C
REMARK SMILES IDX 4 1 5 2 6 3 7 4 22 5 21 6 20 7 19 8 8 9 9 10 10 11 11 12
REMARK SMILES IDX 17 13 16 14 15 15 13 16 12 17 18 18 23 19 2 20 1 21 3 22
REMARK SMILES IDX 14 23
REMARK H PARENT 14 24
REMARK Flexibility Score: inf
ROOT
ATOM      1  C   UNL     1     176.825 176.241 179.587  1.00  0.00     0.062 C 
ATOM      2  C   UNL     1     177.088 177.619 180.192  1.00  0.00     0.012 C 
ATOM      3  C   UNL     1     176.275 177.667 181.472  1.00  0.00     0.005 C 
ATOM      4  C   UNL     1     175.047 176.766 181.242  1.00  0.00    -0.001 C 
ATOM      5  C   UNL     1     175.348 175.895 179.976  1.00  0.00    -0.020 C 
ATOM      6  C   UNL     1     174.416 176.280 178.794  1.00  0.00     0.008 C 
ATOM      7  C   UNL     1     172.915 176.256 179.139  1.00  0.00     0.005 C 
ATOM      8  C   UNL     1     172.568 176.641 180.612  1.00  0.00     0.003 C 
ATOM      9  C   UNL     1     173.676 177.528 181.231  1.00  0.00     0.000 C 
ATOM     10  C   UNL     1     173.684 178.951 180.600  1.00  0.00     0.031 C 
ATOM     11  C   UNL     1     172.353 179.429 180.058  1.00  0.00    -0.027 C 
ATOM     12  C   UNL     1     171.212 178.705 180.087  1.00  0.00    -0.065 C 
ATOM     13  C   UNL     1     171.163 177.335 180.756  1.00  0.00    -0.008 C 
ATOM     14  C   UNL     1     170.051 176.467 180.090  1.00  0.00     0.014 C 
ATOM     15  C   UNL     1     168.661 177.143 180.036  1.00  0.00     0.033 C 
ATOM     16  C   UNL     1     168.699 178.688 179.935  1.00  0.00     0.118 C 
ATOM     17  C   UNL     1     170.004 179.209 179.325  1.00  0.00     0.063 C 
ATOM     18  C   UNL     1     170.812 177.512 182.260  1.00  0.00     0.016 C 
ATOM     19  C   UNL     1     175.154 174.379 180.269  1.00  0.00     0.012 C 
ENDROOT
BRANCH   1  20
ATOM     20  C   UNL     1     177.870 175.245 180.078  1.00  0.00     0.133 C 
ATOM     21  C   UNL     1     177.878 173.826 179.591  1.00  0.00     0.088 C 
ATOM     22  O   UNL     1     178.725 175.594 180.879  1.00  0.00    -0.300 OA
ENDBRANCH   1  20
BRANCH  16  23
ATOM     23  O   UNL     1     167.620 179.145 179.161  1.00  0.00    -0.393 OA
ATOM     24  H   UNL     1     167.988 179.809 178.521  1.00  0.00     0.210 HD
ENDBRANCH  16  23
TORSDOF 2
ENDMDL
MODEL 6
REMARK VINA RESULT:    -5.972      8.799     12.012
REMARK INTER + INTRA:          -6.417
REMARK INTER:                  -6.702
REMARK INTRA:                   0.285
REMARK UNBOUND:                 0.079
REMARK SMILES CC(=O)[C@@H]1CC[C@H]2[C@H]3CC=C4C[C@@H](O)CC[C@@]4(C)[C@H]3CC[C@@]12C
REMARK SMILES IDX 4 1 5 2 6 3 7 4 22 5 21 6 20 7 19 8 8 9 9 10 10 11 11 12
REMARK SMILES IDX 17 13 16 14 15 15 13 16 12 17 18 18 23 19 2 20 1 21 3 22
REMARK SMILES IDX 14 23
REMARK H PARENT 14 24
REMARK Flexibility Score: inf
ROOT
ATOM      1  C   UNL     1     177.730 164.608 179.501  1.00  0.00     0.062 C 
ATOM      2  C   UNL     1     179.133 164.685 180.101  1.00  0.00     0.012 C 
ATOM      3  C   UNL     1     178.984 165.464 181.395  1.00  0.00     0.005 C 
ATOM      4  C   UNL     1     177.805 166.433 181.186  1.00  0.00    -0.001 C 
ATOM      5  C   UNL     1     177.030 165.946 179.916  1.00  0.00    -0.020 C 
ATOM      6  C   UNL     1     177.166 166.964 178.751  1.00  0.00     0.008 C 
ATOM      7  C   UNL     1     176.772 168.406 179.121  1.00  0.00     0.005 C 
ATOM      8  C   UNL     1     177.065 168.814 180.600  1.00  0.00     0.003 C 
ATOM      9  C   UNL     1     178.202 167.950 181.199  1.00  0.00     0.000 C 
ATOM     10  C   UNL     1     179.580 168.306 180.567  1.00  0.00     0.031 C 
ATOM     11  C   UNL     1     179.710 169.723 180.048  1.00  0.00    -0.027 C 
ATOM     12  C   UNL     1     178.725 170.647 180.098  1.00  0.00    -0.065 C 
ATOM     13  C   UNL     1     177.389 170.344 180.768  1.00  0.00    -0.008 C 
ATOM     14  C   UNL     1     176.269 171.217 180.122  1.00  0.00     0.014 C 
ATOM     15  C   UNL     1     176.579 172.732 180.092  1.00  0.00     0.033 C 
ATOM     16  C   UNL     1     178.085 173.081 179.989  1.00  0.00     0.118 C 
ATOM     17  C   UNL     1     178.911 171.955 179.357  1.00  0.00     0.063 C 
ATOM     18  C   UNL     1     177.481 170.703 182.278  1.00  0.00     0.016 C 
ATOM     19  C   UNL     1     175.515 165.753 180.213  1.00  0.00     0.012 C 
ENDROOT
BRANCH   1  20
ATOM     20  C   UNL     1     177.026 163.341 179.975  1.00  0.00     0.133 C 
ATOM     21  C   UNL     1     175.818 162.811 179.260  1.00  0.00     0.088 C 
ATOM     22  O   UNL     1     177.444 162.732 180.949  1.00  0.00    -0.300 OA
ENDBRANCH   1  20
BRANCH  16  23
ATOM     23  O   UNL     1     178.256 174.252 179.235  1.00  0.00    -0.393 OA
ATOM     24  H   UNL     1     178.311 173.974 178.283  1.00  0.00     0.210 HD
ENDBRANCH  16  23
TORSDOF 2
ENDMDL
MODEL 7
REMARK VINA RESULT:    -5.845      2.927      8.822
REMARK INTER + INTRA:          -6.279
REMARK INTER:                  -6.344
REMARK INTRA:                   0.065
REMARK UNBOUND:                 0.079
REMARK SMILES CC(=O)[C@@H]1CC[C@H]2[C@H]3CC=C4C[C@@H](O)CC[C@@]4(C)[C@H]3CC[C@@]12C
REMARK SMILES IDX 4 1 5 2 6 3 7 4 22 5 21 6 20 7 19 8 8 9 9 10 10 11 11 12
REMARK SMILES IDX 17 13 16 14 15 15 13 16 12 17 18 18 23 19 2 20 1 21 3 22
REMARK SMILES IDX 14 23
REMARK H PARENT 14 24
REMARK Flexibility Score: inf
ROOT
ATOM      1  C   UNL     1     170.862 176.968 180.133  1.00  0.00     0.062 C 
ATOM      2  C   UNL     1     170.828 177.518 178.708  1.00  0.00     0.012 C 
ATOM      3  C   UNL     1     170.045 178.816 178.788  1.00  0.00     0.005 C 
ATOM      4  C   UNL     1     169.041 178.648 179.943  1.00  0.00    -0.001 C 
ATOM      5  C   UNL     1     169.504 177.406 180.777  1.00  0.00    -0.020 C 
ATOM      6  C   UNL     1     168.490 176.236 180.651  1.00  0.00     0.008 C 
ATOM      7  C   UNL     1     167.037 176.619 180.988  1.00  0.00     0.005 C 
ATOM      8  C   UNL     1     166.638 178.086 180.631  1.00  0.00     0.003 C 
ATOM      9  C   UNL     1     167.537 178.645 179.500  1.00  0.00     0.000 C 
ATOM     10  C   UNL     1     167.222 177.965 178.135  1.00  0.00     0.031 C 
ATOM     11  C   UNL     1     165.810 177.441 177.981  1.00  0.00    -0.027 C 
ATOM     12  C   UNL     1     164.856 177.525 178.935  1.00  0.00    -0.065 C 
ATOM     13  C   UNL     1     165.119 178.241 180.255  1.00  0.00    -0.008 C 
ATOM     14  C   UNL     1     164.212 177.634 181.370  1.00  0.00     0.014 C 
ATOM     15  C   UNL     1     162.707 177.592 181.016  1.00  0.00     0.033 C 
ATOM     16  C   UNL     1     162.404 177.436 179.505  1.00  0.00     0.118 C 
ATOM     17  C   UNL     1     163.554 176.776 178.736  1.00  0.00     0.063 C 
ATOM     18  C   UNL     1     164.764 179.747 180.099  1.00  0.00     0.016 C 
ATOM     19  C   UNL     1     169.651 177.756 182.286  1.00  0.00     0.012 C 
ENDROOT
BRANCH   1  20
ATOM     20  C   UNL     1     172.108 177.467 180.857  1.00  0.00     0.133 C 
ATOM     21  C   UNL     1     172.973 176.531 181.649  1.00  0.00     0.088 C 
ATOM     22  O   UNL     1     172.423 178.647 180.798  1.00  0.00    -0.300 OA
ENDBRANCH   1  20
BRANCH  16  23
ATOM     23  O   UNL     1     161.239 176.675 179.325  1.00  0.00    -0.393 OA
ATOM     24  H   UNL     1     160.560 177.280 178.926  1.00  0.00     0.210 HD
ENDBRANCH  16  23
TORSDOF 2
ENDMDL
MODEL 8
REMARK VINA RESULT:    -5.767     12.618     15.423
REMARK INTER + INTRA:          -6.194
REMARK INTER:                  -6.260
REMARK INTRA:                   0.067
REMARK UNBOUND:                 0.079
REMARK SMILES CC(=O)[C@@H]1CC[C@H]2[C@H]3CC=C4C[C@@H](O)CC[C@@]4(C)[C@H]3CC[C@@]12C
REMARK SMILES IDX 4 1 5 2 6 3 7 4 22 5 21 6 20 7 19 8 8 9 9 10 10 11 11 12
REMARK SMILES IDX 17 13 16 14 15 15 13 16 12 17 18 18 23 19 2 20 1 21 3 22
REMARK SMILES IDX 14 23
REMARK H PARENT 14 24
REMARK Flexibility Score: inf
ROOT
ATOM      1  C   UNL     1     162.524 178.277 166.661  1.00  0.00     0.062 C 
ATOM      2  C   UNL     1     161.355 179.224 166.925  1.00  0.00     0.012 C 
ATOM      3  C   UNL     1     161.739 180.016 168.161  1.00  0.00     0.005 C 
ATOM      4  C   UNL     1     162.641 179.096 169.005  1.00  0.00    -0.001 C 
ATOM      5  C   UNL     1     163.092 177.919 168.076  1.00  0.00    -0.020 C 
ATOM      6  C   UNL     1     162.472 176.571 168.537  1.00  0.00     0.008 C 
ATOM      7  C   UNL     1     162.720 176.234 170.020  1.00  0.00     0.005 C 
ATOM      8  C   UNL     1     162.797 177.467 170.975  1.00  0.00     0.003 C 
ATOM      9  C   UNL     1     162.028 178.675 170.386  1.00  0.00     0.000 C 
ATOM     10  C   UNL     1     160.490 178.438 170.412  1.00  0.00     0.031 C 
ATOM     11  C   UNL     1     159.995 177.505 171.497  1.00  0.00    -0.027 C 
ATOM     12  C   UNL     1     160.794 176.888 172.397  1.00  0.00    -0.065 C 
ATOM     13  C   UNL     1     162.295 177.153 172.432  1.00  0.00    -0.008 C 
ATOM     14  C   UNL     1     163.033 175.905 173.011  1.00  0.00     0.014 C 
ATOM     15  C   UNL     1     162.491 175.420 174.375  1.00  0.00     0.033 C 
ATOM     16  C   UNL     1     160.982 175.688 174.603  1.00  0.00     0.118 C 
ATOM     17  C   UNL     1     160.201 175.819 173.292  1.00  0.00     0.063 C 
ATOM     18  C   UNL     1     162.579 178.366 173.363  1.00  0.00     0.016 C 
ATOM     19  C   UNL     1     164.639 177.759 168.069  1.00  0.00     0.012 C 
ENDROOT
BRANCH   1  20
ATOM     20  C   UNL     1     163.525 178.930 165.714  1.00  0.00     0.133 C 
ATOM     21  C   UNL     1     164.219 178.134 164.649  1.00  0.00     0.088 C 
ATOM     22  O   UNL     1     163.773 180.124 165.809  1.00  0.00    -0.300 OA
ENDBRANCH   1  20
BRANCH  16  23
ATOM     23  O   UNL     1     160.421 174.653 175.367  1.00  0.00    -0.393 OA
ATOM     24  H   UNL     1     160.652 174.839 176.315  1.00  0.00     0.210 HD
ENDBRANCH  16  23
TORSDOF 2
ENDMDL
