MODEL 1
REMARK VINA RESULT:    -4.949      0.000      0.000
REMARK INTER + INTRA:          -7.806
REMARK INTER:                  -7.552
REMARK INTRA:                  -0.253
REMARK UNBOUND:                -0.253
REMARK SMILES CC1=CCC[C@@H](C)C(=O)C[C@@H](C(C)C)C(=O)C1
REMARK SMILES IDX 8 1 9 2 6 3 7 4 5 5 4 6 3 7 2 8 1 9 10 11 11 12 15 13 16 14
REMARK SMILES IDX 17 15 12 17 13 18 14 19
REMARK H PARENT
REMARK Flexibility Score: 70.00
ROOT
ATOM      1  C   UNL     1      -8.369  33.463  22.255  1.00  0.00     0.136 C 
ATOM      2  O   UNL     1      -7.794  34.463  21.850  1.00  0.00    -0.299 OA
ENDROOT
BRANCH   1   3
ATOM      3  C   UNL     1      -8.232  32.173  21.467  1.00  0.00     0.053 C 
ATOM      4  C   UNL     1      -9.593  31.698  20.943  1.00  0.00     0.016 C 
BRANCH   3   5
ATOM      5  C   UNL     1      -7.543  31.075  22.299  1.00  0.00     0.015 C 
BRANCH   5   6
ATOM      6  C   UNL     1      -8.528  29.969  22.717  1.00  0.00     0.028 C 
BRANCH   6   7
ATOM      7  C   UNL     1      -8.237  29.479  24.112  1.00  0.00    -0.028 C 
ATOM      8  C   UNL     1      -8.794  29.987  25.236  1.00  0.00    -0.070 CG0
ATOM      9  C   UNL     1      -8.428  29.355  26.556  1.00  0.00     0.039 C 
ATOM     10  G   UNL     1      -9.756  31.165  25.226  1.00  0.00     0.000 G0
ENDBRANCH   6   7
ENDBRANCH   5   6
ENDBRANCH   3   5
ENDBRANCH   1   3
BRANCH   1  11
ATOM     11  C   UNL     1      -9.218  33.570  23.504  1.00  0.00     0.087 C 
BRANCH  11  12
ATOM     12  C   UNL     1      -8.384  33.381  24.800  1.00  0.00     0.066 C 
BRANCH  12  13
ATOM     13  C   UNL     1      -9.129  32.450  25.745  1.00  0.00     0.140 C 
ATOM     14  O   UNL     1      -9.137  32.691  26.943  1.00  0.00    -0.299 OA
BRANCH  13  15
ATOM     15  C   UNL     1      -9.760  31.175  25.240  1.00  0.00     0.106 CG0
ATOM     16  G   UNL     1      -8.783  30.009  25.245  1.00  0.00     0.000 G0
ENDBRANCH  13  15
ENDBRANCH  12  13
BRANCH  12  17
ATOM     17  C   UNL     1      -8.062  34.738  25.510  1.00  0.00    -0.006 C 
ATOM     18  C   UNL     1      -6.667  35.264  25.112  1.00  0.00     0.008 C 
ATOM     19  C   UNL     1      -9.103  35.828  25.187  1.00  0.00     0.008 C 
ENDBRANCH  12  17
ENDBRANCH  11  12
ENDBRANCH   1  11
TORSDOF 1
ENDMDL
MODEL 2
REMARK VINA RESULT:    -4.888      2.181      4.078
REMARK INTER + INTRA:          -7.713
REMARK INTER:                  -7.807
REMARK INTRA:                   0.094
REMARK UNBOUND:                -0.253
REMARK SMILES CC1=CCC[C@@H](C)C(=O)C[C@@H](C(C)C)C(=O)C1
REMARK SMILES IDX 8 1 9 2 6 3 7 4 5 5 4 6 3 7 2 8 1 9 10 11 11 12 15 13 16 14
REMARK SMILES IDX 17 15 12 17 13 18 14 19
REMARK H PARENT
REMARK Flexibility Score: 70.00
ROOT
ATOM      1  C   UNL     1      -8.641  31.081  24.317  1.00  0.00     0.136 C 
ATOM      2  O   UNL     1      -9.741  31.144  24.847  1.00  0.00    -0.299 OA
ENDROOT
BRANCH   1   3
ATOM      3  C   UNL     1      -8.310  29.867  23.468  1.00  0.00     0.053 C 
ATOM      4  C   UNL     1      -6.792  29.662  23.367  1.00  0.00     0.016 C 
BRANCH   3   5
ATOM      5  C   UNL     1      -8.952  29.962  22.072  1.00  0.00     0.015 C 
BRANCH   5   6
ATOM      6  C   UNL     1      -9.401  31.397  21.743  1.00  0.00     0.028 C 
BRANCH   6   7
ATOM      7  C   UNL     1      -8.449  32.059  20.782  1.00  0.00    -0.028 C 
ATOM      8  C   UNL     1      -8.062  33.354  20.854  1.00  0.00    -0.070 CG0
ATOM      9  C   UNL     1      -7.066  33.853  19.837  1.00  0.00     0.039 C 
ATOM     10  G   UNL     1      -8.591  34.321  21.901  1.00  0.00     0.000 G0
ENDBRANCH   6   7
ENDBRANCH   5   6
ENDBRANCH   3   5
ENDBRANCH   1   3
BRANCH   1  11
ATOM     11  C   UNL     1      -7.653  32.202  24.560  1.00  0.00     0.087 C 
BRANCH  11  12
ATOM     12  C   UNL     1      -8.308  33.604  24.430  1.00  0.00     0.066 C 
BRANCH  12  13
ATOM     13  C   UNL     1      -7.772  34.295  23.185  1.00  0.00     0.140 C 
ATOM     14  O   UNL     1      -6.716  34.908  23.247  1.00  0.00    -0.299 OA
BRANCH  13  15
ATOM     15  C   UNL     1      -8.577  34.331  21.909  1.00  0.00     0.106 CG0
ATOM     16  G   UNL     1      -8.063  33.340  20.877  1.00  0.00     0.000 G0
ENDBRANCH  13  15
ENDBRANCH  12  13
BRANCH  12  17
ATOM     17  C   UNL     1      -8.076  34.495  25.695  1.00  0.00    -0.006 C 
ATOM     18  C   UNL     1      -9.001  35.730  25.691  1.00  0.00     0.008 C 
ATOM     19  C   UNL     1      -8.307  33.718  27.007  1.00  0.00     0.008 C 
ENDBRANCH  12  17
ENDBRANCH  11  12
ENDBRANCH   1  11
TORSDOF 1
ENDMDL
MODEL 3
REMARK VINA RESULT:    -4.662      1.491      2.134
REMARK INTER + INTRA:          -7.368
REMARK INTER:                  -7.490
REMARK INTRA:                   0.122
REMARK UNBOUND:                -0.253
REMARK SMILES CC1=CCC[C@@H](C)C(=O)C[C@@H](C(C)C)C(=O)C1
REMARK SMILES IDX 8 1 9 2 6 3 7 4 5 5 4 6 3 7 2 8 1 9 10 11 11 12 15 13 16 14
REMARK SMILES IDX 17 15 12 17 13 18 14 19
REMARK H PARENT
REMARK Flexibility Score: 70.00
ROOT
ATOM      1  C   UNL     1      -8.414  31.308  23.030  1.00  0.00     0.136 C 
ATOM      2  O   UNL     1      -8.474  31.276  21.809  1.00  0.00    -0.299 OA
ENDROOT
BRANCH   1   3
ATOM      3  C   UNL     1      -7.801  30.128  23.761  1.00  0.00     0.053 C 
ATOM      4  C   UNL     1      -6.442  29.750  23.157  1.00  0.00     0.016 C 
BRANCH   3   5
ATOM      5  C   UNL     1      -8.755  28.920  23.782  1.00  0.00     0.015 C 
BRANCH   5   6
ATOM      6  C   UNL     1      -9.907  29.116  24.785  1.00  0.00     0.028 C 
BRANCH   6   7
ATOM      7  C   UNL     1      -9.389  29.233  26.195  1.00  0.00    -0.028 C 
ATOM      8  C   UNL     1      -9.350  30.385  26.905  1.00  0.00    -0.070 CG0
ATOM      9  C   UNL     1      -8.839  30.325  28.323  1.00  0.00     0.039 C 
ATOM     10  G   UNL     1      -9.786  31.726  26.336  1.00  0.00     0.000 G0
ENDBRANCH   6   7
ENDBRANCH   5   6
ENDBRANCH   3   5
ENDBRANCH   1   3
BRANCH   1  11
ATOM     11  C   UNL     1      -8.984  32.510  23.753  1.00  0.00     0.087 C 
BRANCH  11  12
ATOM     12  C   UNL     1      -8.041  33.023  24.875  1.00  0.00     0.066 C 
BRANCH  12  13
ATOM     13  C   UNL     1      -8.661  32.719  26.230  1.00  0.00     0.140 C 
ATOM     14  O   UNL     1      -8.166  33.202  27.239  1.00  0.00    -0.299 OA
BRANCH  13  15
ATOM     15  C   UNL     1      -9.805  31.743  26.359  1.00  0.00     0.106 CG0
ATOM     16  G   UNL     1      -9.352  30.394  26.896  1.00  0.00     0.000 G0
ENDBRANCH  13  15
ENDBRANCH  12  13
BRANCH  12  17
ATOM     17  C   UNL     1      -7.730  34.551  24.745  1.00  0.00    -0.006 C 
ATOM     18  C   UNL     1      -7.121  34.887  23.367  1.00  0.00     0.008 C 
ATOM     19  C   UNL     1      -8.985  35.422  24.948  1.00  0.00     0.008 C 
ENDBRANCH  12  17
ENDBRANCH  11  12
ENDBRANCH   1  11
TORSDOF 1
ENDMDL
MODEL 4
REMARK VINA RESULT:    -4.490      1.800      3.829
REMARK INTER + INTRA:          -7.105
REMARK INTER:                  -6.953
REMARK INTRA:                  -0.152
REMARK UNBOUND:                -0.253
REMARK SMILES CC1=CCC[C@@H](C)C(=O)C[C@@H](C(C)C)C(=O)C1
REMARK SMILES IDX 8 1 9 2 6 3 7 4 5 5 4 6 3 7 2 8 1 9 10 11 11 12 15 13 16 14
REMARK SMILES IDX 17 15 12 17 13 18 14 19
REMARK H PARENT
REMARK Flexibility Score: 70.00
ROOT
ATOM      1  C   UNL     1      -7.510  34.051  24.669  1.00  0.00     0.136 C 
ATOM      2  O   UNL     1      -6.675  34.944  24.643  1.00  0.00    -0.299 OA
ENDROOT
BRANCH   1   3
ATOM      3  C   UNL     1      -8.778  34.263  25.474  1.00  0.00     0.053 C 
ATOM      4  C   UNL     1      -9.324  35.684  25.283  1.00  0.00     0.016 C 
BRANCH   3   5
ATOM      5  C   UNL     1      -8.560  33.947  26.965  1.00  0.00     0.015 C 
BRANCH   5   6
ATOM      6  C   UNL     1      -7.580  32.776  27.167  1.00  0.00     0.028 C 
BRANCH   6   7
ATOM      7  C   UNL     1      -8.315  31.500  27.484  1.00  0.00    -0.028 C 
ATOM      8  C   UNL     1      -8.263  30.377  26.730  1.00  0.00    -0.070 CG0
ATOM      9  C   UNL     1      -9.025  29.166  27.209  1.00  0.00     0.039 C 
ATOM     10  G   UNL     1      -7.482  30.287  25.427  1.00  0.00     0.000 G0
ENDBRANCH   6   7
ENDBRANCH   5   6
ENDBRANCH   3   5
ENDBRANCH   1   3
BRANCH   1  11
ATOM     11  C   UNL     1      -7.221  32.765  23.924  1.00  0.00     0.087 C 
BRANCH  11  12
ATOM     12  C   UNL     1      -8.510  31.946  23.642  1.00  0.00     0.066 C 
BRANCH  12  13
ATOM     13  C   UNL     1      -8.347  30.544  24.209  1.00  0.00     0.140 C 
ATOM     14  O   UNL     1      -8.998  29.625  23.734  1.00  0.00    -0.299 OA
BRANCH  13  15
ATOM     15  C   UNL     1      -7.481  30.291  25.419  1.00  0.00     0.106 CG0
ATOM     16  G   UNL     1      -8.272  30.363  26.717  1.00  0.00     0.000 G0
ENDBRANCH  13  15
ENDBRANCH  12  13
BRANCH  12  17
ATOM     17  C   UNL     1      -8.861  31.884  22.118  1.00  0.00    -0.006 C 
ATOM     18  C   UNL     1     -10.050  32.806  21.776  1.00  0.00     0.008 C 
ATOM     19  C   UNL     1      -7.666  32.280  21.227  1.00  0.00     0.008 C 
ENDBRANCH  12  17
ENDBRANCH  11  12
ENDBRANCH   1  11
TORSDOF 1
ENDMDL
MODEL 5
REMARK VINA RESULT:    -4.456      2.010      4.022
REMARK INTER + INTRA:          -7.055
REMARK INTER:                  -7.528
REMARK INTRA:                   0.473
REMARK UNBOUND:                -0.253
REMARK SMILES CC1=CCC[C@@H](C)C(=O)C[C@@H](C(C)C)C(=O)C1
REMARK SMILES IDX 8 1 9 2 6 3 7 4 5 5 4 6 3 7 2 8 1 9 10 11 11 12 15 13 16 14
REMARK SMILES IDX 17 15 12 17 13 18 14 19
REMARK H PARENT
REMARK Flexibility Score: 70.00
ROOT
ATOM      1  C   UNL     1      -8.947  29.912  24.370  1.00  0.00     0.136 C 
ATOM      2  O   UNL     1     -10.053  29.483  24.667  1.00  0.00    -0.299 OA
ENDROOT
BRANCH   1   3
ATOM      3  C   UNL     1      -8.331  29.486  23.050  1.00  0.00     0.053 C 
ATOM      4  C   UNL     1      -6.800  29.450  23.142  1.00  0.00     0.016 C 
BRANCH   3   5
ATOM      5  C   UNL     1      -8.796  30.389  21.893  1.00  0.00     0.015 C 
BRANCH   5   6
ATOM      6  C   UNL     1      -9.620  31.589  22.396  1.00  0.00     0.028 C 
BRANCH   6   7
ATOM      7  C   UNL     1      -9.029  32.892  21.923  1.00  0.00    -0.028 C 
ATOM      8  C   UNL     1      -8.083  33.593  22.589  1.00  0.00    -0.070 CG0
ATOM      9  C   UNL     1      -7.564  34.860  21.957  1.00  0.00     0.039 C 
ATOM     10  G   UNL     1      -7.532  33.166  23.941  1.00  0.00     0.000 G0
ENDBRANCH   6   7
ENDBRANCH   5   6
ENDBRANCH   3   5
ENDBRANCH   1   3
BRANCH   1  11
ATOM     11  C   UNL     1      -8.233  30.819  25.350  1.00  0.00     0.087 C 
BRANCH  11  12
ATOM     12  C   UNL     1      -9.092  32.051  25.744  1.00  0.00     0.066 C 
BRANCH  12  13
ATOM     13  C   UNL     1      -8.531  33.291  25.066  1.00  0.00     0.140 C 
ATOM     14  O   UNL     1      -8.980  34.391  25.358  1.00  0.00    -0.299 OA
BRANCH  13  15
ATOM     15  C   UNL     1      -7.513  33.177  23.957  1.00  0.00     0.106 CG0
ATOM     16  G   UNL     1      -8.084  33.586  22.608  1.00  0.00     0.000 G0
ENDBRANCH  13  15
ENDBRANCH  12  13
BRANCH  12  17
ATOM     17  C   UNL     1      -9.166  32.260  27.293  1.00  0.00    -0.006 C 
ATOM     18  C   UNL     1      -9.654  30.984  28.011  1.00  0.00     0.008 C 
ATOM     19  C   UNL     1      -7.805  32.666  27.894  1.00  0.00     0.008 C 
ENDBRANCH  12  17
ENDBRANCH  11  12
ENDBRANCH   1  11
TORSDOF 1
ENDMDL
MODEL 6
REMARK VINA RESULT:    -4.418      1.687      4.083
REMARK INTER + INTRA:          -6.995
REMARK INTER:                  -8.033
REMARK INTRA:                   1.038
REMARK UNBOUND:                -0.253
REMARK SMILES CC1=CCC[C@@H](C)C(=O)C[C@@H](C(C)C)C(=O)C1
REMARK SMILES IDX 8 1 9 2 6 3 7 4 5 5 4 6 3 7 2 8 1 9 10 11 11 12 15 13 16 14
REMARK SMILES IDX 17 15 12 17 13 18 14 19
REMARK H PARENT
REMARK Flexibility Score: 70.00
ROOT
ATOM      1  C   UNL     1      -8.801  32.431  21.647  1.00  0.00     0.136 C 
ATOM      2  O   UNL     1      -9.876  31.992  21.263  1.00  0.00    -0.299 OA
ENDROOT
BRANCH   1   3
ATOM      3  C   UNL     1      -8.332  33.774  21.119  1.00  0.00     0.053 C 
ATOM      4  C   UNL     1      -7.134  33.608  20.175  1.00  0.00     0.016 C 
BRANCH   3   5
ATOM      5  C   UNL     1      -8.005  34.748  22.265  1.00  0.00     0.015 C 
BRANCH   5   6
ATOM      6  C   UNL     1      -7.017  34.135  23.275  1.00  0.00     0.028 C 
BRANCH   6   7
ATOM      7  C   UNL     1      -7.340  34.564  24.683  1.00  0.00    -0.028 C 
ATOM      8  C   UNL     1      -8.394  34.109  25.401  1.00  0.00    -0.070 CG0
ATOM      9  C   UNL     1      -8.555  34.606  26.815  1.00  0.00     0.039 C 
ATOM     10  G   UNL     1      -9.419  33.134  24.842  1.00  0.00     0.000 G0
ENDBRANCH   6   7
ENDBRANCH   5   6
ENDBRANCH   3   5
ENDBRANCH   1   3
BRANCH   1  11
ATOM     11  C   UNL     1      -7.977  31.597  22.604  1.00  0.00     0.087 C 
BRANCH  11  12
ATOM     12  C   UNL     1      -8.857  30.860  23.651  1.00  0.00     0.066 C 
BRANCH  12  13
ATOM     13  C   UNL     1      -8.939  31.700  24.917  1.00  0.00     0.140 C 
ATOM     14  O   UNL     1      -8.687  31.185  25.997  1.00  0.00    -0.299 OA
BRANCH  13  15
ATOM     15  C   UNL     1      -9.436  33.125  24.873  1.00  0.00     0.106 CG0
ATOM     16  G   UNL     1      -8.412  34.108  25.418  1.00  0.00     0.000 G0
ENDBRANCH  13  15
ENDBRANCH  12  13
BRANCH  12  17
ATOM     17  C   UNL     1      -8.325  29.426  23.979  1.00  0.00    -0.006 C 
ATOM     18  C   UNL     1      -9.410  28.355  23.740  1.00  0.00     0.008 C 
ATOM     19  C   UNL     1      -7.084  29.057  23.142  1.00  0.00     0.008 C 
ENDBRANCH  12  17
ENDBRANCH  11  12
ENDBRANCH   1  11
TORSDOF 1
ENDMDL
MODEL 7
REMARK VINA RESULT:    -4.164      1.746      4.076
REMARK INTER + INTRA:          -6.608
REMARK INTER:                  -6.849
REMARK INTRA:                   0.240
REMARK UNBOUND:                -0.253
REMARK SMILES CC1=CCC[C@@H](C)C(=O)C[C@@H](C(C)C)C(=O)C1
REMARK SMILES IDX 8 1 9 2 6 3 7 4 5 5 4 6 3 7 2 8 1 9 10 11 11 12 15 13 16 14
REMARK SMILES IDX 17 15 12 17 13 18 14 19
REMARK H PARENT
REMARK Flexibility Score: 70.00
ROOT
ATOM      1  C   UNL     1      -8.299  33.438  23.320  1.00  0.00     0.136 C 
ATOM      2  O   UNL     1      -8.718  33.491  22.173  1.00  0.00    -0.299 OA
ENDROOT
BRANCH   1   3
ATOM      3  C   UNL     1      -8.227  34.718  24.131  1.00  0.00     0.053 C 
ATOM      4  C   UNL     1      -6.779  35.207  24.265  1.00  0.00     0.016 C 
BRANCH   3   5
ATOM      5  C   UNL     1      -8.886  34.549  25.513  1.00  0.00     0.015 C 
BRANCH   5   6
ATOM      6  C   UNL     1      -7.868  34.120  26.585  1.00  0.00     0.028 C 
BRANCH   6   7
ATOM      7  C   UNL     1      -8.516  33.259  27.638  1.00  0.00    -0.028 C 
ATOM      8  C   UNL     1      -8.557  31.907  27.607  1.00  0.00    -0.070 CG0
ATOM      9  C   UNL     1      -9.209  31.190  28.763  1.00  0.00     0.039 C 
ATOM     10  G   UNL     1      -7.987  31.086  26.460  1.00  0.00     0.000 G0
ENDBRANCH   6   7
ENDBRANCH   5   6
ENDBRANCH   3   5
ENDBRANCH   1   3
BRANCH   1  11
ATOM     11  C   UNL     1      -7.840  32.101  23.864  1.00  0.00     0.087 C 
BRANCH  11  12
ATOM     12  C   UNL     1      -9.019  31.107  24.053  1.00  0.00     0.066 C 
BRANCH  12  13
ATOM     13  C   UNL     1      -9.034  30.616  25.493  1.00  0.00     0.140 C 
ATOM     14  O   UNL     1      -9.961  29.919  25.880  1.00  0.00    -0.299 OA
BRANCH  13  15
ATOM     15  C   UNL     1      -7.984  31.068  26.479  1.00  0.00     0.106 CG0
ATOM     16  G   UNL     1      -8.574  31.907  27.602  1.00  0.00     0.000 G0
ENDBRANCH  13  15
ENDBRANCH  12  13
BRANCH  12  17
ATOM     17  C   UNL     1      -8.949  29.898  23.062  1.00  0.00    -0.006 C 
ATOM     18  C   UNL     1      -9.271  30.334  21.618  1.00  0.00     0.008 C 
ATOM     19  C   UNL     1      -7.567  29.216  23.069  1.00  0.00     0.008 C 
ENDBRANCH  12  17
ENDBRANCH  11  12
ENDBRANCH   1  11
TORSDOF 1
ENDMDL
MODEL 8
REMARK VINA RESULT:    -4.096      1.923      5.122
REMARK INTER + INTRA:          -6.505
REMARK INTER:                  -7.586
REMARK INTRA:                   1.081
REMARK UNBOUND:                -0.253
REMARK SMILES CC1=CCC[C@@H](C)C(=O)C[C@@H](C(C)C)C(=O)C1
REMARK SMILES IDX 8 1 9 2 6 3 7 4 5 5 4 6 3 7 2 8 1 9 10 11 11 12 15 13 16 14
REMARK SMILES IDX 17 15 12 17 13 18 14 19
REMARK H PARENT
REMARK Flexibility Score: 70.00
ROOT
ATOM      1  C   UNL     1      -8.515  30.231  25.457  1.00  0.00     0.136 C 
ATOM      2  O   UNL     1      -9.588  29.782  25.082  1.00  0.00    -0.299 OA
ENDROOT
BRANCH   1   3
ATOM      3  C   UNL     1      -8.329  30.542  26.930  1.00  0.00     0.053 C 
ATOM      4  C   UNL     1      -8.947  29.446  27.809  1.00  0.00     0.016 C 
BRANCH   3   5
ATOM      5  C   UNL     1      -8.896  31.927  27.291  1.00  0.00     0.015 C 
BRANCH   5   6
ATOM      6  C   UNL     1      -7.803  33.012  27.293  1.00  0.00     0.028 C 
BRANCH   6   7
ATOM      7  C   UNL     1      -8.312  34.300  26.699  1.00  0.00    -0.028 C 
ATOM      8  C   UNL     1      -8.214  34.633  25.391  1.00  0.00    -0.070 CG0
ATOM      9  C   UNL     1      -8.814  35.944  24.947  1.00  0.00     0.039 C 
ATOM     10  G   UNL     1      -7.521  33.754  24.360  1.00  0.00     0.000 G0
ENDBRANCH   6   7
ENDBRANCH   5   6
ENDBRANCH   3   5
ENDBRANCH   1   3
BRANCH   1  11
ATOM     11  C   UNL     1      -7.435  30.487  24.426  1.00  0.00     0.087 C 
BRANCH  11  12
ATOM     12  C   UNL     1      -7.940  31.370  23.252  1.00  0.00     0.066 C 
BRANCH  12  13
ATOM     13  C   UNL     1      -8.473  32.683  23.806  1.00  0.00     0.140 C 
ATOM     14  O   UNL     1      -9.669  32.927  23.725  1.00  0.00    -0.299 OA
BRANCH  13  15
ATOM     15  C   UNL     1      -7.537  33.734  24.348  1.00  0.00     0.106 CG0
ATOM     16  G   UNL     1      -8.212  34.633  25.373  1.00  0.00     0.000 G0
ENDBRANCH  13  15
ENDBRANCH  12  13
BRANCH  12  17
ATOM     17  C   UNL     1      -9.032  30.655  22.389  1.00  0.00    -0.006 C 
ATOM     18  C   UNL     1      -9.351  31.455  21.110  1.00  0.00     0.008 C 
ATOM     19  C   UNL     1      -8.612  29.229  21.980  1.00  0.00     0.008 C 
ENDBRANCH  12  17
ENDBRANCH  11  12
ENDBRANCH   1  11
TORSDOF 1
ENDMDL
MODEL 9
REMARK VINA RESULT:    -3.860      2.010      3.953
REMARK INTER + INTRA:          -6.144
REMARK INTER:                  -6.953
REMARK INTRA:                   0.809
REMARK UNBOUND:                -0.253
REMARK SMILES CC1=CCC[C@@H](C)C(=O)C[C@@H](C(C)C)C(=O)C1
REMARK SMILES IDX 8 1 9 2 6 3 7 4 5 5 4 6 3 7 2 8 1 9 10 11 11 12 15 13 16 14
REMARK SMILES IDX 17 15 12 17 13 18 14 19
REMARK H PARENT
REMARK Flexibility Score: 70.00
ROOT
ATOM      1  C   UNL     1      -7.699  30.120  23.011  1.00  0.00     0.136 C 
ATOM      2  O   UNL     1      -8.218  29.075  22.648  1.00  0.00    -0.299 OA
ENDROOT
BRANCH   1   3
ATOM      3  C   UNL     1      -7.382  30.304  24.484  1.00  0.00     0.053 C 
ATOM      4  C   UNL     1      -6.023  29.686  24.838  1.00  0.00     0.016 C 
BRANCH   3   5
ATOM      5  C   UNL     1      -8.500  29.735  25.377  1.00  0.00     0.015 C 
BRANCH   5   6
ATOM      6  C   UNL     1      -9.343  30.851  26.022  1.00  0.00     0.028 C 
BRANCH   6   7
ATOM      7  C   UNL     1      -8.546  32.121  26.167  1.00  0.00    -0.028 C 
ATOM      8  C   UNL     1      -8.718  33.227  25.406  1.00  0.00    -0.070 CG0
ATOM      9  C   UNL     1      -7.866  34.434  25.707  1.00  0.00     0.039 C 
ATOM     10  G   UNL     1      -9.720  33.300  24.264  1.00  0.00     0.000 G0
ENDBRANCH   6   7
ENDBRANCH   5   6
ENDBRANCH   3   5
ENDBRANCH   1   3
BRANCH   1  11
ATOM     11  C   UNL     1      -7.427  31.193  21.978  1.00  0.00     0.087 C 
BRANCH  11  12
ATOM     12  C   UNL     1      -7.936  32.589  22.431  1.00  0.00     0.066 C 
BRANCH  12  13
ATOM     13  C   UNL     1      -9.307  32.438  23.074  1.00  0.00     0.140 C 
ATOM     14  O   UNL     1     -10.124  31.679  22.573  1.00  0.00    -0.299 OA
BRANCH  13  15
ATOM     15  C   UNL     1      -9.712  33.294  24.249  1.00  0.00     0.106 CG0
ATOM     16  G   UNL     1      -8.711  33.213  25.392  1.00  0.00     0.000 G0
ENDBRANCH  13  15
ENDBRANCH  12  13
BRANCH  12  17
ATOM     17  C   UNL     1      -7.992  33.619  21.255  1.00  0.00    -0.006 C 
ATOM     18  C   UNL     1      -7.474  35.004  21.693  1.00  0.00     0.008 C 
ATOM     19  C   UNL     1      -7.172  33.156  20.034  1.00  0.00     0.008 C 
ENDBRANCH  12  17
ENDBRANCH  11  12
ENDBRANCH   1  11
TORSDOF 1
ENDMDL
