MODEL 1
REMARK VINA RESULT:    -3.097      0.000      0.000
REMARK INTER + INTRA:          -8.146
REMARK INTER:                  -5.812
REMARK INTRA:                  -2.334
REMARK UNBOUND:                -2.334
REMARK SMILES O=C([O-])CCCCCCCCCCCCCCC(=O)[O-]
REMARK SMILES IDX 10 1 9 2 8 3 7 4 6 5 5 6 4 7 2 8 1 9 3 10 11 11 12 12 13 13
REMARK SMILES IDX 14 14 15 15 16 16 17 17 18 18 19 19 20 20
REMARK H PARENT
REMARK Flexibility Score: inf
ROOT
ATOM      1  C   UNL     1      50.747  29.877  87.355  1.00  0.00     0.000 C 
ENDROOT
BRANCH   1   2
ATOM      2  C   UNL     1      49.617  30.083  86.330  1.00  0.00     0.000 C 
BRANCH   2   3
ATOM      3  C   UNL     1      48.224  29.814  86.925  1.00  0.00     0.000 C 
BRANCH   3   4
ATOM      4  C   UNL     1      47.289  31.028  86.825  1.00  0.00     0.000 C 
BRANCH   4   5
ATOM      5  C   UNL     1      48.060  32.274  86.363  1.00  0.00     0.000 C 
BRANCH   5   6
ATOM      6  C   UNL     1      48.259  33.307  87.488  1.00  0.00     0.006 C 
BRANCH   6   7
ATOM      7  C   UNL     1      49.718  33.741  87.697  1.00  0.00     0.053 C 
BRANCH   7   8
ATOM      8  C   UNL     1      49.923  35.189  87.378  1.00  0.00     0.041 C 
ATOM      9  O   UNL     1      48.936  35.966  87.295  1.00  0.00    -0.550 OA
ATOM     10  O   UNL     1      51.203  35.675  87.136  1.00  0.00    -0.550 OA
ENDBRANCH   7   8
ENDBRANCH   6   7
ENDBRANCH   5   6
ENDBRANCH   4   5
ENDBRANCH   3   4
ENDBRANCH   2   3
ENDBRANCH   1   2
BRANCH   1  11
ATOM     11  C   UNL     1      50.216  29.667  88.782  1.00  0.00     0.000 C 
BRANCH  11  12
ATOM     12  C   UNL     1      50.624  30.798  89.739  1.00  0.00     0.000 C 
BRANCH  12  13
ATOM     13  C   UNL     1      49.626  30.921  90.900  1.00  0.00     0.000 C 
BRANCH  13  14
ATOM     14  C   UNL     1      48.181  31.142  90.422  1.00  0.00     0.000 C 
BRANCH  14  15
ATOM     15  C   UNL     1      47.281  29.919  90.670  1.00  0.00     0.000 C 
BRANCH  15  16
ATOM     16  C   UNL     1      45.815  30.181  90.292  1.00  0.00     0.006 C 
BRANCH  16  17
ATOM     17  C   UNL     1      45.319  31.556  90.759  1.00  0.00     0.053 C 
BRANCH  17  18
ATOM     18  C   UNL     1      44.334  31.403  91.875  1.00  0.00     0.041 C 
ATOM     19  O   UNL     1      43.777  30.293  92.081  1.00  0.00    -0.550 OA
ATOM     20  O   UNL     1      44.072  32.472  92.721  1.00  0.00    -0.550 OA
ENDBRANCH  17  18
ENDBRANCH  16  17
ENDBRANCH  15  16
ENDBRANCH  14  15
ENDBRANCH  13  14
ENDBRANCH  12  13
ENDBRANCH  11  12
ENDBRANCH   1  11
TORSDOF 15
ENDMDL
MODEL 2
REMARK VINA RESULT:    -3.093     15.849     18.115
REMARK INTER + INTRA:          -8.139
REMARK INTER:                  -6.673
REMARK INTRA:                  -1.466
REMARK UNBOUND:                -2.334
REMARK SMILES O=C([O-])CCCCCCCCCCCCCCC(=O)[O-]
REMARK SMILES IDX 10 1 9 2 8 3 7 4 6 5 5 6 4 7 2 8 1 9 3 10 11 11 12 12 13 13
REMARK SMILES IDX 14 14 15 15 16 16 17 17 18 18 19 19 20 20
REMARK H PARENT
REMARK Flexibility Score: inf
ROOT
ATOM      1  C   UNL     1      50.288  21.592  78.210  1.00  0.00     0.000 C 
ENDROOT
BRANCH   1   2
ATOM      2  C   UNL     1      50.569  23.015  77.695  1.00  0.00     0.000 C 
BRANCH   2   3
ATOM      3  C   UNL     1      51.964  23.148  77.058  1.00  0.00     0.000 C 
BRANCH   3   4
ATOM      4  C   UNL     1      52.427  21.858  76.367  1.00  0.00     0.000 C 
BRANCH   4   5
ATOM      5  C   UNL     1      52.071  21.880  74.873  1.00  0.00     0.000 C 
BRANCH   5   6
ATOM      6  C   UNL     1      53.028  21.031  74.016  1.00  0.00     0.006 C 
BRANCH   6   7
ATOM      7  C   UNL     1      54.275  20.532  74.765  1.00  0.00     0.053 C 
BRANCH   7   8
ATOM      8  C   UNL     1      54.755  19.215  74.239  1.00  0.00     0.041 C 
ATOM      9  O   UNL     1      55.960  18.878  74.378  1.00  0.00    -0.550 OA
ATOM     10  O   UNL     1      53.879  18.373  73.564  1.00  0.00    -0.550 OA
ENDBRANCH   7   8
ENDBRANCH   6   7
ENDBRANCH   5   6
ENDBRANCH   4   5
ENDBRANCH   3   4
ENDBRANCH   2   3
ENDBRANCH   1   2
BRANCH   1  11
ATOM     11  C   UNL     1      49.084  20.940  77.510  1.00  0.00     0.000 C 
BRANCH  11  12
ATOM     12  C   UNL     1      48.288  21.935  76.651  1.00  0.00     0.000 C 
BRANCH  12  13
ATOM     13  C   UNL     1      48.377  21.568  75.162  1.00  0.00     0.000 C 
BRANCH  13  14
ATOM     14  C   UNL     1      47.000  21.304  74.531  1.00  0.00     0.000 C 
BRANCH  14  15
ATOM     15  C   UNL     1      46.925  19.943  73.819  1.00  0.00     0.000 C 
BRANCH  15  16
ATOM     16  C   UNL     1      45.996  18.951  74.537  1.00  0.00     0.006 C 
BRANCH  16  17
ATOM     17  C   UNL     1      45.468  19.496  75.871  1.00  0.00     0.053 C 
BRANCH  17  18
ATOM     18  C   UNL     1      45.690  18.501  76.965  1.00  0.00     0.041 C 
ATOM     19  O   UNL     1      45.918  18.890  78.141  1.00  0.00    -0.550 OA
ATOM     20  O   UNL     1      45.593  17.141  76.697  1.00  0.00    -0.550 OA
ENDBRANCH  17  18
ENDBRANCH  16  17
ENDBRANCH  15  16
ENDBRANCH  14  15
ENDBRANCH  13  14
ENDBRANCH  12  13
ENDBRANCH  11  12
ENDBRANCH   1  11
TORSDOF 15
ENDMDL
MODEL 3
REMARK VINA RESULT:    -3.076      2.421      6.875
REMARK INTER + INTRA:          -8.108
REMARK INTER:                  -6.677
REMARK INTRA:                  -1.431
REMARK UNBOUND:                -2.334
REMARK SMILES O=C([O-])CCCCCCCCCCCCCCC(=O)[O-]
REMARK SMILES IDX 10 1 9 2 8 3 7 4 6 5 5 6 4 7 2 8 1 9 3 10 11 11 12 12 13 13
REMARK SMILES IDX 14 14 15 15 16 16 17 17 18 18 19 19 20 20
REMARK H PARENT
REMARK Flexibility Score: inf
ROOT
ATOM      1  C   UNL     1      48.244  32.741  87.082  1.00  0.00     0.000 C 
ENDROOT
BRANCH   1   2
ATOM      2  C   UNL     1      47.399  32.006  88.137  1.00  0.00     0.000 C 
BRANCH   2   3
ATOM      3  C   UNL     1      48.255  31.163  89.097  1.00  0.00     0.000 C 
BRANCH   3   4
ATOM      4  C   UNL     1      47.685  31.120  90.522  1.00  0.00     0.000 C 
BRANCH   4   5
ATOM      5  C   UNL     1      47.033  29.760  90.810  1.00  0.00     0.000 C 
BRANCH   5   6
ATOM      6  C   UNL     1      45.513  29.858  91.034  1.00  0.00     0.006 C 
BRANCH   6   7
ATOM      7  C   UNL     1      44.992  31.292  91.217  1.00  0.00     0.053 C 
BRANCH   7   8
ATOM      8  C   UNL     1      43.922  31.371  92.260  1.00  0.00     0.041 C 
ATOM      9  O   UNL     1      43.045  30.470  92.339  1.00  0.00    -0.550 OA
ATOM     10  O   UNL     1      43.870  32.457  93.125  1.00  0.00    -0.550 OA
ENDBRANCH   7   8
ENDBRANCH   6   7
ENDBRANCH   5   6
ENDBRANCH   4   5
ENDBRANCH   3   4
ENDBRANCH   2   3
ENDBRANCH   1   2
BRANCH   1  11
ATOM     11  C   UNL     1      48.276  34.261  87.308  1.00  0.00     0.000 C 
BRANCH  11  12
ATOM     12  C   UNL     1      49.032  35.009  86.199  1.00  0.00     0.000 C 
BRANCH  12  13
ATOM     13  C   UNL     1      50.186  34.156  85.650  1.00  0.00     0.000 C 
BRANCH  13  14
ATOM     14  C   UNL     1      51.566  34.777  85.918  1.00  0.00     0.000 C 
BRANCH  14  15
ATOM     15  C   UNL     1      51.818  35.038  87.413  1.00  0.00     0.000 C 
BRANCH  15  16
ATOM     16  C   UNL     1      52.449  33.830  88.124  1.00  0.00     0.006 C 
BRANCH  16  17
ATOM     17  C   UNL     1      51.446  33.071  89.004  1.00  0.00     0.053 C 
BRANCH  17  18
ATOM     18  C   UNL     1      52.167  32.231  90.009  1.00  0.00     0.041 C 
ATOM     19  O   UNL     1      53.045  32.743  90.752  1.00  0.00    -0.550 OA
ATOM     20  O   UNL     1      51.832  30.891  90.164  1.00  0.00    -0.550 OA
ENDBRANCH  17  18
ENDBRANCH  16  17
ENDBRANCH  15  16
ENDBRANCH  14  15
ENDBRANCH  13  14
ENDBRANCH  12  13
ENDBRANCH  11  12
ENDBRANCH   1  11
TORSDOF 15
ENDMDL
MODEL 4
REMARK VINA RESULT:    -3.075      2.243      3.820
REMARK INTER + INTRA:          -8.105
REMARK INTER:                  -6.066
REMARK INTRA:                  -2.039
REMARK UNBOUND:                -2.334
REMARK SMILES O=C([O-])CCCCCCCCCCCCCCC(=O)[O-]
REMARK SMILES IDX 10 1 9 2 8 3 7 4 6 5 5 6 4 7 2 8 1 9 3 10 11 11 12 12 13 13
REMARK SMILES IDX 14 14 15 15 16 16 17 17 18 18 19 19 20 20
REMARK H PARENT
REMARK Flexibility Score: inf
ROOT
ATOM      1  C   UNL     1      48.505  32.861  87.363  1.00  0.00     0.000 C 
ENDROOT
BRANCH   1   2
ATOM      2  C   UNL     1      48.631  34.125  86.493  1.00  0.00     0.000 C 
BRANCH   2   3
ATOM      3  C   UNL     1      48.833  35.400  87.330  1.00  0.00     0.000 C 
BRANCH   3   4
ATOM      4  C   UNL     1      50.312  35.783  87.483  1.00  0.00     0.000 C 
BRANCH   4   5
ATOM      5  C   UNL     1      51.178  35.042  86.453  1.00  0.00     0.000 C 
BRANCH   5   6
ATOM      6  C   UNL     1      52.687  35.230  86.692  1.00  0.00     0.006 C 
BRANCH   6   7
ATOM      7  C   UNL     1      53.064  35.529  88.152  1.00  0.00     0.053 C 
BRANCH   7   8
ATOM      8  C   UNL     1      53.733  34.362  88.808  1.00  0.00     0.041 C 
ATOM      9  O   UNL     1      53.871  34.330  90.059  1.00  0.00    -0.550 OA
ATOM     10  O   UNL     1      54.237  33.322  88.036  1.00  0.00    -0.550 OA
ENDBRANCH   7   8
ENDBRANCH   6   7
ENDBRANCH   5   6
ENDBRANCH   4   5
ENDBRANCH   3   4
ENDBRANCH   2   3
ENDBRANCH   1   2
BRANCH   1  11
ATOM     11  C   UNL     1      49.393  31.710  86.862  1.00  0.00     0.000 C 
BRANCH  11  12
ATOM     12  C   UNL     1      50.720  31.609  87.628  1.00  0.00     0.000 C 
BRANCH  12  13
ATOM     13  C   UNL     1      50.617  32.298  88.998  1.00  0.00     0.000 C 
BRANCH  13  14
ATOM     14  C   UNL     1      50.891  31.339  90.168  1.00  0.00     0.000 C 
BRANCH  14  15
ATOM     15  C   UNL     1      49.704  31.235  91.140  1.00  0.00     0.000 C 
BRANCH  15  16
ATOM     16  C   UNL     1      48.532  30.430  90.556  1.00  0.00     0.006 C 
BRANCH  16  17
ATOM     17  C   UNL     1      47.238  31.249  90.464  1.00  0.00     0.053 C 
BRANCH  17  18
ATOM     18  C   UNL     1      46.055  30.341  90.352  1.00  0.00     0.041 C 
ATOM     19  O   UNL     1      45.953  29.546  89.381  1.00  0.00    -0.550 OA
ATOM     20  O   UNL     1      45.088  30.334  91.351  1.00  0.00    -0.550 OA
ENDBRANCH  17  18
ENDBRANCH  16  17
ENDBRANCH  15  16
ENDBRANCH  14  15
ENDBRANCH  13  14
ENDBRANCH  12  13
ENDBRANCH  11  12
ENDBRANCH   1  11
TORSDOF 15
ENDMDL
MODEL 5
REMARK VINA RESULT:    -3.049      2.021      7.421
REMARK INTER + INTRA:          -8.056
REMARK INTER:                  -6.500
REMARK INTRA:                  -1.557
REMARK UNBOUND:                -2.334
REMARK SMILES O=C([O-])CCCCCCCCCCCCCCC(=O)[O-]
REMARK SMILES IDX 10 1 9 2 8 3 7 4 6 5 5 6 4 7 2 8 1 9 3 10 11 11 12 12 13 13
REMARK SMILES IDX 14 14 15 15 16 16 17 17 18 18 19 19 20 20
REMARK H PARENT
REMARK Flexibility Score: inf
ROOT
ATOM      1  C   UNL     1      49.352  31.129  87.511  1.00  0.00     0.000 C 
ENDROOT
BRANCH   1   2
ATOM      2  C   UNL     1      49.360  31.183  89.049  1.00  0.00     0.000 C 
BRANCH   2   3
ATOM      3  C   UNL     1      48.919  29.856  89.690  1.00  0.00     0.000 C 
BRANCH   3   4
ATOM      4  C   UNL     1      47.708  30.018  90.620  1.00  0.00     0.000 C 
BRANCH   4   5
ATOM      5  C   UNL     1      47.144  31.444  90.539  1.00  0.00     0.000 C 
BRANCH   5   6
ATOM      6  C   UNL     1      45.604  31.478  90.505  1.00  0.00     0.006 C 
BRANCH   6   7
ATOM      7  C   UNL     1      44.929  30.348  91.298  1.00  0.00     0.053 C 
BRANCH   7   8
ATOM      8  C   UNL     1      44.004  30.877  92.349  1.00  0.00     0.041 C 
ATOM      9  O   UNL     1      43.164  30.116  92.897  1.00  0.00    -0.550 OA
ATOM     10  O   UNL     1      44.043  32.221  92.701  1.00  0.00    -0.550 OA
ENDBRANCH   7   8
ENDBRANCH   6   7
ENDBRANCH   5   6
ENDBRANCH   4   5
ENDBRANCH   3   4
ENDBRANCH   2   3
ENDBRANCH   1   2
BRANCH   1  11
ATOM     11  C   UNL     1      48.237  31.991  86.898  1.00  0.00     0.000 C 
BRANCH  11  12
ATOM     12  C   UNL     1      48.108  33.363  87.576  1.00  0.00     0.000 C 
BRANCH  12  13
ATOM     13  C   UNL     1      48.599  34.483  86.646  1.00  0.00     0.000 C 
BRANCH  13  14
ATOM     14  C   UNL     1      49.546  35.469  87.350  1.00  0.00     0.000 C 
BRANCH  14  15
ATOM     15  C   UNL     1      50.952  34.886  87.572  1.00  0.00     0.000 C 
BRANCH  15  16
ATOM     16  C   UNL     1      51.382  33.938  86.441  1.00  0.00     0.006 C 
BRANCH  16  17
ATOM     17  C   UNL     1      52.161  34.657  85.332  1.00  0.00     0.053 C 
BRANCH  17  18
ATOM     18  C   UNL     1      51.629  34.272  83.988  1.00  0.00     0.041 C 
ATOM     19  O   UNL     1      50.475  34.633  83.635  1.00  0.00    -0.550 OA
ATOM     20  O   UNL     1      52.427  33.560  83.102  1.00  0.00    -0.550 OA
ENDBRANCH  17  18
ENDBRANCH  16  17
ENDBRANCH  15  16
ENDBRANCH  14  15
ENDBRANCH  13  14
ENDBRANCH  12  13
ENDBRANCH  11  12
ENDBRANCH   1  11
TORSDOF 15
ENDMDL
MODEL 6
REMARK VINA RESULT:    -3.044      2.970      5.833
REMARK INTER + INTRA:          -8.047
REMARK INTER:                  -5.635
REMARK INTRA:                  -2.412
REMARK UNBOUND:                -2.334
REMARK SMILES O=C([O-])CCCCCCCCCCCCCCC(=O)[O-]
REMARK SMILES IDX 10 1 9 2 8 3 7 4 6 5 5 6 4 7 2 8 1 9 3 10 11 11 12 12 13 13
REMARK SMILES IDX 14 14 15 15 16 16 17 17 18 18 19 19 20 20
REMARK H PARENT
REMARK Flexibility Score: inf
ROOT
ATOM      1  C   UNL     1      52.071  35.188  87.304  1.00  0.00     0.000 C 
ENDROOT
BRANCH   1   2
ATOM      2  C   UNL     1      50.596  35.592  87.476  1.00  0.00     0.000 C 
BRANCH   2   3
ATOM      3  C   UNL     1      49.683  34.966  86.407  1.00  0.00     0.000 C 
BRANCH   3   4
ATOM      4  C   UNL     1      48.500  34.196  87.012  1.00  0.00     0.000 C 
BRANCH   4   5
ATOM      5  C   UNL     1      48.378  32.801  86.383  1.00  0.00     0.000 C 
BRANCH   5   6
ATOM      6  C   UNL     1      47.731  31.771  87.328  1.00  0.00     0.006 C 
BRANCH   6   7
ATOM      7  C   UNL     1      47.191  32.367  88.637  1.00  0.00     0.053 C 
BRANCH   7   8
ATOM      8  C   UNL     1      46.875  31.307  89.646  1.00  0.00     0.041 C 
ATOM      9  O   UNL     1      45.770  31.315  90.250  1.00  0.00    -0.550 OA
ATOM     10  O   UNL     1      47.815  30.329  89.948  1.00  0.00    -0.550 OA
ENDBRANCH   7   8
ENDBRANCH   6   7
ENDBRANCH   5   6
ENDBRANCH   4   5
ENDBRANCH   3   4
ENDBRANCH   2   3
ENDBRANCH   1   2
BRANCH   1  11
ATOM     11  C   UNL     1      52.429  34.876  85.842  1.00  0.00     0.000 C 
BRANCH  11  12
ATOM     12  C   UNL     1      52.975  33.452  85.658  1.00  0.00     0.000 C 
BRANCH  12  13
ATOM     13  C   UNL     1      53.811  33.023  86.873  1.00  0.00     0.000 C 
BRANCH  13  14
ATOM     14  C   UNL     1      53.380  31.660  87.441  1.00  0.00     0.000 C 
BRANCH  14  15
ATOM     15  C   UNL     1      51.867  31.416  87.314  1.00  0.00     0.000 C 
BRANCH  15  16
ATOM     16  C   UNL     1      51.191  31.188  88.675  1.00  0.00     0.006 C 
BRANCH  16  17
ATOM     17  C   UNL     1      51.175  32.449  89.548  1.00  0.00     0.053 C 
BRANCH  17  18
ATOM     18  C   UNL     1      51.791  32.168  90.881  1.00  0.00     0.041 C 
ATOM     19  O   UNL     1      51.068  32.074  91.908  1.00  0.00    -0.550 OA
ATOM     20  O   UNL     1      53.160  31.954  90.983  1.00  0.00    -0.550 OA
ENDBRANCH  17  18
ENDBRANCH  16  17
ENDBRANCH  15  16
ENDBRANCH  14  15
ENDBRANCH  13  14
ENDBRANCH  12  13
ENDBRANCH  11  12
ENDBRANCH   1  11
TORSDOF 15
ENDMDL
MODEL 7
REMARK VINA RESULT:    -3.013      4.559      6.611
REMARK INTER + INTRA:          -7.989
REMARK INTER:                  -5.810
REMARK INTRA:                  -2.178
REMARK UNBOUND:                -2.334
REMARK SMILES O=C([O-])CCCCCCCCCCCCCCC(=O)[O-]
REMARK SMILES IDX 10 1 9 2 8 3 7 4 6 5 5 6 4 7 2 8 1 9 3 10 11 11 12 12 13 13
REMARK SMILES IDX 14 14 15 15 16 16 17 17 18 18 19 19 20 20
REMARK H PARENT
REMARK Flexibility Score: inf
ROOT
ATOM      1  C   UNL     1      48.597  35.050  86.989  1.00  0.00     0.000 C 
ENDROOT
BRANCH   1   2
ATOM      2  C   UNL     1      48.693  33.568  87.394  1.00  0.00     0.000 C 
BRANCH   2   3
ATOM      3  C   UNL     1      48.688  32.623  86.180  1.00  0.00     0.000 C 
BRANCH   3   4
ATOM      4  C   UNL     1      50.101  32.235  85.723  1.00  0.00     0.000 C 
BRANCH   4   5
ATOM      5  C   UNL     1      50.131  31.965  84.211  1.00  0.00     0.000 C 
BRANCH   5   6
ATOM      6  C   UNL     1      50.941  33.017  83.430  1.00  0.00     0.006 C 
BRANCH   6   7
ATOM      7  C   UNL     1      50.445  34.460  83.612  1.00  0.00     0.053 C 
BRANCH   7   8
ATOM      8  C   UNL     1      49.160  34.707  82.886  1.00  0.00     0.041 C 
ATOM      9  O   UNL     1      48.094  34.896  83.529  1.00  0.00    -0.550 OA
ATOM     10  O   UNL     1      49.130  34.693  81.497  1.00  0.00    -0.550 OA
ENDBRANCH   7   8
ENDBRANCH   6   7
ENDBRANCH   5   6
ENDBRANCH   4   5
ENDBRANCH   3   4
ENDBRANCH   2   3
ENDBRANCH   1   2
BRANCH   1  11
ATOM     11  C   UNL     1      49.848  35.851  87.388  1.00  0.00     0.000 C 
BRANCH  11  12
ATOM     12  C   UNL     1      51.027  34.949  87.785  1.00  0.00     0.000 C 
BRANCH  12  13
ATOM     13  C   UNL     1      52.352  35.509  87.247  1.00  0.00     0.000 C 
BRANCH  13  14
ATOM     14  C   UNL     1      52.897  34.706  86.055  1.00  0.00     0.000 C 
BRANCH  14  15
ATOM     15  C   UNL     1      53.575  33.394  86.485  1.00  0.00     0.000 C 
BRANCH  15  16
ATOM     16  C   UNL     1      54.475  33.571  87.718  1.00  0.00     0.006 C 
BRANCH  16  17
ATOM     17  C   UNL     1      54.208  32.519  88.802  1.00  0.00     0.053 C 
BRANCH  17  18
ATOM     18  C   UNL     1      53.503  33.138  89.966  1.00  0.00     0.041 C 
ATOM     19  O   UNL     1      52.428  32.642  90.394  1.00  0.00    -0.550 OA
ATOM     20  O   UNL     1      54.062  34.232  90.615  1.00  0.00    -0.550 OA
ENDBRANCH  17  18
ENDBRANCH  16  17
ENDBRANCH  15  16
ENDBRANCH  14  15
ENDBRANCH  13  14
ENDBRANCH  12  13
ENDBRANCH  11  12
ENDBRANCH   1  11
TORSDOF 15
ENDMDL
MODEL 8
REMARK VINA RESULT:    -3.007     16.094     17.586
REMARK INTER + INTRA:          -7.978
REMARK INTER:                  -6.407
REMARK INTRA:                  -1.571
REMARK UNBOUND:                -2.334
REMARK SMILES O=C([O-])CCCCCCCCCCCCCCC(=O)[O-]
REMARK SMILES IDX 10 1 9 2 8 3 7 4 6 5 5 6 4 7 2 8 1 9 3 10 11 11 12 12 13 13
REMARK SMILES IDX 14 14 15 15 16 16 17 17 18 18 19 19 20 20
REMARK H PARENT
REMARK Flexibility Score: inf
ROOT
ATOM      1  C   UNL     1      40.622  21.464  75.191  1.00  0.00     0.000 C 
ENDROOT
BRANCH   1   2
ATOM      2  C   UNL     1      41.832  22.261  74.672  1.00  0.00     0.000 C 
BRANCH   2   3
ATOM      3  C   UNL     1      42.539  21.563  73.498  1.00  0.00     0.000 C 
BRANCH   3   4
ATOM      4  C   UNL     1      44.050  21.407  73.722  1.00  0.00     0.000 C 
BRANCH   4   5
ATOM      5  C   UNL     1      44.359  21.148  75.204  1.00  0.00     0.000 C 
BRANCH   5   6
ATOM      6  C   UNL     1      45.187  19.870  75.430  1.00  0.00     0.006 C 
BRANCH   6   7
ATOM      7  C   UNL     1      46.477  19.797  74.598  1.00  0.00     0.053 C 
BRANCH   7   8
ATOM      8  C   UNL     1      47.538  20.710  75.128  1.00  0.00     0.041 C 
ATOM      9  O   UNL     1      48.028  21.606  74.393  1.00  0.00    -0.550 OA
ATOM     10  O   UNL     1      48.011  20.550  76.425  1.00  0.00    -0.550 OA
ENDBRANCH   7   8
ENDBRANCH   6   7
ENDBRANCH   5   6
ENDBRANCH   4   5
ENDBRANCH   3   4
ENDBRANCH   2   3
ENDBRANCH   1   2
BRANCH   1  11
ATOM     11  C   UNL     1      40.547  21.440  76.727  1.00  0.00     0.000 C 
BRANCH  11  12
ATOM     12  C   UNL     1      41.589  22.357  77.385  1.00  0.00     0.000 C 
BRANCH  12  13
ATOM     13  C   UNL     1      42.537  21.553  78.287  1.00  0.00     0.000 C 
BRANCH  13  14
ATOM     14  C   UNL     1      41.866  20.313  78.899  1.00  0.00     0.000 C 
BRANCH  14  15
ATOM     15  C   UNL     1      41.232  20.598  80.271  1.00  0.00     0.000 C 
BRANCH  15  16
ATOM     16  C   UNL     1      39.695  20.581  80.226  1.00  0.00     0.006 C 
BRANCH  16  17
ATOM     17  C   UNL     1      39.135  19.275  79.648  1.00  0.00     0.053 C 
BRANCH  17  18
ATOM     18  C   UNL     1      37.875  18.891  80.356  1.00  0.00     0.041 C 
ATOM     19  O   UNL     1      37.243  17.857  80.012  1.00  0.00    -0.550 OA
ATOM     20  O   UNL     1      37.425  19.645  81.433  1.00  0.00    -0.550 OA
ENDBRANCH  17  18
ENDBRANCH  16  17
ENDBRANCH  15  16
ENDBRANCH  14  15
ENDBRANCH  13  14
ENDBRANCH  12  13
ENDBRANCH  11  12
ENDBRANCH   1  11
TORSDOF 15
ENDMDL
MODEL 9
REMARK VINA RESULT:    -2.994     16.839     18.881
REMARK INTER + INTRA:          -7.953
REMARK INTER:                  -6.772
REMARK INTRA:                  -1.181
REMARK UNBOUND:                -2.334
REMARK SMILES O=C([O-])CCCCCCCCCCCCCCC(=O)[O-]
REMARK SMILES IDX 10 1 9 2 8 3 7 4 6 5 5 6 4 7 2 8 1 9 3 10 11 11 12 12 13 13
REMARK SMILES IDX 14 14 15 15 16 16 17 17 18 18 19 19 20 20
REMARK H PARENT
REMARK Flexibility Score: inf
ROOT
ATOM      1  C   UNL     1      43.488  22.465  75.695  1.00  0.00     0.000 C 
ENDROOT
BRANCH   1   2
ATOM      2  C   UNL     1      42.803  21.744  76.869  1.00  0.00     0.000 C 
BRANCH   2   3
ATOM      3  C   UNL     1      41.268  21.784  76.771  1.00  0.00     0.000 C 
BRANCH   3   4
ATOM      4  C   UNL     1      40.584  20.846  77.776  1.00  0.00     0.000 C 
BRANCH   4   5
ATOM      5  C   UNL     1      40.145  21.616  79.031  1.00  0.00     0.000 C 
BRANCH   5   6
ATOM      6  C   UNL     1      39.379  20.737  80.037  1.00  0.00     0.006 C 
BRANCH   6   7
ATOM      7  C   UNL     1      39.244  19.265  79.616  1.00  0.00     0.053 C 
BRANCH   7   8
ATOM      8  C   UNL     1      37.926  18.685  80.023  1.00  0.00     0.041 C 
ATOM      9  O   UNL     1      36.996  19.437  80.417  1.00  0.00    -0.550 OA
ATOM     10  O   UNL     1      37.733  17.309  79.999  1.00  0.00    -0.550 OA
ENDBRANCH   7   8
ENDBRANCH   6   7
ENDBRANCH   5   6
ENDBRANCH   4   5
ENDBRANCH   3   4
ENDBRANCH   2   3
ENDBRANCH   1   2
BRANCH   1  11
ATOM     11  C   UNL     1      43.517  21.611  74.416  1.00  0.00     0.000 C 
BRANCH  11  12
ATOM     12  C   UNL     1      44.277  22.292  73.267  1.00  0.00     0.000 C 
BRANCH  12  13
ATOM     13  C   UNL     1      45.520  21.479  72.875  1.00  0.00     0.000 C 
BRANCH  13  14
ATOM     14  C   UNL     1      46.730  21.768  73.779  1.00  0.00     0.000 C 
BRANCH  14  15
ATOM     15  C   UNL     1      47.367  20.487  74.344  1.00  0.00     0.000 C 
BRANCH  15  16
ATOM     16  C   UNL     1      46.705  20.027  75.652  1.00  0.00     0.006 C 
BRANCH  16  17
ATOM     17  C   UNL     1      45.786  18.814  75.456  1.00  0.00     0.053 C 
BRANCH  17  18
ATOM     18  C   UNL     1      45.622  18.071  76.743  1.00  0.00     0.041 C 
ATOM     19  O   UNL     1      45.432  18.697  77.819  1.00  0.00    -0.550 OA
ATOM     20  O   UNL     1      45.626  16.681  76.748  1.00  0.00    -0.550 OA
ENDBRANCH  17  18
ENDBRANCH  16  17
ENDBRANCH  15  16
ENDBRANCH  14  15
ENDBRANCH  13  14
ENDBRANCH  12  13
ENDBRANCH  11  12
ENDBRANCH   1  11
TORSDOF 15
ENDMDL
