MODEL 1
REMARK VINA RESULT:    -4.712      0.000      0.000
REMARK INTER + INTRA:          -4.988
REMARK INTER:                  -4.988
REMARK INTRA:                   0.000
REMARK UNBOUND:                 0.000
REMARK SMILES O=c1ccc2cc(O)c(O)cc2o1
REMARK SMILES IDX 4 1 3 2 2 3 1 4 13 5 12 6 11 7 9 8 7 9 6 10 5 11 8 12 10 14
REMARK H PARENT 8 13 10 15
REMARK Flexibility Score: inf
ROOT
ATOM      1  C   UNL     1      22.056   6.161  24.501  1.00  0.00     0.019 A 
ATOM      2  C   UNL     1      20.764   6.518  24.887  1.00  0.00     0.094 A 
ATOM      3  C   UNL     1      20.070   5.691  25.776  1.00  0.00     0.336 A 
ATOM      4  O   UNL     1      18.902   5.995  26.137  1.00  0.00    -0.246 OA
ATOM      5  O   UNL     1      20.635   4.581  26.245  1.00  0.00    -0.423 OA
ATOM      6  C   UNL     1      21.865   4.204  25.902  1.00  0.00     0.142 A 
ATOM      7  C   UNL     1      22.407   3.028  26.427  1.00  0.00     0.098 A 
ATOM      8  C   UNL     1      23.703   2.627  26.069  1.00  0.00     0.161 A 
ATOM      9  C   UNL     1      24.458   3.406  25.182  1.00  0.00     0.158 A 
ATOM     10  C   UNL     1      23.920   4.588  24.652  1.00  0.00     0.062 A 
ATOM     11  C   UNL     1      22.625   4.990  25.009  1.00  0.00     0.022 A 
ENDROOT
BRANCH   9  12
ATOM     12  O   UNL     1      25.745   3.000  24.831  1.00  0.00    -0.504 OA
ATOM     13  H   UNL     1      25.921   2.094  24.412  1.00  0.00     0.293 HD
ENDBRANCH   9  12
BRANCH   8  14
ATOM     14  O   UNL     1      24.246   1.453  26.591  1.00  0.00    -0.504 OA
ATOM     15  H   UNL     1      24.626   0.732  25.990  1.00  0.00     0.293 HD
ENDBRANCH   8  14
TORSDOF 2
ENDMDL
MODEL 2
REMARK VINA RESULT:    -4.384      2.674      3.829
REMARK INTER + INTRA:          -4.641
REMARK INTER:                  -4.641
REMARK INTRA:                   0.000
REMARK UNBOUND:                 0.000
REMARK SMILES O=c1ccc2cc(O)c(O)cc2o1
REMARK SMILES IDX 4 1 3 2 2 3 1 4 13 5 12 6 11 7 9 8 7 9 6 10 5 11 8 12 10 14
REMARK H PARENT 8 13 10 15
REMARK Flexibility Score: inf
ROOT
ATOM      1  C   UNL     1      23.523   6.527  24.702  1.00  0.00     0.019 A 
ATOM      2  C   UNL     1      22.584   5.812  25.445  1.00  0.00     0.094 A 
ATOM      3  C   UNL     1      22.516   4.423  25.294  1.00  0.00     0.336 A 
ATOM      4  O   UNL     1      21.676   3.758  25.955  1.00  0.00    -0.246 OA
ATOM      5  O   UNL     1      23.334   3.796  24.452  1.00  0.00    -0.423 OA
ATOM      6  C   UNL     1      24.244   4.440  23.724  1.00  0.00     0.142 A 
ATOM      7  C   UNL     1      25.077   3.728  22.857  1.00  0.00     0.098 A 
ATOM      8  C   UNL     1      26.037   4.403  22.088  1.00  0.00     0.161 A 
ATOM      9  C   UNL     1      26.163   5.796  22.187  1.00  0.00     0.158 A 
ATOM     10  C   UNL     1      25.330   6.516  23.057  1.00  0.00     0.062 A 
ATOM     11  C   UNL     1      24.371   5.843  23.825  1.00  0.00     0.022 A 
ENDROOT
BRANCH   9  12
ATOM     12  O   UNL     1      27.119   6.459  21.420  1.00  0.00    -0.504 OA
ATOM     13  H   UNL     1      27.781   5.952  20.842  1.00  0.00     0.293 HD
ENDBRANCH   9  12
BRANCH   8  14
ATOM     14  O   UNL     1      26.869   3.695  21.221  1.00  0.00    -0.504 OA
ATOM     15  H   UNL     1      26.729   3.715  20.219  1.00  0.00     0.293 HD
ENDBRANCH   8  14
TORSDOF 2
ENDMDL
MODEL 3
REMARK VINA RESULT:    -4.343      2.942      4.219
REMARK INTER + INTRA:          -4.597
REMARK INTER:                  -4.597
REMARK INTRA:                   0.000
REMARK UNBOUND:                 0.000
REMARK SMILES O=c1ccc2cc(O)c(O)cc2o1
REMARK SMILES IDX 4 1 3 2 2 3 1 4 13 5 12 6 11 7 9 8 7 9 6 10 5 11 8 12 10 14
REMARK H PARENT 8 13 10 15
REMARK Flexibility Score: inf
ROOT
ATOM      1  C   UNL     1      23.288   4.049  24.458  1.00  0.00     0.019 A 
ATOM      2  C   UNL     1      22.585   4.881  25.330  1.00  0.00     0.094 A 
ATOM      3  C   UNL     1      22.939   6.232  25.408  1.00  0.00     0.336 A 
ATOM      4  O   UNL     1      22.317   7.000  26.188  1.00  0.00    -0.246 OA
ATOM      5  O   UNL     1      23.929   6.714  24.662  1.00  0.00    -0.423 OA
ATOM      6  C   UNL     1      24.625   5.955  23.818  1.00  0.00     0.142 A 
ATOM      7  C   UNL     1      25.655   6.516  23.059  1.00  0.00     0.098 A 
ATOM      8  C   UNL     1      26.391   5.720  22.168  1.00  0.00     0.161 A 
ATOM      9  C   UNL     1      26.093   4.356  22.037  1.00  0.00     0.158 A 
ATOM     10  C   UNL     1      25.059   3.787  22.796  1.00  0.00     0.062 A 
ATOM     11  C   UNL     1      24.324   4.581  23.685  1.00  0.00     0.022 A 
ENDROOT
BRANCH   9  12
ATOM     12  O   UNL     1      26.829   3.572  21.149  1.00  0.00    -0.504 OA
ATOM     13  H   UNL     1      27.841   3.611  21.120  1.00  0.00     0.293 HD
ENDBRANCH   9  12
BRANCH   8  14
ATOM     14  O   UNL     1      27.420   6.278  21.410  1.00  0.00    -0.504 OA
ATOM     15  H   UNL     1      28.287   6.580  21.836  1.00  0.00     0.293 HD
ENDBRANCH   8  14
TORSDOF 2
ENDMDL
MODEL 4
REMARK VINA RESULT:    -4.272      1.748      2.586
REMARK INTER + INTRA:          -4.522
REMARK INTER:                  -4.522
REMARK INTRA:                   0.000
REMARK UNBOUND:                 0.000
REMARK SMILES O=c1ccc2cc(O)c(O)cc2o1
REMARK SMILES IDX 4 1 3 2 2 3 1 4 13 5 12 6 11 7 9 8 7 9 6 10 5 11 8 12 10 14
REMARK H PARENT 8 13 10 15
REMARK Flexibility Score: inf
ROOT
ATOM      1  C   UNL     1      21.273   3.882  25.394  1.00  0.00     0.019 A 
ATOM      2  C   UNL     1      20.973   5.099  24.782  1.00  0.00     0.094 A 
ATOM      3  C   UNL     1      22.005   6.019  24.565  1.00  0.00     0.336 A 
ATOM      4  O   UNL     1      21.756   7.124  24.014  1.00  0.00    -0.246 OA
ATOM      5  O   UNL     1      23.250   5.736  24.938  1.00  0.00    -0.423 OA
ATOM      6  C   UNL     1      23.578   4.587  25.524  1.00  0.00     0.142 A 
ATOM      7  C   UNL     1      24.904   4.344  25.894  1.00  0.00     0.098 A 
ATOM      8  C   UNL     1      25.254   3.135  26.513  1.00  0.00     0.161 A 
ATOM      9  C   UNL     1      24.273   2.165  26.763  1.00  0.00     0.158 A 
ATOM     10  C   UNL     1      22.940   2.402  26.394  1.00  0.00     0.062 A 
ATOM     11  C   UNL     1      22.590   3.610  25.775  1.00  0.00     0.022 A 
ENDROOT
BRANCH   9  12
ATOM     12  O   UNL     1      24.630   0.965  27.378  1.00  0.00    -0.504 OA
ATOM     13  H   UNL     1      23.987   0.183  27.428  1.00  0.00     0.293 HD
ENDBRANCH   9  12
BRANCH   8  14
ATOM     14  O   UNL     1      26.576   2.890  26.883  1.00  0.00    -0.504 OA
ATOM     15  H   UNL     1      27.210   2.383  26.278  1.00  0.00     0.293 HD
ENDBRANCH   8  14
TORSDOF 2
ENDMDL
MODEL 5
REMARK VINA RESULT:    -4.260      1.044      2.191
REMARK INTER + INTRA:          -4.509
REMARK INTER:                  -4.509
REMARK INTRA:                   0.000
REMARK UNBOUND:                 0.000
REMARK SMILES O=c1ccc2cc(O)c(O)cc2o1
REMARK SMILES IDX 4 1 3 2 2 3 1 4 13 5 12 6 11 7 9 8 7 9 6 10 5 11 8 12 10 14
REMARK H PARENT 8 13 10 15
REMARK Flexibility Score: inf
ROOT
ATOM      1  C   UNL     1      20.726   4.558  26.798  1.00  0.00     0.019 A 
ATOM      2  C   UNL     1      19.990   5.588  26.212  1.00  0.00     0.094 A 
ATOM      3  C   UNL     1      20.476   6.190  25.047  1.00  0.00     0.336 A 
ATOM      4  O   UNL     1      19.827   7.121  24.503  1.00  0.00    -0.246 OA
ATOM      5  O   UNL     1      21.623   5.785  24.507  1.00  0.00    -0.423 OA
ATOM      6  C   UNL     1      22.356   4.806  25.034  1.00  0.00     0.142 A 
ATOM      7  C   UNL     1      23.553   4.423  24.423  1.00  0.00     0.098 A 
ATOM      8  C   UNL     1      24.329   3.392  24.974  1.00  0.00     0.161 A 
ATOM      9  C   UNL     1      23.904   2.743  26.142  1.00  0.00     0.158 A 
ATOM     10  C   UNL     1      22.703   3.123  26.760  1.00  0.00     0.062 A 
ATOM     11  C   UNL     1      21.928   4.152  26.210  1.00  0.00     0.022 A 
ENDROOT
BRANCH   9  12
ATOM     12  O   UNL     1      24.681   1.719  26.683  1.00  0.00    -0.504 OA
ATOM     13  H   UNL     1      24.310   1.084  27.380  1.00  0.00     0.293 HD
ENDBRANCH   9  12
BRANCH   8  14
ATOM     14  O   UNL     1      25.524   3.008  24.367  1.00  0.00    -0.504 OA
ATOM     15  H   UNL     1      25.824   3.411  23.487  1.00  0.00     0.293 HD
ENDBRANCH   8  14
TORSDOF 2
ENDMDL
MODEL 6
REMARK VINA RESULT:    -4.025      2.054      4.602
REMARK INTER + INTRA:          -4.260
REMARK INTER:                  -4.260
REMARK INTRA:                   0.000
REMARK UNBOUND:                 0.000
REMARK SMILES O=c1ccc2cc(O)c(O)cc2o1
REMARK SMILES IDX 4 1 3 2 2 3 1 4 13 5 12 6 11 7 9 8 7 9 6 10 5 11 8 12 10 14
REMARK H PARENT 8 13 10 15
REMARK Flexibility Score: inf
ROOT
ATOM      1  C   UNL     1      25.000   6.429  23.307  1.00  0.00     0.019 A 
ATOM      2  C   UNL     1      25.815   5.764  22.390  1.00  0.00     0.094 A 
ATOM      3  C   UNL     1      25.758   4.368  22.320  1.00  0.00     0.336 A 
ATOM      4  O   UNL     1      26.486   3.749  21.500  1.00  0.00    -0.246 OA
ATOM      5  O   UNL     1      24.938   3.687  23.117  1.00  0.00    -0.423 OA
ATOM      6  C   UNL     1      24.144   4.281  24.005  1.00  0.00     0.142 A 
ATOM      7  C   UNL     1      23.303   3.514  24.815  1.00  0.00     0.098 A 
ATOM      8  C   UNL     1      22.465   4.136  25.752  1.00  0.00     0.161 A 
ATOM      9  C   UNL     1      22.469   5.532  25.878  1.00  0.00     0.158 A 
ATOM     10  C   UNL     1      23.310   6.309  25.067  1.00  0.00     0.062 A 
ATOM     11  C   UNL     1      24.148   5.688  24.131  1.00  0.00     0.022 A 
ENDROOT
BRANCH   9  12
ATOM     12  O   UNL     1      21.632   6.143  26.812  1.00  0.00    -0.504 OA
ATOM     13  H   UNL     1      21.002   6.892  26.550  1.00  0.00     0.293 HD
ENDBRANCH   9  12
BRANCH   8  14
ATOM     14  O   UNL     1      21.625   3.372  26.562  1.00  0.00    -0.504 OA
ATOM     15  H   UNL     1      21.647   2.360  26.542  1.00  0.00     0.293 HD
ENDBRANCH   8  14
TORSDOF 2
ENDMDL
MODEL 7
REMARK VINA RESULT:    -4.015      1.946      4.599
REMARK INTER + INTRA:          -4.249
REMARK INTER:                  -4.249
REMARK INTRA:                   0.000
REMARK UNBOUND:                 0.000
REMARK SMILES O=c1ccc2cc(O)c(O)cc2o1
REMARK SMILES IDX 4 1 3 2 2 3 1 4 13 5 12 6 11 7 9 8 7 9 6 10 5 11 8 12 10 14
REMARK H PARENT 8 13 10 15
REMARK Flexibility Score: inf
ROOT
ATOM      1  C   UNL     1      25.152   5.634  26.687  1.00  0.00     0.019 A 
ATOM      2  C   UNL     1      26.142   4.787  27.186  1.00  0.00     0.094 A 
ATOM      3  C   UNL     1      25.929   3.405  27.157  1.00  0.00     0.336 A 
ATOM      4  O   UNL     1      26.810   2.623  27.602  1.00  0.00    -0.246 OA
ATOM      5  O   UNL     1      24.799   2.907  26.661  1.00  0.00    -0.423 OA
ATOM      6  C   UNL     1      23.829   3.680  26.175  1.00  0.00     0.142 A 
ATOM      7  C   UNL     1      22.663   3.101  25.666  1.00  0.00     0.098 A 
ATOM      8  C   UNL     1      21.639   3.910  25.153  1.00  0.00     0.161 A 
ATOM      9  C   UNL     1      21.782   5.305  25.150  1.00  0.00     0.158 A 
ATOM     10  C   UNL     1      22.951   5.892  25.659  1.00  0.00     0.062 A 
ATOM     11  C   UNL     1      23.974   5.084  26.171  1.00  0.00     0.022 A 
ENDROOT
BRANCH   9  12
ATOM     12  O   UNL     1      20.759   6.103  24.638  1.00  0.00    -0.504 OA
ATOM     13  H   UNL     1      20.652   6.254  23.642  1.00  0.00     0.293 HD
ENDBRANCH   9  12
BRANCH   8  14
ATOM     14  O   UNL     1      20.474   3.335  24.646  1.00  0.00    -0.504 OA
ATOM     15  H   UNL     1      19.815   2.856  25.246  1.00  0.00     0.293 HD
ENDBRANCH   8  14
TORSDOF 2
ENDMDL
MODEL 8
REMARK VINA RESULT:    -4.010      9.225     10.817
REMARK INTER + INTRA:          -4.244
REMARK INTER:                  -4.244
REMARK INTRA:                   0.000
REMARK UNBOUND:                 0.000
REMARK SMILES O=c1ccc2cc(O)c(O)cc2o1
REMARK SMILES IDX 4 1 3 2 2 3 1 4 13 5 12 6 11 7 9 8 7 9 6 10 5 11 8 12 10 14
REMARK H PARENT 8 13 10 15
REMARK Flexibility Score: inf
ROOT
ATOM      1  C   UNL     1      15.791  -4.473  28.540  1.00  0.00     0.019 A 
ATOM      2  C   UNL     1      15.366  -5.620  27.868  1.00  0.00     0.094 A 
ATOM      3  C   UNL     1      16.321  -6.438  27.254  1.00  0.00     0.336 A 
ATOM      4  O   UNL     1      15.958  -7.477  26.643  1.00  0.00    -0.246 OA
ATOM      5  O   UNL     1      17.613  -6.125  27.311  1.00  0.00    -0.423 OA
ATOM      6  C   UNL     1      18.060  -5.041  27.941  1.00  0.00     0.142 A 
ATOM      7  C   UNL     1      19.430  -4.763  27.968  1.00  0.00     0.098 A 
ATOM      8  C   UNL     1      19.906  -3.623  28.631  1.00  0.00     0.161 A 
ATOM      9  C   UNL     1      19.007  -2.756  29.269  1.00  0.00     0.158 A 
ATOM     10  C   UNL     1      17.631  -3.029  29.246  1.00  0.00     0.062 A 
ATOM     11  C   UNL     1      17.155  -4.169  28.584  1.00  0.00     0.022 A 
ENDROOT
BRANCH   9  12
ATOM     12  O   UNL     1      19.488  -1.624  29.926  1.00  0.00    -0.504 OA
ATOM     13  H   UNL     1      18.987  -1.206  30.701  1.00  0.00     0.293 HD
ENDBRANCH   9  12
BRANCH   8  14
ATOM     14  O   UNL     1      21.271  -3.343  28.659  1.00  0.00    -0.504 OA
ATOM     15  H   UNL     1      21.857  -3.482  27.845  1.00  0.00     0.293 HD
ENDBRANCH   8  14
TORSDOF 2
ENDMDL
