MODEL 1
REMARK VINA RESULT:    -3.978      0.000      0.000
REMARK INTER + INTRA:         -14.117
REMARK INTER:                 -10.490
REMARK INTRA:                  -3.627
REMARK UNBOUND:                -3.627
REMARK SMILES CCCCCCCCCCCCCCCCCCCCCCCCCCCCCC(=O)[O-]
REMARK SMILES IDX 16 1 17 2 18 3 19 4 20 5 21 6 22 7 23 8 24 9 25 10 26 11
REMARK SMILES IDX 27 12 28 13 29 14 30 15 31 16 32 17 15 18 14 19 13 20 12 21
REMARK SMILES IDX 11 22 10 23 9 24 8 25 7 26 6 27 5 28 4 29 3 30 2 31 1 32
REMARK H PARENT
REMARK Flexibility Score: inf
ROOT
ATOM      1  C   UNL     1       4.786   4.275   7.827  1.00  0.00     0.000 C 
ENDROOT
BRANCH   1   2
ATOM      2  C   UNL     1       5.981   3.875   8.714  1.00  0.00     0.000 C 
BRANCH   2   3
ATOM      3  C   UNL     1       5.950   2.438   9.271  1.00  0.00     0.000 C 
BRANCH   3   4
ATOM      4  C   UNL     1       5.100   1.453   8.442  1.00  0.00     0.000 C 
BRANCH   4   5
ATOM      5  C   UNL     1       4.436   0.356   9.294  1.00  0.00     0.000 C 
BRANCH   5   6
ATOM      6  C   UNL     1       3.507  -0.550   8.474  1.00  0.00     0.000 C 
BRANCH   6   7
ATOM      7  C   UNL     1       4.268  -1.647   7.709  1.00  0.00     0.000 C 
BRANCH   7   8
ATOM      8  C   UNL     1       5.177  -2.492   8.621  1.00  0.00     0.000 C 
BRANCH   8   9
ATOM      9  C   UNL     1       6.642  -2.618   8.154  1.00  0.00     0.000 C 
BRANCH   9  10
ATOM     10  C   UNL     1       7.540  -1.408   8.468  1.00  0.00     0.000 C 
BRANCH  10  11
ATOM     11  C   UNL     1       8.315  -0.906   7.238  1.00  0.00     0.000 C 
BRANCH  11  12
ATOM     12  C   UNL     1       7.403  -0.664   6.024  1.00  0.00     0.000 C 
BRANCH  12  13
ATOM     13  C   UNL     1       7.897   0.488   5.130  1.00  0.00     0.006 C 
BRANCH  13  14
ATOM     14  C   UNL     1       7.993   1.816   5.892  1.00  0.00     0.053 C 
BRANCH  14  15
ATOM     15  C   UNL     1       7.866   2.997   4.979  1.00  0.00     0.041 C 
ATOM     16  O   UNL     1       7.025   3.904   5.228  1.00  0.00    -0.550 OA
ATOM     17  O   UNL     1       8.656   3.084   3.840  1.00  0.00    -0.550 OA
ENDBRANCH  14  15
ENDBRANCH  13  14
ENDBRANCH  12  13
ENDBRANCH  11  12
ENDBRANCH  10  11
ENDBRANCH   9  10
ENDBRANCH   8   9
ENDBRANCH   7   8
ENDBRANCH   6   7
ENDBRANCH   5   6
ENDBRANCH   4   5
ENDBRANCH   3   4
ENDBRANCH   2   3
ENDBRANCH   1   2
BRANCH   1  18
ATOM     18  C   UNL     1       3.807   5.285   8.454  1.00  0.00     0.000 C 
BRANCH  18  19
ATOM     19  C   UNL     1       4.306   5.860   9.789  1.00  0.00     0.000 C 
BRANCH  19  20
ATOM     20  C   UNL     1       4.970   7.230   9.584  1.00  0.00     0.000 C 
BRANCH  20  21
ATOM     21  C   UNL     1       4.106   8.190   8.745  1.00  0.00     0.000 C 
BRANCH  21  22
ATOM     22  C   UNL     1       4.914   9.241   7.960  1.00  0.00     0.000 C 
BRANCH  22  23
ATOM     23  C   UNL     1       4.477  10.680   8.291  1.00  0.00     0.000 C 
BRANCH  23  24
ATOM     24  C   UNL     1       3.749  11.370   7.121  1.00  0.00    -0.000 C 
BRANCH  24  25
ATOM     25  C   UNL     1       4.639  12.306   6.272  1.00  0.00    -0.000 C 
BRANCH  25  26
ATOM     26  C   UNL     1       4.649  13.770   6.755  1.00  0.00    -0.000 C 
BRANCH  26  27
ATOM     27  C   UNL     1       6.028  14.321   7.165  1.00  0.00    -0.000 C 
BRANCH  27  28
ATOM     28  C   UNL     1       6.532  13.862   8.548  1.00  0.00    -0.000 C 
BRANCH  28  29
ATOM     29  C   UNL     1       7.912  13.193   8.487  1.00  0.00    -0.000 C 
BRANCH  29  30
ATOM     30  C   UNL     1       7.811  11.695   8.801  1.00  0.00    -0.000 C 
BRANCH  30  31
ATOM     31  C   UNL     1       8.200  10.850   7.583  1.00  0.00    -0.003 C 
ATOM     32  C   UNL     1       8.886  11.701   6.516  1.00  0.00     0.004 C 
ENDBRANCH  30  31
ENDBRANCH  29  30
ENDBRANCH  28  29
ENDBRANCH  27  28
ENDBRANCH  26  27
ENDBRANCH  25  26
ENDBRANCH  24  25
ENDBRANCH  23  24
ENDBRANCH  22  23
ENDBRANCH  21  22
ENDBRANCH  20  21
ENDBRANCH  19  20
ENDBRANCH  18  19
ENDBRANCH   1  18
TORSDOF 28
ENDMDL
MODEL 2
REMARK VINA RESULT:    -3.973     13.496     15.797
REMARK INTER + INTRA:         -14.104
REMARK INTER:                  -9.264
REMARK INTRA:                  -4.841
REMARK UNBOUND:                -3.627
REMARK SMILES CCCCCCCCCCCCCCCCCCCCCCCCCCCCCC(=O)[O-]
REMARK SMILES IDX 16 1 17 2 18 3 19 4 20 5 21 6 22 7 23 8 24 9 25 10 26 11
REMARK SMILES IDX 27 12 28 13 29 14 30 15 31 16 32 17 15 18 14 19 13 20 12 21
REMARK SMILES IDX 11 22 10 23 9 24 8 25 7 26 6 27 5 28 4 29 3 30 2 31 1 32
REMARK H PARENT
REMARK Flexibility Score: inf
ROOT
ATOM      1  C   UNL     1       3.578   8.366  -8.221  1.00  0.00     0.000 C 
ENDROOT
BRANCH   1   2
ATOM      2  C   UNL     1       2.726   7.859  -9.400  1.00  0.00     0.000 C 
BRANCH   2   3
ATOM      3  C   UNL     1       1.830   6.640  -9.104  1.00  0.00     0.000 C 
BRANCH   3   4
ATOM      4  C   UNL     1       2.142   5.398  -9.963  1.00  0.00     0.000 C 
BRANCH   4   5
ATOM      5  C   UNL     1       3.009   4.356  -9.232  1.00  0.00     0.000 C 
BRANCH   5   6
ATOM      6  C   UNL     1       4.481   4.400  -9.668  1.00  0.00     0.000 C 
BRANCH   6   7
ATOM      7  C   UNL     1       5.429   4.814  -8.529  1.00  0.00     0.000 C 
BRANCH   7   8
ATOM      8  C   UNL     1       6.916   4.674  -8.907  1.00  0.00     0.000 C 
BRANCH   8   9
ATOM      9  C   UNL     1       7.677   3.551  -8.174  1.00  0.00     0.000 C 
BRANCH   9  10
ATOM     10  C   UNL     1       8.141   2.382  -9.061  1.00  0.00     0.000 C 
BRANCH  10  11
ATOM     11  C   UNL     1       7.400   1.069  -8.752  1.00  0.00     0.000 C 
BRANCH  11  12
ATOM     12  C   UNL     1       5.924   1.111  -9.178  1.00  0.00     0.000 C 
BRANCH  12  13
ATOM     13  C   UNL     1       4.977   0.555  -8.098  1.00  0.00     0.006 C 
BRANCH  13  14
ATOM     14  C   UNL     1       4.496   1.644  -7.131  1.00  0.00     0.053 C 
BRANCH  14  15
ATOM     15  C   UNL     1       5.207   1.578  -5.813  1.00  0.00     0.041 C 
ATOM     16  O   UNL     1       5.832   2.583  -5.379  1.00  0.00    -0.550 OA
ATOM     17  O   UNL     1       5.202   0.399  -5.079  1.00  0.00    -0.550 OA
ENDBRANCH  14  15
ENDBRANCH  13  14
ENDBRANCH  12  13
ENDBRANCH  11  12
ENDBRANCH  10  11
ENDBRANCH   9  10
ENDBRANCH   8   9
ENDBRANCH   7   8
ENDBRANCH   6   7
ENDBRANCH   5   6
ENDBRANCH   4   5
ENDBRANCH   3   4
ENDBRANCH   2   3
ENDBRANCH   1   2
BRANCH   1  18
ATOM     18  C   UNL     1       5.100   8.360  -8.456  1.00  0.00     0.000 C 
BRANCH  18  19
ATOM     19  C   UNL     1       5.912   8.343  -7.152  1.00  0.00     0.000 C 
BRANCH  19  20
ATOM     20  C   UNL     1       7.380   7.979  -7.422  1.00  0.00     0.000 C 
BRANCH  20  21
ATOM     21  C   UNL     1       8.309   8.349  -6.251  1.00  0.00     0.000 C 
BRANCH  21  22
ATOM     22  C   UNL     1       7.764   9.466  -5.342  1.00  0.00     0.000 C 
BRANCH  22  23
ATOM     23  C   UNL     1       8.622   9.662  -4.078  1.00  0.00     0.000 C 
BRANCH  23  24
ATOM     24  C   UNL     1       9.127  11.108  -3.914  1.00  0.00    -0.000 C 
BRANCH  24  25
ATOM     25  C   UNL     1       9.467  11.825  -5.240  1.00  0.00    -0.000 C 
BRANCH  25  26
ATOM     26  C   UNL     1       8.715  13.155  -5.444  1.00  0.00    -0.000 C 
BRANCH  26  27
ATOM     27  C   UNL     1       7.211  13.122  -5.113  1.00  0.00    -0.000 C 
BRANCH  27  28
ATOM     28  C   UNL     1       6.273  13.422  -6.300  1.00  0.00    -0.000 C 
BRANCH  28  29
ATOM     29  C   UNL     1       5.846  12.155  -7.053  1.00  0.00    -0.000 C 
BRANCH  29  30
ATOM     30  C   UNL     1       5.798  12.406  -8.566  1.00  0.00    -0.000 C 
BRANCH  30  31
ATOM     31  C   UNL     1       6.724  11.439  -9.313  1.00  0.00    -0.003 C 
ATOM     32  C   UNL     1       8.100  11.371  -8.654  1.00  0.00     0.004 C 
ENDBRANCH  30  31
ENDBRANCH  29  30
ENDBRANCH  28  29
ENDBRANCH  27  28
ENDBRANCH  26  27
ENDBRANCH  25  26
ENDBRANCH  24  25
ENDBRANCH  23  24
ENDBRANCH  22  23
ENDBRANCH  21  22
ENDBRANCH  20  21
ENDBRANCH  19  20
ENDBRANCH  18  19
ENDBRANCH   1  18
TORSDOF 28
ENDMDL
MODEL 3
REMARK VINA RESULT:    -3.931      2.365      4.189
REMARK INTER + INTRA:         -13.991
REMARK INTER:                 -10.468
REMARK INTRA:                  -3.524
REMARK UNBOUND:                -3.627
REMARK SMILES CCCCCCCCCCCCCCCCCCCCCCCCCCCCCC(=O)[O-]
REMARK SMILES IDX 16 1 17 2 18 3 19 4 20 5 21 6 22 7 23 8 24 9 25 10 26 11
REMARK SMILES IDX 27 12 28 13 29 14 30 15 31 16 32 17 15 18 14 19 13 20 12 21
REMARK SMILES IDX 11 22 10 23 9 24 8 25 7 26 6 27 5 28 4 29 3 30 2 31 1 32
REMARK H PARENT
REMARK Flexibility Score: inf
ROOT
ATOM      1  C   UNL     1       4.310   2.127   8.626  1.00  0.00     0.000 C 
ENDROOT
BRANCH   1   2
ATOM      2  C   UNL     1       5.080   2.423   9.928  1.00  0.00     0.000 C 
BRANCH   2   3
ATOM      3  C   UNL     1       6.614   2.308   9.840  1.00  0.00     0.000 C 
BRANCH   3   4
ATOM      4  C   UNL     1       7.360   3.654   9.953  1.00  0.00     0.000 C 
BRANCH   4   5
ATOM      5  C   UNL     1       7.283   4.500   8.669  1.00  0.00     0.000 C 
BRANCH   5   6
ATOM      6  C   UNL     1       8.082   3.890   7.509  1.00  0.00     0.000 C 
BRANCH   6   7
ATOM      7  C   UNL     1       7.190   3.449   6.336  1.00  0.00     0.000 C 
BRANCH   7   8
ATOM      8  C   UNL     1       7.953   2.627   5.280  1.00  0.00     0.000 C 
BRANCH   8   9
ATOM      9  C   UNL     1       8.000   1.107   5.540  1.00  0.00     0.000 C 
BRANCH   9  10
ATOM     10  C   UNL     1       7.261   0.632   6.803  1.00  0.00     0.000 C 
BRANCH  10  11
ATOM     11  C   UNL     1       6.927  -0.870   6.769  1.00  0.00     0.000 C 
BRANCH  11  12
ATOM     12  C   UNL     1       5.800  -1.245   7.744  1.00  0.00     0.000 C 
BRANCH  12  13
ATOM     13  C   UNL     1       6.143  -2.476   8.604  1.00  0.00     0.006 C 
BRANCH  13  14
ATOM     14  C   UNL     1       5.729  -3.790   7.928  1.00  0.00     0.053 C 
BRANCH  14  15
ATOM     15  C   UNL     1       6.745  -4.250   6.927  1.00  0.00     0.041 C 
ATOM     16  O   UNL     1       6.402  -4.479   5.735  1.00  0.00    -0.550 OA
ATOM     17  O   UNL     1       8.063  -4.452   7.317  1.00  0.00    -0.550 OA
ENDBRANCH  14  15
ENDBRANCH  13  14
ENDBRANCH  12  13
ENDBRANCH  11  12
ENDBRANCH  10  11
ENDBRANCH   9  10
ENDBRANCH   8   9
ENDBRANCH   7   8
ENDBRANCH   6   7
ENDBRANCH   5   6
ENDBRANCH   4   5
ENDBRANCH   3   4
ENDBRANCH   2   3
ENDBRANCH   1   2
BRANCH   1  18
ATOM     18  C   UNL     1       3.766   3.364   7.886  1.00  0.00     0.000 C 
BRANCH  18  19
ATOM     19  C   UNL     1       3.095   4.380   8.822  1.00  0.00     0.000 C 
BRANCH  19  20
ATOM     20  C   UNL     1       3.583   5.807   8.527  1.00  0.00     0.000 C 
BRANCH  20  21
ATOM     21  C   UNL     1       4.297   6.451   9.729  1.00  0.00     0.000 C 
BRANCH  21  22
ATOM     22  C   UNL     1       4.956   7.808   9.418  1.00  0.00     0.000 C 
BRANCH  22  23
ATOM     23  C   UNL     1       3.929   8.955   9.353  1.00  0.00     0.000 C 
BRANCH  23  24
ATOM     24  C   UNL     1       4.518  10.256   8.777  1.00  0.00    -0.000 C 
BRANCH  24  25
ATOM     25  C   UNL     1       5.307  10.078   7.461  1.00  0.00    -0.000 C 
BRANCH  25  26
ATOM     26  C   UNL     1       4.969  11.125   6.381  1.00  0.00    -0.000 C 
BRANCH  26  27
ATOM     27  C   UNL     1       3.994  12.235   6.818  1.00  0.00    -0.000 C 
BRANCH  27  28
ATOM     28  C   UNL     1       4.493  13.674   6.581  1.00  0.00    -0.000 C 
BRANCH  28  29
ATOM     29  C   UNL     1       5.344  14.207   7.742  1.00  0.00    -0.000 C 
BRANCH  29  30
ATOM     30  C   UNL     1       6.796  14.430   7.300  1.00  0.00    -0.000 C 
BRANCH  30  31
ATOM     31  C   UNL     1       7.761  13.572   8.126  1.00  0.00    -0.003 C 
ATOM     32  C   UNL     1       8.329  12.424   7.295  1.00  0.00     0.004 C 
ENDBRANCH  30  31
ENDBRANCH  29  30
ENDBRANCH  28  29
ENDBRANCH  27  28
ENDBRANCH  26  27
ENDBRANCH  25  26
ENDBRANCH  24  25
ENDBRANCH  23  24
ENDBRANCH  22  23
ENDBRANCH  21  22
ENDBRANCH  20  21
ENDBRANCH  19  20
ENDBRANCH  18  19
ENDBRANCH   1  18
TORSDOF 28
ENDMDL
MODEL 4
REMARK VINA RESULT:    -3.891      1.774      3.761
REMARK INTER + INTRA:         -13.887
REMARK INTER:                  -9.465
REMARK INTRA:                  -4.423
REMARK UNBOUND:                -3.627
REMARK SMILES CCCCCCCCCCCCCCCCCCCCCCCCCCCCCC(=O)[O-]
REMARK SMILES IDX 16 1 17 2 18 3 19 4 20 5 21 6 22 7 23 8 24 9 25 10 26 11
REMARK SMILES IDX 27 12 28 13 29 14 30 15 31 16 32 17 15 18 14 19 13 20 12 21
REMARK SMILES IDX 11 22 10 23 9 24 8 25 7 26 6 27 5 28 4 29 3 30 2 31 1 32
REMARK H PARENT
REMARK Flexibility Score: inf
ROOT
ATOM      1  C   UNL     1       6.061   4.531   9.636  1.00  0.00     0.000 C 
ENDROOT
BRANCH   1   2
ATOM      2  C   UNL     1       5.255   5.823   9.871  1.00  0.00     0.000 C 
BRANCH   2   3
ATOM      3  C   UNL     1       3.991   5.991   9.006  1.00  0.00     0.000 C 
BRANCH   3   4
ATOM      4  C   UNL     1       3.911   5.028   7.803  1.00  0.00     0.000 C 
BRANCH   4   5
ATOM      5  C   UNL     1       2.646   4.151   7.809  1.00  0.00     0.000 C 
BRANCH   5   6
ATOM      6  C   UNL     1       1.887   4.216   9.142  1.00  0.00     0.000 C 
BRANCH   6   7
ATOM      7  C   UNL     1       1.810   2.853   9.852  1.00  0.00     0.000 C 
BRANCH   7   8
ATOM      8  C   UNL     1       3.158   2.107   9.862  1.00  0.00     0.000 C 
BRANCH   8   9
ATOM      9  C   UNL     1       3.124   0.682   9.272  1.00  0.00     0.000 C 
BRANCH   9  10
ATOM     10  C   UNL     1       4.213   0.375   8.229  1.00  0.00     0.000 C 
BRANCH  10  11
ATOM     11  C   UNL     1       5.397   1.355   8.298  1.00  0.00     0.000 C 
BRANCH  11  12
ATOM     12  C   UNL     1       6.756   0.637   8.316  1.00  0.00     0.000 C 
BRANCH  12  13
ATOM     13  C   UNL     1       7.889   1.494   7.722  1.00  0.00     0.006 C 
BRANCH  13  14
ATOM     14  C   UNL     1       7.365   2.547   6.737  1.00  0.00     0.053 C 
BRANCH  14  15
ATOM     15  C   UNL     1       7.915   2.347   5.357  1.00  0.00     0.041 C 
ATOM     16  O   UNL     1       7.995   3.320   4.558  1.00  0.00    -0.550 OA
ATOM     17  O   UNL     1       8.314   1.082   4.943  1.00  0.00    -0.550 OA
ENDBRANCH  14  15
ENDBRANCH  13  14
ENDBRANCH  12  13
ENDBRANCH  11  12
ENDBRANCH  10  11
ENDBRANCH   9  10
ENDBRANCH   8   9
ENDBRANCH   7   8
ENDBRANCH   6   7
ENDBRANCH   5   6
ENDBRANCH   4   5
ENDBRANCH   3   4
ENDBRANCH   2   3
ENDBRANCH   1   2
BRANCH   1  18
ATOM     18  C   UNL     1       7.554   4.607  10.011  1.00  0.00     0.000 C 
BRANCH  18  19
ATOM     19  C   UNL     1       8.358   5.544   9.098  1.00  0.00     0.000 C 
BRANCH  19  20
ATOM     20  C   UNL     1       8.897   6.749   9.884  1.00  0.00     0.000 C 
BRANCH  20  21
ATOM     21  C   UNL     1       9.192   7.963   8.982  1.00  0.00     0.000 C 
BRANCH  21  22
ATOM     22  C   UNL     1       8.073   9.020   8.963  1.00  0.00     0.000 C 
BRANCH  22  23
ATOM     23  C   UNL     1       8.320  10.112   7.905  1.00  0.00     0.000 C 
BRANCH  23  24
ATOM     24  C   UNL     1       8.277  11.536   8.492  1.00  0.00    -0.000 C 
BRANCH  24  25
ATOM     25  C   UNL     1       7.527  12.569   7.620  1.00  0.00    -0.000 C 
BRANCH  25  26
ATOM     26  C   UNL     1       6.363  13.274   8.345  1.00  0.00    -0.000 C 
BRANCH  26  27
ATOM     27  C   UNL     1       5.266  13.850   7.429  1.00  0.00    -0.000 C 
BRANCH  27  28
ATOM     28  C   UNL     1       4.688  12.860   6.399  1.00  0.00    -0.000 C 
BRANCH  28  29
ATOM     29  C   UNL     1       3.952  11.682   7.054  1.00  0.00    -0.000 C 
BRANCH  29  30
ATOM     30  C   UNL     1       4.768  10.389   6.931  1.00  0.00    -0.000 C 
BRANCH  30  31
ATOM     31  C   UNL     1       4.488   9.449   8.109  1.00  0.00    -0.003 C 
ATOM     32  C   UNL     1       4.638  10.176   9.444  1.00  0.00     0.004 C 
ENDBRANCH  30  31
ENDBRANCH  29  30
ENDBRANCH  28  29
ENDBRANCH  27  28
ENDBRANCH  26  27
ENDBRANCH  25  26
ENDBRANCH  24  25
ENDBRANCH  23  24
ENDBRANCH  22  23
ENDBRANCH  21  22
ENDBRANCH  20  21
ENDBRANCH  19  20
ENDBRANCH  18  19
ENDBRANCH   1  18
TORSDOF 28
ENDMDL
MODEL 5
REMARK VINA RESULT:    -3.860      2.291     11.892
REMARK INTER + INTRA:         -13.806
REMARK INTER:                 -10.748
REMARK INTRA:                  -3.058
REMARK UNBOUND:                -3.627
REMARK SMILES CCCCCCCCCCCCCCCCCCCCCCCCCCCCCC(=O)[O-]
REMARK SMILES IDX 16 1 17 2 18 3 19 4 20 5 21 6 22 7 23 8 24 9 25 10 26 11
REMARK SMILES IDX 27 12 28 13 29 14 30 15 31 16 32 17 15 18 14 19 13 20 12 21
REMARK SMILES IDX 11 22 10 23 9 24 8 25 7 26 6 27 5 28 4 29 3 30 2 31 1 32
REMARK H PARENT
REMARK Flexibility Score: inf
ROOT
ATOM      1  C   UNL     1       3.048   4.866   8.286  1.00  0.00     0.000 C 
ENDROOT
BRANCH   1   2
ATOM      2  C   UNL     1       3.385   5.851   9.422  1.00  0.00     0.000 C 
BRANCH   2   3
ATOM      3  C   UNL     1       4.129   7.133   9.000  1.00  0.00     0.000 C 
BRANCH   3   4
ATOM      4  C   UNL     1       4.017   8.295  10.008  1.00  0.00     0.000 C 
BRANCH   4   5
ATOM      5  C   UNL     1       4.749   9.570   9.549  1.00  0.00     0.000 C 
BRANCH   5   6
ATOM      6  C   UNL     1       4.103  10.210   8.312  1.00  0.00     0.000 C 
BRANCH   6   7
ATOM      7  C   UNL     1       5.030  10.204   7.084  1.00  0.00     0.000 C 
BRANCH   7   8
ATOM      8  C   UNL     1       4.804  11.414   6.158  1.00  0.00     0.000 C 
BRANCH   8   9
ATOM      9  C   UNL     1       4.224  12.668   6.846  1.00  0.00     0.000 C 
BRANCH   9  10
ATOM     10  C   UNL     1       4.888  14.000   6.455  1.00  0.00     0.000 C 
BRANCH  10  11
ATOM     11  C   UNL     1       6.139  14.311   7.294  1.00  0.00     0.000 C 
BRANCH  11  12
ATOM     12  C   UNL     1       6.249  13.418   8.541  1.00  0.00     0.000 C 
BRANCH  12  13
ATOM     13  C   UNL     1       7.559  12.610   8.580  1.00  0.00     0.006 C 
BRANCH  13  14
ATOM     14  C   UNL     1       8.241  12.543   7.207  1.00  0.00     0.053 C 
BRANCH  14  15
ATOM     15  C   UNL     1       8.599  11.138   6.827  1.00  0.00     0.041 C 
ATOM     16  O   UNL     1       9.096  10.894   5.694  1.00  0.00    -0.550 OA
ATOM     17  O   UNL     1       8.360  10.095   7.714  1.00  0.00    -0.550 OA
ENDBRANCH  14  15
ENDBRANCH  13  14
ENDBRANCH  12  13
ENDBRANCH  11  12
ENDBRANCH  10  11
ENDBRANCH   9  10
ENDBRANCH   8   9
ENDBRANCH   7   8
ENDBRANCH   6   7
ENDBRANCH   5   6
ENDBRANCH   4   5
ENDBRANCH   3   4
ENDBRANCH   2   3
ENDBRANCH   1   2
BRANCH   1  18
ATOM     18  C   UNL     1       4.242   4.431   7.415  1.00  0.00     0.000 C 
BRANCH  18  19
ATOM     19  C   UNL     1       4.945   3.170   7.941  1.00  0.00     0.000 C 
BRANCH  19  20
ATOM     20  C   UNL     1       3.922   2.138   8.441  1.00  0.00     0.000 C 
BRANCH  20  21
ATOM     21  C   UNL     1       4.396   1.397   9.705  1.00  0.00     0.000 C 
BRANCH  21  22
ATOM     22  C   UNL     1       5.069   0.040   9.424  1.00  0.00     0.000 C 
BRANCH  22  23
ATOM     23  C   UNL     1       4.537  -0.621   8.139  1.00  0.00     0.000 C 
BRANCH  23  24
ATOM     24  C   UNL     1       3.448  -1.675   8.412  1.00  0.00    -0.000 C 
BRANCH  24  25
ATOM     25  C   UNL     1       3.836  -3.118   8.018  1.00  0.00    -0.000 C 
BRANCH  25  26
ATOM     26  C   UNL     1       5.056  -3.671   8.783  1.00  0.00    -0.000 C 
BRANCH  26  27
ATOM     27  C   UNL     1       6.100  -4.405   7.920  1.00  0.00    -0.000 C 
BRANCH  27  28
ATOM     28  C   UNL     1       7.532  -3.841   8.006  1.00  0.00    -0.000 C 
BRANCH  28  29
ATOM     29  C   UNL     1       7.773  -2.681   7.029  1.00  0.00    -0.000 C 
BRANCH  29  30
ATOM     30  C   UNL     1       7.190  -2.998   5.646  1.00  0.00    -0.000 C 
BRANCH  30  31
ATOM     31  C   UNL     1       6.497  -1.770   5.046  1.00  0.00    -0.003 C 
ATOM     32  C   UNL     1       7.492  -0.635   4.811  1.00  0.00     0.004 C 
ENDBRANCH  30  31
ENDBRANCH  29  30
ENDBRANCH  28  29
ENDBRANCH  27  28
ENDBRANCH  26  27
ENDBRANCH  25  26
ENDBRANCH  24  25
ENDBRANCH  23  24
ENDBRANCH  22  23
ENDBRANCH  21  22
ENDBRANCH  20  21
ENDBRANCH  19  20
ENDBRANCH  18  19
ENDBRANCH   1  18
TORSDOF 28
ENDMDL
MODEL 6
REMARK VINA RESULT:    -3.831      2.198      4.273
REMARK INTER + INTRA:         -13.728
REMARK INTER:                 -10.128
REMARK INTRA:                  -3.600
REMARK UNBOUND:                -3.627
REMARK SMILES CCCCCCCCCCCCCCCCCCCCCCCCCCCCCC(=O)[O-]
REMARK SMILES IDX 16 1 17 2 18 3 19 4 20 5 21 6 22 7 23 8 24 9 25 10 26 11
REMARK SMILES IDX 27 12 28 13 29 14 30 15 31 16 32 17 15 18 14 19 13 20 12 21
REMARK SMILES IDX 11 22 10 23 9 24 8 25 7 26 6 27 5 28 4 29 3 30 2 31 1 32
REMARK H PARENT
REMARK Flexibility Score: inf
ROOT
ATOM      1  C   UNL     1       3.382   5.401   8.799  1.00  0.00     0.000 C 
ENDROOT
BRANCH   1   2
ATOM      2  C   UNL     1       4.383   4.500   8.050  1.00  0.00     0.000 C 
BRANCH   2   3
ATOM      3  C   UNL     1       5.773   4.359   8.700  1.00  0.00     0.000 C 
BRANCH   3   4
ATOM      4  C   UNL     1       6.878   3.874   7.738  1.00  0.00     0.000 C 
BRANCH   4   5
ATOM      5  C   UNL     1       6.367   3.611   6.309  1.00  0.00     0.000 C 
BRANCH   5   6
ATOM      6  C   UNL     1       7.507   3.449   5.294  1.00  0.00     0.000 C 
BRANCH   6   7
ATOM      7  C   UNL     1       8.528   2.375   5.709  1.00  0.00     0.000 C 
BRANCH   7   8
ATOM      8  C   UNL     1       7.907   0.969   5.815  1.00  0.00     0.000 C 
BRANCH   8   9
ATOM      9  C   UNL     1       8.299   0.171   7.076  1.00  0.00     0.000 C 
BRANCH   9  10
ATOM     10  C   UNL     1       7.321   0.285   8.259  1.00  0.00     0.000 C 
BRANCH  10  11
ATOM     11  C   UNL     1       5.863   0.012   7.853  1.00  0.00     0.000 C 
BRANCH  11  12
ATOM     12  C   UNL     1       5.289  -1.246   8.528  1.00  0.00     0.000 C 
BRANCH  12  13
ATOM     13  C   UNL     1       5.054  -2.398   7.534  1.00  0.00     0.006 C 
BRANCH  13  14
ATOM     14  C   UNL     1       6.253  -3.353   7.459  1.00  0.00     0.053 C 
BRANCH  14  15
ATOM     15  C   UNL     1       6.856  -3.388   6.087  1.00  0.00     0.041 C 
ATOM     16  O   UNL     1       7.611  -4.340   5.750  1.00  0.00    -0.550 OA
ATOM     17  O   UNL     1       6.606  -2.356   5.191  1.00  0.00    -0.550 OA
ENDBRANCH  14  15
ENDBRANCH  13  14
ENDBRANCH  12  13
ENDBRANCH  11  12
ENDBRANCH  10  11
ENDBRANCH   9  10
ENDBRANCH   8   9
ENDBRANCH   7   8
ENDBRANCH   6   7
ENDBRANCH   5   6
ENDBRANCH   4   5
ENDBRANCH   3   4
ENDBRANCH   2   3
ENDBRANCH   1   2
BRANCH   1  18
ATOM     18  C   UNL     1       4.005   6.579   9.573  1.00  0.00     0.000 C 
BRANCH  18  19
ATOM     19  C   UNL     1       4.118   7.860   8.732  1.00  0.00     0.000 C 
BRANCH  19  20
ATOM     20  C   UNL     1       4.750   8.999   9.547  1.00  0.00     0.000 C 
BRANCH  20  21
ATOM     21  C   UNL     1       6.218   9.260   9.165  1.00  0.00     0.000 C 
BRANCH  21  22
ATOM     22  C   UNL     1       7.214   8.249   9.763  1.00  0.00     0.000 C 
BRANCH  22  23
ATOM     23  C   UNL     1       8.588   8.303   9.069  1.00  0.00     0.000 C 
BRANCH  23  24
ATOM     24  C   UNL     1       9.081   9.742   8.824  1.00  0.00    -0.000 C 
BRANCH  24  25
ATOM     25  C   UNL     1       9.446  10.055   7.355  1.00  0.00    -0.000 C 
BRANCH  25  26
ATOM     26  C   UNL     1       8.528  11.100   6.691  1.00  0.00    -0.000 C 
BRANCH  26  27
ATOM     27  C   UNL     1       8.842  12.569   7.035  1.00  0.00    -0.000 C 
BRANCH  27  28
ATOM     28  C   UNL     1       7.636  13.399   7.520  1.00  0.00    -0.000 C 
BRANCH  28  29
ATOM     29  C   UNL     1       6.428  12.529   7.894  1.00  0.00    -0.000 C 
BRANCH  29  30
ATOM     30  C   UNL     1       5.118  13.181   7.433  1.00  0.00    -0.000 C 
BRANCH  30  31
ATOM     31  C   UNL     1       4.175  12.144   6.814  1.00  0.00    -0.003 C 
ATOM     32  C   UNL     1       4.952  11.096   6.019  1.00  0.00     0.004 C 
ENDBRANCH  30  31
ENDBRANCH  29  30
ENDBRANCH  28  29
ENDBRANCH  27  28
ENDBRANCH  26  27
ENDBRANCH  25  26
ENDBRANCH  24  25
ENDBRANCH  23  24
ENDBRANCH  22  23
ENDBRANCH  21  22
ENDBRANCH  20  21
ENDBRANCH  19  20
ENDBRANCH  18  19
ENDBRANCH   1  18
TORSDOF 28
ENDMDL
MODEL 7
REMARK VINA RESULT:    -3.803      2.451     10.809
REMARK INTER + INTRA:         -13.656
REMARK INTER:                 -10.756
REMARK INTRA:                  -2.900
REMARK UNBOUND:                -3.627
REMARK SMILES CCCCCCCCCCCCCCCCCCCCCCCCCCCCCC(=O)[O-]
REMARK SMILES IDX 16 1 17 2 18 3 19 4 20 5 21 6 22 7 23 8 24 9 25 10 26 11
REMARK SMILES IDX 27 12 28 13 29 14 30 15 31 16 32 17 15 18 14 19 13 20 12 21
REMARK SMILES IDX 11 22 10 23 9 24 8 25 7 26 6 27 5 28 4 29 3 30 2 31 1 32
REMARK H PARENT
REMARK Flexibility Score: inf
ROOT
ATOM      1  C   UNL     1       4.138   5.876   8.905  1.00  0.00     0.000 C 
ENDROOT
BRANCH   1   2
ATOM      2  C   UNL     1       3.624   6.704  10.098  1.00  0.00     0.000 C 
BRANCH   2   3
ATOM      3  C   UNL     1       3.935   8.213  10.050  1.00  0.00     0.000 C 
BRANCH   3   4
ATOM      4  C   UNL     1       4.150   8.772   8.629  1.00  0.00     0.000 C 
BRANCH   4   5
ATOM      5  C   UNL     1       5.447   9.591   8.488  1.00  0.00     0.000 C 
BRANCH   5   6
ATOM      6  C   UNL     1       5.899  10.216   9.816  1.00  0.00     0.000 C 
BRANCH   6   7
ATOM      7  C   UNL     1       7.341  10.751   9.762  1.00  0.00     0.000 C 
BRANCH   7   8
ATOM      8  C   UNL     1       8.179  10.102   8.644  1.00  0.00     0.000 C 
BRANCH   8   9
ATOM      9  C   UNL     1       9.028  11.082   7.808  1.00  0.00     0.000 C 
BRANCH   9  10
ATOM     10  C   UNL     1       8.230  12.071   6.941  1.00  0.00     0.000 C 
BRANCH  10  11
ATOM     11  C   UNL     1       8.330  13.521   7.446  1.00  0.00     0.000 C 
BRANCH  11  12
ATOM     12  C   UNL     1       6.999  14.281   7.323  1.00  0.00     0.000 C 
BRANCH  12  13
ATOM     13  C   UNL     1       5.808  13.489   7.891  1.00  0.00     0.006 C 
BRANCH  13  14
ATOM     14  C   UNL     1       4.562  13.594   7.001  1.00  0.00     0.053 C 
BRANCH  14  15
ATOM     15  C   UNL     1       4.118  12.254   6.498  1.00  0.00     0.041 C 
ATOM     16  O   UNL     1       3.098  11.698   6.989  1.00  0.00    -0.550 OA
ATOM     17  O   UNL     1       4.846  11.606   5.507  1.00  0.00    -0.550 OA
ENDBRANCH  14  15
ENDBRANCH  13  14
ENDBRANCH  12  13
ENDBRANCH  11  12
ENDBRANCH  10  11
ENDBRANCH   9  10
ENDBRANCH   8   9
ENDBRANCH   7   8
ENDBRANCH   6   7
ENDBRANCH   5   6
ENDBRANCH   4   5
ENDBRANCH   3   4
ENDBRANCH   2   3
ENDBRANCH   1   2
BRANCH   1  18
ATOM     18  C   UNL     1       3.133   4.863   8.323  1.00  0.00     0.000 C 
BRANCH  18  19
ATOM     19  C   UNL     1       3.805   3.596   7.772  1.00  0.00     0.000 C 
BRANCH  19  20
ATOM     20  C   UNL     1       4.666   2.916   8.848  1.00  0.00     0.000 C 
BRANCH  20  21
ATOM     21  C   UNL     1       4.727   1.387   8.682  1.00  0.00     0.000 C 
BRANCH  21  22
ATOM     22  C   UNL     1       3.376   0.676   8.886  1.00  0.00     0.000 C 
BRANCH  22  23
ATOM     23  C   UNL     1       3.448  -0.825   8.548  1.00  0.00     0.000 C 
BRANCH  23  24
ATOM     24  C   UNL     1       4.892  -1.327   8.354  1.00  0.00    -0.000 C 
BRANCH  24  25
ATOM     25  C   UNL     1       5.261  -1.674   6.894  1.00  0.00    -0.000 C 
BRANCH  25  26
ATOM     26  C   UNL     1       6.750  -2.014   6.687  1.00  0.00    -0.000 C 
BRANCH  26  27
ATOM     27  C   UNL     1       7.617  -0.871   6.125  1.00  0.00    -0.000 C 
BRANCH  27  28
ATOM     28  C   UNL     1       7.414   0.499   6.803  1.00  0.00    -0.000 C 
BRANCH  28  29
ATOM     29  C   UNL     1       8.362   1.577   6.259  1.00  0.00    -0.000 C 
BRANCH  29  30
ATOM     30  C   UNL     1       7.807   2.982   6.529  1.00  0.00    -0.000 C 
BRANCH  30  31
ATOM     31  C   UNL     1       7.444   3.691   5.220  1.00  0.00    -0.003 C 
ATOM     32  C   UNL     1       8.594   3.625   4.218  1.00  0.00     0.004 C 
ENDBRANCH  30  31
ENDBRANCH  29  30
ENDBRANCH  28  29
ENDBRANCH  27  28
ENDBRANCH  26  27
ENDBRANCH  25  26
ENDBRANCH  24  25
ENDBRANCH  23  24
ENDBRANCH  22  23
ENDBRANCH  21  22
ENDBRANCH  20  21
ENDBRANCH  19  20
ENDBRANCH  18  19
ENDBRANCH   1  18
TORSDOF 28
ENDMDL
MODEL 8
REMARK VINA RESULT:    -3.763      2.346      4.875
REMARK INTER + INTRA:         -13.551
REMARK INTER:                 -10.026
REMARK INTRA:                  -3.525
REMARK UNBOUND:                -3.627
REMARK SMILES CCCCCCCCCCCCCCCCCCCCCCCCCCCCCC(=O)[O-]
REMARK SMILES IDX 16 1 17 2 18 3 19 4 20 5 21 6 22 7 23 8 24 9 25 10 26 11
REMARK SMILES IDX 27 12 28 13 29 14 30 15 31 16 32 17 15 18 14 19 13 20 12 21
REMARK SMILES IDX 11 22 10 23 9 24 8 25 7 26 6 27 5 28 4 29 3 30 2 31 1 32
REMARK H PARENT
REMARK Flexibility Score: inf
ROOT
ATOM      1  C   UNL     1       7.365   3.507   5.936  1.00  0.00     0.000 C 
ENDROOT
BRANCH   1   2
ATOM      2  C   UNL     1       7.998   2.319   5.186  1.00  0.00     0.000 C 
BRANCH   2   3
ATOM      3  C   UNL     1       8.495   1.157   6.069  1.00  0.00     0.000 C 
BRANCH   3   4
ATOM      4  C   UNL     1       7.373   0.259   6.628  1.00  0.00     0.000 C 
BRANCH   4   5
ATOM      5  C   UNL     1       7.569  -0.107   8.111  1.00  0.00     0.000 C 
BRANCH   5   6
ATOM      6  C   UNL     1       6.241  -0.359   8.839  1.00  0.00     0.000 C 
BRANCH   6   7
ATOM      7  C   UNL     1       5.116  -0.807   7.889  1.00  0.00     0.000 C 
BRANCH   7   8
ATOM      8  C   UNL     1       3.728  -0.796   8.559  1.00  0.00     0.000 C 
BRANCH   8   9
ATOM      9  C   UNL     1       3.119  -2.187   8.829  1.00  0.00     0.000 C 
BRANCH   9  10
ATOM     10  C   UNL     1       3.721  -2.949  10.023  1.00  0.00     0.000 C 
BRANCH  10  11
ATOM     11  C   UNL     1       4.488  -4.213   9.597  1.00  0.00     0.000 C 
BRANCH  11  12
ATOM     12  C   UNL     1       6.012  -4.007   9.602  1.00  0.00     0.000 C 
BRANCH  12  13
ATOM     13  C   UNL     1       6.708  -4.696   8.415  1.00  0.00     0.006 C 
BRANCH  13  14
ATOM     14  C   UNL     1       6.040  -4.361   7.074  1.00  0.00     0.053 C 
BRANCH  14  15
ATOM     15  C   UNL     1       7.036  -3.910   6.049  1.00  0.00     0.041 C 
ATOM     16  O   UNL     1       8.161  -4.474   5.966  1.00  0.00    -0.550 OA
ATOM     17  O   UNL     1       6.732  -2.850   5.204  1.00  0.00    -0.550 OA
ENDBRANCH  14  15
ENDBRANCH  13  14
ENDBRANCH  12  13
ENDBRANCH  11  12
ENDBRANCH  10  11
ENDBRANCH   9  10
ENDBRANCH   8   9
ENDBRANCH   7   8
ENDBRANCH   6   7
ENDBRANCH   5   6
ENDBRANCH   4   5
ENDBRANCH   3   4
ENDBRANCH   2   3
ENDBRANCH   1   2
BRANCH   1  18
ATOM     18  C   UNL     1       7.754   3.633   7.422  1.00  0.00     0.000 C 
BRANCH  18  19
ATOM     19  C   UNL     1       6.562   3.455   8.374  1.00  0.00     0.000 C 
BRANCH  19  20
ATOM     20  C   UNL     1       5.250   3.293   7.589  1.00  0.00     0.000 C 
BRANCH  20  21
ATOM     21  C   UNL     1       4.036   3.048   8.505  1.00  0.00     0.000 C 
BRANCH  21  22
ATOM     22  C   UNL     1       3.003   4.191   8.500  1.00  0.00     0.000 C 
BRANCH  22  23
ATOM     23  C   UNL     1       3.376   5.319   9.480  1.00  0.00     0.000 C 
BRANCH  23  24
ATOM     24  C   UNL     1       4.113   6.488   8.796  1.00  0.00    -0.000 C 
BRANCH  24  25
ATOM     25  C   UNL     1       4.230   7.766   9.657  1.00  0.00    -0.000 C 
BRANCH  25  26
ATOM     26  C   UNL     1       3.552   9.004   9.037  1.00  0.00    -0.000 C 
BRANCH  26  27
ATOM     27  C   UNL     1       4.490  10.187   8.732  1.00  0.00    -0.000 C 
BRANCH  27  28
ATOM     28  C   UNL     1       5.280  10.073   7.413  1.00  0.00    -0.000 C 
BRANCH  28  29
ATOM     29  C   UNL     1       4.813  11.080   6.352  1.00  0.00    -0.000 C 
BRANCH  29  30
ATOM     30  C   UNL     1       3.981  12.201   6.987  1.00  0.00    -0.000 C 
BRANCH  30  31
ATOM     31  C   UNL     1       4.852  13.422   7.301  1.00  0.00    -0.003 C 
ATOM     32  C   UNL     1       5.061  14.286   6.059  1.00  0.00     0.004 C 
ENDBRANCH  30  31
ENDBRANCH  29  30
ENDBRANCH  28  29
ENDBRANCH  27  28
ENDBRANCH  26  27
ENDBRANCH  25  26
ENDBRANCH  24  25
ENDBRANCH  23  24
ENDBRANCH  22  23
ENDBRANCH  21  22
ENDBRANCH  20  21
ENDBRANCH  19  20
ENDBRANCH  18  19
ENDBRANCH   1  18
TORSDOF 28
ENDMDL
MODEL 9
REMARK VINA RESULT:    -3.736      2.139     11.109
REMARK INTER + INTRA:         -13.477
REMARK INTER:                 -10.889
REMARK INTRA:                  -2.588
REMARK UNBOUND:                -3.627
REMARK SMILES CCCCCCCCCCCCCCCCCCCCCCCCCCCCCC(=O)[O-]
REMARK SMILES IDX 16 1 17 2 18 3 19 4 20 5 21 6 22 7 23 8 24 9 25 10 26 11
REMARK SMILES IDX 27 12 28 13 29 14 30 15 31 16 32 17 15 18 14 19 13 20 12 21
REMARK SMILES IDX 11 22 10 23 9 24 8 25 7 26 6 27 5 28 4 29 3 30 2 31 1 32
REMARK H PARENT
REMARK Flexibility Score: inf
ROOT
ATOM      1  C   UNL     1       3.588   6.046   9.714  1.00  0.00     0.000 C 
ENDROOT
BRANCH   1   2
ATOM      2  C   UNL     1       4.836   6.886   9.382  1.00  0.00     0.000 C 
BRANCH   2   3
ATOM      3  C   UNL     1       4.596   8.396   9.190  1.00  0.00     0.000 C 
BRANCH   3   4
ATOM      4  C   UNL     1       5.834   9.180   8.708  1.00  0.00     0.000 C 
BRANCH   4   5
ATOM      5  C   UNL     1       5.502  10.248   7.649  1.00  0.00     0.000 C 
BRANCH   5   6
ATOM      6  C   UNL     1       4.147  10.926   7.898  1.00  0.00     0.000 C 
BRANCH   6   7
ATOM      7  C   UNL     1       3.763  11.918   6.786  1.00  0.00     0.000 C 
BRANCH   7   8
ATOM      8  C   UNL     1       4.907  12.885   6.426  1.00  0.00     0.000 C 
BRANCH   8   9
ATOM      9  C   UNL     1       5.207  13.969   7.482  1.00  0.00     0.000 C 
BRANCH   9  10
ATOM     10  C   UNL     1       6.367  14.920   7.139  1.00  0.00     0.000 C 
BRANCH  10  11
ATOM     11  C   UNL     1       7.686  14.522   7.822  1.00  0.00     0.000 C 
BRANCH  11  12
ATOM     12  C   UNL     1       7.650  13.091   8.384  1.00  0.00     0.000 C 
BRANCH  12  13
ATOM     13  C   UNL     1       8.985  12.347   8.201  1.00  0.00     0.006 C 
BRANCH  13  14
ATOM     14  C   UNL     1       9.428  12.301   6.732  1.00  0.00     0.053 C 
BRANCH  14  15
ATOM     15  C   UNL     1       9.408  10.906   6.184  1.00  0.00     0.041 C 
ATOM     16  O   UNL     1       9.360   9.918   6.966  1.00  0.00    -0.550 OA
ATOM     17  O   UNL     1       9.471  10.698   4.812  1.00  0.00    -0.550 OA
ENDBRANCH  14  15
ENDBRANCH  13  14
ENDBRANCH  12  13
ENDBRANCH  11  12
ENDBRANCH  10  11
ENDBRANCH   9  10
ENDBRANCH   8   9
ENDBRANCH   7   8
ENDBRANCH   6   7
ENDBRANCH   5   6
ENDBRANCH   4   5
ENDBRANCH   3   4
ENDBRANCH   2   3
ENDBRANCH   1   2
BRANCH   1  18
ATOM     18  C   UNL     1       3.006   5.235   8.539  1.00  0.00     0.000 C 
BRANCH  18  19
ATOM     19  C   UNL     1       4.077   4.471   7.746  1.00  0.00     0.000 C 
BRANCH  19  20
ATOM     20  C   UNL     1       3.961   2.957   7.982  1.00  0.00     0.000 C 
BRANCH  20  21
ATOM     21  C   UNL     1       4.597   2.513   9.312  1.00  0.00     0.000 C 
BRANCH  21  22
ATOM     22  C   UNL     1       5.745   1.498   9.154  1.00  0.00     0.000 C 
BRANCH  22  23
ATOM     23  C   UNL     1       5.306   0.233   8.394  1.00  0.00     0.000 C 
BRANCH  23  24
ATOM     24  C   UNL     1       5.999  -1.045   8.904  1.00  0.00    -0.000 C 
BRANCH  24  25
ATOM     25  C   UNL     1       6.414  -2.038   7.795  1.00  0.00    -0.000 C 
BRANCH  25  26
ATOM     26  C   UNL     1       6.057  -1.571   6.370  1.00  0.00    -0.000 C 
BRANCH  26  27
ATOM     27  C   UNL     1       7.153  -1.788   5.309  1.00  0.00    -0.000 C 
BRANCH  27  28
ATOM     28  C   UNL     1       7.533  -0.534   4.496  1.00  0.00    -0.000 C 
BRANCH  28  29
ATOM     29  C   UNL     1       7.847   0.678   5.385  1.00  0.00    -0.000 C 
BRANCH  29  30
ATOM     30  C   UNL     1       8.444   1.825   4.559  1.00  0.00    -0.000 C 
BRANCH  30  31
ATOM     31  C   UNL     1       8.381   3.148   5.330  1.00  0.00    -0.003 C 
ATOM     32  C   UNL     1       7.294   3.112   6.402  1.00  0.00     0.004 C 
ENDBRANCH  30  31
ENDBRANCH  29  30
ENDBRANCH  28  29
ENDBRANCH  27  28
ENDBRANCH  26  27
ENDBRANCH  25  26
ENDBRANCH  24  25
ENDBRANCH  23  24
ENDBRANCH  22  23
ENDBRANCH  21  22
ENDBRANCH  20  21
ENDBRANCH  19  20
ENDBRANCH  18  19
ENDBRANCH   1  18
TORSDOF 28
ENDMDL
