MODEL 1
REMARK VINA RESULT:    -3.792      0.000      0.000
REMARK INTER + INTRA:          -8.547
REMARK INTER:                  -6.674
REMARK INTRA:                  -1.873
REMARK UNBOUND:                -1.873
REMARK SMILES CCCCCCC=CCCCCCCCC(=O)[O-]
REMARK SMILES IDX 10 1 11 2 12 3 13 4 14 5 15 6 16 7 17 8 18 9 9 10 8 11 7 12
REMARK SMILES IDX 6 13 5 14 4 15 3 16 2 17 1 18
REMARK H PARENT
REMARK Flexibility Score: inf
ROOT
ATOM      1  C   UNL     1      -5.883  -7.593   4.697  1.00  0.00     0.004 C 
ENDROOT
BRANCH   1   2
ATOM      2  C   UNL     1      -5.319  -6.181   4.931  1.00  0.00     0.000 C 
BRANCH   2   3
ATOM      3  C   UNL     1      -6.426  -5.116   5.037  1.00  0.00     0.000 C 
BRANCH   3   4
ATOM      4  C   UNL     1      -7.145  -4.876   3.700  1.00  0.00     0.000 C 
BRANCH   4   5
ATOM      5  C   UNL     1      -7.456  -3.393   3.448  1.00  0.00     0.006 C 
BRANCH   5   6
ATOM      6  C   UNL     1      -6.295  -2.704   2.726  1.00  0.00     0.053 C 
BRANCH   6   7
ATOM      7  C   UNL     1      -6.638  -2.464   1.289  1.00  0.00     0.041 C 
ATOM      8  O   UNL     1      -5.724  -2.252   0.448  1.00  0.00    -0.550 OA
ATOM      9  O   UNL     1      -7.966  -2.423   0.888  1.00  0.00    -0.550 OA
ENDBRANCH   6   7
ENDBRANCH   5   6
ENDBRANCH   4   5
ENDBRANCH   3   4
ENDBRANCH   2   3
ENDBRANCH   1   2
BRANCH   1  10
ATOM     10  C   UNL     1      -5.010  -8.428   3.749  1.00  0.00     0.027 C 
BRANCH  10  11
ATOM     11  C   UNL     1      -5.781  -8.836   2.524  1.00  0.00    -0.031 C 
ATOM     12  C   UNL     1      -7.106  -9.041   2.564  1.00  0.00    -0.031 C 
BRANCH  12  13
ATOM     13  C   UNL     1      -7.872  -9.477   1.345  1.00  0.00     0.027 C 
BRANCH  13  14
ATOM     14  C   UNL     1      -7.078  -9.200   0.062  1.00  0.00     0.004 C 
BRANCH  14  15
ATOM     15  C   UNL     1      -7.809  -8.183  -0.826  1.00  0.00     0.000 C 
BRANCH  15  16
ATOM     16  C   UNL     1      -7.073  -6.837  -0.914  1.00  0.00    -0.000 C 
BRANCH  16  17
ATOM     17  C   UNL     1      -7.303  -5.954   0.322  1.00  0.00    -0.003 C 
ATOM     18  C   UNL     1      -8.789  -5.843   0.648  1.00  0.00     0.004 C 
ENDBRANCH  16  17
ENDBRANCH  15  16
ENDBRANCH  14  15
ENDBRANCH  13  14
ENDBRANCH  12  13
ENDBRANCH  10  11
ENDBRANCH   1  10
TORSDOF 13
ENDMDL
MODEL 2
REMARK VINA RESULT:    -3.777     10.495     12.042
REMARK INTER + INTRA:          -8.520
REMARK INTER:                  -7.580
REMARK INTRA:                  -0.940
REMARK UNBOUND:                -1.873
REMARK SMILES CCCCCCC=CCCCCCCCC(=O)[O-]
REMARK SMILES IDX 10 1 11 2 12 3 13 4 14 5 15 6 16 7 17 8 18 9 9 10 8 11 7 12
REMARK SMILES IDX 6 13 5 14 4 15 3 16 2 17 1 18
REMARK H PARENT
REMARK Flexibility Score: inf
ROOT
ATOM      1  C   UNL     1       1.002  -5.966  -9.045  1.00  0.00     0.004 C 
ENDROOT
BRANCH   1   2
ATOM      2  C   UNL     1       1.659  -4.645  -8.612  1.00  0.00     0.000 C 
BRANCH   2   3
ATOM      3  C   UNL     1       2.732  -4.850  -7.528  1.00  0.00     0.000 C 
BRANCH   3   4
ATOM      4  C   UNL     1       2.183  -4.651  -6.107  1.00  0.00     0.000 C 
BRANCH   4   5
ATOM      5  C   UNL     1       1.204  -3.472  -6.004  1.00  0.00     0.006 C 
BRANCH   5   6
ATOM      6  C   UNL     1       1.957  -2.145  -5.872  1.00  0.00     0.053 C 
BRANCH   6   7
ATOM      7  C   UNL     1       1.586  -1.217  -6.985  1.00  0.00     0.041 C 
ATOM      8  O   UNL     1       0.569  -0.480  -6.883  1.00  0.00    -0.550 OA
ATOM      9  O   UNL     1       2.330  -1.203  -8.158  1.00  0.00    -0.550 OA
ENDBRANCH   6   7
ENDBRANCH   5   6
ENDBRANCH   4   5
ENDBRANCH   3   4
ENDBRANCH   2   3
ENDBRANCH   1   2
BRANCH   1  10
ATOM     10  C   UNL     1      -0.472  -6.059  -8.622  1.00  0.00     0.027 C 
BRANCH  10  11
ATOM     11  C   UNL     1      -1.090  -7.345  -9.097  1.00  0.00    -0.031 C 
ATOM     12  C   UNL     1      -2.355  -7.671  -8.792  1.00  0.00    -0.031 C 
BRANCH  12  13
ATOM     13  C   UNL     1      -2.964  -8.970  -9.244  1.00  0.00     0.027 C 
BRANCH  13  14
ATOM     14  C   UNL     1      -4.198  -9.327  -8.406  1.00  0.00     0.004 C 
BRANCH  14  15
ATOM     15  C   UNL     1      -4.594  -8.161  -7.490  1.00  0.00     0.000 C 
BRANCH  15  16
ATOM     16  C   UNL     1      -5.962  -7.561  -7.853  1.00  0.00    -0.000 C 
BRANCH  16  17
ATOM     17  C   UNL     1      -7.091  -8.601  -7.825  1.00  0.00    -0.003 C 
ATOM     18  C   UNL     1      -8.215  -8.218  -8.783  1.00  0.00     0.004 C 
ENDBRANCH  16  17
ENDBRANCH  15  16
ENDBRANCH  14  15
ENDBRANCH  13  14
ENDBRANCH  12  13
ENDBRANCH  10  11
ENDBRANCH   1  10
TORSDOF 13
ENDMDL
MODEL 3
REMARK VINA RESULT:    -3.720     10.619     12.958
REMARK INTER + INTRA:          -8.421
REMARK INTER:                  -7.620
REMARK INTRA:                  -0.800
REMARK UNBOUND:                -1.873
REMARK SMILES CCCCCCC=CCCCCCCCC(=O)[O-]
REMARK SMILES IDX 10 1 11 2 12 3 13 4 14 5 15 6 16 7 17 8 18 9 9 10 8 11 7 12
REMARK SMILES IDX 6 13 5 14 4 15 3 16 2 17 1 18
REMARK H PARENT
REMARK Flexibility Score: inf
ROOT
ATOM      1  C   UNL     1       0.134  -1.609  -7.980  1.00  0.00     0.004 C 
ENDROOT
BRANCH   1   2
ATOM      2  C   UNL     1       0.871  -0.702  -6.981  1.00  0.00     0.000 C 
BRANCH   2   3
ATOM      3  C   UNL     1       1.691  -1.505  -5.954  1.00  0.00     0.000 C 
BRANCH   3   4
ATOM      4  C   UNL     1       2.511  -2.632  -6.602  1.00  0.00     0.000 C 
BRANCH   4   5
ATOM      5  C   UNL     1       2.230  -4.008  -5.979  1.00  0.00     0.006 C 
BRANCH   5   6
ATOM      6  C   UNL     1       1.094  -4.722  -6.716  1.00  0.00     0.053 C 
BRANCH   6   7
ATOM      7  C   UNL     1       1.493  -5.026  -8.126  1.00  0.00     0.041 C 
ATOM      8  O   UNL     1       0.679  -4.835  -9.069  1.00  0.00    -0.550 OA
ATOM      9  O   UNL     1       2.742  -5.570  -8.395  1.00  0.00    -0.550 OA
ENDBRANCH   6   7
ENDBRANCH   5   6
ENDBRANCH   4   5
ENDBRANCH   3   4
ENDBRANCH   2   3
ENDBRANCH   1   2
BRANCH   1  10
ATOM     10  C   UNL     1      -0.382  -0.840  -9.206  1.00  0.00     0.027 C 
BRANCH  10  11
ATOM     11  C   UNL     1      -1.873  -0.975  -9.339  1.00  0.00    -0.031 C 
ATOM     12  C   UNL     1      -2.705   0.002  -8.947  1.00  0.00    -0.031 C 
BRANCH  12  13
ATOM     13  C   UNL     1      -4.198  -0.145  -9.054  1.00  0.00     0.027 C 
BRANCH  13  14
ATOM     14  C   UNL     1      -4.609  -1.622  -9.109  1.00  0.00     0.004 C 
BRANCH  14  15
ATOM     15  C   UNL     1      -5.859  -1.875  -8.256  1.00  0.00     0.000 C 
BRANCH  15  16
ATOM     16  C   UNL     1      -6.233  -3.364  -8.179  1.00  0.00    -0.000 C 
BRANCH  16  17
ATOM     17  C   UNL     1      -7.288  -3.654  -7.100  1.00  0.00    -0.003 C 
ATOM     18  C   UNL     1      -7.083  -5.038  -6.490  1.00  0.00     0.004 C 
ENDBRANCH  16  17
ENDBRANCH  15  16
ENDBRANCH  14  15
ENDBRANCH  13  14
ENDBRANCH  12  13
ENDBRANCH  10  11
ENDBRANCH   1  10
TORSDOF 13
ENDMDL
MODEL 4
REMARK VINA RESULT:    -3.683      2.105      5.126
REMARK INTER + INTRA:          -8.354
REMARK INTER:                  -6.261
REMARK INTRA:                  -2.093
REMARK UNBOUND:                -1.873
REMARK SMILES CCCCCCC=CCCCCCCCC(=O)[O-]
REMARK SMILES IDX 10 1 11 2 12 3 13 4 14 5 15 6 16 7 17 8 18 9 9 10 8 11 7 12
REMARK SMILES IDX 6 13 5 14 4 15 3 16 2 17 1 18
REMARK H PARENT
REMARK Flexibility Score: inf
ROOT
ATOM      1  C   UNL     1      -5.422  -7.015   4.219  1.00  0.00     0.004 C 
ENDROOT
BRANCH   1   2
ATOM      2  C   UNL     1      -5.234  -8.520   3.968  1.00  0.00     0.000 C 
BRANCH   2   3
ATOM      3  C   UNL     1      -5.764  -8.957   2.590  1.00  0.00     0.000 C 
BRANCH   3   4
ATOM      4  C   UNL     1      -7.236  -9.395   2.633  1.00  0.00     0.000 C 
BRANCH   4   5
ATOM      5  C   UNL     1      -7.983  -9.107   1.322  1.00  0.00     0.006 C 
BRANCH   5   6
ATOM      6  C   UNL     1      -7.001  -8.929   0.160  1.00  0.00     0.053 C 
BRANCH   6   7
ATOM      7  C   UNL     1      -7.479  -7.859  -0.772  1.00  0.00     0.041 C 
ATOM      8  O   UNL     1      -8.587  -7.980  -1.358  1.00  0.00    -0.550 OA
ATOM      9  O   UNL     1      -6.678  -6.756  -1.035  1.00  0.00    -0.550 OA
ENDBRANCH   6   7
ENDBRANCH   5   6
ENDBRANCH   4   5
ENDBRANCH   3   4
ENDBRANCH   2   3
ENDBRANCH   1   2
BRANCH   1  10
ATOM     10  C   UNL     1      -6.831  -6.671   4.726  1.00  0.00     0.027 C 
BRANCH  10  11
ATOM     11  C   UNL     1      -7.548  -5.771   3.757  1.00  0.00    -0.031 C 
ATOM     12  C   UNL     1      -7.127  -5.624   2.492  1.00  0.00    -0.031 C 
BRANCH  12  13
ATOM     13  C   UNL     1      -7.828  -4.702   1.532  1.00  0.00     0.027 C 
BRANCH  13  14
ATOM     14  C   UNL     1      -6.888  -3.596   1.036  1.00  0.00     0.004 C 
BRANCH  14  15
ATOM     15  C   UNL     1      -7.167  -2.273   1.763  1.00  0.00     0.000 C 
BRANCH  15  16
ATOM     16  C   UNL     1      -6.049  -1.890   2.746  1.00  0.00    -0.000 C 
BRANCH  16  17
ATOM     17  C   UNL     1      -6.404  -2.224   4.204  1.00  0.00    -0.003 C 
ATOM     18  C   UNL     1      -5.283  -3.012   4.875  1.00  0.00     0.004 C 
ENDBRANCH  16  17
ENDBRANCH  15  16
ENDBRANCH  14  15
ENDBRANCH  13  14
ENDBRANCH  12  13
ENDBRANCH  10  11
ENDBRANCH   1  10
TORSDOF 13
ENDMDL
MODEL 5
REMARK VINA RESULT:    -3.644     10.581     13.016
REMARK INTER + INTRA:          -8.287
REMARK INTER:                  -6.928
REMARK INTRA:                  -1.359
REMARK UNBOUND:                -1.873
REMARK SMILES CCCCCCC=CCCCCCCCC(=O)[O-]
REMARK SMILES IDX 10 1 11 2 12 3 13 4 14 5 15 6 16 7 17 8 18 9 9 10 8 11 7 12
REMARK SMILES IDX 6 13 5 14 4 15 3 16 2 17 1 18
REMARK H PARENT
REMARK Flexibility Score: inf
ROOT
ATOM      1  C   UNL     1      -1.257  -0.584  -8.599  1.00  0.00     0.004 C 
ENDROOT
BRANCH   1   2
ATOM      2  C   UNL     1      -2.430  -0.295  -9.551  1.00  0.00     0.000 C 
BRANCH   2   3
ATOM      3  C   UNL     1      -3.363  -1.507  -9.719  1.00  0.00     0.000 C 
BRANCH   3   4
ATOM      4  C   UNL     1      -4.739  -1.289  -9.070  1.00  0.00     0.000 C 
BRANCH   4   5
ATOM      5  C   UNL     1      -5.628  -2.541  -9.120  1.00  0.00     0.006 C 
BRANCH   5   6
ATOM      6  C   UNL     1      -6.382  -2.730  -7.802  1.00  0.00     0.053 C 
BRANCH   6   7
ATOM      7  C   UNL     1      -6.522  -4.185  -7.480  1.00  0.00     0.041 C 
ATOM      8  O   UNL     1      -6.075  -5.054  -8.275  1.00  0.00    -0.550 OA
ATOM      9  O   UNL     1      -7.192  -4.584  -6.331  1.00  0.00    -0.550 OA
ENDBRANCH   6   7
ENDBRANCH   5   6
ENDBRANCH   4   5
ENDBRANCH   3   4
ENDBRANCH   2   3
ENDBRANCH   1   2
BRANCH   1  10
ATOM     10  C   UNL     1       0.096  -0.627  -9.324  1.00  0.00     0.027 C 
BRANCH  10  11
ATOM     11  C   UNL     1       0.464  -2.037  -9.695  1.00  0.00    -0.031 C 
ATOM     12  C   UNL     1      -0.044  -3.092  -9.039  1.00  0.00    -0.031 C 
BRANCH  12  13
ATOM     13  C   UNL     1       0.346  -4.501  -9.392  1.00  0.00     0.027 C 
BRANCH  13  14
ATOM     14  C   UNL     1       0.797  -5.281  -8.149  1.00  0.00     0.004 C 
BRANCH  14  15
ATOM     15  C   UNL     1       2.125  -4.732  -7.610  1.00  0.00     0.000 C 
BRANCH  15  16
ATOM     16  C   UNL     1       2.088  -4.478  -6.094  1.00  0.00    -0.000 C 
BRANCH  16  17
ATOM     17  C   UNL     1       1.280  -3.226  -5.723  1.00  0.00    -0.003 C 
ATOM     18  C   UNL     1       1.995  -1.956  -6.175  1.00  0.00     0.004 C 
ENDBRANCH  16  17
ENDBRANCH  15  16
ENDBRANCH  14  15
ENDBRANCH  13  14
ENDBRANCH  12  13
ENDBRANCH  10  11
ENDBRANCH   1  10
TORSDOF 13
ENDMDL
MODEL 6
REMARK VINA RESULT:    -3.640      1.803      5.205
REMARK INTER + INTRA:          -8.279
REMARK INTER:                  -6.598
REMARK INTRA:                  -1.681
REMARK UNBOUND:                -1.873
REMARK SMILES CCCCCCC=CCCCCCCCC(=O)[O-]
REMARK SMILES IDX 10 1 11 2 12 3 13 4 14 5 15 6 16 7 17 8 18 9 9 10 8 11 7 12
REMARK SMILES IDX 6 13 5 14 4 15 3 16 2 17 1 18
REMARK H PARENT
REMARK Flexibility Score: inf
ROOT
ATOM      1  C   UNL     1      -5.329  -7.009   4.627  1.00  0.00     0.004 C 
ENDROOT
BRANCH   1   2
ATOM      2  C   UNL     1      -5.376  -8.538   4.472  1.00  0.00     0.000 C 
BRANCH   2   3
ATOM      3  C   UNL     1      -5.252  -8.984   3.004  1.00  0.00     0.000 C 
BRANCH   3   4
ATOM      4  C   UNL     1      -6.612  -9.065   2.293  1.00  0.00     0.000 C 
BRANCH   4   5
ATOM      5  C   UNL     1      -6.658  -8.245   0.995  1.00  0.00     0.006 C 
BRANCH   5   6
ATOM      6  C   UNL     1      -7.174  -6.828   1.260  1.00  0.00     0.053 C 
BRANCH   6   7
ATOM      7  C   UNL     1      -7.724  -6.226   0.005  1.00  0.00     0.041 C 
ATOM      8  O   UNL     1      -8.831  -5.626   0.024  1.00  0.00    -0.550 OA
ATOM      9  O   UNL     1      -7.041  -6.372  -1.195  1.00  0.00    -0.550 OA
ENDBRANCH   6   7
ENDBRANCH   5   6
ENDBRANCH   4   5
ENDBRANCH   3   4
ENDBRANCH   2   3
ENDBRANCH   1   2
BRANCH   1  10
ATOM     10  C   UNL     1      -6.713  -6.400   4.894  1.00  0.00     0.027 C 
BRANCH  10  11
ATOM     11  C   UNL     1      -6.625  -4.906   5.046  1.00  0.00    -0.031 C 
ATOM     12  C   UNL     1      -5.458  -4.255   4.918  1.00  0.00    -0.031 C 
BRANCH  12  13
ATOM     13  C   UNL     1      -5.366  -2.764   5.098  1.00  0.00     0.027 C 
BRANCH  13  14
ATOM     14  C   UNL     1      -6.721  -2.089   4.847  1.00  0.00     0.004 C 
BRANCH  14  15
ATOM     15  C   UNL     1      -6.794  -1.521   3.423  1.00  0.00     0.000 C 
BRANCH  15  16
ATOM     16  C   UNL     1      -7.629  -2.399   2.477  1.00  0.00    -0.000 C 
BRANCH  16  17
ATOM     17  C   UNL     1      -6.833  -2.870   1.250  1.00  0.00    -0.003 C 
ATOM     18  C   UNL     1      -5.682  -1.916   0.943  1.00  0.00     0.004 C 
ENDBRANCH  16  17
ENDBRANCH  15  16
ENDBRANCH  14  15
ENDBRANCH  13  14
ENDBRANCH  12  13
ENDBRANCH  10  11
ENDBRANCH   1  10
TORSDOF 13
ENDMDL
MODEL 7
REMARK VINA RESULT:    -3.615      1.077      4.058
REMARK INTER + INTRA:          -8.236
REMARK INTER:                  -6.530
REMARK INTRA:                  -1.706
REMARK UNBOUND:                -1.873
REMARK SMILES CCCCCCC=CCCCCCCCC(=O)[O-]
REMARK SMILES IDX 10 1 11 2 12 3 13 4 14 5 15 6 16 7 17 8 18 9 9 10 8 11 7 12
REMARK SMILES IDX 6 13 5 14 4 15 3 16 2 17 1 18
REMARK H PARENT
REMARK Flexibility Score: inf
ROOT
ATOM      1  C   UNL     1      -7.110  -7.427  -0.376  1.00  0.00     0.004 C 
ENDROOT
BRANCH   1   2
ATOM      2  C   UNL     1      -8.075  -6.562   0.452  1.00  0.00     0.000 C 
BRANCH   2   3
ATOM      3  C   UNL     1      -7.380  -5.337   1.072  1.00  0.00     0.000 C 
BRANCH   3   4
ATOM      4  C   UNL     1      -7.922  -4.993   2.469  1.00  0.00     0.000 C 
BRANCH   4   5
ATOM      5  C   UNL     1      -7.982  -3.480   2.730  1.00  0.00     0.006 C 
BRANCH   5   6
ATOM      6  C   UNL     1      -7.795  -2.692   1.431  1.00  0.00     0.053 C 
BRANCH   6   7
ATOM      7  C   UNL     1      -6.495  -1.950   1.448  1.00  0.00     0.041 C 
ATOM      8  O   UNL     1      -6.175  -1.259   2.451  1.00  0.00    -0.550 OA
ATOM      9  O   UNL     1      -5.662  -1.979   0.338  1.00  0.00    -0.550 OA
ENDBRANCH   6   7
ENDBRANCH   5   6
ENDBRANCH   4   5
ENDBRANCH   3   4
ENDBRANCH   2   3
ENDBRANCH   1   2
BRANCH   1  10
ATOM     10  C   UNL     1      -7.106  -8.898   0.067  1.00  0.00     0.027 C 
BRANCH  10  11
ATOM     11  C   UNL     1      -6.830  -9.016   1.541  1.00  0.00    -0.031 C 
ATOM     12  C   UNL     1      -5.708  -8.523   2.088  1.00  0.00    -0.031 C 
BRANCH  12  13
ATOM     13  C   UNL     1      -5.421  -8.667   3.557  1.00  0.00     0.027 C 
BRANCH  13  14
ATOM     14  C   UNL     1      -6.614  -8.209   4.405  1.00  0.00     0.004 C 
BRANCH  14  15
ATOM     15  C   UNL     1      -6.154  -7.290   5.546  1.00  0.00     0.000 C 
BRANCH  15  16
ATOM     16  C   UNL     1      -5.407  -6.046   5.040  1.00  0.00    -0.000 C 
BRANCH  16  17
ATOM     17  C   UNL     1      -5.960  -4.742   5.636  1.00  0.00    -0.003 C 
ATOM     18  C   UNL     1      -5.226  -3.528   5.074  1.00  0.00     0.004 C 
ENDBRANCH  16  17
ENDBRANCH  15  16
ENDBRANCH  14  15
ENDBRANCH  13  14
ENDBRANCH  12  13
ENDBRANCH  10  11
ENDBRANCH   1  10
TORSDOF 13
ENDMDL
MODEL 8
REMARK VINA RESULT:    -3.597      1.286      4.060
REMARK INTER + INTRA:          -8.203
REMARK INTER:                  -6.179
REMARK INTRA:                  -2.024
REMARK UNBOUND:                -1.873
REMARK SMILES CCCCCCC=CCCCCCCCC(=O)[O-]
REMARK SMILES IDX 10 1 11 2 12 3 13 4 14 5 15 6 16 7 17 8 18 9 9 10 8 11 7 12
REMARK SMILES IDX 6 13 5 14 4 15 3 16 2 17 1 18
REMARK H PARENT
REMARK Flexibility Score: inf
ROOT
ATOM      1  C   UNL     1      -7.106  -7.572  -0.352  1.00  0.00     0.004 C 
ENDROOT
BRANCH   1   2
ATOM      2  C   UNL     1      -8.506  -6.937  -0.384  1.00  0.00     0.000 C 
BRANCH   2   3
ATOM      3  C   UNL     1      -8.656  -5.795   0.638  1.00  0.00     0.000 C 
BRANCH   3   4
ATOM      4  C   UNL     1      -7.304  -5.299   1.174  1.00  0.00     0.000 C 
BRANCH   4   5
ATOM      5  C   UNL     1      -7.417  -4.631   2.553  1.00  0.00     0.006 C 
BRANCH   5   6
ATOM      6  C   UNL     1      -6.707  -3.275   2.564  1.00  0.00     0.053 C 
BRANCH   6   7
ATOM      7  C   UNL     1      -6.823  -2.609   1.229  1.00  0.00     0.041 C 
ATOM      8  O   UNL     1      -7.941  -2.187   0.828  1.00  0.00    -0.550 OA
ATOM      9  O   UNL     1      -5.711  -2.502   0.404  1.00  0.00    -0.550 OA
ENDBRANCH   6   7
ENDBRANCH   5   6
ENDBRANCH   4   5
ENDBRANCH   3   4
ENDBRANCH   2   3
ENDBRANCH   1   2
BRANCH   1  10
ATOM     10  C   UNL     1      -7.117  -8.999   0.217  1.00  0.00     0.027 C 
BRANCH  10  11
ATOM     11  C   UNL     1      -6.804  -8.995   1.687  1.00  0.00    -0.031 C 
ATOM     12  C   UNL     1      -5.600  -8.620   2.148  1.00  0.00    -0.031 C 
BRANCH  12  13
ATOM     13  C   UNL     1      -5.279  -8.644   3.617  1.00  0.00     0.027 C 
BRANCH  13  14
ATOM     14  C   UNL     1      -5.440  -7.253   4.245  1.00  0.00     0.004 C 
BRANCH  14  15
ATOM     15  C   UNL     1      -6.114  -7.348   5.621  1.00  0.00     0.000 C 
BRANCH  15  16
ATOM     16  C   UNL     1      -7.596  -6.944   5.583  1.00  0.00    -0.000 C 
BRANCH  16  17
ATOM     17  C   UNL     1      -8.488  -8.024   4.951  1.00  0.00    -0.003 C 
ATOM     18  C   UNL     1      -9.372  -7.434   3.856  1.00  0.00     0.004 C 
ENDBRANCH  16  17
ENDBRANCH  15  16
ENDBRANCH  14  15
ENDBRANCH  13  14
ENDBRANCH  12  13
ENDBRANCH  10  11
ENDBRANCH   1  10
TORSDOF 13
ENDMDL
MODEL 9
REMARK VINA RESULT:    -3.567     10.004     12.792
REMARK INTER + INTRA:          -8.150
REMARK INTER:                  -7.093
REMARK INTRA:                  -1.058
REMARK UNBOUND:                -1.873
REMARK SMILES CCCCCCC=CCCCCCCCC(=O)[O-]
REMARK SMILES IDX 10 1 11 2 12 3 13 4 14 5 15 6 16 7 17 8 18 9 9 10 8 11 7 12
REMARK SMILES IDX 6 13 5 14 4 15 3 16 2 17 1 18
REMARK H PARENT
REMARK Flexibility Score: inf
ROOT
ATOM      1  C   UNL     1      -3.293  -1.716 -10.045  1.00  0.00     0.004 C 
ENDROOT
BRANCH   1   2
ATOM      2  C   UNL     1      -4.519  -2.461  -9.490  1.00  0.00     0.000 C 
BRANCH   2   3
ATOM      3  C   UNL     1      -5.495  -1.521  -8.759  1.00  0.00     0.000 C 
BRANCH   3   4
ATOM      4  C   UNL     1      -6.418  -2.269  -7.784  1.00  0.00     0.000 C 
BRANCH   4   5
ATOM      5  C   UNL     1      -6.299  -3.796  -7.901  1.00  0.00     0.006 C 
BRANCH   5   6
ATOM      6  C   UNL     1      -6.984  -4.491  -6.721  1.00  0.00     0.053 C 
BRANCH   6   7
ATOM      7  C   UNL     1      -7.178  -5.947  -7.009  1.00  0.00     0.041 C 
ATOM      8  O   UNL     1      -6.181  -6.689  -7.214  1.00  0.00    -0.550 OA
ATOM      9  O   UNL     1      -8.459  -6.473  -7.104  1.00  0.00    -0.550 OA
ENDBRANCH   6   7
ENDBRANCH   5   6
ENDBRANCH   4   5
ENDBRANCH   3   4
ENDBRANCH   2   3
ENDBRANCH   1   2
BRANCH   1  10
ATOM     10  C   UNL     1      -3.029  -0.389  -9.320  1.00  0.00     0.027 C 
BRANCH  10  11
ATOM     11  C   UNL     1      -1.597  -0.297  -8.867  1.00  0.00    -0.031 C 
ATOM     12  C   UNL     1      -0.771  -1.352  -8.933  1.00  0.00    -0.031 C 
BRANCH  12  13
ATOM     13  C   UNL     1       0.652  -1.267  -8.453  1.00  0.00     0.027 C 
BRANCH  13  14
ATOM     14  C   UNL     1       0.716  -1.023  -6.940  1.00  0.00     0.004 C 
BRANCH  14  15
ATOM     15  C   UNL     1       1.746  -1.949  -6.279  1.00  0.00     0.000 C 
BRANCH  15  16
ATOM     16  C   UNL     1       1.134  -3.278  -5.810  1.00  0.00    -0.000 C 
BRANCH  16  17
ATOM     17  C   UNL     1       1.666  -4.485  -6.597  1.00  0.00    -0.003 C 
ATOM     18  C   UNL     1       0.671  -4.927  -7.666  1.00  0.00     0.004 C 
ENDBRANCH  16  17
ENDBRANCH  15  16
ENDBRANCH  14  15
ENDBRANCH  13  14
ENDBRANCH  12  13
ENDBRANCH  10  11
ENDBRANCH   1  10
TORSDOF 13
ENDMDL
