MODEL 1
REMARK VINA RESULT:    -4.561      0.000      0.000
REMARK INTER + INTRA:         -10.366
REMARK INTER:                  -8.028
REMARK INTRA:                  -2.339
REMARK UNBOUND:                -2.339
REMARK SMILES CCCCCCCCCCCCCCC(=O)[O-]
REMARK SMILES IDX 9 1 10 2 11 3 12 4 13 5 14 6 15 7 16 8 17 9 8 10 7 11 6 12
REMARK SMILES IDX 5 13 4 14 3 15 2 16 1 17
REMARK H PARENT
REMARK Flexibility Score: inf
ROOT
ATOM      1  C   UNL     1     120.978 177.385 127.715  1.00  0.00     0.000 C 
ENDROOT
BRANCH   1   2
ATOM      2  C   UNL     1     121.448 178.632 126.945  1.00  0.00     0.000 C 
BRANCH   2   3
ATOM      3  C   UNL     1     120.277 179.372 126.263  1.00  0.00     0.000 C 
BRANCH   3   4
ATOM      4  C   UNL     1     120.263 179.228 124.729  1.00  0.00     0.000 C 
BRANCH   4   5
ATOM      5  C   UNL     1     119.012 178.533 124.156  1.00  0.00     0.006 C 
BRANCH   5   6
ATOM      6  C   UNL     1     117.719 178.820 124.935  1.00  0.00     0.053 C 
BRANCH   6   7
ATOM      7  C   UNL     1     116.509 178.754 124.055  1.00  0.00     0.041 C 
ATOM      8  O   UNL     1     116.636 178.566 122.816  1.00  0.00    -0.550 OA
ATOM      9  O   UNL     1     115.243 178.932 124.597  1.00  0.00    -0.550 OA
ENDBRANCH   6   7
ENDBRANCH   5   6
ENDBRANCH   4   5
ENDBRANCH   3   4
ENDBRANCH   2   3
ENDBRANCH   1   2
BRANCH   1  10
ATOM     10  C   UNL     1     119.454 177.347 127.904  1.00  0.00     0.000 C 
BRANCH  10  11
ATOM     11  C   UNL     1     118.840 175.998 127.492  1.00  0.00    -0.000 C 
BRANCH  11  12
ATOM     12  C   UNL     1     119.248 175.569 126.071  1.00  0.00    -0.000 C 
BRANCH  12  13
ATOM     13  C   UNL     1     120.119 174.298 126.000  1.00  0.00    -0.000 C 
BRANCH  13  14
ATOM     14  C   UNL     1     121.362 174.408 125.100  1.00  0.00    -0.000 C 
BRANCH  14  15
ATOM     15  C   UNL     1     121.406 175.716 124.299  1.00  0.00    -0.000 C 
BRANCH  15  16
ATOM     16  C   UNL     1     122.805 176.341 124.345  1.00  0.00    -0.003 C 
ATOM     17  C   UNL     1     122.968 177.410 123.268  1.00  0.00     0.004 C 
ENDBRANCH  15  16
ENDBRANCH  14  15
ENDBRANCH  13  14
ENDBRANCH  12  13
ENDBRANCH  11  12
ENDBRANCH  10  11
ENDBRANCH   1  10
TORSDOF 13
ENDMDL
MODEL 2
REMARK VINA RESULT:    -4.539      1.873      3.313
REMARK INTER + INTRA:         -10.328
REMARK INTER:                  -8.525
REMARK INTRA:                  -1.802
REMARK UNBOUND:                -2.339
REMARK SMILES CCCCCCCCCCCCCCC(=O)[O-]
REMARK SMILES IDX 9 1 10 2 11 3 12 4 13 5 14 6 15 7 16 8 17 9 8 10 7 11 6 12
REMARK SMILES IDX 5 13 4 14 3 15 2 16 1 17
REMARK H PARENT
REMARK Flexibility Score: inf
ROOT
ATOM      1  C   UNL     1     120.768 179.757 126.144  1.00  0.00     0.000 C 
ENDROOT
BRANCH   1   2
ATOM      2  C   UNL     1     119.418 179.892 125.418  1.00  0.00     0.000 C 
BRANCH   2   3
ATOM      3  C   UNL     1     118.556 178.617 125.545  1.00  0.00     0.000 C 
BRANCH   3   4
ATOM      4  C   UNL     1     117.546 178.436 124.396  1.00  0.00     0.000 C 
BRANCH   4   5
ATOM      5  C   UNL     1     116.138 177.989 124.837  1.00  0.00     0.006 C 
BRANCH   5   6
ATOM      6  C   UNL     1     115.734 178.472 126.239  1.00  0.00     0.053 C 
BRANCH   6   7
ATOM      7  C   UNL     1     114.907 179.718 126.185  1.00  0.00     0.041 C 
ATOM      8  O   UNL     1     113.652 179.644 126.106  1.00  0.00    -0.550 OA
ATOM      9  O   UNL     1     115.523 180.963 126.188  1.00  0.00    -0.550 OA
ENDBRANCH   6   7
ENDBRANCH   5   6
ENDBRANCH   4   5
ENDBRANCH   3   4
ENDBRANCH   2   3
ENDBRANCH   1   2
BRANCH   1  10
ATOM     10  C   UNL     1     120.694 178.818 127.359  1.00  0.00     0.000 C 
BRANCH  10  11
ATOM     11  C   UNL     1     122.077 178.302 127.793  1.00  0.00    -0.000 C 
BRANCH  11  12
ATOM     12  C   UNL     1     123.233 179.077 127.138  1.00  0.00    -0.000 C 
BRANCH  12  13
ATOM     13  C   UNL     1     124.020 178.292 126.068  1.00  0.00    -0.000 C 
BRANCH  13  14
ATOM     14  C   UNL     1     123.299 177.056 125.503  1.00  0.00    -0.000 C 
BRANCH  14  15
ATOM     15  C   UNL     1     122.799 177.261 124.066  1.00  0.00    -0.000 C 
BRANCH  15  16
ATOM     16  C   UNL     1     121.324 176.864 123.937  1.00  0.00    -0.003 C 
ATOM     17  C   UNL     1     120.961 175.760 124.927  1.00  0.00     0.004 C 
ENDBRANCH  15  16
ENDBRANCH  14  15
ENDBRANCH  13  14
ENDBRANCH  12  13
ENDBRANCH  11  12
ENDBRANCH  10  11
ENDBRANCH   1  10
TORSDOF 13
ENDMDL
MODEL 3
REMARK VINA RESULT:    -4.469      1.507      3.170
REMARK INTER + INTRA:         -10.204
REMARK INTER:                  -8.058
REMARK INTRA:                  -2.146
REMARK UNBOUND:                -2.339
REMARK SMILES CCCCCCCCCCCCCCC(=O)[O-]
REMARK SMILES IDX 9 1 10 2 11 3 12 4 13 5 14 6 15 7 16 8 17 9 8 10 7 11 6 12
REMARK SMILES IDX 5 13 4 14 3 15 2 16 1 17
REMARK H PARENT
REMARK Flexibility Score: inf
ROOT
ATOM      1  C   UNL     1     121.626 176.448 124.231  1.00  0.00     0.000 C 
ENDROOT
BRANCH   1   2
ATOM      2  C   UNL     1     121.971 177.947 124.279  1.00  0.00     0.000 C 
BRANCH   2   3
ATOM      3  C   UNL     1     120.784 178.834 123.846  1.00  0.00     0.000 C 
BRANCH   3   4
ATOM      4  C   UNL     1     120.084 179.547 125.019  1.00  0.00     0.000 C 
BRANCH   4   5
ATOM      5  C   UNL     1     119.200 178.637 125.895  1.00  0.00     0.006 C 
BRANCH   5   6
ATOM      6  C   UNL     1     118.137 177.850 125.112  1.00  0.00     0.053 C 
BRANCH   6   7
ATOM      7  C   UNL     1     117.093 178.751 124.526  1.00  0.00     0.041 C 
ATOM      8  O   UNL     1     116.683 178.565 123.350  1.00  0.00    -0.550 OA
ATOM      9  O   UNL     1     116.597 179.815 125.268  1.00  0.00    -0.550 OA
ENDBRANCH   6   7
ENDBRANCH   5   6
ENDBRANCH   4   5
ENDBRANCH   3   4
ENDBRANCH   2   3
ENDBRANCH   1   2
BRANCH   1  10
ATOM     10  C   UNL     1     122.163 175.679 125.449  1.00  0.00     0.000 C 
BRANCH  10  11
ATOM     11  C   UNL     1     121.081 175.421 126.510  1.00  0.00    -0.000 C 
BRANCH  11  12
ATOM     12  C   UNL     1     121.662 174.904 127.838  1.00  0.00    -0.000 C 
BRANCH  12  13
ATOM     13  C   UNL     1     121.726 175.949 128.971  1.00  0.00    -0.000 C 
BRANCH  13  14
ATOM     14  C   UNL     1     120.809 177.171 128.786  1.00  0.00    -0.000 C 
BRANCH  14  15
ATOM     15  C   UNL     1     121.580 178.498 128.768  1.00  0.00    -0.000 C 
BRANCH  15  16
ATOM     16  C   UNL     1     123.001 178.300 128.229  1.00  0.00    -0.003 C 
ATOM     17  C   UNL     1     123.405 179.444 127.303  1.00  0.00     0.004 C 
ENDBRANCH  15  16
ENDBRANCH  14  15
ENDBRANCH  13  14
ENDBRANCH  12  13
ENDBRANCH  11  12
ENDBRANCH  10  11
ENDBRANCH   1  10
TORSDOF 13
ENDMDL
MODEL 4
REMARK VINA RESULT:    -4.449      0.830      2.943
REMARK INTER + INTRA:         -10.168
REMARK INTER:                  -8.032
REMARK INTRA:                  -2.137
REMARK UNBOUND:                -2.339
REMARK SMILES CCCCCCCCCCCCCCC(=O)[O-]
REMARK SMILES IDX 9 1 10 2 11 3 12 4 13 5 14 6 15 7 16 8 17 9 8 10 7 11 6 12
REMARK SMILES IDX 5 13 4 14 3 15 2 16 1 17
REMARK H PARENT
REMARK Flexibility Score: inf
ROOT
ATOM      1  C   UNL     1     122.394 177.721 126.519  1.00  0.00     0.000 C 
ENDROOT
BRANCH   1   2
ATOM      2  C   UNL     1     121.861 179.132 126.827  1.00  0.00     0.000 C 
BRANCH   2   3
ATOM      3  C   UNL     1     120.351 179.262 126.534  1.00  0.00     0.000 C 
BRANCH   3   4
ATOM      4  C   UNL     1     120.033 179.594 125.063  1.00  0.00     0.000 C 
BRANCH   4   5
ATOM      5  C   UNL     1     119.072 178.607 124.371  1.00  0.00     0.006 C 
BRANCH   5   6
ATOM      6  C   UNL     1     117.705 178.471 125.060  1.00  0.00     0.053 C 
BRANCH   6   7
ATOM      7  C   UNL     1     116.602 179.057 124.234  1.00  0.00     0.041 C 
ATOM      8  O   UNL     1     116.328 178.571 123.105  1.00  0.00    -0.550 OA
ATOM      9  O   UNL     1     115.896 180.160 124.697  1.00  0.00    -0.550 OA
ENDBRANCH   6   7
ENDBRANCH   5   6
ENDBRANCH   4   5
ENDBRANCH   3   4
ENDBRANCH   2   3
ENDBRANCH   1   2
BRANCH   1  10
ATOM     10  C   UNL     1     123.304 177.690 125.282  1.00  0.00     0.000 C 
BRANCH  10  11
ATOM     11  C   UNL     1     122.918 176.579 124.290  1.00  0.00    -0.000 C 
BRANCH  11  12
ATOM     12  C   UNL     1     121.495 176.043 124.523  1.00  0.00    -0.000 C 
BRANCH  12  13
ATOM     13  C   UNL     1     121.419 174.567 124.965  1.00  0.00    -0.000 C 
BRANCH  13  14
ATOM     14  C   UNL     1     120.319 174.248 125.993  1.00  0.00    -0.000 C 
BRANCH  14  15
ATOM     15  C   UNL     1     119.402 175.446 126.278  1.00  0.00    -0.000 C 
BRANCH  15  16
ATOM     16  C   UNL     1     119.441 175.824 127.763  1.00  0.00    -0.003 C 
ATOM     17  C   UNL     1     118.179 176.580 128.173  1.00  0.00     0.004 C 
ENDBRANCH  15  16
ENDBRANCH  14  15
ENDBRANCH  13  14
ENDBRANCH  12  13
ENDBRANCH  11  12
ENDBRANCH  10  11
ENDBRANCH   1  10
TORSDOF 13
ENDMDL
MODEL 5
REMARK VINA RESULT:    -4.443      1.421      3.104
REMARK INTER + INTRA:         -10.159
REMARK INTER:                  -8.146
REMARK INTRA:                  -2.013
REMARK UNBOUND:                -2.339
REMARK SMILES CCCCCCCCCCCCCCC(=O)[O-]
REMARK SMILES IDX 9 1 10 2 11 3 12 4 13 5 14 6 15 7 16 8 17 9 8 10 7 11 6 12
REMARK SMILES IDX 5 13 4 14 3 15 2 16 1 17
REMARK H PARENT
REMARK Flexibility Score: inf
ROOT
ATOM      1  C   UNL     1     120.491 178.872 127.628  1.00  0.00     0.000 C 
ENDROOT
BRANCH   1   2
ATOM      2  C   UNL     1     120.288 177.356 127.798  1.00  0.00     0.000 C 
BRANCH   2   3
ATOM      3  C   UNL     1     118.839 176.923 127.489  1.00  0.00     0.000 C 
BRANCH   3   4
ATOM      4  C   UNL     1     118.533 176.812 125.984  1.00  0.00     0.000 C 
BRANCH   4   5
ATOM      5  C   UNL     1     117.675 177.957 125.411  1.00  0.00     0.006 C 
BRANCH   5   6
ATOM      6  C   UNL     1     116.279 178.074 126.044  1.00  0.00     0.053 C 
BRANCH   6   7
ATOM      7  C   UNL     1     115.530 179.264 125.529  1.00  0.00     0.041 C 
ATOM      8  O   UNL     1     116.155 180.256 125.067  1.00  0.00    -0.550 OA
ATOM      9  O   UNL     1     114.143 179.294 125.589  1.00  0.00    -0.550 OA
ENDBRANCH   6   7
ENDBRANCH   5   6
ENDBRANCH   4   5
ENDBRANCH   3   4
ENDBRANCH   2   3
ENDBRANCH   1   2
BRANCH   1  10
ATOM     10  C   UNL     1     121.429 179.216 126.461  1.00  0.00     0.000 C 
BRANCH  10  11
ATOM     11  C   UNL     1     122.784 178.495 126.558  1.00  0.00    -0.000 C 
BRANCH  11  12
ATOM     12  C   UNL     1     123.157 177.751 125.264  1.00  0.00    -0.000 C 
BRANCH  12  13
ATOM     13  C   UNL     1     122.005 177.587 124.252  1.00  0.00    -0.000 C 
BRANCH  13  14
ATOM     14  C   UNL     1     121.517 176.143 124.045  1.00  0.00    -0.000 C 
BRANCH  14  15
ATOM     15  C   UNL     1     122.002 175.186 125.142  1.00  0.00    -0.000 C 
BRANCH  15  16
ATOM     16  C   UNL     1     120.941 174.125 125.453  1.00  0.00    -0.003 C 
ATOM     17  C   UNL     1     120.935 173.768 126.938  1.00  0.00     0.004 C 
ENDBRANCH  15  16
ENDBRANCH  14  15
ENDBRANCH  13  14
ENDBRANCH  12  13
ENDBRANCH  11  12
ENDBRANCH  10  11
ENDBRANCH   1  10
TORSDOF 13
ENDMDL
MODEL 6
REMARK VINA RESULT:    -4.408      1.525      3.030
REMARK INTER + INTRA:         -10.098
REMARK INTER:                  -7.933
REMARK INTRA:                  -2.165
REMARK UNBOUND:                -2.339
REMARK SMILES CCCCCCCCCCCCCCC(=O)[O-]
REMARK SMILES IDX 9 1 10 2 11 3 12 4 13 5 14 6 15 7 16 8 17 9 8 10 7 11 6 12
REMARK SMILES IDX 5 13 4 14 3 15 2 16 1 17
REMARK H PARENT
REMARK Flexibility Score: inf
ROOT
ATOM      1  C   UNL     1     120.380 178.127 128.113  1.00  0.00     0.000 C 
ENDROOT
BRANCH   1   2
ATOM      2  C   UNL     1     120.133 176.619 128.300  1.00  0.00     0.000 C 
BRANCH   2   3
ATOM      3  C   UNL     1     118.709 176.203 127.874  1.00  0.00     0.000 C 
BRANCH   3   4
ATOM      4  C   UNL     1     118.284 176.765 126.503  1.00  0.00     0.000 C 
BRANCH   4   5
ATOM      5  C   UNL     1     116.982 177.590 126.518  1.00  0.00     0.006 C 
BRANCH   5   6
ATOM      6  C   UNL     1     116.643 178.256 125.175  1.00  0.00     0.053 C 
BRANCH   6   7
ATOM      7  C   UNL     1     115.719 179.422 125.346  1.00  0.00     0.041 C 
ATOM      8  O   UNL     1     116.170 180.598 125.325  1.00  0.00    -0.550 OA
ATOM      9  O   UNL     1     114.363 179.209 125.563  1.00  0.00    -0.550 OA
ENDBRANCH   6   7
ENDBRANCH   5   6
ENDBRANCH   4   5
ENDBRANCH   3   4
ENDBRANCH   2   3
ENDBRANCH   1   2
BRANCH   1  10
ATOM     10  C   UNL     1     121.770 178.431 127.533  1.00  0.00     0.000 C 
BRANCH  10  11
ATOM     11  C   UNL     1     121.732 179.514 126.441  1.00  0.00    -0.000 C 
BRANCH  11  12
ATOM     12  C   UNL     1     120.362 179.610 125.746  1.00  0.00    -0.000 C 
BRANCH  12  13
ATOM     13  C   UNL     1     120.336 179.109 124.288  1.00  0.00    -0.000 C 
BRANCH  13  14
ATOM     14  C   UNL     1     121.444 178.106 123.921  1.00  0.00    -0.000 C 
BRANCH  14  15
ATOM     15  C   UNL     1     121.061 176.653 124.229  1.00  0.00    -0.000 C 
BRANCH  15  16
ATOM     16  C   UNL     1     122.246 175.889 124.830  1.00  0.00    -0.003 C 
ATOM     17  C   UNL     1     123.555 176.645 124.618  1.00  0.00     0.004 C 
ENDBRANCH  15  16
ENDBRANCH  14  15
ENDBRANCH  13  14
ENDBRANCH  12  13
ENDBRANCH  11  12
ENDBRANCH  10  11
ENDBRANCH   1  10
TORSDOF 13
ENDMDL
MODEL 7
REMARK VINA RESULT:    -4.384      1.597      2.874
REMARK INTER + INTRA:         -10.054
REMARK INTER:                  -8.339
REMARK INTRA:                  -1.715
REMARK UNBOUND:                -2.339
REMARK SMILES CCCCCCCCCCCCCCC(=O)[O-]
REMARK SMILES IDX 9 1 10 2 11 3 12 4 13 5 14 6 15 7 16 8 17 9 8 10 7 11 6 12
REMARK SMILES IDX 5 13 4 14 3 15 2 16 1 17
REMARK H PARENT
REMARK Flexibility Score: inf
ROOT
ATOM      1  C   UNL     1     122.652 177.535 127.107  1.00  0.00     0.000 C 
ENDROOT
BRANCH   1   2
ATOM      2  C   UNL     1     122.244 178.940 126.630  1.00  0.00     0.000 C 
BRANCH   2   3
ATOM      3  C   UNL     1     120.740 179.216 126.849  1.00  0.00     0.000 C 
BRANCH   3   4
ATOM      4  C   UNL     1     120.072 179.961 125.677  1.00  0.00     0.000 C 
BRANCH   4   5
ATOM      5  C   UNL     1     119.709 179.073 124.470  1.00  0.00     0.006 C 
BRANCH   5   6
ATOM      6  C   UNL     1     118.561 178.086 124.736  1.00  0.00     0.053 C 
BRANCH   6   7
ATOM      7  C   UNL     1     117.225 178.688 124.429  1.00  0.00     0.041 C 
ATOM      8  O   UNL     1     116.572 179.276 125.332  1.00  0.00    -0.550 OA
ATOM      9  O   UNL     1     116.684 178.570 123.155  1.00  0.00    -0.550 OA
ENDBRANCH   6   7
ENDBRANCH   5   6
ENDBRANCH   4   5
ENDBRANCH   3   4
ENDBRANCH   2   3
ENDBRANCH   1   2
BRANCH   1  10
ATOM     10  C   UNL     1     121.721 176.436 126.572  1.00  0.00     0.000 C 
BRANCH  10  11
ATOM     11  C   UNL     1     122.337 175.659 125.396  1.00  0.00    -0.000 C 
BRANCH  11  12
ATOM     12  C   UNL     1     121.744 176.070 124.037  1.00  0.00    -0.000 C 
BRANCH  12  13
ATOM     13  C   UNL     1     122.613 177.043 123.214  1.00  0.00    -0.000 C 
BRANCH  13  14
ATOM     14  C   UNL     1     124.117 177.007 123.535  1.00  0.00    -0.000 C 
BRANCH  14  15
ATOM     15  C   UNL     1     124.997 177.000 122.278  1.00  0.00    -0.000 C 
BRANCH  15  16
ATOM     16  C   UNL     1     124.391 177.883 121.181  1.00  0.00    -0.003 C 
ATOM     17  C   UNL     1     124.300 177.131 119.855  1.00  0.00     0.004 C 
ENDBRANCH  15  16
ENDBRANCH  14  15
ENDBRANCH  13  14
ENDBRANCH  12  13
ENDBRANCH  11  12
ENDBRANCH  10  11
ENDBRANCH   1  10
TORSDOF 13
ENDMDL
MODEL 8
REMARK VINA RESULT:    -4.374      3.471      5.511
REMARK INTER + INTRA:         -10.038
REMARK INTER:                  -7.778
REMARK INTRA:                  -2.260
REMARK UNBOUND:                -2.339
REMARK SMILES CCCCCCCCCCCCCCC(=O)[O-]
REMARK SMILES IDX 9 1 10 2 11 3 12 4 13 5 14 6 15 7 16 8 17 9 8 10 7 11 6 12
REMARK SMILES IDX 5 13 4 14 3 15 2 16 1 17
REMARK H PARENT
REMARK Flexibility Score: inf
ROOT
ATOM      1  C   UNL     1     119.355 175.868 125.805  1.00  0.00     0.000 C 
ENDROOT
BRANCH   1   2
ATOM      2  C   UNL     1     120.734 175.669 126.458  1.00  0.00     0.000 C 
BRANCH   2   3
ATOM      3  C   UNL     1     121.870 175.597 125.415  1.00  0.00     0.000 C 
BRANCH   3   4
ATOM      4  C   UNL     1     121.516 176.258 124.069  1.00  0.00     0.000 C 
BRANCH   4   5
ATOM      5  C   UNL     1     122.565 177.259 123.544  1.00  0.00     0.006 C 
BRANCH   5   6
ATOM      6  C   UNL     1     123.953 177.112 124.189  1.00  0.00     0.053 C 
BRANCH   6   7
ATOM      7  C   UNL     1     124.991 176.699 123.192  1.00  0.00     0.041 C 
ATOM      8  O   UNL     1     125.712 175.689 123.408  1.00  0.00    -0.550 OA
ATOM      9  O   UNL     1     125.186 177.449 122.039  1.00  0.00    -0.550 OA
ENDBRANCH   6   7
ENDBRANCH   5   6
ENDBRANCH   4   5
ENDBRANCH   3   4
ENDBRANCH   2   3
ENDBRANCH   1   2
BRANCH   1  10
ATOM     10  C   UNL     1     118.367 176.604 126.722  1.00  0.00     0.000 C 
BRANCH  10  11
ATOM     11  C   UNL     1     117.434 177.551 125.948  1.00  0.00    -0.000 C 
BRANCH  11  12
ATOM     12  C   UNL     1     118.178 178.390 124.895  1.00  0.00    -0.000 C 
BRANCH  12  13
ATOM     13  C   UNL     1     118.863 179.660 125.440  1.00  0.00    -0.000 C 
BRANCH  13  14
ATOM     14  C   UNL     1     120.400 179.599 125.501  1.00  0.00    -0.000 C 
BRANCH  14  15
ATOM     15  C   UNL     1     120.927 179.213 126.890  1.00  0.00    -0.000 C 
BRANCH  15  16
ATOM     16  C   UNL     1     122.457 179.118 126.888  1.00  0.00    -0.003 C 
ATOM     17  C   UNL     1     122.969 178.425 128.149  1.00  0.00     0.004 C 
ENDBRANCH  15  16
ENDBRANCH  14  15
ENDBRANCH  13  14
ENDBRANCH  12  13
ENDBRANCH  11  12
ENDBRANCH  10  11
ENDBRANCH   1  10
TORSDOF 13
ENDMDL
MODEL 9
REMARK VINA RESULT:    -4.327      1.367      2.939
REMARK INTER + INTRA:          -9.955
REMARK INTER:                  -7.828
REMARK INTRA:                  -2.126
REMARK UNBOUND:                -2.339
REMARK SMILES CCCCCCCCCCCCCCC(=O)[O-]
REMARK SMILES IDX 9 1 10 2 11 3 12 4 13 5 14 6 15 7 16 8 17 9 8 10 7 11 6 12
REMARK SMILES IDX 5 13 4 14 3 15 2 16 1 17
REMARK H PARENT
REMARK Flexibility Score: inf
ROOT
ATOM      1  C   UNL     1     122.481 178.867 126.277  1.00  0.00     0.000 C 
ENDROOT
BRANCH   1   2
ATOM      2  C   UNL     1     122.985 177.762 125.333  1.00  0.00     0.000 C 
BRANCH   2   3
ATOM      3  C   UNL     1     122.163 177.689 124.028  1.00  0.00     0.000 C 
BRANCH   3   4
ATOM      4  C   UNL     1     121.027 178.727 123.954  1.00  0.00     0.000 C 
BRANCH   4   5
ATOM      5  C   UNL     1     119.605 178.135 124.012  1.00  0.00     0.006 C 
BRANCH   5   6
ATOM      6  C   UNL     1     118.661 178.858 124.985  1.00  0.00     0.053 C 
BRANCH   6   7
ATOM      7  C   UNL     1     117.293 178.249 124.992  1.00  0.00     0.041 C 
ATOM      8  O   UNL     1     117.009 177.336 125.813  1.00  0.00    -0.550 OA
ATOM      9  O   UNL     1     116.340 178.665 124.071  1.00  0.00    -0.550 OA
ENDBRANCH   6   7
ENDBRANCH   5   6
ENDBRANCH   4   5
ENDBRANCH   3   4
ENDBRANCH   2   3
ENDBRANCH   1   2
BRANCH   1  10
ATOM     10  C   UNL     1     123.177 178.837 127.647  1.00  0.00     0.000 C 
BRANCH  10  11
ATOM     11  C   UNL     1     122.222 178.447 128.788  1.00  0.00    -0.000 C 
BRANCH  11  12
ATOM     12  C   UNL     1     120.751 178.390 128.340  1.00  0.00    -0.000 C 
BRANCH  12  13
ATOM     13  C   UNL     1     120.081 177.008 128.476  1.00  0.00    -0.000 C 
BRANCH  13  14
ATOM     14  C   UNL     1     120.744 175.878 127.669  1.00  0.00    -0.000 C 
BRANCH  14  15
ATOM     15  C   UNL     1     120.060 175.627 126.319  1.00  0.00    -0.000 C 
BRANCH  15  16
ATOM     16  C   UNL     1     120.553 174.320 125.688  1.00  0.00    -0.003 C 
ATOM     17  C   UNL     1     122.078 174.270 125.642  1.00  0.00     0.004 C 
ENDBRANCH  15  16
ENDBRANCH  14  15
ENDBRANCH  13  14
ENDBRANCH  12  13
ENDBRANCH  11  12
ENDBRANCH  10  11
ENDBRANCH   1  10
TORSDOF 13
ENDMDL
