MODEL 1
REMARK VINA RESULT:    -3.710      0.000      0.000
REMARK INTER + INTRA:          -5.463
REMARK INTER:                  -5.011
REMARK INTRA:                  -0.451
REMARK UNBOUND:                -0.451
REMARK SMILES CCCCCCC=CC(=O)[O-]
REMARK SMILES IDX 5 1 6 2 7 3 8 4 9 5 10 6 11 7 4 8 3 9 2 10 1 11
REMARK H PARENT
REMARK Flexibility Score: inf
ROOT
ATOM      1  C   UNL     1      62.478  33.508  59.634  1.00  0.00     0.004 C 
ENDROOT
BRANCH   1   2
ATOM      2  C   UNL     1      61.725  32.167  59.657  1.00  0.00     0.027 C 
BRANCH   2   3
ATOM      3  C   UNL     1      61.027  31.926  60.970  1.00  0.00    -0.025 C 
ATOM      4  C   UNL     1      61.312  30.949  61.848  1.00  0.00     0.020 C 
BRANCH   4   5
ATOM      5  C   UNL     1      62.389  29.945  61.732  1.00  0.00     0.064 C 
ATOM      6  O   UNL     1      62.149  28.719  61.579  1.00  0.00    -0.545 OA
ATOM      7  O   UNL     1      63.710  30.372  61.766  1.00  0.00    -0.545 OA
ENDBRANCH   4   5
ENDBRANCH   2   3
ENDBRANCH   1   2
BRANCH   1   8
ATOM      8  C   UNL     1      61.767  34.585  60.469  1.00  0.00     0.000 C 
BRANCH   8   9
ATOM      9  C   UNL     1      62.778  35.582  61.052  1.00  0.00    -0.000 C 
BRANCH   9  10
ATOM     10  C   UNL     1      64.146  34.941  61.332  1.00  0.00    -0.003 C 
ATOM     11  C   UNL     1      65.198  35.960  61.768  1.00  0.00     0.004 C 
ENDBRANCH   9  10
ENDBRANCH   8   9
ENDBRANCH   1   8
TORSDOF 6
ENDMDL
MODEL 2
REMARK VINA RESULT:    -3.701     12.200     14.042
REMARK INTER + INTRA:          -5.450
REMARK INTER:                  -5.083
REMARK INTRA:                  -0.367
REMARK UNBOUND:                -0.451
REMARK SMILES CCCCCCC=CC(=O)[O-]
REMARK SMILES IDX 5 1 6 2 7 3 8 4 9 5 10 6 11 7 4 8 3 9 2 10 1 11
REMARK H PARENT
REMARK Flexibility Score: inf
ROOT
ATOM      1  C   UNL     1      56.776  27.974  50.362  1.00  0.00     0.004 C 
ENDROOT
BRANCH   1   2
ATOM      2  C   UNL     1      57.970  28.905  50.633  1.00  0.00     0.027 C 
BRANCH   2   3
ATOM      3  C   UNL     1      58.879  29.031  49.439  1.00  0.00    -0.025 C 
ATOM      4  C   UNL     1      59.878  28.193  49.114  1.00  0.00     0.020 C 
BRANCH   4   5
ATOM      5  C   UNL     1      60.260  26.957  49.827  1.00  0.00     0.064 C 
ATOM      6  O   UNL     1      61.178  26.938  50.688  1.00  0.00    -0.545 OA
ATOM      7  O   UNL     1      59.566  25.785  49.559  1.00  0.00    -0.545 OA
ENDBRANCH   4   5
ENDBRANCH   2   3
ENDBRANCH   1   2
BRANCH   1   8
ATOM      8  C   UNL     1      55.435  28.720  50.433  1.00  0.00     0.000 C 
BRANCH   8   9
ATOM      9  C   UNL     1      54.278  27.808  49.999  1.00  0.00    -0.000 C 
BRANCH   9  10
ATOM     10  C   UNL     1      54.727  26.359  49.757  1.00  0.00    -0.003 C 
ATOM     11  C   UNL     1      53.696  25.543  48.977  1.00  0.00     0.004 C 
ENDBRANCH   9  10
ENDBRANCH   8   9
ENDBRANCH   1   8
TORSDOF 6
ENDMDL
MODEL 3
REMARK VINA RESULT:    -3.455      1.452      2.241
REMARK INTER + INTRA:          -5.118
REMARK INTER:                  -4.725
REMARK INTRA:                  -0.392
REMARK UNBOUND:                -0.451
REMARK SMILES CCCCCCC=CC(=O)[O-]
REMARK SMILES IDX 5 1 6 2 7 3 8 4 9 5 10 6 11 7 4 8 3 9 2 10 1 11
REMARK H PARENT
REMARK Flexibility Score: inf
ROOT
ATOM      1  C   UNL     1      61.058  32.086  60.780  1.00  0.00     0.004 C 
ENDROOT
BRANCH   1   2
ATOM      2  C   UNL     1      61.341  30.890  61.704  1.00  0.00     0.027 C 
BRANCH   2   3
ATOM      3  C   UNL     1      62.743  30.365  61.546  1.00  0.00    -0.025 C 
ATOM      4  C   UNL     1      63.089  29.079  61.365  1.00  0.00     0.020 C 
BRANCH   4   5
ATOM      5  C   UNL     1      62.172  27.928  61.239  1.00  0.00     0.064 C 
ATOM      6  O   UNL     1      61.964  27.130  62.190  1.00  0.00    -0.545 OA
ATOM      7  O   UNL     1      61.499  27.734  60.040  1.00  0.00    -0.545 OA
ENDBRANCH   4   5
ENDBRANCH   2   3
ENDBRANCH   1   2
BRANCH   1   8
ATOM      8  C   UNL     1      62.298  32.972  60.585  1.00  0.00     0.000 C 
BRANCH   8   9
ATOM      9  C   UNL     1      61.922  34.460  60.639  1.00  0.00    -0.000 C 
BRANCH   9  10
ATOM     10  C   UNL     1      63.138  35.367  60.888  1.00  0.00    -0.003 C 
ATOM     11  C   UNL     1      64.363  34.592  61.371  1.00  0.00     0.004 C 
ENDBRANCH   9  10
ENDBRANCH   8   9
ENDBRANCH   1   8
TORSDOF 6
ENDMDL
MODEL 4
REMARK VINA RESULT:    -3.412     12.251     13.635
REMARK INTER + INTRA:          -5.061
REMARK INTER:                  -4.658
REMARK INTRA:                  -0.403
REMARK UNBOUND:                -0.451
REMARK SMILES CCCCCCC=CC(=O)[O-]
REMARK SMILES IDX 5 1 6 2 7 3 8 4 9 5 10 6 11 7 4 8 3 9 2 10 1 11
REMARK H PARENT
REMARK Flexibility Score: inf
ROOT
ATOM      1  C   UNL     1      57.630  29.012  50.413  1.00  0.00     0.004 C 
ENDROOT
BRANCH   1   2
ATOM      2  C   UNL     1      58.919  28.718  49.627  1.00  0.00     0.027 C 
BRANCH   2   3
ATOM      3  C   UNL     1      59.165  27.242  49.464  1.00  0.00    -0.025 C 
ATOM      4  C   UNL     1      60.345  26.616  49.614  1.00  0.00     0.020 C 
BRANCH   4   5
ATOM      5  C   UNL     1      61.626  27.233  50.013  1.00  0.00     0.064 C 
ATOM      6  O   UNL     1      61.919  27.448  51.218  1.00  0.00    -0.545 OA
ATOM      7  O   UNL     1      62.547  27.564  49.028  1.00  0.00    -0.545 OA
ENDBRANCH   4   5
ENDBRANCH   2   3
ENDBRANCH   1   2
BRANCH   1   8
ATOM      8  C   UNL     1      56.664  27.817  50.405  1.00  0.00     0.000 C 
BRANCH   8   9
ATOM      9  C   UNL     1      55.204  28.292  50.422  1.00  0.00    -0.000 C 
BRANCH   9  10
ATOM     10  C   UNL     1      54.239  27.256  49.823  1.00  0.00    -0.003 C 
ATOM     11  C   UNL     1      54.928  25.935  49.484  1.00  0.00     0.004 C 
ENDBRANCH   9  10
ENDBRANCH   8   9
ENDBRANCH   1   8
TORSDOF 6
ENDMDL
MODEL 5
REMARK VINA RESULT:    -3.350     12.426     14.052
REMARK INTER + INTRA:          -4.976
REMARK INTER:                  -4.310
REMARK INTRA:                  -0.666
REMARK UNBOUND:                -0.451
REMARK SMILES CCCCCCC=CC(=O)[O-]
REMARK SMILES IDX 5 1 6 2 7 3 8 4 9 5 10 6 11 7 4 8 3 9 2 10 1 11
REMARK H PARENT
REMARK Flexibility Score: inf
ROOT
ATOM      1  C   UNL     1      57.636  25.733  51.172  1.00  0.00     0.004 C 
ENDROOT
BRANCH   1   2
ATOM      2  C   UNL     1      58.118  25.909  49.723  1.00  0.00     0.027 C 
BRANCH   2   3
ATOM      3  C   UNL     1      59.590  26.218  49.644  1.00  0.00    -0.025 C 
ATOM      4  C   UNL     1      60.143  27.443  49.662  1.00  0.00     0.020 C 
BRANCH   4   5
ATOM      5  C   UNL     1      59.431  28.729  49.809  1.00  0.00     0.064 C 
ATOM      6  O   UNL     1      58.870  29.299  48.837  1.00  0.00    -0.545 OA
ATOM      7  O   UNL     1      59.357  29.316  51.065  1.00  0.00    -0.545 OA
ENDBRANCH   4   5
ENDBRANCH   2   3
ENDBRANCH   1   2
BRANCH   1   8
ATOM      8  C   UNL     1      56.325  26.487  51.441  1.00  0.00     0.000 C 
BRANCH   8   9
ATOM      9  C   UNL     1      55.927  27.343  50.230  1.00  0.00    -0.000 C 
BRANCH   9  10
ATOM     10  C   UNL     1      54.496  27.056  49.749  1.00  0.00    -0.003 C 
ATOM     11  C   UNL     1      54.324  25.629  49.229  1.00  0.00     0.004 C 
ENDBRANCH   9  10
ENDBRANCH   8   9
ENDBRANCH   1   8
TORSDOF 6
ENDMDL
MODEL 6
REMARK VINA RESULT:    -3.327     12.038     13.599
REMARK INTER + INTRA:          -4.946
REMARK INTER:                  -4.256
REMARK INTRA:                  -0.690
REMARK UNBOUND:                -0.451
REMARK SMILES CCCCCCC=CC(=O)[O-]
REMARK SMILES IDX 5 1 6 2 7 3 8 4 9 5 10 6 11 7 4 8 3 9 2 10 1 11
REMARK H PARENT
REMARK Flexibility Score: inf
ROOT
ATOM      1  C   UNL     1      56.959  26.758  51.224  1.00  0.00     0.004 C 
ENDROOT
BRANCH   1   2
ATOM      2  C   UNL     1      57.553  28.161  51.434  1.00  0.00     0.027 C 
BRANCH   2   3
ATOM      3  C   UNL     1      57.731  28.906  50.137  1.00  0.00    -0.025 C 
ATOM      4  C   UNL     1      58.853  28.948  49.398  1.00  0.00     0.020 C 
BRANCH   4   5
ATOM      5  C   UNL     1      60.120  28.241  49.676  1.00  0.00     0.064 C 
ATOM      6  O   UNL     1      60.346  27.080  49.248  1.00  0.00    -0.545 OA
ATOM      7  O   UNL     1      61.102  28.890  50.413  1.00  0.00    -0.545 OA
ENDBRANCH   4   5
ENDBRANCH   2   3
ENDBRANCH   1   2
BRANCH   1   8
ATOM      8  C   UNL     1      55.937  26.729  50.077  1.00  0.00     0.000 C 
BRANCH   8   9
ATOM      9  C   UNL     1      54.511  26.937  50.608  1.00  0.00    -0.000 C 
BRANCH   9  10
ATOM     10  C   UNL     1      53.775  28.079  49.889  1.00  0.00    -0.003 C 
ATOM     11  C   UNL     1      54.043  29.444  50.522  1.00  0.00     0.004 C 
ENDBRANCH   9  10
ENDBRANCH   8   9
ENDBRANCH   1   8
TORSDOF 6
ENDMDL
MODEL 7
REMARK VINA RESULT:    -3.300      2.746      5.322
REMARK INTER + INTRA:          -4.908
REMARK INTER:                  -4.598
REMARK INTRA:                  -0.310
REMARK UNBOUND:                -0.451
REMARK SMILES CCCCCCC=CC(=O)[O-]
REMARK SMILES IDX 5 1 6 2 7 3 8 4 9 5 10 6 11 7 4 8 3 9 2 10 1 11
REMARK H PARENT
REMARK Flexibility Score: inf
ROOT
ATOM      1  C   UNL     1      61.143  31.998  60.520  1.00  0.00     0.004 C 
ENDROOT
BRANCH   1   2
ATOM      2  C   UNL     1      62.370  32.917  60.640  1.00  0.00     0.027 C 
BRANCH   2   3
ATOM      3  C   UNL     1      61.992  34.375  60.669  1.00  0.00    -0.025 C 
ATOM      4  C   UNL     1      62.839  35.408  60.818  1.00  0.00     0.020 C 
BRANCH   4   5
ATOM      5  C   UNL     1      64.309  35.333  60.938  1.00  0.00     0.064 C 
ATOM      6  O   UNL     1      64.891  35.336  62.054  1.00  0.00    -0.545 OA
ATOM      7  O   UNL     1      65.072  35.230  59.782  1.00  0.00    -0.545 OA
ENDBRANCH   4   5
ENDBRANCH   2   3
ENDBRANCH   1   2
BRANCH   1   8
ATOM      8  C   UNL     1      61.092  30.952  61.644  1.00  0.00     0.000 C 
BRANCH   8   9
ATOM      9  C   UNL     1      62.440  30.229  61.781  1.00  0.00    -0.000 C 
BRANCH   9  10
ATOM     10  C   UNL     1      62.527  28.972  60.901  1.00  0.00    -0.003 C 
ATOM     11  C   UNL     1      62.170  27.694  61.660  1.00  0.00     0.004 C 
ENDBRANCH   9  10
ENDBRANCH   8   9
ENDBRANCH   1   8
TORSDOF 6
ENDMDL
MODEL 8
REMARK VINA RESULT:    -3.144      1.443      2.648
REMARK INTER + INTRA:          -4.698
REMARK INTER:                  -4.116
REMARK INTRA:                  -0.583
REMARK UNBOUND:                -0.451
REMARK SMILES CCCCCCC=CC(=O)[O-]
REMARK SMILES IDX 5 1 6 2 7 3 8 4 9 5 10 6 11 7 4 8 3 9 2 10 1 11
REMARK H PARENT
REMARK Flexibility Score: inf
ROOT
ATOM      1  C   UNL     1      64.598  34.695  60.640  1.00  0.00     0.004 C 
ENDROOT
BRANCH   1   2
ATOM      2  C   UNL     1      63.801  33.459  61.088  1.00  0.00     0.027 C 
BRANCH   2   3
ATOM      3  C   UNL     1      62.763  33.050  60.076  1.00  0.00    -0.025 C 
ATOM      4  C   UNL     1      61.899  32.028  60.200  1.00  0.00     0.020 C 
BRANCH   4   5
ATOM      5  C   UNL     1      61.757  31.129  61.363  1.00  0.00     0.064 C 
ATOM      6  O   UNL     1      60.747  31.159  62.113  1.00  0.00    -0.545 OA
ATOM      7  O   UNL     1      62.759  30.203  61.622  1.00  0.00    -0.545 OA
ENDBRANCH   4   5
ENDBRANCH   2   3
ENDBRANCH   1   2
BRANCH   1   8
ATOM      8  C   UNL     1      64.175  35.963  61.398  1.00  0.00     0.000 C 
BRANCH   8   9
ATOM      9  C   UNL     1      63.236  36.826  60.542  1.00  0.00    -0.000 C 
BRANCH   9  10
ATOM     10  C   UNL     1      61.812  36.895  61.115  1.00  0.00    -0.003 C 
ATOM     11  C   UNL     1      60.785  36.192  60.229  1.00  0.00     0.004 C 
ENDBRANCH   9  10
ENDBRANCH   8   9
ENDBRANCH   1   8
TORSDOF 6
ENDMDL
MODEL 9
REMARK VINA RESULT:    -3.099      3.425      5.108
REMARK INTER + INTRA:          -4.638
REMARK INTER:                  -3.997
REMARK INTRA:                  -0.641
REMARK UNBOUND:                -0.451
REMARK SMILES CCCCCCC=CC(=O)[O-]
REMARK SMILES IDX 5 1 6 2 7 3 8 4 9 5 10 6 11 7 4 8 3 9 2 10 1 11
REMARK H PARENT
REMARK Flexibility Score: inf
ROOT
ATOM      1  C   UNL     1      60.875  32.066  59.941  1.00  0.00     0.004 C 
ENDROOT
BRANCH   1   2
ATOM      2  C   UNL     1      61.460  33.464  59.682  1.00  0.00     0.027 C 
BRANCH   2   3
ATOM      3  C   UNL     1      62.544  33.821  60.666  1.00  0.00    -0.025 C 
ATOM      4  C   UNL     1      62.937  35.065  60.991  1.00  0.00     0.020 C 
BRANCH   4   5
ATOM      5  C   UNL     1      62.362  36.330  60.492  1.00  0.00     0.064 C 
ATOM      6  O   UNL     1      61.392  36.896  61.060  1.00  0.00    -0.545 OA
ATOM      7  O   UNL     1      62.928  36.929  59.374  1.00  0.00    -0.545 OA
ENDBRANCH   4   5
ENDBRANCH   2   3
ENDBRANCH   1   2
BRANCH   1   8
ATOM      8  C   UNL     1      61.208  31.551  61.350  1.00  0.00     0.000 C 
BRANCH   8   9
ATOM      9  C   UNL     1      61.902  30.183  61.283  1.00  0.00    -0.000 C 
BRANCH   9  10
ATOM     10  C   UNL     1      63.394  30.259  61.642  1.00  0.00    -0.003 C 
ATOM     11  C   UNL     1      64.281  30.535  60.429  1.00  0.00     0.004 C 
ENDBRANCH   9  10
ENDBRANCH   8   9
ENDBRANCH   1   8
TORSDOF 6
ENDMDL
