MODEL 1
REMARK VINA RESULT:    -4.471      0.000      0.000
REMARK INTER + INTRA:          -7.251
REMARK INTER:                  -6.823
REMARK INTRA:                  -0.429
REMARK UNBOUND:                -0.429
REMARK SMILES CC1=CCC[C@@H](C)C(=O)C[C@@H](C(C)C)C(=O)C1
REMARK SMILES IDX 8 1 9 2 6 3 7 4 5 5 4 6 3 7 2 8 1 9 10 11 11 12 15 13 16 14
REMARK SMILES IDX 17 15 12 17 13 18 14 19
REMARK H PARENT
REMARK Flexibility Score: 70.00
ROOT
ATOM      1  C   UNL     1      28.404  53.518  15.992  1.00  0.00     0.136 C 
ATOM      2  O   UNL     1      28.242  53.360  14.791  1.00  0.00    -0.299 OA
ENDROOT
BRANCH   1   3
ATOM      3  C   UNL     1      29.674  52.984  16.634  1.00  0.00     0.053 C 
ATOM      4  C   UNL     1      30.846  53.939  16.379  1.00  0.00     0.016 C 
BRANCH   3   5
ATOM      5  C   UNL     1      30.014  51.557  16.160  1.00  0.00     0.015 C 
BRANCH   5   6
ATOM      6  C   UNL     1      29.217  50.492  16.936  1.00  0.00     0.028 C 
BRANCH   6   7
ATOM      7  C   UNL     1      27.999  50.003  16.194  1.00  0.00    -0.028 C 
ATOM      8  C   UNL     1      26.718  50.055  16.639  1.00  0.00    -0.070 CG0
ATOM      9  C   UNL     1      25.666  49.386  15.788  1.00  0.00     0.039 C 
ATOM     10  G   UNL     1      26.267  50.806  17.889  1.00  0.00     0.000 G0
ENDBRANCH   6   7
ENDBRANCH   5   6
ENDBRANCH   3   5
ENDBRANCH   1   3
BRANCH   1  11
ATOM     11  C   UNL     1      27.311  54.185  16.796  1.00  0.00     0.087 C 
BRANCH  11  12
ATOM     12  C   UNL     1      26.899  53.373  18.056  1.00  0.00     0.066 C 
BRANCH  12  13
ATOM     13  C   UNL     1      25.908  52.267  17.707  1.00  0.00     0.140 C 
ATOM     14  O   UNL     1      24.869  52.563  17.135  1.00  0.00    -0.299 OA
BRANCH  13  15
ATOM     15  C   UNL     1      26.255  50.809  17.906  1.00  0.00     0.106 CG0
ATOM     16  G   UNL     1      26.720  50.080  16.647  1.00  0.00     0.000 G0
ENDBRANCH  13  15
ENDBRANCH  12  13
BRANCH  12  17
ATOM     17  C   UNL     1      26.329  54.279  19.194  1.00  0.00    -0.006 C 
ATOM     18  C   UNL     1      27.370  55.280  19.730  1.00  0.00     0.008 C 
ATOM     19  C   UNL     1      25.806  53.434  20.371  1.00  0.00     0.008 C 
ENDBRANCH  12  17
ENDBRANCH  11  12
ENDBRANCH   1  11
TORSDOF 1
ENDMDL
MODEL 2
REMARK VINA RESULT:    -4.389      1.759      3.305
REMARK INTER + INTRA:          -7.126
REMARK INTER:                  -6.656
REMARK INTRA:                  -0.471
REMARK UNBOUND:                -0.429
REMARK SMILES CC1=CCC[C@@H](C)C(=O)C[C@@H](C(C)C)C(=O)C1
REMARK SMILES IDX 8 1 9 2 6 3 7 4 5 5 4 6 3 7 2 8 1 9 10 11 11 12 15 13 16 14
REMARK SMILES IDX 17 15 12 17 13 18 14 19
REMARK H PARENT
REMARK Flexibility Score: 70.00
ROOT
ATOM      1  C   UNL     1      25.757  54.026  17.813  1.00  0.00     0.136 C 
ATOM      2  O   UNL     1      25.038  55.011  17.720  1.00  0.00    -0.299 OA
ENDROOT
BRANCH   1   3
ATOM      3  C   UNL     1      27.114  54.171  18.481  1.00  0.00     0.053 C 
ATOM      4  C   UNL     1      27.046  55.202  19.614  1.00  0.00     0.016 C 
BRANCH   3   5
ATOM      5  C   UNL     1      28.225  54.532  17.474  1.00  0.00     0.015 C 
BRANCH   5   6
ATOM      6  C   UNL     1      29.023  53.290  17.036  1.00  0.00     0.028 C 
BRANCH   6   7
ATOM      7  C   UNL     1      28.586  52.742  15.702  1.00  0.00    -0.028 C 
ATOM      8  C   UNL     1      28.130  51.486  15.464  1.00  0.00    -0.070 CG0
ATOM      9  C   UNL     1      27.871  51.108  14.026  1.00  0.00     0.039 C 
ATOM     10  G   UNL     1      27.792  50.470  16.551  1.00  0.00     0.000 G0
ENDBRANCH   6   7
ENDBRANCH   5   6
ENDBRANCH   3   5
ENDBRANCH   1   3
BRANCH   1  11
ATOM     11  C   UNL     1      25.289  52.721  17.208  1.00  0.00     0.087 C 
BRANCH  11  12
ATOM     12  C   UNL     1      25.819  51.473  17.968  1.00  0.00     0.066 C 
BRANCH  12  13
ATOM     13  C   UNL     1      26.354  50.419  17.004  1.00  0.00     0.140 C 
ATOM     14  O   UNL     1      25.571  49.629  16.496  1.00  0.00    -0.299 OA
BRANCH  13  15
ATOM     15  C   UNL     1      27.793  50.436  16.541  1.00  0.00     0.106 CG0
ATOM     16  G   UNL     1      28.116  51.485  15.479  1.00  0.00     0.000 G0
ENDBRANCH  13  15
ENDBRANCH  12  13
BRANCH  12  17
ATOM     17  C   UNL     1      24.746  50.849  18.918  1.00  0.00    -0.006 C 
ATOM     18  C   UNL     1      23.336  51.416  18.670  1.00  0.00     0.008 C 
ATOM     19  C   UNL     1      25.113  51.073  20.398  1.00  0.00     0.008 C 
ENDBRANCH  12  17
ENDBRANCH  11  12
ENDBRANCH   1  11
TORSDOF 1
ENDMDL
MODEL 3
REMARK VINA RESULT:    -4.370      6.654      8.454
REMARK INTER + INTRA:          -7.097
REMARK INTER:                  -6.685
REMARK INTRA:                  -0.412
REMARK UNBOUND:                -0.429
REMARK SMILES CC1=CCC[C@@H](C)C(=O)C[C@@H](C(C)C)C(=O)C1
REMARK SMILES IDX 8 1 9 2 6 3 7 4 5 5 4 6 3 7 2 8 1 9 10 11 11 12 15 13 16 14
REMARK SMILES IDX 17 15 12 17 13 18 14 19
REMARK H PARENT
REMARK Flexibility Score: 70.00
ROOT
ATOM      1  C   UNL     1      27.989  53.870  11.573  1.00  0.00     0.136 C 
ATOM      2  O   UNL     1      27.887  53.882  12.792  1.00  0.00    -0.299 OA
ENDROOT
BRANCH   1   3
ATOM      3  C   UNL     1      29.212  54.508  10.936  1.00  0.00     0.053 C 
ATOM      4  C   UNL     1      30.447  53.625  11.143  1.00  0.00     0.016 C 
BRANCH   3   5
ATOM      5  C   UNL     1      29.463  55.938  11.458  1.00  0.00     0.015 C 
BRANCH   5   6
ATOM      6  C   UNL     1      28.502  56.956  10.819  1.00  0.00     0.028 C 
BRANCH   6   7
ATOM      7  C   UNL     1      27.431  57.437  11.765  1.00  0.00    -0.028 C 
ATOM      8  C   UNL     1      26.094  57.429  11.530  1.00  0.00    -0.070 CG0
ATOM      9  C   UNL     1      25.209  58.081  12.564  1.00  0.00     0.039 C 
ATOM     10  G   UNL     1      25.431  56.741  10.340  1.00  0.00     0.000 G0
ENDBRANCH   6   7
ENDBRANCH   5   6
ENDBRANCH   3   5
ENDBRANCH   1   3
BRANCH   1  11
ATOM     11  C   UNL     1      26.868  53.274  10.752  1.00  0.00     0.087 C 
BRANCH  11  12
ATOM     12  C   UNL     1      26.241  54.285   9.752  1.00  0.00     0.066 C 
BRANCH  12  13
ATOM     13  C   UNL     1      25.272  55.233  10.451  1.00  0.00     0.140 C 
ATOM     14  O   UNL     1      24.448  54.770  11.227  1.00  0.00    -0.299 OA
BRANCH  13  15
ATOM     15  C   UNL     1      25.414  56.733  10.330  1.00  0.00     0.106 CG0
ATOM     16  G   UNL     1      26.090  57.414  11.517  1.00  0.00     0.000 G0
ENDBRANCH  13  15
ENDBRANCH  12  13
BRANCH  12  17
ATOM     17  C   UNL     1      25.542  53.580   8.545  1.00  0.00    -0.006 C 
ATOM     18  C   UNL     1      26.332  52.360   8.035  1.00  0.00     0.008 C 
ATOM     19  C   UNL     1      25.334  54.557   7.372  1.00  0.00     0.008 C 
ENDBRANCH  12  17
ENDBRANCH  11  12
ENDBRANCH   1  11
TORSDOF 1
ENDMDL
MODEL 4
REMARK VINA RESULT:    -4.353      7.929      9.055
REMARK INTER + INTRA:          -7.071
REMARK INTER:                  -7.133
REMARK INTRA:                   0.062
REMARK UNBOUND:                -0.429
REMARK SMILES CC1=CCC[C@@H](C)C(=O)C[C@@H](C(C)C)C(=O)C1
REMARK SMILES IDX 8 1 9 2 6 3 7 4 5 5 4 6 3 7 2 8 1 9 10 11 11 12 15 13 16 14
REMARK SMILES IDX 17 15 12 17 13 18 14 19
REMARK H PARENT
REMARK Flexibility Score: 70.00
ROOT
ATOM      1  C   UNL     1      24.936  56.047   7.576  1.00  0.00     0.136 C 
ATOM      2  O   UNL     1      24.774  57.041   6.882  1.00  0.00    -0.299 OA
ENDROOT
BRANCH   1   3
ATOM      3  C   UNL     1      25.304  54.737   6.901  1.00  0.00     0.053 C 
ATOM      4  C   UNL     1      25.804  54.989   5.474  1.00  0.00     0.016 C 
BRANCH   3   5
ATOM      5  C   UNL     1      24.136  53.729   6.905  1.00  0.00     0.015 C 
BRANCH   5   6
ATOM      6  C   UNL     1      24.449  52.495   7.771  1.00  0.00     0.028 C 
BRANCH   6   7
ATOM      7  C   UNL     1      25.927  52.255   7.952  1.00  0.00    -0.028 C 
ATOM      8  C   UNL     1      26.639  52.476   9.086  1.00  0.00    -0.070 CG0
ATOM      9  C   UNL     1      28.135  52.292   9.007  1.00  0.00     0.039 C 
ATOM     10  G   UNL     1      26.023  52.816  10.441  1.00  0.00     0.000 G0
ENDBRANCH   6   7
ENDBRANCH   5   6
ENDBRANCH   3   5
ENDBRANCH   1   3
BRANCH   1  11
ATOM     11  C   UNL     1      24.707  56.153   9.067  1.00  0.00     0.087 C 
BRANCH  11  12
ATOM     12  C   UNL     1      25.785  55.408   9.903  1.00  0.00     0.066 C 
BRANCH  12  13
ATOM     13  C   UNL     1      25.234  54.117  10.499  1.00  0.00     0.140 C 
ATOM     14  O   UNL     1      24.078  54.095  10.897  1.00  0.00    -0.299 OA
BRANCH  13  15
ATOM     15  C   UNL     1      26.028  52.831  10.459  1.00  0.00     0.106 CG0
ATOM     16  G   UNL     1      26.632  52.489   9.099  1.00  0.00     0.000 G0
ENDBRANCH  13  15
ENDBRANCH  12  13
BRANCH  12  17
ATOM     17  C   UNL     1      26.402  56.308  11.023  1.00  0.00    -0.006 C 
ATOM     18  C   UNL     1      25.516  57.522  11.360  1.00  0.00     0.008 C 
ATOM     19  C   UNL     1      27.801  56.815  10.623  1.00  0.00     0.008 C 
ENDBRANCH  12  17
ENDBRANCH  11  12
ENDBRANCH   1  11
TORSDOF 1
ENDMDL
MODEL 5
REMARK VINA RESULT:    -4.299      1.910      5.036
REMARK INTER + INTRA:          -6.990
REMARK INTER:                  -6.835
REMARK INTRA:                  -0.155
REMARK UNBOUND:                -0.429
REMARK SMILES CC1=CCC[C@@H](C)C(=O)C[C@@H](C(C)C)C(=O)C1
REMARK SMILES IDX 8 1 9 2 6 3 7 4 5 5 4 6 3 7 2 8 1 9 10 11 11 12 15 13 16 14
REMARK SMILES IDX 17 15 12 17 13 18 14 19
REMARK H PARENT
REMARK Flexibility Score: 70.00
ROOT
ATOM      1  C   UNL     1      26.203  51.628  17.142  1.00  0.00     0.136 C 
ATOM      2  O   UNL     1      25.480  52.108  16.281  1.00  0.00    -0.299 OA
ENDROOT
BRANCH   1   3
ATOM      3  C   UNL     1      26.188  52.238  18.533  1.00  0.00     0.053 C 
ATOM      4  C   UNL     1      24.971  51.741  19.323  1.00  0.00     0.016 C 
BRANCH   3   5
ATOM      5  C   UNL     1      26.229  53.779  18.496  1.00  0.00     0.015 C 
BRANCH   5   6
ATOM      6  C   UNL     1      27.634  54.305  18.154  1.00  0.00     0.028 C 
BRANCH   6   7
ATOM      7  C   UNL     1      27.780  54.716  16.710  1.00  0.00    -0.028 C 
ATOM      8  C   UNL     1      28.718  54.263  15.841  1.00  0.00    -0.070 CG0
ATOM      9  C   UNL     1      28.763  54.908  14.477  1.00  0.00     0.039 C 
ATOM     10  G   UNL     1      29.669  53.102  16.123  1.00  0.00     0.000 G0
ENDBRANCH   6   7
ENDBRANCH   5   6
ENDBRANCH   3   5
ENDBRANCH   1   3
BRANCH   1  11
ATOM     11  C   UNL     1      27.123  50.487  16.769  1.00  0.00     0.087 C 
BRANCH  11  12
ATOM     12  C   UNL     1      28.626  50.827  16.966  1.00  0.00     0.066 C 
BRANCH  12  13
ATOM     13  C   UNL     1      29.149  51.717  15.843  1.00  0.00     0.140 C 
ATOM     14  O   UNL     1      29.008  51.351  14.685  1.00  0.00    -0.299 OA
BRANCH  13  15
ATOM     15  C   UNL     1      29.683  53.103  16.122  1.00  0.00     0.106 CG0
ATOM     16  G   UNL     1      28.706  54.240  15.836  1.00  0.00     0.000 G0
ENDBRANCH  13  15
ENDBRANCH  12  13
BRANCH  12  17
ATOM     17  C   UNL     1      29.516  49.551  17.111  1.00  0.00    -0.006 C 
ATOM     18  C   UNL     1      31.022  49.875  17.089  1.00  0.00     0.008 C 
ATOM     19  C   UNL     1      29.216  48.531  15.995  1.00  0.00     0.008 C 
ENDBRANCH  12  17
ENDBRANCH  11  12
ENDBRANCH   1  11
TORSDOF 1
ENDMDL
MODEL 6
REMARK VINA RESULT:    -4.222      1.882      2.520
REMARK INTER + INTRA:          -6.873
REMARK INTER:                  -6.864
REMARK INTRA:                  -0.009
REMARK UNBOUND:                -0.429
REMARK SMILES CC1=CCC[C@@H](C)C(=O)C[C@@H](C(C)C)C(=O)C1
REMARK SMILES IDX 8 1 9 2 6 3 7 4 5 5 4 6 3 7 2 8 1 9 10 11 11 12 15 13 16 14
REMARK SMILES IDX 17 15 12 17 13 18 14 19
REMARK H PARENT
REMARK Flexibility Score: 70.00
ROOT
ATOM      1  C   UNL     1      27.684  54.594  18.347  1.00  0.00     0.136 C 
ATOM      2  O   UNL     1      28.192  55.224  19.263  1.00  0.00    -0.299 OA
ENDROOT
BRANCH   1   3
ATOM      3  C   UNL     1      28.511  54.317  17.103  1.00  0.00     0.053 C 
ATOM      4  C   UNL     1      29.877  55.006  17.202  1.00  0.00     0.016 C 
BRANCH   3   5
ATOM      5  C   UNL     1      27.779  54.729  15.810  1.00  0.00     0.015 C 
BRANCH   5   6
ATOM      6  C   UNL     1      27.378  53.506  14.966  1.00  0.00     0.028 C 
BRANCH   6   7
ATOM      7  C   UNL     1      27.880  52.202  15.533  1.00  0.00    -0.028 C 
ATOM      8  C   UNL     1      27.261  51.449  16.477  1.00  0.00    -0.070 CG0
ATOM      9  C   UNL     1      28.006  50.244  16.997  1.00  0.00     0.039 C 
ATOM     10  G   UNL     1      25.842  51.696  16.984  1.00  0.00     0.000 G0
ENDBRANCH   6   7
ENDBRANCH   5   6
ENDBRANCH   3   5
ENDBRANCH   1   3
BRANCH   1  11
ATOM     11  C   UNL     1      26.237  54.170  18.467  1.00  0.00     0.087 C 
BRANCH  11  12
ATOM     12  C   UNL     1      26.046  52.898  19.340  1.00  0.00     0.066 C 
BRANCH  12  13
ATOM     13  C   UNL     1      25.658  51.692  18.490  1.00  0.00     0.140 C 
ATOM     14  O   UNL     1      25.076  50.757  19.021  1.00  0.00    -0.299 OA
BRANCH  13  15
ATOM     15  C   UNL     1      25.831  51.701  16.988  1.00  0.00     0.106 CG0
ATOM     16  G   UNL     1      27.250  51.422  16.501  1.00  0.00     0.000 G0
ENDBRANCH  13  15
ENDBRANCH  12  13
BRANCH  12  17
ATOM     17  C   UNL     1      25.010  53.111  20.491  1.00  0.00    -0.006 C 
ATOM     18  C   UNL     1      24.502  54.563  20.567  1.00  0.00     0.008 C 
ATOM     19  C   UNL     1      25.609  52.727  21.858  1.00  0.00     0.008 C 
ENDBRANCH  12  17
ENDBRANCH  11  12
ENDBRANCH   1  11
TORSDOF 1
ENDMDL
MODEL 7
REMARK VINA RESULT:    -4.213      5.837      7.115
REMARK INTER + INTRA:          -6.859
REMARK INTER:                  -6.650
REMARK INTRA:                  -0.209
REMARK UNBOUND:                -0.429
REMARK SMILES CC1=CCC[C@@H](C)C(=O)C[C@@H](C(C)C)C(=O)C1
REMARK SMILES IDX 8 1 9 2 6 3 7 4 5 5 4 6 3 7 2 8 1 9 10 11 11 12 15 13 16 14
REMARK SMILES IDX 17 15 12 17 13 18 14 19
REMARK H PARENT
REMARK Flexibility Score: 70.00
ROOT
ATOM      1  C   UNL     1      30.004  55.997  11.129  1.00  0.00     0.136 C 
ATOM      2  O   UNL     1      31.126  55.979  10.644  1.00  0.00    -0.299 OA
ENDROOT
BRANCH   1   3
ATOM      3  C   UNL     1      29.516  54.775  11.889  1.00  0.00     0.053 C 
ATOM      4  C   UNL     1      30.533  54.368  12.962  1.00  0.00     0.016 C 
BRANCH   3   5
ATOM      5  C   UNL     1      29.203  53.591  10.951  1.00  0.00     0.015 C 
BRANCH   5   6
ATOM      6  C   UNL     1      27.739  53.613  10.473  1.00  0.00     0.028 C 
BRANCH   6   7
ATOM      7  C   UNL     1      26.750  53.804  11.595  1.00  0.00    -0.028 C 
ATOM      8  C   UNL     1      26.177  54.977  11.964  1.00  0.00    -0.070 CG0
ATOM      9  C   UNL     1      25.313  54.963  13.201  1.00  0.00     0.039 C 
ATOM     10  G   UNL     1      26.283  56.277  11.171  1.00  0.00     0.000 G0
ENDBRANCH   6   7
ENDBRANCH   5   6
ENDBRANCH   3   5
ENDBRANCH   1   3
BRANCH   1  11
ATOM     11  C   UNL     1      29.131  57.211  10.904  1.00  0.00     0.087 C 
BRANCH  11  12
ATOM     12  C   UNL     1      28.330  57.628  12.169  1.00  0.00     0.066 C 
BRANCH  12  13
ATOM     13  C   UNL     1      26.828  57.463  11.958  1.00  0.00     0.140 C 
ATOM     14  O   UNL     1      26.079  58.365  12.305  1.00  0.00    -0.299 OA
BRANCH  13  15
ATOM     15  C   UNL     1      26.267  56.290  11.187  1.00  0.00     0.106 CG0
ATOM     16  G   UNL     1      26.195  54.980  11.969  1.00  0.00     0.000 G0
ENDBRANCH  13  15
ENDBRANCH  12  13
BRANCH  12  17
ATOM     17  C   UNL     1      28.659  59.083  12.634  1.00  0.00    -0.006 C 
ATOM     18  C   UNL     1      30.023  59.576  12.114  1.00  0.00     0.008 C 
ATOM     19  C   UNL     1      28.649  59.194  14.171  1.00  0.00     0.008 C 
ENDBRANCH  12  17
ENDBRANCH  11  12
ENDBRANCH   1  11
TORSDOF 1
ENDMDL
MODEL 8
REMARK VINA RESULT:    -4.204      6.211      7.890
REMARK INTER + INTRA:          -6.845
REMARK INTER:                  -6.934
REMARK INTRA:                   0.089
REMARK UNBOUND:                -0.429
REMARK SMILES CC1=CCC[C@@H](C)C(=O)C[C@@H](C(C)C)C(=O)C1
REMARK SMILES IDX 8 1 9 2 6 3 7 4 5 5 4 6 3 7 2 8 1 9 10 11 11 12 15 13 16 14
REMARK SMILES IDX 17 15 12 17 13 18 14 19
REMARK H PARENT
REMARK Flexibility Score: 70.00
ROOT
ATOM      1  C   UNL     1      27.225  58.042  12.357  1.00  0.00     0.136 C 
ATOM      2  O   UNL     1      26.264  58.424  13.010  1.00  0.00    -0.299 OA
ENDROOT
BRANCH   1   3
ATOM      3  C   UNL     1      28.623  58.375  12.851  1.00  0.00     0.053 C 
ATOM      4  C   UNL     1      28.559  59.384  14.004  1.00  0.00     0.016 C 
BRANCH   3   5
ATOM      5  C   UNL     1      29.535  58.889  11.719  1.00  0.00     0.015 C 
BRANCH   5   6
ATOM      6  C   UNL     1      30.232  57.734  10.978  1.00  0.00     0.028 C 
BRANCH   6   7
ATOM      7  C   UNL     1      30.601  56.584  11.881  1.00  0.00    -0.028 C 
ATOM      8  C   UNL     1      29.944  55.400  11.977  1.00  0.00    -0.070 CG0
ATOM      9  C   UNL     1      30.408  54.439  13.043  1.00  0.00     0.039 C 
ATOM     10  G   UNL     1      28.831  54.951  11.033  1.00  0.00     0.000 G0
ENDBRANCH   6   7
ENDBRANCH   5   6
ENDBRANCH   3   5
ENDBRANCH   1   3
BRANCH   1  11
ATOM     11  C   UNL     1      26.980  57.307  11.059  1.00  0.00     0.087 C 
BRANCH  11  12
ATOM     12  C   UNL     1      26.376  55.890  11.265  1.00  0.00     0.066 C 
BRANCH  12  13
ATOM     13  C   UNL     1      27.450  54.876  11.647  1.00  0.00     0.140 C 
ATOM     14  O   UNL     1      27.142  53.927  12.354  1.00  0.00    -0.299 OA
BRANCH  13  15
ATOM     15  C   UNL     1      28.833  54.930  11.040  1.00  0.00     0.106 CG0
ATOM     16  G   UNL     1      29.931  55.417  11.982  1.00  0.00     0.000 G0
ENDBRANCH  13  15
ENDBRANCH  12  13
BRANCH  12  17
ATOM     17  C   UNL     1      25.573  55.393  10.020  1.00  0.00    -0.006 C 
ATOM     18  C   UNL     1      25.250  56.531   9.033  1.00  0.00     0.008 C 
ATOM     19  C   UNL     1      24.254  54.717  10.440  1.00  0.00     0.008 C 
ENDBRANCH  12  17
ENDBRANCH  11  12
ENDBRANCH   1  11
TORSDOF 1
ENDMDL
MODEL 9
REMARK VINA RESULT:    -4.200      1.943      3.994
REMARK INTER + INTRA:          -6.839
REMARK INTER:                  -6.534
REMARK INTRA:                  -0.304
REMARK UNBOUND:                -0.429
REMARK SMILES CC1=CCC[C@@H](C)C(=O)C[C@@H](C(C)C)C(=O)C1
REMARK SMILES IDX 8 1 9 2 6 3 7 4 5 5 4 6 3 7 2 8 1 9 10 11 11 12 15 13 16 14
REMARK SMILES IDX 17 15 12 17 13 18 14 19
REMARK H PARENT
REMARK Flexibility Score: 70.00
ROOT
ATOM      1  C   UNL     1      27.182  51.737  15.961  1.00  0.00     0.136 C 
ATOM      2  O   UNL     1      27.325  51.388  14.798  1.00  0.00    -0.299 OA
ENDROOT
BRANCH   1   3
ATOM      3  C   UNL     1      27.209  50.677  17.050  1.00  0.00     0.053 C 
ATOM      4  C   UNL     1      28.232  49.586  16.712  1.00  0.00     0.016 C 
BRANCH   3   5
ATOM      5  C   UNL     1      25.816  50.066  17.306  1.00  0.00     0.015 C 
BRANCH   5   6
ATOM      6  C   UNL     1      24.805  51.127  17.779  1.00  0.00     0.028 C 
BRANCH   6   7
ATOM      7  C   UNL     1      24.986  51.518  19.223  1.00  0.00    -0.028 C 
ATOM      8  C   UNL     1      25.456  52.708  19.677  1.00  0.00    -0.070 CG0
ATOM      9  C   UNL     1      25.680  52.839  21.164  1.00  0.00     0.039 C 
ATOM     10  G   UNL     1      25.694  53.934  18.799  1.00  0.00     0.000 G0
ENDBRANCH   6   7
ENDBRANCH   5   6
ENDBRANCH   3   5
ENDBRANCH   1   3
BRANCH   1  11
ATOM     11  C   UNL     1      26.927  53.197  16.261  1.00  0.00     0.087 C 
BRANCH  11  12
ATOM     12  C   UNL     1      27.895  53.778  17.329  1.00  0.00     0.066 C 
BRANCH  12  13
ATOM     13  C   UNL     1      27.136  54.301  18.544  1.00  0.00     0.140 C 
ATOM     14  O   UNL     1      27.670  55.135  19.261  1.00  0.00    -0.299 OA
BRANCH  13  15
ATOM     15  C   UNL     1      25.689  53.937  18.783  1.00  0.00     0.106 CG0
ATOM     16  G   UNL     1      25.470  52.714  19.671  1.00  0.00     0.000 G0
ENDBRANCH  13  15
ENDBRANCH  12  13
BRANCH  12  17
ATOM     17  C   UNL     1      28.832  54.887  16.750  1.00  0.00    -0.006 C 
ATOM     18  C   UNL     1      28.608  55.122  15.244  1.00  0.00     0.008 C 
ATOM     19  C   UNL     1      30.315  54.541  16.979  1.00  0.00     0.008 C 
ENDBRANCH  12  17
ENDBRANCH  11  12
ENDBRANCH   1  11
TORSDOF 1
ENDMDL
