MODEL 1
REMARK VINA RESULT:    -5.503      0.000      0.000
REMARK INTER + INTRA:          -7.616
REMARK INTER:                  -7.434
REMARK INTRA:                  -0.182
REMARK UNBOUND:                -0.182
REMARK SMILES CCCCCCCC(=O)[O-]
REMARK SMILES IDX 5 1 6 2 7 3 8 4 9 5 10 6 4 7 3 8 2 9 1 10
REMARK H PARENT
REMARK Flexibility Score: inf
ROOT
ATOM      1  C   UNL     1     -22.295 -22.216  31.154  1.00  0.00     0.000 C 
ENDROOT
BRANCH   1   2
ATOM      2  C   UNL     1     -22.103 -23.480  30.307  1.00  0.00     0.006 C 
BRANCH   2   3
ATOM      3  C   UNL     1     -23.135 -24.550  30.675  1.00  0.00     0.053 C 
BRANCH   3   4
ATOM      4  C   UNL     1     -23.788 -25.094  29.444  1.00  0.00     0.041 C 
ATOM      5  O   UNL     1     -23.153 -25.142  28.358  1.00  0.00    -0.550 OA
ATOM      6  O   UNL     1     -25.083 -25.594  29.507  1.00  0.00    -0.550 OA
ENDBRANCH   3   4
ENDBRANCH   2   3
ENDBRANCH   1   2
BRANCH   1   7
ATOM      7  C   UNL     1     -22.069 -20.951  30.312  1.00  0.00     0.000 C 
BRANCH   7   8
ATOM      8  C   UNL     1     -21.252 -19.883  31.056  1.00  0.00    -0.000 C 
BRANCH   8   9
ATOM      9  C   UNL     1     -20.534 -18.918  30.102  1.00  0.00    -0.003 C 
ATOM     10  C   UNL     1     -20.954 -19.163  28.654  1.00  0.00     0.004 C 
ENDBRANCH   8   9
ENDBRANCH   7   8
ENDBRANCH   1   7
TORSDOF 6
ENDMDL
MODEL 2
REMARK VINA RESULT:    -5.466      3.294      5.766
REMARK INTER + INTRA:          -7.566
REMARK INTER:                  -7.391
REMARK INTRA:                  -0.175
REMARK UNBOUND:                -0.182
REMARK SMILES CCCCCCCC(=O)[O-]
REMARK SMILES IDX 5 1 6 2 7 3 8 4 9 5 10 6 4 7 3 8 2 9 1 10
REMARK H PARENT
REMARK Flexibility Score: inf
ROOT
ATOM      1  C   UNL     1     -22.227 -22.115  31.157  1.00  0.00     0.000 C 
ENDROOT
BRANCH   1   2
ATOM      2  C   UNL     1     -22.172 -20.919  30.199  1.00  0.00     0.006 C 
BRANCH   2   3
ATOM      3  C   UNL     1     -21.358 -19.770  30.802  1.00  0.00     0.053 C 
BRANCH   3   4
ATOM      4  C   UNL     1     -20.525 -19.110  29.749  1.00  0.00     0.041 C 
ATOM      5  O   UNL     1     -21.006 -18.887  28.607  1.00  0.00    -0.550 OA
ATOM      6  O   UNL     1     -19.232 -18.695  30.044  1.00  0.00    -0.550 OA
ENDBRANCH   3   4
ENDBRANCH   2   3
ENDBRANCH   1   2
BRANCH   1   7
ATOM      7  C   UNL     1     -22.265 -23.440  30.380  1.00  0.00     0.000 C 
BRANCH   7   8
ATOM      8  C   UNL     1     -23.149 -24.499  31.057  1.00  0.00    -0.000 C 
BRANCH   8   9
ATOM      9  C   UNL     1     -23.934 -25.348  30.047  1.00  0.00    -0.003 C 
ATOM     10  C   UNL     1     -23.266 -25.323  28.674  1.00  0.00     0.004 C 
ENDBRANCH   8   9
ENDBRANCH   7   8
ENDBRANCH   1   7
TORSDOF 6
ENDMDL
MODEL 3
REMARK VINA RESULT:    -5.460      1.243      1.667
REMARK INTER + INTRA:          -7.557
REMARK INTER:                  -7.313
REMARK INTRA:                  -0.244
REMARK UNBOUND:                -0.182
REMARK SMILES CCCCCCCC(=O)[O-]
REMARK SMILES IDX 5 1 6 2 7 3 8 4 9 5 10 6 4 7 3 8 2 9 1 10
REMARK H PARENT
REMARK Flexibility Score: inf
ROOT
ATOM      1  C   UNL     1     -21.388 -21.414  31.524  1.00  0.00     0.000 C 
ENDROOT
BRANCH   1   2
ATOM      2  C   UNL     1     -22.568 -22.339  31.200  1.00  0.00     0.006 C 
BRANCH   2   3
ATOM      3  C   UNL     1     -22.096 -23.589  30.451  1.00  0.00     0.053 C 
BRANCH   3   4
ATOM      4  C   UNL     1     -22.536 -23.541  29.022  1.00  0.00     0.041 C 
ATOM      5  O   UNL     1     -22.366 -22.495  28.341  1.00  0.00    -0.550 OA
ATOM      6  O   UNL     1     -23.091 -24.667  28.426  1.00  0.00    -0.550 OA
ENDBRANCH   3   4
ENDBRANCH   2   3
ENDBRANCH   1   2
BRANCH   1   7
ATOM      7  C   UNL     1     -21.507 -20.085  30.762  1.00  0.00     0.000 C 
BRANCH   7   8
ATOM      8  C   UNL     1     -20.459 -19.053  31.206  1.00  0.00    -0.000 C 
BRANCH   8   9
ATOM      9  C   UNL     1     -20.081 -18.074  30.085  1.00  0.00    -0.003 C 
ATOM     10  C   UNL     1     -20.644 -18.534  28.743  1.00  0.00     0.004 C 
ENDBRANCH   8   9
ENDBRANCH   7   8
ENDBRANCH   1   7
TORSDOF 6
ENDMDL
MODEL 4
REMARK VINA RESULT:    -5.437      4.208      6.143
REMARK INTER + INTRA:          -7.527
REMARK INTER:                  -7.298
REMARK INTRA:                  -0.229
REMARK UNBOUND:                -0.182
REMARK SMILES CCCCCCCC(=O)[O-]
REMARK SMILES IDX 5 1 6 2 7 3 8 4 9 5 10 6 4 7 3 8 2 9 1 10
REMARK H PARENT
REMARK Flexibility Score: inf
ROOT
ATOM      1  C   UNL     1     -22.183 -20.875  30.277  1.00  0.00     0.000 C 
ENDROOT
BRANCH   1   2
ATOM      2  C   UNL     1     -21.175 -19.739  30.492  1.00  0.00     0.006 C 
BRANCH   2   3
ATOM      3  C   UNL     1     -20.851 -19.035  29.171  1.00  0.00     0.053 C 
BRANCH   3   4
ATOM      4  C   UNL     1     -20.074 -17.781  29.423  1.00  0.00     0.041 C 
ATOM      5  O   UNL     1     -19.871 -17.387  30.601  1.00  0.00    -0.550 OA
ATOM      6  O   UNL     1     -19.531 -17.074  28.357  1.00  0.00    -0.550 OA
ENDBRANCH   3   4
ENDBRANCH   2   3
ENDBRANCH   1   2
BRANCH   1   7
ATOM      7  C   UNL     1     -21.990 -21.985  31.321  1.00  0.00     0.000 C 
BRANCH   7   8
ATOM      8  C   UNL     1     -22.355 -23.377  30.780  1.00  0.00    -0.000 C 
BRANCH   8   9
ATOM      9  C   UNL     1     -22.196 -23.480  29.257  1.00  0.00    -0.003 C 
ATOM     10  C   UNL     1     -23.046 -24.615  28.692  1.00  0.00     0.004 C 
ENDBRANCH   8   9
ENDBRANCH   7   8
ENDBRANCH   1   7
TORSDOF 6
ENDMDL
MODEL 5
REMARK VINA RESULT:    -5.411      2.272      5.212
REMARK INTER + INTRA:          -7.491
REMARK INTER:                  -7.268
REMARK INTRA:                  -0.224
REMARK UNBOUND:                -0.182
REMARK SMILES CCCCCCCC(=O)[O-]
REMARK SMILES IDX 5 1 6 2 7 3 8 4 9 5 10 6 4 7 3 8 2 9 1 10
REMARK H PARENT
REMARK Flexibility Score: inf
ROOT
ATOM      1  C   UNL     1     -23.091 -23.135  31.402  1.00  0.00     0.000 C 
ENDROOT
BRANCH   1   2
ATOM      2  C   UNL     1     -21.846 -22.311  31.052  1.00  0.00     0.006 C 
BRANCH   2   3
ATOM      3  C   UNL     1     -22.235 -20.960  30.445  1.00  0.00     0.053 C 
BRANCH   3   4
ATOM      4  C   UNL     1     -21.897 -20.924  28.987  1.00  0.00     0.041 C 
ATOM      5  O   UNL     1     -21.395 -19.888  28.478  1.00  0.00    -0.550 OA
ATOM      6  O   UNL     1     -22.091 -22.053  28.201  1.00  0.00    -0.550 OA
ENDBRANCH   3   4
ENDBRANCH   2   3
ENDBRANCH   1   2
BRANCH   1   7
ATOM      7  C   UNL     1     -22.915 -24.602  30.980  1.00  0.00     0.000 C 
BRANCH   7   8
ATOM      8  C   UNL     1     -24.213 -25.415  31.107  1.00  0.00    -0.000 C 
BRANCH   8   9
ATOM      9  C   UNL     1     -24.843 -25.740  29.745  1.00  0.00    -0.003 C 
ATOM     10  C   UNL     1     -23.820 -26.373  28.805  1.00  0.00     0.004 C 
ENDBRANCH   8   9
ENDBRANCH   7   8
ENDBRANCH   1   7
TORSDOF 6
ENDMDL
MODEL 6
REMARK VINA RESULT:    -5.408      1.222      1.754
REMARK INTER + INTRA:          -7.487
REMARK INTER:                  -7.260
REMARK INTRA:                  -0.226
REMARK UNBOUND:                -0.182
REMARK SMILES CCCCCCCC(=O)[O-]
REMARK SMILES IDX 5 1 6 2 7 3 8 4 9 5 10 6 4 7 3 8 2 9 1 10
REMARK H PARENT
REMARK Flexibility Score: inf
ROOT
ATOM      1  C   UNL     1     -22.075 -23.434  30.170  1.00  0.00     0.000 C 
ENDROOT
BRANCH   1   2
ATOM      2  C   UNL     1     -23.019 -24.614  30.427  1.00  0.00     0.006 C 
BRANCH   2   3
ATOM      3  C   UNL     1     -23.545 -25.193  29.110  1.00  0.00     0.053 C 
BRANCH   3   4
ATOM      4  C   UNL     1     -24.345 -26.431  29.365  1.00  0.00     0.041 C 
ATOM      5  O   UNL     1     -24.713 -27.158  28.404  1.00  0.00    -0.550 OA
ATOM      6  O   UNL     1     -24.643 -26.810  30.668  1.00  0.00    -0.550 OA
ENDBRANCH   3   4
ENDBRANCH   2   3
ENDBRANCH   1   2
BRANCH   1   7
ATOM      7  C   UNL     1     -22.240 -22.353  31.250  1.00  0.00     0.000 C 
BRANCH   7   8
ATOM      8  C   UNL     1     -21.922 -20.942  30.730  1.00  0.00    -0.000 C 
BRANCH   8   9
ATOM      9  C   UNL     1     -21.976 -20.851  29.198  1.00  0.00    -0.003 C 
ATOM     10  C   UNL     1     -21.201 -19.636  28.694  1.00  0.00     0.004 C 
ENDBRANCH   8   9
ENDBRANCH   7   8
ENDBRANCH   1   7
TORSDOF 6
ENDMDL
MODEL 7
REMARK VINA RESULT:    -5.390      1.974      3.588
REMARK INTER + INTRA:          -7.463
REMARK INTER:                  -7.267
REMARK INTRA:                  -0.196
REMARK UNBOUND:                -0.182
REMARK SMILES CCCCCCCC(=O)[O-]
REMARK SMILES IDX 5 1 6 2 7 3 8 4 9 5 10 6 4 7 3 8 2 9 1 10
REMARK H PARENT
REMARK Flexibility Score: inf
ROOT
ATOM      1  C   UNL     1     -23.483 -25.005  29.054  1.00  0.00     0.000 C 
ENDROOT
BRANCH   1   2
ATOM      2  C   UNL     1     -23.690 -26.525  29.093  1.00  0.00     0.006 C 
BRANCH   2   3
ATOM      3  C   UNL     1     -25.179 -26.878  29.035  1.00  0.00     0.053 C 
BRANCH   3   4
ATOM      4  C   UNL     1     -25.628 -27.469  30.334  1.00  0.00     0.041 C 
ATOM      5  O   UNL     1     -26.255 -28.561  30.350  1.00  0.00    -0.550 OA
ATOM      6  O   UNL     1     -25.309 -26.840  31.531  1.00  0.00    -0.550 OA
ENDBRANCH   3   4
ENDBRANCH   2   3
ENDBRANCH   1   2
BRANCH   1   7
ATOM      7  C   UNL     1     -22.978 -24.485  30.409  1.00  0.00     0.000 C 
BRANCH   7   8
ATOM      8  C   UNL     1     -21.989 -23.318  30.264  1.00  0.00    -0.000 C 
BRANCH   8   9
ATOM      9  C   UNL     1     -22.280 -22.171  31.243  1.00  0.00    -0.003 C 
ATOM     10  C   UNL     1     -21.973 -20.817  30.609  1.00  0.00     0.004 C 
ENDBRANCH   8   9
ENDBRANCH   7   8
ENDBRANCH   1   7
TORSDOF 6
ENDMDL
MODEL 8
REMARK VINA RESULT:    -5.358      1.129      1.743
REMARK INTER + INTRA:          -7.419
REMARK INTER:                  -7.150
REMARK INTRA:                  -0.269
REMARK UNBOUND:                -0.182
REMARK SMILES CCCCCCCC(=O)[O-]
REMARK SMILES IDX 5 1 6 2 7 3 8 4 9 5 10 6 4 7 3 8 2 9 1 10
REMARK H PARENT
REMARK Flexibility Score: inf
ROOT
ATOM      1  C   UNL     1     -21.872 -21.019  30.778  1.00  0.00     0.000 C 
ENDROOT
BRANCH   1   2
ATOM      2  C   UNL     1     -22.414 -22.374  31.253  1.00  0.00     0.006 C 
BRANCH   2   3
ATOM      3  C   UNL     1     -22.116 -23.473  30.230  1.00  0.00     0.053 C 
BRANCH   3   4
ATOM      4  C   UNL     1     -23.134 -24.566  30.324  1.00  0.00     0.041 C 
ATOM      5  O   UNL     1     -23.425 -25.066  31.442  1.00  0.00    -0.550 OA
ATOM      6  O   UNL     1     -23.798 -24.999  29.183  1.00  0.00    -0.550 OA
ENDBRANCH   3   4
ENDBRANCH   2   3
ENDBRANCH   1   2
BRANCH   1   7
ATOM      7  C   UNL     1     -22.084 -20.842  29.267  1.00  0.00     0.000 C 
BRANCH   7   8
ATOM      8  C   UNL     1     -21.329 -19.629  28.701  1.00  0.00    -0.000 C 
BRANCH   8   9
ATOM      9  C   UNL     1     -20.538 -18.871  29.777  1.00  0.00    -0.003 C 
ATOM     10  C   UNL     1     -19.210 -18.360  29.223  1.00  0.00     0.004 C 
ENDBRANCH   8   9
ENDBRANCH   7   8
ENDBRANCH   1   7
TORSDOF 6
ENDMDL
MODEL 9
REMARK VINA RESULT:    -5.340      4.679      6.975
REMARK INTER + INTRA:          -7.395
REMARK INTER:                  -7.208
REMARK INTRA:                  -0.187
REMARK UNBOUND:                -0.182
REMARK SMILES CCCCCCCC(=O)[O-]
REMARK SMILES IDX 5 1 6 2 7 3 8 4 9 5 10 6 4 7 3 8 2 9 1 10
REMARK H PARENT
REMARK Flexibility Score: inf
ROOT
ATOM      1  C   UNL     1     -21.048 -19.228  28.771  1.00  0.00     0.000 C 
ENDROOT
BRANCH   1   2
ATOM      2  C   UNL     1     -20.488 -17.800  28.816  1.00  0.00     0.006 C 
BRANCH   2   3
ATOM      3  C   UNL     1     -18.992 -17.807  29.143  1.00  0.00     0.053 C 
BRANCH   3   4
ATOM      4  C   UNL     1     -18.723 -17.008  30.379  1.00  0.00     0.041 C 
ATOM      5  O   UNL     1     -18.968 -17.495  31.514  1.00  0.00    -0.550 OA
ATOM      6  O   UNL     1     -18.155 -15.744  30.280  1.00  0.00    -0.550 OA
ENDBRANCH   3   4
ENDBRANCH   2   3
ENDBRANCH   1   2
BRANCH   1   7
ATOM      7  C   UNL     1     -21.250 -19.784  30.188  1.00  0.00     0.000 C 
BRANCH   7   8
ATOM      8  C   UNL     1     -22.215 -20.979  30.224  1.00  0.00    -0.000 C 
BRANCH   8   9
ATOM      9  C   UNL     1     -21.901 -21.958  31.364  1.00  0.00    -0.003 C 
ATOM     10  C   UNL     1     -23.018 -22.986  31.528  1.00  0.00     0.004 C 
ENDBRANCH   8   9
ENDBRANCH   7   8
ENDBRANCH   1   7
TORSDOF 6
ENDMDL
