MODEL 1
REMARK VINA RESULT:    -4.433      0.000      0.000
REMARK INTER + INTRA:          -8.740
REMARK INTER:                  -7.543
REMARK INTRA:                  -1.196
REMARK UNBOUND:                -1.196
REMARK SMILES CCCCCCCCCCCCCC(=O)[O-]
REMARK SMILES IDX 8 1 9 2 10 3 11 4 12 5 13 6 14 7 15 8 16 9 7 10 6 11 5 12
REMARK SMILES IDX 4 13 3 14 2 15 1 16
REMARK H PARENT
REMARK Flexibility Score: inf
ROOT
ATOM      1  C   UNL     1     -30.624 -13.272  17.355  1.00  0.00     0.000 C 
ENDROOT
BRANCH   1   2
ATOM      2  C   UNL     1     -30.234 -14.751  17.200  1.00  0.00     0.000 C 
BRANCH   2   3
ATOM      3  C   UNL     1     -31.415 -15.637  16.771  1.00  0.00     0.000 C 
BRANCH   3   4
ATOM      4  C   UNL     1     -31.672 -15.633  15.249  1.00  0.00     0.000 C 
BRANCH   4   5
ATOM      5  C   UNL     1     -30.362 -15.605  14.440  1.00  0.00     0.006 C 
BRANCH   5   6
ATOM      6  C   UNL     1     -30.115 -16.918  13.688  1.00  0.00     0.053 C 
BRANCH   6   7
ATOM      7  C   UNL     1     -28.979 -17.695  14.282  1.00  0.00     0.041 C 
ATOM      8  O   UNL     1     -28.452 -17.320  15.362  1.00  0.00    -0.550 OA
ATOM      9  O   UNL     1     -28.481 -18.812  13.624  1.00  0.00    -0.550 OA
ENDBRANCH   6   7
ENDBRANCH   5   6
ENDBRANCH   4   5
ENDBRANCH   3   4
ENDBRANCH   2   3
ENDBRANCH   1   2
BRANCH   1  10
ATOM     10  C   UNL     1     -29.670 -12.320  16.611  1.00  0.00     0.000 C 
BRANCH  10  11
ATOM     11  C   UNL     1     -29.233 -11.075  17.408  1.00  0.00    -0.000 C 
BRANCH  11  12
ATOM     12  C   UNL     1     -27.712 -10.928  17.618  1.00  0.00    -0.000 C 
BRANCH  12  13
ATOM     13  C   UNL     1     -26.837 -11.702  16.615  1.00  0.00    -0.000 C 
BRANCH  13  14
ATOM     14  C   UNL     1     -25.463 -12.083  17.193  1.00  0.00    -0.000 C 
BRANCH  14  15
ATOM     15  C   UNL     1     -25.526 -13.330  18.088  1.00  0.00    -0.003 C 
ATOM     16  C   UNL     1     -26.553 -14.356  17.604  1.00  0.00     0.004 C 
ENDBRANCH  14  15
ENDBRANCH  13  14
ENDBRANCH  12  13
ENDBRANCH  11  12
ENDBRANCH  10  11
ENDBRANCH   1  10
TORSDOF 12
ENDMDL
MODEL 2
REMARK VINA RESULT:    -4.404      2.380      5.456
REMARK INTER + INTRA:          -8.689
REMARK INTER:                  -7.070
REMARK INTRA:                  -1.619
REMARK UNBOUND:                -1.196
REMARK SMILES CCCCCCCCCCCCCC(=O)[O-]
REMARK SMILES IDX 8 1 9 2 10 3 11 4 12 5 13 6 14 7 15 8 16 9 7 10 6 11 5 12
REMARK SMILES IDX 4 13 3 14 2 15 1 16
REMARK H PARENT
REMARK Flexibility Score: inf
ROOT
ATOM      1  C   UNL     1     -25.507 -12.505  17.014  1.00  0.00     0.000 C 
ENDROOT
BRANCH   1   2
ATOM      2  C   UNL     1     -26.619 -11.470  16.777  1.00  0.00     0.000 C 
BRANCH   2   3
ATOM      3  C   UNL     1     -27.780 -11.602  17.776  1.00  0.00     0.000 C 
BRANCH   3   4
ATOM      4  C   UNL     1     -29.168 -11.348  17.150  1.00  0.00     0.000 C 
BRANCH   4   5
ATOM      5  C   UNL     1     -29.828 -12.649  16.658  1.00  0.00     0.006 C 
BRANCH   5   6
ATOM      6  C   UNL     1     -30.697 -13.305  17.739  1.00  0.00     0.053 C 
BRANCH   6   7
ATOM      7  C   UNL     1     -32.059 -13.657  17.221  1.00  0.00     0.041 C 
ATOM      8  O   UNL     1     -32.282 -13.668  15.982  1.00  0.00    -0.550 OA
ATOM      9  O   UNL     1     -33.089 -13.936  18.110  1.00  0.00    -0.550 OA
ENDBRANCH   6   7
ENDBRANCH   5   6
ENDBRANCH   4   5
ENDBRANCH   3   4
ENDBRANCH   2   3
ENDBRANCH   1   2
BRANCH   1  10
ATOM     10  C   UNL     1     -25.899 -13.578  18.047  1.00  0.00     0.000 C 
BRANCH  10  11
ATOM     11  C   UNL     1     -26.225 -14.965  17.460  1.00  0.00    -0.000 C 
BRANCH  11  12
ATOM     12  C   UNL     1     -27.654 -15.476  17.734  1.00  0.00    -0.000 C 
BRANCH  12  13
ATOM     13  C   UNL     1     -28.243 -16.385  16.639  1.00  0.00    -0.000 C 
BRANCH  13  14
ATOM     14  C   UNL     1     -29.626 -16.948  17.011  1.00  0.00    -0.000 C 
BRANCH  14  15
ATOM     15  C   UNL     1     -30.652 -16.780  15.879  1.00  0.00    -0.003 C 
ATOM     16  C   UNL     1     -30.063 -16.110  14.638  1.00  0.00     0.004 C 
ENDBRANCH  14  15
ENDBRANCH  13  14
ENDBRANCH  12  13
ENDBRANCH  11  12
ENDBRANCH  10  11
ENDBRANCH   1  10
TORSDOF 12
ENDMDL
MODEL 3
REMARK VINA RESULT:    -4.386      2.158      6.076
REMARK INTER + INTRA:          -8.660
REMARK INTER:                  -7.531
REMARK INTRA:                  -1.129
REMARK UNBOUND:                -1.196
REMARK SMILES CCCCCCCCCCCCCC(=O)[O-]
REMARK SMILES IDX 8 1 9 2 10 3 11 4 12 5 13 6 14 7 15 8 16 9 7 10 6 11 5 12
REMARK SMILES IDX 4 13 3 14 2 15 1 16
REMARK H PARENT
REMARK Flexibility Score: inf
ROOT
ATOM      1  C   UNL     1     -26.227 -15.003  17.395  1.00  0.00     0.000 C 
ENDROOT
BRANCH   1   2
ATOM      2  C   UNL     1     -25.948 -13.646  18.061  1.00  0.00     0.000 C 
BRANCH   2   3
ATOM      3  C   UNL     1     -25.564 -12.553  17.049  1.00  0.00     0.000 C 
BRANCH   3   4
ATOM      4  C   UNL     1     -26.606 -11.418  16.937  1.00  0.00     0.000 C 
BRANCH   4   5
ATOM      5  C   UNL     1     -27.792 -11.624  17.897  1.00  0.00     0.006 C 
BRANCH   5   6
ATOM      6  C   UNL     1     -29.140 -11.334  17.226  1.00  0.00     0.053 C 
BRANCH   6   7
ATOM      7  C   UNL     1     -29.943 -12.583  17.027  1.00  0.00     0.041 C 
ATOM      8  O   UNL     1     -30.762 -12.957  17.907  1.00  0.00    -0.550 OA
ATOM      9  O   UNL     1     -29.761 -13.352  15.885  1.00  0.00    -0.550 OA
ENDBRANCH   6   7
ENDBRANCH   5   6
ENDBRANCH   4   5
ENDBRANCH   3   4
ENDBRANCH   2   3
ENDBRANCH   1   2
BRANCH   1  10
ATOM     10  C   UNL     1     -27.650 -15.524  17.670  1.00  0.00     0.000 C 
BRANCH  10  11
ATOM     11  C   UNL     1     -28.203 -16.506  16.618  1.00  0.00    -0.000 C 
BRANCH  11  12
ATOM     12  C   UNL     1     -29.712 -16.804  16.725  1.00  0.00    -0.000 C 
BRANCH  12  13
ATOM     13  C   UNL     1     -30.370 -17.309  15.427  1.00  0.00    -0.000 C 
BRANCH  13  14
ATOM     14  C   UNL     1     -29.966 -16.484  14.194  1.00  0.00    -0.000 C 
BRANCH  14  15
ATOM     15  C   UNL     1     -29.641 -17.366  12.977  1.00  0.00    -0.003 C 
ATOM     16  C   UNL     1     -28.341 -18.154  13.146  1.00  0.00     0.004 C 
ENDBRANCH  14  15
ENDBRANCH  13  14
ENDBRANCH  12  13
ENDBRANCH  11  12
ENDBRANCH  10  11
ENDBRANCH   1  10
TORSDOF 12
ENDMDL
MODEL 4
REMARK VINA RESULT:    -4.341      1.571      2.401
REMARK INTER + INTRA:          -8.583
REMARK INTER:                  -7.694
REMARK INTRA:                  -0.890
REMARK UNBOUND:                -1.196
REMARK SMILES CCCCCCCCCCCCCC(=O)[O-]
REMARK SMILES IDX 8 1 9 2 10 3 11 4 12 5 13 6 14 7 15 8 16 9 7 10 6 11 5 12
REMARK SMILES IDX 4 13 3 14 2 15 1 16
REMARK H PARENT
REMARK Flexibility Score: inf
ROOT
ATOM      1  C   UNL     1     -29.443 -14.961  16.127  1.00  0.00     0.000 C 
ENDROOT
BRANCH   1   2
ATOM      2  C   UNL     1     -30.415 -15.121  14.947  1.00  0.00     0.000 C 
BRANCH   2   3
ATOM      3  C   UNL     1     -31.150 -16.472  14.958  1.00  0.00     0.000 C 
BRANCH   3   4
ATOM      4  C   UNL     1     -30.764 -17.398  13.784  1.00  0.00     0.000 C 
BRANCH   4   5
ATOM      5  C   UNL     1     -29.444 -16.969  13.118  1.00  0.00     0.006 C 
BRANCH   5   6
ATOM      6  C   UNL     1     -28.428 -18.116  13.050  1.00  0.00     0.053 C 
BRANCH   6   7
ATOM      7  C   UNL     1     -27.789 -18.214  11.698  1.00  0.00     0.041 C 
ATOM      8  O   UNL     1     -26.827 -19.003  11.508  1.00  0.00    -0.550 OA
ATOM      9  O   UNL     1     -28.235 -17.409  10.658  1.00  0.00    -0.550 OA
ENDBRANCH   6   7
ENDBRANCH   5   6
ENDBRANCH   4   5
ENDBRANCH   3   4
ENDBRANCH   2   3
ENDBRANCH   1   2
BRANCH   1  10
ATOM     10  C   UNL     1     -30.132 -14.452  17.406  1.00  0.00     0.000 C 
BRANCH  10  11
ATOM     11  C   UNL     1     -30.395 -12.934  17.450  1.00  0.00    -0.000 C 
BRANCH  11  12
ATOM     12  C   UNL     1     -29.305 -12.059  16.799  1.00  0.00    -0.000 C 
BRANCH  12  13
ATOM     13  C   UNL     1     -28.055 -11.821  17.667  1.00  0.00    -0.000 C 
BRANCH  13  14
ATOM     14  C   UNL     1     -26.815 -11.446  16.836  1.00  0.00    -0.000 C 
BRANCH  14  15
ATOM     15  C   UNL     1     -25.574 -12.262  17.231  1.00  0.00    -0.003 C 
ATOM     16  C   UNL     1     -25.925 -13.641  17.791  1.00  0.00     0.004 C 
ENDBRANCH  14  15
ENDBRANCH  13  14
ENDBRANCH  12  13
ENDBRANCH  11  12
ENDBRANCH  10  11
ENDBRANCH   1  10
TORSDOF 12
ENDMDL
MODEL 5
REMARK VINA RESULT:    -4.336      2.405      5.045
REMARK INTER + INTRA:          -8.575
REMARK INTER:                  -7.408
REMARK INTRA:                  -1.167
REMARK UNBOUND:                -1.196
REMARK SMILES CCCCCCCCCCCCCC(=O)[O-]
REMARK SMILES IDX 8 1 9 2 10 3 11 4 12 5 13 6 14 7 15 8 16 9 7 10 6 11 5 12
REMARK SMILES IDX 4 13 3 14 2 15 1 16
REMARK H PARENT
REMARK Flexibility Score: inf
ROOT
ATOM      1  C   UNL     1     -25.468 -11.769  17.284  1.00  0.00     0.000 C 
ENDROOT
BRANCH   1   2
ATOM      2  C   UNL     1     -26.869 -11.652  16.662  1.00  0.00     0.000 C 
BRANCH   2   3
ATOM      3  C   UNL     1     -27.751 -10.611  17.371  1.00  0.00     0.000 C 
BRANCH   3   4
ATOM      4  C   UNL     1     -29.216 -11.064  17.557  1.00  0.00     0.000 C 
BRANCH   4   5
ATOM      5  C   UNL     1     -29.584 -12.231  16.623  1.00  0.00     0.006 C 
BRANCH   5   6
ATOM      6  C   UNL     1     -30.320 -13.357  17.361  1.00  0.00     0.053 C 
BRANCH   6   7
ATOM      7  C   UNL     1     -31.218 -14.130  16.443  1.00  0.00     0.041 C 
ATOM      8  O   UNL     1     -30.726 -14.870  15.552  1.00  0.00    -0.550 OA
ATOM      9  O   UNL     1     -32.597 -14.005  16.552  1.00  0.00    -0.550 OA
ENDBRANCH   6   7
ENDBRANCH   5   6
ENDBRANCH   4   5
ENDBRANCH   3   4
ENDBRANCH   2   3
ENDBRANCH   1   2
BRANCH   1  10
ATOM     10  C   UNL     1     -25.284 -13.058  18.106  1.00  0.00     0.000 C 
BRANCH  10  11
ATOM     11  C   UNL     1     -26.498 -14.008  18.117  1.00  0.00    -0.000 C 
BRANCH  11  12
ATOM     12  C   UNL     1     -26.259 -15.389  17.474  1.00  0.00    -0.000 C 
BRANCH  12  13
ATOM     13  C   UNL     1     -27.535 -16.148  17.067  1.00  0.00    -0.000 C 
BRANCH  13  14
ATOM     14  C   UNL     1     -27.239 -17.410  16.238  1.00  0.00    -0.000 C 
BRANCH  14  15
ATOM     15  C   UNL     1     -25.763 -17.832  16.317  1.00  0.00    -0.003 C 
ATOM     16  C   UNL     1     -25.551 -19.100  17.145  1.00  0.00     0.004 C 
ENDBRANCH  14  15
ENDBRANCH  13  14
ENDBRANCH  12  13
ENDBRANCH  11  12
ENDBRANCH  10  11
ENDBRANCH   1  10
TORSDOF 12
ENDMDL
MODEL 6
REMARK VINA RESULT:    -4.300      1.723      1.997
REMARK INTER + INTRA:          -8.512
REMARK INTER:                  -7.581
REMARK INTRA:                  -0.932
REMARK UNBOUND:                -1.196
REMARK SMILES CCCCCCCCCCCCCC(=O)[O-]
REMARK SMILES IDX 8 1 9 2 10 3 11 4 12 5 13 6 14 7 15 8 16 9 7 10 6 11 5 12
REMARK SMILES IDX 4 13 3 14 2 15 1 16
REMARK H PARENT
REMARK Flexibility Score: inf
ROOT
ATOM      1  C   UNL     1     -29.598 -13.877  17.414  1.00  0.00     0.000 C 
ENDROOT
BRANCH   1   2
ATOM      2  C   UNL     1     -29.990 -15.076  16.535  1.00  0.00     0.000 C 
BRANCH   2   3
ATOM      3  C   UNL     1     -28.871 -16.124  16.423  1.00  0.00     0.000 C 
BRANCH   3   4
ATOM      4  C   UNL     1     -29.190 -17.269  15.438  1.00  0.00     0.000 C 
BRANCH   4   5
ATOM      5  C   UNL     1     -29.636 -16.742  14.062  1.00  0.00     0.006 C 
BRANCH   5   6
ATOM      6  C   UNL     1     -30.789 -17.563  13.470  1.00  0.00     0.053 C 
BRANCH   6   7
ATOM      7  C   UNL     1     -31.837 -17.872  14.496  1.00  0.00     0.041 C 
ATOM      8  O   UNL     1     -32.615 -16.968  14.899  1.00  0.00    -0.550 OA
ATOM      9  O   UNL     1     -31.930 -19.150  15.031  1.00  0.00    -0.550 OA
ENDBRANCH   6   7
ENDBRANCH   5   6
ENDBRANCH   4   5
ENDBRANCH   3   4
ENDBRANCH   2   3
ENDBRANCH   1   2
BRANCH   1  10
ATOM     10  C   UNL     1     -29.737 -12.528  16.685  1.00  0.00     0.000 C 
BRANCH  10  11
ATOM     11  C   UNL     1     -29.481 -11.283  17.556  1.00  0.00    -0.000 C 
BRANCH  11  12
ATOM     12  C   UNL     1     -28.064 -10.684  17.449  1.00  0.00    -0.000 C 
BRANCH  12  13
ATOM     13  C   UNL     1     -27.077 -11.494  16.589  1.00  0.00    -0.000 C 
BRANCH  13  14
ATOM     14  C   UNL     1     -25.609 -11.263  16.989  1.00  0.00    -0.000 C 
BRANCH  14  15
ATOM     15  C   UNL     1     -24.999 -12.474  17.712  1.00  0.00    -0.003 C 
ATOM     16  C   UNL     1     -25.961 -13.659  17.801  1.00  0.00     0.004 C 
ENDBRANCH  14  15
ENDBRANCH  13  14
ENDBRANCH  12  13
ENDBRANCH  11  12
ENDBRANCH  10  11
ENDBRANCH   1  10
TORSDOF 12
ENDMDL
MODEL 7
REMARK VINA RESULT:    -4.275      1.427      4.616
REMARK INTER + INTRA:          -8.470
REMARK INTER:                  -7.261
REMARK INTRA:                  -1.209
REMARK UNBOUND:                -1.196
REMARK SMILES CCCCCCCCCCCCCC(=O)[O-]
REMARK SMILES IDX 8 1 9 2 10 3 11 4 12 5 13 6 14 7 15 8 16 9 7 10 6 11 5 12
REMARK SMILES IDX 4 13 3 14 2 15 1 16
REMARK H PARENT
REMARK Flexibility Score: inf
ROOT
ATOM      1  C   UNL     1     -26.837 -11.642  16.653  1.00  0.00     0.000 C 
ENDROOT
BRANCH   1   2
ATOM      2  C   UNL     1     -25.394 -11.815  17.155  1.00  0.00     0.000 C 
BRANCH   2   3
ATOM      3  C   UNL     1     -25.201 -13.096  17.984  1.00  0.00     0.000 C 
BRANCH   3   4
ATOM      4  C   UNL     1     -26.467 -13.976  18.069  1.00  0.00     0.000 C 
BRANCH   4   5
ATOM      5  C   UNL     1     -26.258 -15.355  17.416  1.00  0.00     0.006 C 
BRANCH   5   6
ATOM      6  C   UNL     1     -27.051 -16.460  18.124  1.00  0.00     0.053 C 
BRANCH   6   7
ATOM      7  C   UNL     1     -27.350 -17.607  17.207  1.00  0.00     0.041 C 
ATOM      8  O   UNL     1     -27.157 -18.791  17.590  1.00  0.00    -0.550 OA
ATOM      9  O   UNL     1     -27.807 -17.366  15.918  1.00  0.00    -0.550 OA
ENDBRANCH   6   7
ENDBRANCH   5   6
ENDBRANCH   4   5
ENDBRANCH   3   4
ENDBRANCH   2   3
ENDBRANCH   1   2
BRANCH   1  10
ATOM     10  C   UNL     1     -27.610 -10.550  17.416  1.00  0.00     0.000 C 
BRANCH  10  11
ATOM     11  C   UNL     1     -29.140 -10.735  17.454  1.00  0.00    -0.000 C 
BRANCH  11  12
ATOM     12  C   UNL     1     -29.623 -12.189  17.633  1.00  0.00    -0.000 C 
BRANCH  12  13
ATOM     13  C   UNL     1     -30.082 -12.887  16.339  1.00  0.00    -0.000 C 
BRANCH  13  14
ATOM     14  C   UNL     1     -29.857 -14.408  16.371  1.00  0.00    -0.000 C 
BRANCH  14  15
ATOM     15  C   UNL     1     -30.566 -15.132  15.215  1.00  0.00    -0.003 C 
ATOM     16  C   UNL     1     -32.089 -15.019  15.289  1.00  0.00     0.004 C 
ENDBRANCH  14  15
ENDBRANCH  13  14
ENDBRANCH  12  13
ENDBRANCH  11  12
ENDBRANCH  10  11
ENDBRANCH   1  10
TORSDOF 12
ENDMDL
MODEL 8
REMARK VINA RESULT:    -4.273      1.754      3.494
REMARK INTER + INTRA:          -8.466
REMARK INTER:                  -7.137
REMARK INTRA:                  -1.330
REMARK UNBOUND:                -1.196
REMARK SMILES CCCCCCCCCCCCCC(=O)[O-]
REMARK SMILES IDX 8 1 9 2 10 3 11 4 12 5 13 6 14 7 15 8 16 9 7 10 6 11 5 12
REMARK SMILES IDX 4 13 3 14 2 15 1 16
REMARK H PARENT
REMARK Flexibility Score: inf
ROOT
ATOM      1  C   UNL     1     -26.085 -14.980  17.399  1.00  0.00     0.000 C 
ENDROOT
BRANCH   1   2
ATOM      2  C   UNL     1     -27.422 -15.638  17.776  1.00  0.00     0.000 C 
BRANCH   2   3
ATOM      3  C   UNL     1     -27.729 -16.889  16.934  1.00  0.00     0.000 C 
BRANCH   3   4
ATOM      4  C   UNL     1     -29.238 -17.135  16.718  1.00  0.00     0.000 C 
BRANCH   4   5
ATOM      5  C   UNL     1     -29.512 -17.992  15.469  1.00  0.00     0.006 C 
BRANCH   5   6
ATOM      6  C   UNL     1     -30.871 -17.675  14.832  1.00  0.00     0.053 C 
BRANCH   6   7
ATOM      7  C   UNL     1     -31.146 -16.202  14.811  1.00  0.00     0.041 C 
ATOM      8  O   UNL     1     -32.185 -15.745  15.355  1.00  0.00    -0.550 OA
ATOM      9  O   UNL     1     -30.273 -15.341  14.158  1.00  0.00    -0.550 OA
ENDBRANCH   6   7
ENDBRANCH   5   6
ENDBRANCH   4   5
ENDBRANCH   3   4
ENDBRANCH   2   3
ENDBRANCH   1   2
BRANCH   1  10
ATOM     10  C   UNL     1     -25.897 -13.594  18.043  1.00  0.00     0.000 C 
BRANCH  10  11
ATOM     11  C   UNL     1     -25.550 -12.457  17.062  1.00  0.00    -0.000 C 
BRANCH  11  12
ATOM     12  C   UNL     1     -26.681 -11.440  16.807  1.00  0.00    -0.000 C 
BRANCH  12  13
ATOM     13  C   UNL     1     -27.838 -11.482  17.822  1.00  0.00    -0.000 C 
BRANCH  13  14
ATOM     14  C   UNL     1     -29.221 -11.440  17.150  1.00  0.00    -0.000 C 
BRANCH  14  15
ATOM     15  C   UNL     1     -29.645 -12.808  16.591  1.00  0.00    -0.003 C 
ATOM     16  C   UNL     1     -30.498 -13.612  17.573  1.00  0.00     0.004 C 
ENDBRANCH  14  15
ENDBRANCH  13  14
ENDBRANCH  12  13
ENDBRANCH  11  12
ENDBRANCH  10  11
ENDBRANCH   1  10
TORSDOF 12
ENDMDL
MODEL 9
REMARK VINA RESULT:    -4.202      2.804      6.505
REMARK INTER + INTRA:          -8.346
REMARK INTER:                  -7.606
REMARK INTRA:                  -0.740
REMARK UNBOUND:                -1.196
REMARK SMILES CCCCCCCCCCCCCC(=O)[O-]
REMARK SMILES IDX 8 1 9 2 10 3 11 4 12 5 13 6 14 7 15 8 16 9 7 10 6 11 5 12
REMARK SMILES IDX 4 13 3 14 2 15 1 16
REMARK H PARENT
REMARK Flexibility Score: inf
ROOT
ATOM      1  C   UNL     1     -30.491 -15.658  14.632  1.00  0.00     0.000 C 
ENDROOT
BRANCH   1   2
ATOM      2  C   UNL     1     -31.347 -14.744  15.524  1.00  0.00     0.000 C 
BRANCH   2   3
ATOM      3  C   UNL     1     -30.861 -14.708  16.982  1.00  0.00     0.000 C 
BRANCH   3   4
ATOM      4  C   UNL     1     -30.600 -13.283  17.514  1.00  0.00     0.000 C 
BRANCH   4   5
ATOM      5  C   UNL     1     -29.735 -12.454  16.547  1.00  0.00     0.006 C 
BRANCH   5   6
ATOM      6  C   UNL     1     -28.736 -11.554  17.286  1.00  0.00     0.053 C 
BRANCH   6   7
ATOM      7  C   UNL     1     -27.346 -12.114  17.243  1.00  0.00     0.041 C 
ATOM      8  O   UNL     1     -27.067 -13.165  17.876  1.00  0.00    -0.550 OA
ATOM      9  O   UNL     1     -26.352 -11.453  16.533  1.00  0.00    -0.550 OA
ENDBRANCH   6   7
ENDBRANCH   5   6
ENDBRANCH   4   5
ENDBRANCH   3   4
ENDBRANCH   2   3
ENDBRANCH   1   2
BRANCH   1  10
ATOM     10  C   UNL     1     -31.134 -17.037  14.395  1.00  0.00     0.000 C 
BRANCH  10  11
ATOM     11  C   UNL     1     -30.147 -18.170  14.051  1.00  0.00    -0.000 C 
BRANCH  11  12
ATOM     12  C   UNL     1     -28.689 -17.725  13.817  1.00  0.00    -0.000 C 
BRANCH  12  13
ATOM     13  C   UNL     1     -28.109 -18.094  12.439  1.00  0.00    -0.000 C 
BRANCH  13  14
ATOM     14  C   UNL     1     -28.474 -17.075  11.346  1.00  0.00    -0.000 C 
BRANCH  14  15
ATOM     15  C   UNL     1     -28.168 -17.595   9.932  1.00  0.00    -0.003 C 
ATOM     16  C   UNL     1     -27.370 -18.899   9.939  1.00  0.00     0.004 C 
ENDBRANCH  14  15
ENDBRANCH  13  14
ENDBRANCH  12  13
ENDBRANCH  11  12
ENDBRANCH  10  11
ENDBRANCH   1  10
TORSDOF 12
ENDMDL
