MODEL 1
REMARK VINA RESULT:    -3.484      0.000      0.000
REMARK INTER + INTRA:          -8.340
REMARK INTER:                  -6.132
REMARK INTRA:                  -2.208
REMARK UNBOUND:                -2.208
REMARK SMILES CCCCCCC=CCCCCCCCC(=O)[O-]
REMARK SMILES IDX 10 1 11 2 12 3 13 4 14 5 15 6 16 7 17 8 18 9 9 10 8 11 7 12
REMARK SMILES IDX 6 13 5 14 4 15 3 16 2 17 1 18
REMARK H PARENT
REMARK Flexibility Score: inf
ROOT
ATOM      1  C   UNL     1       8.613   4.514  -2.143  1.00  0.00     0.004 C 
ENDROOT
BRANCH   1   2
ATOM      2  C   UNL     1       9.235   5.893  -1.879  1.00  0.00     0.000 C 
BRANCH   2   3
ATOM      3  C   UNL     1       8.257   7.051  -2.145  1.00  0.00     0.000 C 
BRANCH   3   4
ATOM      4  C   UNL     1       6.776   6.641  -2.273  1.00  0.00     0.000 C 
BRANCH   4   5
ATOM      5  C   UNL     1       5.761   7.715  -1.843  1.00  0.00     0.006 C 
BRANCH   5   6
ATOM      6  C   UNL     1       4.306   7.265  -2.022  1.00  0.00     0.053 C 
BRANCH   6   7
ATOM      7  C   UNL     1       3.429   8.441  -2.317  1.00  0.00     0.041 C 
ATOM      8  O   UNL     1       3.937   9.541  -2.655  1.00  0.00    -0.550 OA
ATOM      9  O   UNL     1       2.051   8.334  -2.170  1.00  0.00    -0.550 OA
ENDBRANCH   6   7
ENDBRANCH   5   6
ENDBRANCH   4   5
ENDBRANCH   3   4
ENDBRANCH   2   3
ENDBRANCH   1   2
BRANCH   1  10
ATOM     10  C   UNL     1       9.293   3.825  -3.331  1.00  0.00     0.027 C 
BRANCH  10  11
ATOM     11  C   UNL     1       8.310   2.959  -4.078  1.00  0.00    -0.031 C 
ATOM     12  C   UNL     1       7.462   3.406  -5.023  1.00  0.00    -0.031 C 
BRANCH  12  13
ATOM     13  C   UNL     1       7.429   4.822  -5.546  1.00  0.00     0.027 C 
BRANCH  13  14
ATOM     14  C   UNL     1       5.999   5.378  -5.609  1.00  0.00     0.004 C 
BRANCH  14  15
ATOM     15  C   UNL     1       5.927   6.699  -6.394  1.00  0.00     0.000 C 
BRANCH  15  16
ATOM     16  C   UNL     1       5.275   7.838  -5.590  1.00  0.00    -0.000 C 
BRANCH  16  17
ATOM     17  C   UNL     1       6.172   9.068  -5.362  1.00  0.00    -0.003 C 
ATOM     18  C   UNL     1       7.663   8.731  -5.377  1.00  0.00     0.004 C 
ENDBRANCH  16  17
ENDBRANCH  15  16
ENDBRANCH  14  15
ENDBRANCH  13  14
ENDBRANCH  12  13
ENDBRANCH  10  11
ENDBRANCH   1  10
TORSDOF 13
ENDMDL
MODEL 2
REMARK VINA RESULT:    -3.453      1.764      3.099
REMARK INTER + INTRA:          -8.284
REMARK INTER:                  -6.098
REMARK INTRA:                  -2.187
REMARK UNBOUND:                -2.208
REMARK SMILES CCCCCCC=CCCCCCCCC(=O)[O-]
REMARK SMILES IDX 10 1 11 2 12 3 13 4 14 5 15 6 16 7 17 8 18 9 9 10 8 11 7 12
REMARK SMILES IDX 6 13 5 14 4 15 3 16 2 17 1 18
REMARK H PARENT
REMARK Flexibility Score: inf
ROOT
ATOM      1  C   UNL     1       8.249   6.508  -2.227  1.00  0.00     0.004 C 
ENDROOT
BRANCH   1   2
ATOM      2  C   UNL     1       6.807   7.033  -2.259  1.00  0.00     0.000 C 
BRANCH   2   3
ATOM      3  C   UNL     1       6.600   8.268  -1.364  1.00  0.00     0.000 C 
BRANCH   3   4
ATOM      4  C   UNL     1       5.976   9.490  -2.070  1.00  0.00     0.000 C 
BRANCH   4   5
ATOM      5  C   UNL     1       4.779   9.174  -2.985  1.00  0.00     0.006 C 
BRANCH   5   6
ATOM      6  C   UNL     1       3.437   9.605  -2.378  1.00  0.00     0.053 C 
BRANCH   6   7
ATOM      7  C   UNL     1       2.599   8.406  -2.066  1.00  0.00     0.041 C 
ATOM      8  O   UNL     1       3.122   7.263  -2.010  1.00  0.00    -0.550 OA
ATOM      9  O   UNL     1       1.228   8.546  -1.883  1.00  0.00    -0.550 OA
ENDBRANCH   6   7
ENDBRANCH   5   6
ENDBRANCH   4   5
ENDBRANCH   3   4
ENDBRANCH   2   3
ENDBRANCH   1   2
BRANCH   1  10
ATOM     10  C   UNL     1       8.954   6.763  -3.564  1.00  0.00     0.027 C 
BRANCH  10  11
ATOM     11  C   UNL     1       9.464   8.180  -3.636  1.00  0.00    -0.031 C 
ATOM     12  C   UNL     1       9.273   9.010  -4.679  1.00  0.00    -0.031 C 
BRANCH  12  13
ATOM     13  C   UNL     1       8.442   8.679  -5.896  1.00  0.00     0.027 C 
BRANCH  13  14
ATOM     14  C   UNL     1       6.986   9.144  -5.741  1.00  0.00     0.004 C 
BRANCH  14  15
ATOM     15  C   UNL     1       6.174   8.941  -7.032  1.00  0.00     0.000 C 
BRANCH  15  16
ATOM     16  C   UNL     1       5.395   7.613  -7.046  1.00  0.00    -0.000 C 
BRANCH  16  17
ATOM     17  C   UNL     1       5.253   6.931  -5.673  1.00  0.00    -0.003 C 
ATOM     18  C   UNL     1       6.023   5.615  -5.577  1.00  0.00     0.004 C 
ENDBRANCH  16  17
ENDBRANCH  15  16
ENDBRANCH  14  15
ENDBRANCH  13  14
ENDBRANCH  12  13
ENDBRANCH  10  11
ENDBRANCH   1  10
TORSDOF 13
ENDMDL
MODEL 3
REMARK VINA RESULT:    -3.430      1.248      3.672
REMARK INTER + INTRA:          -8.244
REMARK INTER:                  -6.110
REMARK INTRA:                  -2.134
REMARK UNBOUND:                -2.208
REMARK SMILES CCCCCCC=CCCCCCCCC(=O)[O-]
REMARK SMILES IDX 10 1 11 2 12 3 13 4 14 5 15 6 16 7 17 8 18 9 9 10 8 11 7 12
REMARK SMILES IDX 6 13 5 14 4 15 3 16 2 17 1 18
REMARK H PARENT
REMARK Flexibility Score: inf
ROOT
ATOM      1  C   UNL     1       5.448   7.290  -5.347  1.00  0.00     0.004 C 
ENDROOT
BRANCH   1   2
ATOM      2  C   UNL     1       6.560   8.346  -5.291  1.00  0.00     0.000 C 
BRANCH   2   3
ATOM      3  C   UNL     1       6.103   9.663  -4.638  1.00  0.00     0.000 C 
BRANCH   3   4
ATOM      4  C   UNL     1       6.577   9.871  -3.185  1.00  0.00     0.000 C 
BRANCH   4   5
ATOM      5  C   UNL     1       5.600   9.378  -2.103  1.00  0.00     0.006 C 
BRANCH   5   6
ATOM      6  C   UNL     1       4.153   9.285  -2.606  1.00  0.00     0.053 C 
BRANCH   6   7
ATOM      7  C   UNL     1       3.595   7.924  -2.334  1.00  0.00     0.041 C 
ATOM      8  O   UNL     1       2.349   7.747  -2.290  1.00  0.00    -0.550 OA
ATOM      9  O   UNL     1       4.451   6.859  -2.083  1.00  0.00    -0.550 OA
ENDBRANCH   6   7
ENDBRANCH   5   6
ENDBRANCH   4   5
ENDBRANCH   3   4
ENDBRANCH   2   3
ENDBRANCH   1   2
BRANCH   1  10
ATOM     10  C   UNL     1       5.718   6.267  -6.456  1.00  0.00     0.027 C 
BRANCH  10  11
ATOM     11  C   UNL     1       7.196   5.988  -6.574  1.00  0.00    -0.031 C 
ATOM     12  C   UNL     1       7.847   5.022  -5.899  1.00  0.00    -0.031 C 
BRANCH  12  13
ATOM     13  C   UNL     1       7.184   4.012  -4.993  1.00  0.00     0.027 C 
BRANCH  13  14
ATOM     14  C   UNL     1       8.200   3.292  -4.095  1.00  0.00     0.004 C 
BRANCH  14  15
ATOM     15  C   UNL     1       8.566   4.126  -2.854  1.00  0.00     0.000 C 
BRANCH  15  16
ATOM     16  C   UNL     1       7.466   5.128  -2.462  1.00  0.00    -0.000 C 
BRANCH  16  17
ATOM     17  C   UNL     1       7.951   6.573  -2.245  1.00  0.00    -0.003 C 
ATOM     18  C   UNL     1       9.206   6.909  -3.049  1.00  0.00     0.004 C 
ENDBRANCH  16  17
ENDBRANCH  15  16
ENDBRANCH  14  15
ENDBRANCH  13  14
ENDBRANCH  12  13
ENDBRANCH  10  11
ENDBRANCH   1  10
TORSDOF 13
ENDMDL
MODEL 4
REMARK VINA RESULT:    -3.403      1.614      2.203
REMARK INTER + INTRA:          -8.197
REMARK INTER:                  -5.919
REMARK INTRA:                  -2.278
REMARK UNBOUND:                -2.208
REMARK SMILES CCCCCCC=CCCCCCCCC(=O)[O-]
REMARK SMILES IDX 10 1 11 2 12 3 13 4 14 5 15 6 16 7 17 8 18 9 9 10 8 11 7 12
REMARK SMILES IDX 6 13 5 14 4 15 3 16 2 17 1 18
REMARK H PARENT
REMARK Flexibility Score: inf
ROOT
ATOM      1  C   UNL     1       8.536   6.908  -1.949  1.00  0.00     0.004 C 
ENDROOT
BRANCH   1   2
ATOM      2  C   UNL     1       8.696   8.399  -1.620  1.00  0.00     0.000 C 
BRANCH   2   3
ATOM      3  C   UNL     1       7.434   9.011  -0.986  1.00  0.00     0.000 C 
BRANCH   3   4
ATOM      4  C   UNL     1       6.652   9.983  -1.894  1.00  0.00     0.000 C 
BRANCH   4   5
ATOM      5  C   UNL     1       5.741   9.311  -2.937  1.00  0.00     0.006 C 
BRANCH   5   6
ATOM      6  C   UNL     1       4.278   9.229  -2.484  1.00  0.00     0.053 C 
BRANCH   6   7
ATOM      7  C   UNL     1       3.884   7.805  -2.252  1.00  0.00     0.041 C 
ATOM      8  O   UNL     1       4.757   6.899  -2.239  1.00  0.00    -0.550 OA
ATOM      9  O   UNL     1       2.543   7.471  -2.097  1.00  0.00    -0.550 OA
ENDBRANCH   6   7
ENDBRANCH   5   6
ENDBRANCH   4   5
ENDBRANCH   3   4
ENDBRANCH   2   3
ENDBRANCH   1   2
BRANCH   1  10
ATOM     10  C   UNL     1       8.304   6.700  -3.450  1.00  0.00     0.027 C 
BRANCH  10  11
ATOM     11  C   UNL     1       7.478   5.462  -3.694  1.00  0.00    -0.031 C 
ATOM     12  C   UNL     1       6.721   5.251  -4.787  1.00  0.00    -0.031 C 
BRANCH  12  13
ATOM     13  C   UNL     1       6.655   6.179  -5.976  1.00  0.00     0.027 C 
BRANCH  13  14
ATOM     14  C   UNL     1       5.345   6.980  -6.008  1.00  0.00     0.004 C 
BRANCH  14  15
ATOM     15  C   UNL     1       5.574   8.448  -6.406  1.00  0.00     0.000 C 
BRANCH  15  16
ATOM     16  C   UNL     1       7.055   8.767  -6.684  1.00  0.00    -0.000 C 
BRANCH  16  17
ATOM     17  C   UNL     1       7.597  10.012  -5.959  1.00  0.00    -0.003 C 
ATOM     18  C   UNL     1       8.938   9.766  -5.269  1.00  0.00     0.004 C 
ENDBRANCH  16  17
ENDBRANCH  15  16
ENDBRANCH  14  15
ENDBRANCH  13  14
ENDBRANCH  12  13
ENDBRANCH  10  11
ENDBRANCH   1  10
TORSDOF 13
ENDMDL
MODEL 5
REMARK VINA RESULT:    -3.384      2.174      3.786
REMARK INTER + INTRA:          -8.163
REMARK INTER:                  -6.481
REMARK INTRA:                  -1.682
REMARK UNBOUND:                -2.208
REMARK SMILES CCCCCCC=CCCCCCCCC(=O)[O-]
REMARK SMILES IDX 10 1 11 2 12 3 13 4 14 5 15 6 16 7 17 8 18 9 9 10 8 11 7 12
REMARK SMILES IDX 6 13 5 14 4 15 3 16 2 17 1 18
REMARK H PARENT
REMARK Flexibility Score: inf
ROOT
ATOM      1  C   UNL     1       7.821   6.985  -3.715  1.00  0.00     0.004 C 
ENDROOT
BRANCH   1   2
ATOM      2  C   UNL     1       6.735   6.719  -2.664  1.00  0.00     0.000 C 
BRANCH   2   3
ATOM      3  C   UNL     1       6.527   7.905  -1.705  1.00  0.00     0.000 C 
BRANCH   3   4
ATOM      4  C   UNL     1       6.195   9.248  -2.387  1.00  0.00     0.000 C 
BRANCH   4   5
ATOM      5  C   UNL     1       4.747   9.736  -2.200  1.00  0.00     0.006 C 
BRANCH   5   6
ATOM      6  C   UNL     1       3.755   9.022  -3.126  1.00  0.00     0.053 C 
BRANCH   6   7
ATOM      7  C   UNL     1       2.807   8.185  -2.327  1.00  0.00     0.041 C 
ATOM      8  O   UNL     1       1.726   8.675  -1.908  1.00  0.00    -0.550 OA
ATOM      9  O   UNL     1       3.141   6.875  -2.002  1.00  0.00    -0.550 OA
ENDBRANCH   6   7
ENDBRANCH   5   6
ENDBRANCH   4   5
ENDBRANCH   3   4
ENDBRANCH   2   3
ENDBRANCH   1   2
BRANCH   1  10
ATOM     10  C   UNL     1       7.283   6.750  -5.130  1.00  0.00     0.027 C 
BRANCH  10  11
ATOM     11  C   UNL     1       5.792   6.523  -5.102  1.00  0.00    -0.031 C 
ATOM     12  C   UNL     1       4.906   7.159  -5.891  1.00  0.00    -0.031 C 
BRANCH  12  13
ATOM     13  C   UNL     1       5.277   8.129  -6.988  1.00  0.00     0.027 C 
BRANCH  13  14
ATOM     14  C   UNL     1       4.781   7.657  -8.363  1.00  0.00     0.004 C 
BRANCH  14  15
ATOM     15  C   UNL     1       4.929   6.136  -8.539  1.00  0.00     0.000 C 
BRANCH  15  16
ATOM     16  C   UNL     1       3.792   5.518  -9.375  1.00  0.00    -0.000 C 
BRANCH  16  17
ATOM     17  C   UNL     1       2.750   4.726  -8.565  1.00  0.00    -0.003 C 
ATOM     18  C   UNL     1       3.336   3.493  -7.879  1.00  0.00     0.004 C 
ENDBRANCH  16  17
ENDBRANCH  15  16
ENDBRANCH  14  15
ENDBRANCH  13  14
ENDBRANCH  12  13
ENDBRANCH  10  11
ENDBRANCH   1  10
TORSDOF 13
ENDMDL
MODEL 6
REMARK VINA RESULT:    -3.364      1.416      3.216
REMARK INTER + INTRA:          -8.128
REMARK INTER:                  -6.122
REMARK INTRA:                  -2.006
REMARK UNBOUND:                -2.208
REMARK SMILES CCCCCCC=CCCCCCCCC(=O)[O-]
REMARK SMILES IDX 10 1 11 2 12 3 13 4 14 5 15 6 16 7 17 8 18 9 9 10 8 11 7 12
REMARK SMILES IDX 6 13 5 14 4 15 3 16 2 17 1 18
REMARK H PARENT
REMARK Flexibility Score: inf
ROOT
ATOM      1  C   UNL     1       9.285   8.047  -2.571  1.00  0.00     0.004 C 
ENDROOT
BRANCH   1   2
ATOM      2  C   UNL     1       8.254   8.190  -1.442  1.00  0.00     0.000 C 
BRANCH   2   3
ATOM      3  C   UNL     1       7.126   9.180  -1.784  1.00  0.00     0.000 C 
BRANCH   3   4
ATOM      4  C   UNL     1       6.836   9.348  -3.289  1.00  0.00     0.000 C 
BRANCH   4   5
ATOM      5  C   UNL     1       5.357   9.203  -3.689  1.00  0.00     0.006 C 
BRANCH   5   6
ATOM      6  C   UNL     1       4.409   9.234  -2.483  1.00  0.00     0.053 C 
BRANCH   6   7
ATOM      7  C   UNL     1       3.752   7.902  -2.303  1.00  0.00     0.041 C 
ATOM      8  O   UNL     1       2.497   7.813  -2.273  1.00  0.00    -0.550 OA
ATOM      9  O   UNL     1       4.528   6.763  -2.120  1.00  0.00    -0.550 OA
ENDBRANCH   6   7
ENDBRANCH   5   6
ENDBRANCH   4   5
ENDBRANCH   3   4
ENDBRANCH   2   3
ENDBRANCH   1   2
BRANCH   1  10
ATOM     10  C   UNL     1       9.590   6.572  -2.851  1.00  0.00     0.027 C 
BRANCH  10  11
ATOM     11  C   UNL     1       8.672   5.678  -2.055  1.00  0.00    -0.031 C 
ATOM     12  C   UNL     1       8.649   4.335  -2.140  1.00  0.00    -0.031 C 
BRANCH  12  13
ATOM     13  C   UNL     1       9.600   3.512  -2.976  1.00  0.00     0.027 C 
BRANCH  13  14
ATOM     14  C   UNL     1       8.856   2.551  -3.915  1.00  0.00     0.004 C 
BRANCH  14  15
ATOM     15  C   UNL     1       7.495   3.116  -4.358  1.00  0.00     0.000 C 
BRANCH  15  16
ATOM     16  C   UNL     1       7.562   3.840  -5.716  1.00  0.00    -0.000 C 
BRANCH  16  17
ATOM     17  C   UNL     1       7.574   5.377  -5.630  1.00  0.00    -0.003 C 
ATOM     18  C   UNL     1       6.269   5.956  -5.084  1.00  0.00     0.004 C 
ENDBRANCH  16  17
ENDBRANCH  15  16
ENDBRANCH  14  15
ENDBRANCH  13  14
ENDBRANCH  12  13
ENDBRANCH  10  11
ENDBRANCH   1  10
TORSDOF 13
ENDMDL
MODEL 7
REMARK VINA RESULT:    -3.316      3.043      5.947
REMARK INTER + INTRA:          -8.044
REMARK INTER:                  -5.656
REMARK INTRA:                  -2.388
REMARK UNBOUND:                -2.208
REMARK SMILES CCCCCCC=CCCCCCCCC(=O)[O-]
REMARK SMILES IDX 10 1 11 2 12 3 13 4 14 5 15 6 16 7 17 8 18 9 9 10 8 11 7 12
REMARK SMILES IDX 6 13 5 14 4 15 3 16 2 17 1 18
REMARK H PARENT
REMARK Flexibility Score: inf
ROOT
ATOM      1  C   UNL     1       4.635   7.518  -4.360  1.00  0.00     0.004 C 
ENDROOT
BRANCH   1   2
ATOM      2  C   UNL     1       5.686   8.301  -5.158  1.00  0.00     0.000 C 
BRANCH   2   3
ATOM      3  C   UNL     1       6.141   7.566  -6.432  1.00  0.00     0.000 C 
BRANCH   3   4
ATOM      4  C   UNL     1       5.315   6.314  -6.795  1.00  0.00     0.000 C 
BRANCH   4   5
ATOM      5  C   UNL     1       6.119   5.004  -6.877  1.00  0.00     0.006 C 
BRANCH   5   6
ATOM      6  C   UNL     1       5.236   3.756  -6.743  1.00  0.00     0.053 C 
BRANCH   6   7
ATOM      7  C   UNL     1       5.923   2.720  -5.911  1.00  0.00     0.041 C 
ATOM      8  O   UNL     1       5.248   1.897  -5.239  1.00  0.00    -0.550 OA
ATOM      9  O   UNL     1       7.310   2.694  -5.839  1.00  0.00    -0.550 OA
ENDBRANCH   6   7
ENDBRANCH   5   6
ENDBRANCH   4   5
ENDBRANCH   3   4
ENDBRANCH   2   3
ENDBRANCH   1   2
BRANCH   1  10
ATOM     10  C   UNL     1       4.200   8.298  -3.115  1.00  0.00     0.027 C 
BRANCH  10  11
ATOM     11  C   UNL     1       4.644   7.588  -1.860  1.00  0.00    -0.031 C 
ATOM     12  C   UNL     1       5.779   7.860  -1.188  1.00  0.00    -0.031 C 
BRANCH  12  13
ATOM     13  C   UNL     1       6.733   8.977  -1.534  1.00  0.00     0.027 C 
BRANCH  13  14
ATOM     14  C   UNL     1       8.175   8.649  -1.121  1.00  0.00     0.004 C 
BRANCH  14  15
ATOM     15  C   UNL     1       8.678   7.345  -1.765  1.00  0.00     0.000 C 
BRANCH  15  16
ATOM     16  C   UNL     1       8.749   7.426  -3.301  1.00  0.00    -0.000 C 
BRANCH  16  17
ATOM     17  C   UNL     1       8.518   6.091  -4.032  1.00  0.00    -0.003 C 
ATOM     18  C   UNL     1       7.446   5.225  -3.371  1.00  0.00     0.004 C 
ENDBRANCH  16  17
ENDBRANCH  15  16
ENDBRANCH  14  15
ENDBRANCH  13  14
ENDBRANCH  12  13
ENDBRANCH  10  11
ENDBRANCH   1  10
TORSDOF 13
ENDMDL
MODEL 8
REMARK VINA RESULT:    -3.307      1.438      2.611
REMARK INTER + INTRA:          -8.028
REMARK INTER:                  -5.814
REMARK INTRA:                  -2.214
REMARK UNBOUND:                -2.208
REMARK SMILES CCCCCCC=CCCCCCCCC(=O)[O-]
REMARK SMILES IDX 10 1 11 2 12 3 13 4 14 5 15 6 16 7 17 8 18 9 9 10 8 11 7 12
REMARK SMILES IDX 6 13 5 14 4 15 3 16 2 17 1 18
REMARK H PARENT
REMARK Flexibility Score: inf
ROOT
ATOM      1  C   UNL     1       8.039   4.384  -3.303  1.00  0.00     0.004 C 
ENDROOT
BRANCH   1   2
ATOM      2  C   UNL     1       8.056   5.506  -2.256  1.00  0.00     0.000 C 
BRANCH   2   3
ATOM      3  C   UNL     1       6.785   6.373  -2.286  1.00  0.00     0.000 C 
BRANCH   3   4
ATOM      4  C   UNL     1       6.987   7.844  -1.870  1.00  0.00     0.000 C 
BRANCH   4   5
ATOM      5  C   UNL     1       5.690   8.647  -1.660  1.00  0.00     0.006 C 
BRANCH   5   6
ATOM      6  C   UNL     1       4.760   8.603  -2.879  1.00  0.00     0.053 C 
BRANCH   6   7
ATOM      7  C   UNL     1       3.349   8.349  -2.450  1.00  0.00     0.041 C 
ATOM      8  O   UNL     1       2.473   9.241  -2.589  1.00  0.00    -0.550 OA
ATOM      9  O   UNL     1       3.013   7.141  -1.850  1.00  0.00    -0.550 OA
ENDBRANCH   6   7
ENDBRANCH   5   6
ENDBRANCH   4   5
ENDBRANCH   3   4
ENDBRANCH   2   3
ENDBRANCH   1   2
BRANCH   1  10
ATOM     10  C   UNL     1       7.248   4.807  -4.546  1.00  0.00     0.027 C 
BRANCH  10  11
ATOM     11  C   UNL     1       8.176   5.330  -5.614  1.00  0.00    -0.031 C 
ATOM     12  C   UNL     1       8.162   6.590  -6.089  1.00  0.00    -0.031 C 
BRANCH  12  13
ATOM     13  C   UNL     1       7.279   7.696  -5.560  1.00  0.00     0.027 C 
BRANCH  13  14
ATOM     14  C   UNL     1       6.066   7.946  -6.469  1.00  0.00     0.004 C 
BRANCH  14  15
ATOM     15  C   UNL     1       4.887   7.019  -6.126  1.00  0.00     0.000 C 
BRANCH  15  16
ATOM     16  C   UNL     1       4.395   6.205  -7.336  1.00  0.00    -0.000 C 
BRANCH  16  17
ATOM     17  C   UNL     1       4.627   4.686  -7.234  1.00  0.00    -0.003 C 
ATOM     18  C   UNL     1       5.756   4.192  -8.138  1.00  0.00     0.004 C 
ENDBRANCH  16  17
ENDBRANCH  15  16
ENDBRANCH  14  15
ENDBRANCH  13  14
ENDBRANCH  12  13
ENDBRANCH  10  11
ENDBRANCH   1  10
TORSDOF 13
ENDMDL
MODEL 9
REMARK VINA RESULT:    -3.290      1.479      4.216
REMARK INTER + INTRA:          -7.999
REMARK INTER:                  -6.116
REMARK INTRA:                  -1.882
REMARK UNBOUND:                -2.208
REMARK SMILES CCCCCCC=CCCCCCCCC(=O)[O-]
REMARK SMILES IDX 10 1 11 2 12 3 13 4 14 5 15 6 16 7 17 8 18 9 9 10 8 11 7 12
REMARK SMILES IDX 6 13 5 14 4 15 3 16 2 17 1 18
REMARK H PARENT
REMARK Flexibility Score: inf
ROOT
ATOM      1  C   UNL     1       6.784   7.301  -5.245  1.00  0.00     0.004 C 
ENDROOT
BRANCH   1   2
ATOM      2  C   UNL     1       6.993   8.779  -5.605  1.00  0.00     0.000 C 
BRANCH   2   3
ATOM      3  C   UNL     1       6.129   9.729  -4.757  1.00  0.00     0.000 C 
BRANCH   3   4
ATOM      4  C   UNL     1       6.676  10.026  -3.346  1.00  0.00     0.000 C 
BRANCH   4   5
ATOM      5  C   UNL     1       5.891   9.377  -2.192  1.00  0.00     0.006 C 
BRANCH   5   6
ATOM      6  C   UNL     1       4.437   9.061  -2.565  1.00  0.00     0.053 C 
BRANCH   6   7
ATOM      7  C   UNL     1       4.099   7.651  -2.197  1.00  0.00     0.041 C 
ATOM      8  O   UNL     1       4.985   6.759  -2.225  1.00  0.00    -0.550 OA
ATOM      9  O   UNL     1       2.791   7.314  -1.869  1.00  0.00    -0.550 OA
ENDBRANCH   6   7
ENDBRANCH   5   6
ENDBRANCH   4   5
ENDBRANCH   3   4
ENDBRANCH   2   3
ENDBRANCH   1   2
BRANCH   1  10
ATOM     10  C   UNL     1       8.118   6.626  -4.906  1.00  0.00     0.027 C 
BRANCH  10  11
ATOM     11  C   UNL     1       8.522   6.928  -3.485  1.00  0.00    -0.031 C 
ATOM     12  C   UNL     1       8.383   6.076  -2.453  1.00  0.00    -0.031 C 
BRANCH  12  13
ATOM     13  C   UNL     1       7.888   4.654  -2.575  1.00  0.00     0.027 C 
BRANCH  13  14
ATOM     14  C   UNL     1       9.032   3.671  -2.862  1.00  0.00     0.004 C 
BRANCH  14  15
ATOM     15  C   UNL     1       8.610   2.565  -3.845  1.00  0.00     0.000 C 
BRANCH  15  16
ATOM     16  C   UNL     1       8.215   3.113  -5.228  1.00  0.00    -0.000 C 
BRANCH  16  17
ATOM     17  C   UNL     1       6.713   3.032  -5.554  1.00  0.00    -0.003 C 
ATOM     18  C   UNL     1       6.134   1.631  -5.359  1.00  0.00     0.004 C 
ENDBRANCH  16  17
ENDBRANCH  15  16
ENDBRANCH  14  15
ENDBRANCH  13  14
ENDBRANCH  12  13
ENDBRANCH  10  11
ENDBRANCH   1  10
TORSDOF 13
ENDMDL
