MODEL 1
REMARK VINA RESULT:    -1.765      0.000      0.000
REMARK INTER + INTRA:          -2.427
REMARK INTER:                  -2.230
REMARK INTRA:                  -0.197
REMARK UNBOUND:                -0.197
REMARK SMILES O=C(C=Cc1ccc(O)cc1)c1ccc(O)cc1O
REMARK SMILES IDX 4 1 3 2 5 3 6 4 7 5 8 6 11 7 10 8 9 9 2 11 1 12 12 13 18 14
REMARK SMILES IDX 13 15 17 16 14 17 15 18 19 19 16 21
REMARK H PARENT 9 10 19 20 16 22
REMARK Flexibility Score: inf
ROOT
ATOM      1  C   UNL     1      11.812 -14.242   5.125  1.00  0.00     0.012 C 
ATOM      2  C   UNL     1      10.851 -13.457   4.616  1.00  0.00     0.053 C 
ENDROOT
BRANCH   1   3
ATOM      3  C   UNL     1      11.813 -15.722   5.019  1.00  0.00    -0.025 A 
ATOM      4  C   UNL     1      10.585 -16.383   4.845  1.00  0.00     0.012 A 
ATOM      5  C   UNL     1      10.535 -17.776   4.748  1.00  0.00     0.047 A 
ATOM      6  C   UNL     1      11.707 -18.531   4.835  1.00  0.00     0.115 A 
ATOM      7  C   UNL     1      12.991 -16.491   5.122  1.00  0.00     0.012 A 
ATOM      8  C   UNL     1      12.935 -17.885   5.025  1.00  0.00     0.047 A 
BRANCH   6   9
ATOM      9  O   UNL     1      11.642 -19.919   4.737  1.00  0.00    -0.508 OA
ATOM     10  H   UNL     1      10.755 -20.405   4.686  1.00  0.00     0.293 HD
ENDBRANCH   6   9
ENDBRANCH   1   3
BRANCH   2  11
ATOM     11  C   UNL     1      10.870 -11.983   4.734  1.00  0.00     0.189 C 
ATOM     12  O   UNL     1       9.798 -11.392   5.034  1.00  0.00    -0.289 OA
BRANCH  11  13
ATOM     13  C   UNL     1      12.102 -11.182   4.562  1.00  0.00     0.064 A 
ATOM     14  C   UNL     1      12.086  -9.930   3.903  1.00  0.00     0.130 A 
ATOM     15  C   UNL     1      13.308 -11.655   5.108  1.00  0.00     0.020 A 
ATOM     16  C   UNL     1      13.265  -9.178   3.815  1.00  0.00     0.093 A 
ATOM     17  C   UNL     1      14.478 -10.900   5.005  1.00  0.00     0.047 A 
ATOM     18  C   UNL     1      14.461  -9.662   4.362  1.00  0.00     0.119 A 
BRANCH  14  19
ATOM     19  O   UNL     1      10.930  -9.417   3.311  1.00  0.00    -0.507 OA
ATOM     20  H   UNL     1      10.869  -9.191   2.327  1.00  0.00     0.293 HD
ENDBRANCH  14  19
BRANCH  18  21
ATOM     21  O   UNL     1      15.635  -8.918   4.270  1.00  0.00    -0.508 OA
ATOM     22  H   UNL     1      16.331  -8.933   5.006  1.00  0.00     0.293 HD
ENDBRANCH  18  21
ENDBRANCH  11  13
ENDBRANCH   2  11
TORSDOF 6
ENDMDL
MODEL 2
REMARK VINA RESULT:     0.342      1.685      3.086
REMARK INTER + INTRA:           0.236
REMARK INTER:                   0.646
REMARK INTRA:                  -0.410
REMARK UNBOUND:                -0.197
REMARK SMILES O=C(C=Cc1ccc(O)cc1)c1ccc(O)cc1O
REMARK SMILES IDX 4 1 3 2 5 3 6 4 7 5 8 6 11 7 10 8 9 9 2 11 1 12 12 13 18 14
REMARK SMILES IDX 13 15 17 16 14 17 15 18 19 19 16 21
REMARK H PARENT 9 10 19 20 16 22
REMARK Flexibility Score: inf
ROOT
ATOM      1  C   UNL     1      11.981 -14.737   4.173  1.00  0.00     0.012 C 
ATOM      2  C   UNL     1      12.040 -13.794   5.125  1.00  0.00     0.053 C 
ENDROOT
BRANCH   1   3
ATOM      3  C   UNL     1      11.673 -16.163   4.442  1.00  0.00    -0.025 A 
ATOM      4  C   UNL     1      12.671 -17.123   4.199  1.00  0.00     0.012 A 
ATOM      5  C   UNL     1      12.426 -18.479   4.429  1.00  0.00     0.047 A 
ATOM      6  C   UNL     1      11.177 -18.899   4.894  1.00  0.00     0.115 A 
ATOM      7  C   UNL     1      10.410 -16.597   4.897  1.00  0.00     0.012 A 
ATOM      8  C   UNL     1      10.169 -17.955   5.125  1.00  0.00     0.047 A 
BRANCH   6   9
ATOM      9  O   UNL     1      10.946 -20.254   5.120  1.00  0.00    -0.508 OA
ATOM     10  H   UNL     1      10.627 -20.595   6.019  1.00  0.00     0.293 HD
ENDBRANCH   6   9
ENDBRANCH   1   3
BRANCH   2  11
ATOM     11  C   UNL     1      12.350 -12.377   4.835  1.00  0.00     0.189 C 
ATOM     12  O   UNL     1      13.499 -11.945   5.119  1.00  0.00    -0.289 OA
BRANCH  11  13
ATOM     13  C   UNL     1      11.385 -11.464   4.184  1.00  0.00     0.064 A 
ATOM     14  C   UNL     1      11.768 -10.178   3.737  1.00  0.00     0.130 A 
ATOM     15  C   UNL     1      10.069 -11.904   3.962  1.00  0.00     0.020 A 
ATOM     16  C   UNL     1      10.836  -9.369   3.072  1.00  0.00     0.093 A 
ATOM     17  C   UNL     1       9.147 -11.085   3.307  1.00  0.00     0.047 A 
ATOM     18  C   UNL     1       9.526  -9.819   2.859  1.00  0.00     0.119 A 
BRANCH  14  19
ATOM     19  O   UNL     1      13.049  -9.667   3.954  1.00  0.00    -0.507 OA
ATOM     20  H   UNL     1      13.887 -10.119   3.614  1.00  0.00     0.293 HD
ENDBRANCH  14  19
BRANCH  18  21
ATOM     21  O   UNL     1       8.598  -9.014   2.204  1.00  0.00    -0.508 OA
ATOM     22  H   UNL     1       7.661  -9.342   2.002  1.00  0.00     0.293 HD
ENDBRANCH  18  21
ENDBRANCH  11  13
ENDBRANCH   2  11
TORSDOF 6
ENDMDL
