MODEL 1
REMARK VINA RESULT:    -7.204      0.000      0.000
REMARK INTER + INTRA:         -10.574
REMARK INTER:                  -9.731
REMARK INTRA:                  -0.843
REMARK UNBOUND:                -0.843
REMARK SMILES O=c1c(-c2ccc(O)cc2)coc2c([C@H]3O[C@H](CO)[C@H](O)[C@H](O)[C@@H]3O)c(O)ccc12
REMARK SMILES IDX 3 1 11 2 12 3 13 4 30 5 2 6 1 7 29 8 28 9 26 10 14 11 4 12
REMARK SMILES IDX 5 13 6 14 7 15 10 16 9 17 8 18 15 20 24 21 16 22 22 23 17 24
REMARK SMILES IDX 20 25 25 26 23 28 18 30 19 31 21 33 27 35
REMARK H PARENT 8 19 25 27 23 29 19 32 21 34 27 36
REMARK Flexibility Score: inf
ROOT
ATOM      1  C   UNL     1      18.979  -1.710 -18.012  1.00  0.00     0.065 A 
ATOM      2  C   UNL     1      18.830  -3.051 -18.392  1.00  0.00     0.208 A 
ATOM      3  O   UNL     1      18.263  -3.932 -17.577  1.00  0.00    -0.463 OA
ATOM      4  C   UNL     1      17.805  -3.616 -16.368  1.00  0.00     0.147 A 
ATOM      5  C   UNL     1      17.913  -2.284 -15.904  1.00  0.00     0.066 A 
ATOM      6  C   UNL     1      18.502  -1.323 -16.747  1.00  0.00     0.200 A 
ATOM      7  O   UNL     1      18.585  -0.119 -16.377  1.00  0.00    -0.288 OA
ATOM      8  C   UNL     1      17.433  -1.953 -14.628  1.00  0.00     0.020 A 
ATOM      9  C   UNL     1      16.862  -2.932 -13.817  1.00  0.00     0.047 A 
ATOM     10  C   UNL     1      16.754  -4.255 -14.263  1.00  0.00     0.125 A 
ATOM     11  C   UNL     1      17.213  -4.609 -15.553  1.00  0.00     0.069 A 
ENDROOT
BRANCH   1  12
ATOM     12  C   UNL     1      19.623  -0.744 -18.938  1.00  0.00    -0.011 A 
ATOM     13  C   UNL     1      20.847  -0.143 -18.597  1.00  0.00     0.013 A 
ATOM     14  C   UNL     1      21.452   0.773 -19.462  1.00  0.00     0.047 A 
ATOM     15  C   UNL     1      20.838   1.105 -20.676  1.00  0.00     0.115 A 
ATOM     16  C   UNL     1      19.010  -0.401 -20.156  1.00  0.00     0.013 A 
ATOM     17  C   UNL     1      19.617   0.517 -21.019  1.00  0.00     0.047 A 
BRANCH  15  18
ATOM     18  O   UNL     1      21.430   2.016 -21.546  1.00  0.00    -0.508 OA
ATOM     19  H   UNL     1      21.699   2.944 -21.239  1.00  0.00     0.293 HD
ENDBRANCH  15  18
ENDBRANCH   1  12
BRANCH  11  20
ATOM     20  C   UNL     1      17.115  -6.051 -16.036  1.00  0.00     0.188 C 
ATOM     21  C   UNL     1      15.632  -6.488 -16.106  1.00  0.00     0.179 C 
ATOM     22  O   UNL     1      17.853  -6.881 -15.153  1.00  0.00    -0.362 OA
ATOM     23  C   UNL     1      15.522  -7.939 -16.602  1.00  0.00     0.177 C 
ATOM     24  C   UNL     1      17.864  -8.250 -15.539  1.00  0.00     0.176 C 
ATOM     25  C   UNL     1      16.445  -8.846 -15.765  1.00  0.00     0.177 C 
BRANCH  21  26
ATOM     26  O   UNL     1      14.866  -5.623 -16.909  1.00  0.00    -0.387 OA
ATOM     27  H   UNL     1      15.387  -5.425 -17.730  1.00  0.00     0.211 HD
ENDBRANCH  21  26
BRANCH  23  28
ATOM     28  O   UNL     1      15.849  -8.034 -17.966  1.00  0.00    -0.387 OA
ATOM     29  H   UNL     1      15.802  -7.118 -18.344  1.00  0.00     0.211 HD
ENDBRANCH  23  28
BRANCH  24  30
ATOM     30  C   UNL     1      18.921  -8.550 -16.627  1.00  0.00     0.191 C 
BRANCH  30  31
ATOM     31  O   UNL     1      18.341  -8.814 -17.873  1.00  0.00    -0.394 OA
ATOM     32  H   UNL     1      18.456  -9.787 -18.031  1.00  0.00     0.210 HD
ENDBRANCH  30  31
ENDBRANCH  24  30
BRANCH  25  33
ATOM     33  O   UNL     1      16.540 -10.125 -16.341  1.00  0.00    -0.388 OA
ATOM     34  H   UNL     1      17.021 -10.018 -17.203  1.00  0.00     0.211 HD
ENDBRANCH  25  33
ENDBRANCH  11  20
BRANCH  10  35
ATOM     35  O   UNL     1      16.191  -5.215 -13.423  1.00  0.00    -0.507 OA
ATOM     36  H   UNL     1      15.460  -4.982 -12.761  1.00  0.00     0.293 HD
ENDBRANCH  10  35
TORSDOF 9
ENDMDL
MODEL 2
REMARK VINA RESULT:    -7.203      7.442     10.583
REMARK INTER + INTRA:         -10.572
REMARK INTER:                  -9.415
REMARK INTRA:                  -1.157
REMARK UNBOUND:                -0.843
REMARK SMILES O=c1c(-c2ccc(O)cc2)coc2c([C@H]3O[C@H](CO)[C@H](O)[C@H](O)[C@@H]3O)c(O)ccc12
REMARK SMILES IDX 3 1 11 2 12 3 13 4 30 5 2 6 1 7 29 8 28 9 26 10 14 11 4 12
REMARK SMILES IDX 5 13 6 14 7 15 10 16 9 17 8 18 15 20 24 21 16 22 22 23 17 24
REMARK SMILES IDX 20 25 25 26 23 28 18 30 19 31 21 33 27 35
REMARK H PARENT 8 19 25 27 23 29 19 32 21 34 27 36
REMARK Flexibility Score: inf
ROOT
ATOM      1  C   UNL     1      14.071  -5.893 -11.779  1.00  0.00     0.065 A 
ATOM      2  C   UNL     1      13.295  -5.210 -10.832  1.00  0.00     0.208 A 
ATOM      3  O   UNL     1      12.215  -5.771 -10.302  1.00  0.00    -0.463 OA
ATOM      4  C   UNL     1      11.797  -6.993 -10.623  1.00  0.00     0.147 A 
ATOM      5  C   UNL     1      12.522  -7.755 -11.570  1.00  0.00     0.066 A 
ATOM      6  C   UNL     1      13.677  -7.193 -12.145  1.00  0.00     0.200 A 
ATOM      7  O   UNL     1      14.364  -7.857 -12.969  1.00  0.00    -0.288 OA
ATOM      8  C   UNL     1      12.078  -9.041 -11.910  1.00  0.00     0.020 A 
ATOM      9  C   UNL     1      10.926  -9.563 -11.327  1.00  0.00     0.047 A 
ATOM     10  C   UNL     1      10.197  -8.817 -10.392  1.00  0.00     0.125 A 
ATOM     11  C   UNL     1      10.634  -7.526 -10.018  1.00  0.00     0.069 A 
ENDROOT
BRANCH   1  12
ATOM     12  C   UNL     1      15.271  -5.243 -12.362  1.00  0.00    -0.011 A 
ATOM     13  C   UNL     1      16.517  -5.344 -11.717  1.00  0.00     0.013 A 
ATOM     14  C   UNL     1      17.647  -4.726 -12.258  1.00  0.00     0.047 A 
ATOM     15  C   UNL     1      17.547  -3.992 -13.447  1.00  0.00     0.115 A 
ATOM     16  C   UNL     1      15.178  -4.499 -13.552  1.00  0.00     0.013 A 
ATOM     17  C   UNL     1      16.311  -3.880 -14.090  1.00  0.00     0.047 A 
BRANCH  15  18
ATOM     18  O   UNL     1      18.666  -3.372 -13.996  1.00  0.00    -0.508 OA
ATOM     19  H   UNL     1      19.594  -3.522 -13.617  1.00  0.00     0.293 HD
ENDBRANCH  15  18
ENDBRANCH   1  12
BRANCH  11  20
ATOM     20  C   UNL     1       9.835  -6.702  -9.016  1.00  0.00     0.188 C 
ATOM     21  C   UNL     1      10.206  -7.117  -7.572  1.00  0.00     0.179 C 
ATOM     22  O   UNL     1       8.452  -6.894  -9.265  1.00  0.00    -0.362 OA
ATOM     23  C   UNL     1       9.413  -6.284  -6.553  1.00  0.00     0.177 C 
ATOM     24  C   UNL     1       7.612  -6.130  -8.408  1.00  0.00     0.176 C 
ATOM     25  C   UNL     1       7.911  -6.335  -6.896  1.00  0.00     0.177 C 
BRANCH  21  26
ATOM     26  O   UNL     1      11.590  -7.016  -7.335  1.00  0.00    -0.387 OA
ATOM     27  H   UNL     1      12.044  -7.723  -7.863  1.00  0.00     0.211 HD
ENDBRANCH  21  26
BRANCH  23  28
ATOM     28  O   UNL     1       9.862  -4.952  -6.526  1.00  0.00    -0.387 OA
ATOM     29  H   UNL     1       9.190  -4.406  -7.009  1.00  0.00     0.211 HD
ENDBRANCH  23  28
BRANCH  24  30
ATOM     30  C   UNL     1       7.446  -4.669  -8.888  1.00  0.00     0.191 C 
BRANCH  30  31
ATOM     31  O   UNL     1       6.191  -4.142  -8.562  1.00  0.00    -0.394 OA
ATOM     32  H   UNL     1       6.311  -3.649  -7.709  1.00  0.00     0.210 HD
ENDBRANCH  30  31
ENDBRANCH  24  30
BRANCH  25  33
ATOM     33  O   UNL     1       7.194  -5.404  -6.125  1.00  0.00    -0.388 OA
ATOM     34  H   UNL     1       7.078  -5.804  -5.224  1.00  0.00     0.211 HD
ENDBRANCH  25  33
ENDBRANCH  11  20
BRANCH  10  35
ATOM     35  O   UNL     1       9.039  -9.361  -9.836  1.00  0.00    -0.507 OA
ATOM     36  H   UNL     1       8.624  -8.984  -8.993  1.00  0.00     0.293 HD
ENDBRANCH  10  35
TORSDOF 9
ENDMDL
MODEL 3
REMARK VINA RESULT:    -7.111      6.557     11.728
REMARK INTER + INTRA:         -10.448
REMARK INTER:                  -9.477
REMARK INTRA:                  -0.971
REMARK UNBOUND:                -0.843
REMARK SMILES O=c1c(-c2ccc(O)cc2)coc2c([C@H]3O[C@H](CO)[C@H](O)[C@H](O)[C@@H]3O)c(O)ccc12
REMARK SMILES IDX 3 1 11 2 12 3 13 4 30 5 2 6 1 7 29 8 28 9 26 10 14 11 4 12
REMARK SMILES IDX 5 13 6 14 7 15 10 16 9 17 8 18 15 20 24 21 16 22 22 23 17 24
REMARK SMILES IDX 20 25 25 26 23 28 18 30 19 31 21 33 27 35
REMARK H PARENT 8 19 25 27 23 29 19 32 21 34 27 36
REMARK Flexibility Score: inf
ROOT
ATOM      1  C   UNL     1      11.181  -7.138  -9.743  1.00  0.00     0.065 A 
ATOM      2  C   UNL     1      11.784  -5.887  -9.545  1.00  0.00     0.208 A 
ATOM      3  O   UNL     1      12.843  -5.521 -10.256  1.00  0.00    -0.463 OA
ATOM      4  C   UNL     1      13.398  -6.293 -11.187  1.00  0.00     0.147 A 
ATOM      5  C   UNL     1      12.854  -7.572 -11.453  1.00  0.00     0.066 A 
ATOM      6  C   UNL     1      11.725  -7.988 -10.722  1.00  0.00     0.200 A 
ATOM      7  O   UNL     1      11.195  -9.109 -10.957  1.00  0.00    -0.288 OA
ATOM      8  C   UNL     1      13.443  -8.387 -12.431  1.00  0.00     0.020 A 
ATOM      9  C   UNL     1      14.564  -7.945 -13.130  1.00  0.00     0.047 A 
ATOM     10  C   UNL     1      15.115  -6.684 -12.872  1.00  0.00     0.125 A 
ATOM     11  C   UNL     1      14.529  -5.836 -11.905  1.00  0.00     0.069 A 
ENDROOT
BRANCH   1  12
ATOM     12  C   UNL     1      10.001  -7.528  -8.930  1.00  0.00    -0.011 A 
ATOM     13  C   UNL     1       8.701  -7.260  -9.394  1.00  0.00     0.013 A 
ATOM     14  C   UNL     1       7.589  -7.618  -8.628  1.00  0.00     0.047 A 
ATOM     15  C   UNL     1       7.760  -8.243  -7.386  1.00  0.00     0.115 A 
ATOM     16  C   UNL     1      10.165  -8.150  -7.680  1.00  0.00     0.013 A 
ATOM     17  C   UNL     1       9.050  -8.506  -6.916  1.00  0.00     0.047 A 
BRANCH  15  18
ATOM     18  O   UNL     1       6.659  -8.604  -6.615  1.00  0.00    -0.508 OA
ATOM     19  H   UNL     1       6.007  -9.316  -6.923  1.00  0.00     0.293 HD
ENDBRANCH  15  18
ENDBRANCH   1  12
BRANCH  11  20
ATOM     20  C   UNL     1      15.136  -4.471 -11.607  1.00  0.00     0.188 C 
ATOM     21  C   UNL     1      14.891  -3.510 -12.795  1.00  0.00     0.179 C 
ATOM     22  O   UNL     1      16.523  -4.632 -11.355  1.00  0.00    -0.362 OA
ATOM     23  C   UNL     1      15.492  -2.126 -12.499  1.00  0.00     0.177 C 
ATOM     24  C   UNL     1      17.182  -3.417 -11.020  1.00  0.00     0.176 C 
ATOM     25  C   UNL     1      16.961  -2.280 -12.059  1.00  0.00     0.177 C 
BRANCH  21  26
ATOM     26  O   UNL     1      13.525  -3.407 -13.115  1.00  0.00    -0.387 OA
ATOM     27  H   UNL     1      13.444  -2.868 -13.945  1.00  0.00     0.211 HD
ENDBRANCH  21  26
BRANCH  23  28
ATOM     28  O   UNL     1      14.753  -1.454 -11.511  1.00  0.00    -0.387 OA
ATOM     29  H   UNL     1      13.793  -1.562 -11.737  1.00  0.00     0.211 HD
ENDBRANCH  23  28
BRANCH  24  30
ATOM     30  C   UNL     1      17.005  -3.037  -9.532  1.00  0.00     0.191 C 
BRANCH  30  31
ATOM     31  O   UNL     1      17.292  -4.105  -8.673  1.00  0.00    -0.394 OA
ATOM     32  H   UNL     1      16.721  -4.860  -8.971  1.00  0.00     0.210 HD
ENDBRANCH  30  31
ENDBRANCH  24  30
BRANCH  25  33
ATOM     33  O   UNL     1      17.461  -1.063 -11.564  1.00  0.00    -0.388 OA
ATOM     34  H   UNL     1      17.457  -1.131 -10.574  1.00  0.00     0.211 HD
ENDBRANCH  25  33
ENDBRANCH  11  20
BRANCH  10  35
ATOM     35  O   UNL     1      16.247  -6.276 -13.578  1.00  0.00    -0.507 OA
ATOM     36  H   UNL     1      16.895  -5.596 -13.200  1.00  0.00     0.293 HD
ENDBRANCH  10  35
TORSDOF 9
ENDMDL
MODEL 4
REMARK VINA RESULT:    -6.668      6.289     11.312
REMARK INTER + INTRA:          -9.850
REMARK INTER:                  -8.868
REMARK INTRA:                  -0.983
REMARK UNBOUND:                -0.843
REMARK SMILES O=c1c(-c2ccc(O)cc2)coc2c([C@H]3O[C@H](CO)[C@H](O)[C@H](O)[C@@H]3O)c(O)ccc12
REMARK SMILES IDX 3 1 11 2 12 3 13 4 30 5 2 6 1 7 29 8 28 9 26 10 14 11 4 12
REMARK SMILES IDX 5 13 6 14 7 15 10 16 9 17 8 18 15 20 24 21 16 22 22 23 17 24
REMARK SMILES IDX 20 25 25 26 23 28 18 30 19 31 21 33 27 35
REMARK H PARENT 8 19 25 27 23 29 19 32 21 34 27 36
REMARK Flexibility Score: inf
ROOT
ATOM      1  C   UNL     1      11.973  -6.873 -10.534  1.00  0.00     0.065 A 
ATOM      2  C   UNL     1      12.421  -5.700  -9.909  1.00  0.00     0.208 A 
ATOM      3  O   UNL     1      13.551  -5.115 -10.287  1.00  0.00    -0.463 OA
ATOM      4  C   UNL     1      14.324  -5.586 -11.262  1.00  0.00     0.147 A 
ATOM      5  C   UNL     1      13.947  -6.765 -11.948  1.00  0.00     0.066 A 
ATOM      6  C   UNL     1      12.750  -7.406 -11.578  1.00  0.00     0.200 A 
ATOM      7  O   UNL     1      12.368  -8.442 -12.190  1.00  0.00    -0.288 OA
ATOM      8  C   UNL     1      14.766  -7.263 -12.973  1.00  0.00     0.020 A 
ATOM      9  C   UNL     1      15.948  -6.606 -13.308  1.00  0.00     0.047 A 
ATOM     10  C   UNL     1      16.335  -5.442 -12.633  1.00  0.00     0.125 A 
ATOM     11  C   UNL     1      15.518  -4.910 -11.609  1.00  0.00     0.069 A 
ENDROOT
BRANCH   1  12
ATOM     12  C   UNL     1      10.709  -7.512 -10.089  1.00  0.00    -0.011 A 
ATOM     13  C   UNL     1       9.486  -7.156 -10.686  1.00  0.00     0.013 A 
ATOM     14  C   UNL     1       8.294  -7.750 -10.264  1.00  0.00     0.047 A 
ATOM     15  C   UNL     1       8.305  -8.702  -9.237  1.00  0.00     0.115 A 
ATOM     16  C   UNL     1      10.712  -8.464  -9.054  1.00  0.00     0.013 A 
ATOM     17  C   UNL     1       9.516  -9.055  -8.634  1.00  0.00     0.047 A 
BRANCH  15  18
ATOM     18  O   UNL     1       7.124  -9.300  -8.808  1.00  0.00    -0.508 OA
ATOM     19  H   UNL     1       6.218  -8.969  -9.122  1.00  0.00     0.293 HD
ENDBRANCH  15  18
ENDBRANCH   1  12
BRANCH  11  20
ATOM     20  C   UNL     1      15.943  -3.654 -10.859  1.00  0.00     0.188 C 
ATOM     21  C   UNL     1      15.689  -2.402 -11.733  1.00  0.00     0.179 C 
ATOM     22  O   UNL     1      17.314  -3.769 -10.513  1.00  0.00    -0.362 OA
ATOM     23  C   UNL     1      16.106  -1.128 -10.980  1.00  0.00     0.177 C 
ATOM     24  C   UNL     1      17.804  -2.662  -9.766  1.00  0.00     0.176 C 
ATOM     25  C   UNL     1      17.542  -1.286 -10.444  1.00  0.00     0.177 C 
BRANCH  21  26
ATOM     26  O   UNL     1      14.351  -2.319 -12.158  1.00  0.00    -0.387 OA
ATOM     27  H   UNL     1      14.208  -3.007 -12.860  1.00  0.00     0.211 HD
ENDBRANCH  21  26
BRANCH  23  28
ATOM     28  O   UNL     1      15.219  -0.849  -9.926  1.00  0.00    -0.387 OA
ATOM     29  H   UNL     1      14.573  -0.172 -10.257  1.00  0.00     0.211 HD
ENDBRANCH  23  28
BRANCH  24  30
ATOM     30  C   UNL     1      17.466  -2.766  -8.261  1.00  0.00     0.191 C 
BRANCH  30  31
ATOM     31  O   UNL     1      17.851  -3.995  -7.713  1.00  0.00    -0.394 OA
ATOM     32  H   UNL     1      18.448  -4.420  -8.382  1.00  0.00     0.210 HD
ENDBRANCH  30  31
ENDBRANCH  24  30
BRANCH  25  33
ATOM     33  O   UNL     1      17.861  -0.239  -9.562  1.00  0.00    -0.388 OA
ATOM     34  H   UNL     1      18.708   0.164  -9.889  1.00  0.00     0.211 HD
ENDBRANCH  25  33
ENDBRANCH  11  20
BRANCH  10  35
ATOM     35  O   UNL     1      17.532  -4.816 -12.981  1.00  0.00    -0.507 OA
ATOM     36  H   UNL     1      18.231  -5.281 -13.548  1.00  0.00     0.293 HD
ENDBRANCH  10  35
TORSDOF 9
ENDMDL
MODEL 5
REMARK VINA RESULT:    -6.632      2.299      5.219
REMARK INTER + INTRA:          -9.801
REMARK INTER:                  -8.896
REMARK INTRA:                  -0.906
REMARK UNBOUND:                -0.843
REMARK SMILES O=c1c(-c2ccc(O)cc2)coc2c([C@H]3O[C@H](CO)[C@H](O)[C@H](O)[C@@H]3O)c(O)ccc12
REMARK SMILES IDX 3 1 11 2 12 3 13 4 30 5 2 6 1 7 29 8 28 9 26 10 14 11 4 12
REMARK SMILES IDX 5 13 6 14 7 15 10 16 9 17 8 18 15 20 24 21 16 22 22 23 17 24
REMARK SMILES IDX 20 25 25 26 23 28 18 30 19 31 21 33 27 35
REMARK H PARENT 8 19 25 27 23 29 19 32 21 34 27 36
REMARK Flexibility Score: inf
ROOT
ATOM      1  C   UNL     1      19.044  -1.441 -17.786  1.00  0.00     0.065 A 
ATOM      2  C   UNL     1      18.741  -0.866 -16.544  1.00  0.00     0.208 A 
ATOM      3  O   UNL     1      18.207  -1.591 -15.569  1.00  0.00    -0.463 OA
ATOM      4  C   UNL     1      17.925  -2.886 -15.695  1.00  0.00     0.147 A 
ATOM      5  C   UNL     1      18.199  -3.547 -16.915  1.00  0.00     0.066 A 
ATOM      6  C   UNL     1      18.773  -2.809 -17.967  1.00  0.00     0.200 A 
ATOM      7  O   UNL     1      19.060  -3.376 -19.058  1.00  0.00    -0.288 OA
ATOM      8  C   UNL     1      17.897  -4.911 -17.048  1.00  0.00     0.020 A 
ATOM      9  C   UNL     1      17.322  -5.608 -15.988  1.00  0.00     0.047 A 
ATOM     10  C   UNL     1      17.041  -4.964 -14.777  1.00  0.00     0.125 A 
ATOM     11  C   UNL     1      17.353  -3.595 -14.612  1.00  0.00     0.069 A 
ENDROOT
BRANCH   1  12
ATOM     12  C   UNL     1      19.635  -0.608 -18.864  1.00  0.00    -0.011 A 
ATOM     13  C   UNL     1      20.860   0.052 -18.658  1.00  0.00     0.013 A 
ATOM     14  C   UNL     1      21.416   0.844 -19.667  1.00  0.00     0.047 A 
ATOM     15  C   UNL     1      20.752   0.993 -20.891  1.00  0.00     0.115 A 
ATOM     16  C   UNL     1      18.972  -0.448 -20.093  1.00  0.00     0.013 A 
ATOM     17  C   UNL     1      19.530   0.346 -21.100  1.00  0.00     0.047 A 
BRANCH  15  18
ATOM     18  O   UNL     1      21.295   1.779 -21.903  1.00  0.00    -0.508 OA
ATOM     19  H   UNL     1      21.812   1.369 -22.673  1.00  0.00     0.293 HD
ENDBRANCH  15  18
ENDBRANCH   1  12
BRANCH  11  20
ATOM     20  C   UNL     1      17.032  -2.884 -13.303  1.00  0.00     0.188 C 
ATOM     21  C   UNL     1      17.929  -3.432 -12.167  1.00  0.00     0.179 C 
ATOM     22  O   UNL     1      15.657  -3.070 -13.006  1.00  0.00    -0.362 OA
ATOM     23  C   UNL     1      17.620  -2.714 -10.844  1.00  0.00     0.177 C 
ATOM     24  C   UNL     1      15.240  -2.405 -11.820  1.00  0.00     0.176 C 
ATOM     25  C   UNL     1      16.103  -2.753 -10.573  1.00  0.00     0.177 C 
BRANCH  21  26
ATOM     26  O   UNL     1      19.297  -3.336 -12.484  1.00  0.00    -0.387 OA
ATOM     27  H   UNL     1      19.700  -2.646 -11.895  1.00  0.00     0.211 HD
ENDBRANCH  21  26
BRANCH  23  28
ATOM     28  O   UNL     1      18.077  -1.386 -10.870  1.00  0.00    -0.387 OA
ATOM     29  H   UNL     1      18.549  -1.254 -11.733  1.00  0.00     0.211 HD
ENDBRANCH  23  28
BRANCH  24  30
ATOM     30  C   UNL     1      14.937  -0.907 -12.055  1.00  0.00     0.191 C 
BRANCH  30  31
ATOM     31  O   UNL     1      13.897  -0.442 -11.242  1.00  0.00    -0.394 OA
ATOM     32  H   UNL     1      13.931  -0.984 -10.412  1.00  0.00     0.210 HD
ENDBRANCH  30  31
ENDBRANCH  24  30
BRANCH  25  33
ATOM     33  O   UNL     1      15.769  -1.911  -9.498  1.00  0.00    -0.388 OA
ATOM     34  H   UNL     1      15.894  -2.441  -8.668  1.00  0.00     0.211 HD
ENDBRANCH  25  33
ENDBRANCH  11  20
BRANCH  10  35
ATOM     35  O   UNL     1      16.450  -5.686 -13.740  1.00  0.00    -0.507 OA
ATOM     36  H   UNL     1      16.996  -6.055 -12.970  1.00  0.00     0.293 HD
ENDBRANCH  10  35
TORSDOF 9
ENDMDL
MODEL 6
REMARK VINA RESULT:    -6.569      0.971      2.160
REMARK INTER + INTRA:          -9.716
REMARK INTER:                  -9.163
REMARK INTRA:                  -0.553
REMARK UNBOUND:                -0.843
REMARK SMILES O=c1c(-c2ccc(O)cc2)coc2c([C@H]3O[C@H](CO)[C@H](O)[C@H](O)[C@@H]3O)c(O)ccc12
REMARK SMILES IDX 3 1 11 2 12 3 13 4 30 5 2 6 1 7 29 8 28 9 26 10 14 11 4 12
REMARK SMILES IDX 5 13 6 14 7 15 10 16 9 17 8 18 15 20 24 21 16 22 22 23 17 24
REMARK SMILES IDX 20 25 25 26 23 28 18 30 19 31 21 33 27 35
REMARK H PARENT 8 19 25 27 23 29 19 32 21 34 27 36
REMARK Flexibility Score: inf
ROOT
ATOM      1  C   UNL     1      18.839  -1.618 -17.565  1.00  0.00     0.065 A 
ATOM      2  C   UNL     1      18.730  -2.998 -17.781  1.00  0.00     0.208 A 
ATOM      3  O   UNL     1      18.127  -3.782 -16.896  1.00  0.00    -0.463 OA
ATOM      4  C   UNL     1      17.593  -3.327 -15.765  1.00  0.00     0.147 A 
ATOM      5  C   UNL     1      17.656  -1.945 -15.466  1.00  0.00     0.066 A 
ATOM      6  C   UNL     1      18.282  -1.085 -16.388  1.00  0.00     0.200 A 
ATOM      7  O   UNL     1      18.327   0.157 -16.169  1.00  0.00    -0.288 OA
ATOM      8  C   UNL     1      17.097  -1.467 -14.272  1.00  0.00     0.020 A 
ATOM      9  C   UNL     1      16.491  -2.349 -13.379  1.00  0.00     0.047 A 
ATOM     10  C   UNL     1      16.427  -3.719 -13.660  1.00  0.00     0.125 A 
ATOM     11  C   UNL     1      16.967  -4.223 -14.866  1.00  0.00     0.069 A 
ENDROOT
BRANCH   1  12
ATOM     12  C   UNL     1      19.524  -0.762 -18.567  1.00  0.00    -0.011 A 
ATOM     13  C   UNL     1      18.957  -0.567 -19.838  1.00  0.00     0.013 A 
ATOM     14  C   UNL     1      19.603   0.231 -20.787  1.00  0.00     0.047 A 
ATOM     15  C   UNL     1      20.828   0.838 -20.480  1.00  0.00     0.115 A 
ATOM     16  C   UNL     1      20.757  -0.155 -18.269  1.00  0.00     0.013 A 
ATOM     17  C   UNL     1      21.402   0.641 -19.220  1.00  0.00     0.047 A 
BRANCH  15  18
ATOM     18  O   UNL     1      21.481   1.634 -21.417  1.00  0.00    -0.508 OA
ATOM     19  H   UNL     1      21.093   2.519 -21.723  1.00  0.00     0.293 HD
ENDBRANCH  15  18
ENDBRANCH   1  12
BRANCH  11  20
ATOM     20  C   UNL     1      16.917  -5.715 -15.169  1.00  0.00     0.188 C 
ATOM     21  C   UNL     1      18.350  -6.298 -15.201  1.00  0.00     0.179 C 
ATOM     22  O   UNL     1      16.256  -5.909 -16.409  1.00  0.00    -0.362 OA
ATOM     23  C   UNL     1      18.310  -7.806 -15.496  1.00  0.00     0.177 C 
ATOM     24  C   UNL     1      16.116  -7.278 -16.767  1.00  0.00     0.176 C 
ATOM     25  C   UNL     1      17.456  -8.068 -16.752  1.00  0.00     0.177 C 
BRANCH  21  26
ATOM     26  O   UNL     1      19.052  -6.037 -14.009  1.00  0.00    -0.387 OA
ATOM     27  H   UNL     1      20.015  -6.212 -14.175  1.00  0.00     0.211 HD
ENDBRANCH  21  26
BRANCH  23  28
ATOM     28  O   UNL     1      17.801  -8.523 -14.400  1.00  0.00    -0.387 OA
ATOM     29  H   UNL     1      17.350  -9.330 -14.762  1.00  0.00     0.211 HD
ENDBRANCH  23  28
BRANCH  24  30
ATOM     30  C   UNL     1      14.909  -7.952 -16.075  1.00  0.00     0.191 C 
BRANCH  30  31
ATOM     31  O   UNL     1      14.278  -8.890 -16.900  1.00  0.00    -0.394 OA
ATOM     32  H   UNL     1      14.720  -8.819 -17.786  1.00  0.00     0.210 HD
ENDBRANCH  30  31
ENDBRANCH  24  30
BRANCH  25  33
ATOM     33  O   UNL     1      17.214  -9.444 -16.909  1.00  0.00    -0.388 OA
ATOM     34  H   UNL     1      17.870  -9.919 -16.336  1.00  0.00     0.211 HD
ENDBRANCH  25  33
ENDBRANCH  11  20
BRANCH  10  35
ATOM     35  O   UNL     1      15.828  -4.578 -12.739  1.00  0.00    -0.507 OA
ATOM     36  H   UNL     1      16.377  -5.171 -12.128  1.00  0.00     0.293 HD
ENDBRANCH  10  35
TORSDOF 9
ENDMDL
MODEL 7
REMARK VINA RESULT:    -6.387      2.129      4.903
REMARK INTER + INTRA:          -9.470
REMARK INTER:                  -9.244
REMARK INTRA:                  -0.226
REMARK UNBOUND:                -0.843
REMARK SMILES O=c1c(-c2ccc(O)cc2)coc2c([C@H]3O[C@H](CO)[C@H](O)[C@H](O)[C@@H]3O)c(O)ccc12
REMARK SMILES IDX 3 1 11 2 12 3 13 4 30 5 2 6 1 7 29 8 28 9 26 10 14 11 4 12
REMARK SMILES IDX 5 13 6 14 7 15 10 16 9 17 8 18 15 20 24 21 16 22 22 23 17 24
REMARK SMILES IDX 20 25 25 26 23 28 18 30 19 31 21 33 27 35
REMARK H PARENT 8 19 25 27 23 29 19 32 21 34 27 36
REMARK Flexibility Score: inf
ROOT
ATOM      1  C   UNL     1      18.769  -1.926 -17.425  1.00  0.00     0.065 A 
ATOM      2  C   UNL     1      18.409  -1.438 -16.161  1.00  0.00     0.208 A 
ATOM      3  O   UNL     1      17.886  -2.241 -15.243  1.00  0.00    -0.463 OA
ATOM      4  C   UNL     1      17.669  -3.538 -15.449  1.00  0.00     0.147 A 
ATOM      5  C   UNL     1      18.005  -4.116 -16.696  1.00  0.00     0.066 A 
ATOM      6  C   UNL     1      18.569  -3.293 -17.689  1.00  0.00     0.200 A 
ATOM      7  O   UNL     1      18.909  -3.782 -18.802  1.00  0.00    -0.288 OA
ATOM      8  C   UNL     1      17.772  -5.482 -16.913  1.00  0.00     0.020 A 
ATOM      9  C   UNL     1      17.205  -6.265 -15.910  1.00  0.00     0.047 A 
ATOM     10  C   UNL     1      16.864  -5.704 -14.673  1.00  0.00     0.125 A 
ATOM     11  C   UNL     1      17.106  -4.334 -14.423  1.00  0.00     0.069 A 
ENDROOT
BRANCH   1  12
ATOM     12  C   UNL     1      19.346  -1.006 -18.438  1.00  0.00    -0.011 A 
ATOM     13  C   UNL     1      18.663  -0.758 -19.641  1.00  0.00     0.013 A 
ATOM     14  C   UNL     1      19.207   0.100 -20.600  1.00  0.00     0.047 A 
ATOM     15  C   UNL     1      20.444   0.717 -20.373  1.00  0.00     0.115 A 
ATOM     16  C   UNL     1      20.590  -0.389 -18.220  1.00  0.00     0.013 A 
ATOM     17  C   UNL     1      21.133   0.469 -19.182  1.00  0.00     0.047 A 
BRANCH  15  18
ATOM     18  O   UNL     1      20.997   1.573 -21.321  1.00  0.00    -0.508 OA
ATOM     19  H   UNL     1      21.948   1.912 -21.238  1.00  0.00     0.293 HD
ENDBRANCH  15  18
ENDBRANCH   1  12
BRANCH  11  20
ATOM     20  C   UNL     1      16.719  -3.714 -13.086  1.00  0.00     0.188 C 
ATOM     21  C   UNL     1      15.273  -3.167 -13.153  1.00  0.00     0.179 C 
ATOM     22  O   UNL     1      17.644  -2.684 -12.775  1.00  0.00    -0.362 OA
ATOM     23  C   UNL     1      14.870  -2.548 -11.805  1.00  0.00     0.177 C 
ATOM     24  C   UNL     1      17.399  -2.066 -11.518  1.00  0.00     0.176 C 
ATOM     25  C   UNL     1      15.944  -1.539 -11.354  1.00  0.00     0.177 C 
BRANCH  21  26
ATOM     26  O   UNL     1      14.353  -4.156 -13.547  1.00  0.00    -0.387 OA
ATOM     27  H   UNL     1      14.733  -5.041 -13.307  1.00  0.00     0.211 HD
ENDBRANCH  21  26
BRANCH  23  28
ATOM     28  O   UNL     1      14.689  -3.539 -10.826  1.00  0.00    -0.387 OA
ATOM     29  H   UNL     1      15.590  -3.858 -10.561  1.00  0.00     0.211 HD
ENDBRANCH  23  28
BRANCH  24  30
ATOM     30  C   UNL     1      17.978  -2.876 -10.335  1.00  0.00     0.191 C 
BRANCH  30  31
ATOM     31  O   UNL     1      17.043  -3.767  -9.794  1.00  0.00    -0.394 OA
ATOM     32  H   UNL     1      16.702  -3.339  -8.965  1.00  0.00     0.210 HD
ENDBRANCH  30  31
ENDBRANCH  24  30
BRANCH  25  33
ATOM     33  O   UNL     1      15.719  -1.133 -10.027  1.00  0.00    -0.388 OA
ATOM     34  H   UNL     1      15.890  -0.156  -9.992  1.00  0.00     0.211 HD
ENDBRANCH  25  33
ENDBRANCH  11  20
BRANCH  10  35
ATOM     35  O   UNL     1      16.284  -6.511 -13.694  1.00  0.00    -0.507 OA
ATOM     36  H   UNL     1      16.841  -6.977 -12.988  1.00  0.00     0.293 HD
ENDBRANCH  10  35
TORSDOF 9
ENDMDL
MODEL 8
REMARK VINA RESULT:    -6.326      5.514     10.201
REMARK INTER + INTRA:          -9.388
REMARK INTER:                  -8.432
REMARK INTRA:                  -0.956
REMARK UNBOUND:                -0.843
REMARK SMILES O=c1c(-c2ccc(O)cc2)coc2c([C@H]3O[C@H](CO)[C@H](O)[C@H](O)[C@@H]3O)c(O)ccc12
REMARK SMILES IDX 3 1 11 2 12 3 13 4 30 5 2 6 1 7 29 8 28 9 26 10 14 11 4 12
REMARK SMILES IDX 5 13 6 14 7 15 10 16 9 17 8 18 15 20 24 21 16 22 22 23 17 24
REMARK SMILES IDX 20 25 25 26 23 28 18 30 19 31 21 33 27 35
REMARK H PARENT 8 19 25 27 23 29 19 32 21 34 27 36
REMARK Flexibility Score: inf
ROOT
ATOM      1  C   UNL     1      11.720  -7.500 -10.999  1.00  0.00     0.065 A 
ATOM      2  C   UNL     1      12.218  -8.021 -12.201  1.00  0.00     0.208 A 
ATOM      3  O   UNL     1      13.344  -7.558 -12.730  1.00  0.00    -0.463 OA
ATOM      4  C   UNL     1      14.067  -6.590 -12.172  1.00  0.00     0.147 A 
ATOM      5  C   UNL     1      13.639  -6.007 -10.956  1.00  0.00     0.066 A 
ATOM      6  C   UNL     1      12.453  -6.480 -10.364  1.00  0.00     0.200 A 
ATOM      7  O   UNL     1      12.058  -6.005  -9.263  1.00  0.00    -0.288 OA
ATOM      8  C   UNL     1      14.399  -4.983 -10.372  1.00  0.00     0.020 A 
ATOM      9  C   UNL     1      15.564  -4.535 -10.989  1.00  0.00     0.047 A 
ATOM     10  C   UNL     1      15.996  -5.100 -12.196  1.00  0.00     0.125 A 
ATOM     11  C   UNL     1      15.258  -6.145 -12.795  1.00  0.00     0.069 A 
ENDROOT
BRANCH   1  12
ATOM     12  C   UNL     1      10.455  -8.029 -10.430  1.00  0.00    -0.011 A 
ATOM     13  C   UNL     1       9.223  -7.448 -10.780  1.00  0.00     0.013 A 
ATOM     14  C   UNL     1       8.030  -7.938 -10.240  1.00  0.00     0.047 A 
ATOM     15  C   UNL     1       8.053  -9.009  -9.338  1.00  0.00     0.115 A 
ATOM     16  C   UNL     1      10.470  -9.099  -9.519  1.00  0.00     0.013 A 
ATOM     17  C   UNL     1       9.275  -9.586  -8.979  1.00  0.00     0.047 A 
BRANCH  15  18
ATOM     18  O   UNL     1       6.872  -9.505  -8.793  1.00  0.00    -0.508 OA
ATOM     19  H   UNL     1       5.978  -9.066  -8.980  1.00  0.00     0.293 HD
ENDBRANCH  15  18
ENDBRANCH   1  12
BRANCH  11  20
ATOM     20  C   UNL     1      15.712  -6.751 -14.118  1.00  0.00     0.188 C 
ATOM     21  C   UNL     1      16.751  -7.869 -13.860  1.00  0.00     0.179 C 
ATOM     22  O   UNL     1      16.257  -5.722 -14.928  1.00  0.00    -0.362 OA
ATOM     23  C   UNL     1      17.209  -8.493 -15.188  1.00  0.00     0.177 C 
ATOM     24  C   UNL     1      16.674  -6.174 -16.211  1.00  0.00     0.176 C 
ATOM     25  C   UNL     1      17.653  -7.381 -16.160  1.00  0.00     0.177 C 
BRANCH  21  26
ATOM     26  O   UNL     1      16.258  -8.854 -12.986  1.00  0.00    -0.387 OA
ATOM     27  H   UNL     1      15.524  -9.337 -13.449  1.00  0.00     0.211 HD
ENDBRANCH  21  26
BRANCH  23  28
ATOM     28  O   UNL     1      16.186  -9.265 -15.765  1.00  0.00    -0.387 OA
ATOM     29  H   UNL     1      15.323  -8.900 -15.439  1.00  0.00     0.211 HD
ENDBRANCH  23  28
BRANCH  24  30
ATOM     30  C   UNL     1      15.501  -6.277 -17.214  1.00  0.00     0.191 C 
BRANCH  30  31
ATOM     31  O   UNL     1      15.480  -7.508 -17.880  1.00  0.00    -0.394 OA
ATOM     32  H   UNL     1      14.641  -7.959 -17.600  1.00  0.00     0.210 HD
ENDBRANCH  30  31
ENDBRANCH  24  30
BRANCH  25  33
ATOM     33  O   UNL     1      17.856  -7.901 -17.450  1.00  0.00    -0.388 OA
ATOM     34  H   UNL     1      17.013  -7.754 -17.955  1.00  0.00     0.211 HD
ENDBRANCH  25  33
ENDBRANCH  11  20
BRANCH  10  35
ATOM     35  O   UNL     1      17.159  -4.618 -12.798  1.00  0.00    -0.507 OA
ATOM     36  H   UNL     1      18.078  -4.847 -12.440  1.00  0.00     0.293 HD
ENDBRANCH  10  35
TORSDOF 9
ENDMDL
MODEL 9
REMARK VINA RESULT:    -6.056      3.887      7.996
REMARK INTER + INTRA:          -9.023
REMARK INTER:                  -7.863
REMARK INTRA:                  -1.160
REMARK UNBOUND:                -0.843
REMARK SMILES O=c1c(-c2ccc(O)cc2)coc2c([C@H]3O[C@H](CO)[C@H](O)[C@H](O)[C@@H]3O)c(O)ccc12
REMARK SMILES IDX 3 1 11 2 12 3 13 4 30 5 2 6 1 7 29 8 28 9 26 10 14 11 4 12
REMARK SMILES IDX 5 13 6 14 7 15 10 16 9 17 8 18 15 20 24 21 16 22 22 23 17 24
REMARK SMILES IDX 20 25 25 26 23 28 18 30 19 31 21 33 27 35
REMARK H PARENT 8 19 25 27 23 29 19 32 21 34 27 36
REMARK Flexibility Score: inf
ROOT
ATOM      1  C   UNL     1      18.147  -5.552 -14.744  1.00  0.00     0.065 A 
ATOM      2  C   UNL     1      18.423  -5.662 -13.374  1.00  0.00     0.208 A 
ATOM      3  O   UNL     1      18.341  -4.606 -12.575  1.00  0.00    -0.463 OA
ATOM      4  C   UNL     1      18.000  -3.393 -13.003  1.00  0.00     0.147 A 
ATOM      5  C   UNL     1      17.703  -3.191 -14.372  1.00  0.00     0.066 A 
ATOM      6  C   UNL     1      17.772  -4.293 -15.245  1.00  0.00     0.200 A 
ATOM      7  O   UNL     1      17.483  -4.155 -16.466  1.00  0.00    -0.288 OA
ATOM      8  C   UNL     1      17.348  -1.911 -14.823  1.00  0.00     0.020 A 
ATOM      9  C   UNL     1      17.297  -0.842 -13.932  1.00  0.00     0.047 A 
ATOM     10  C   UNL     1      17.594  -1.028 -12.576  1.00  0.00     0.125 A 
ATOM     11  C   UNL     1      17.936  -2.311 -12.093  1.00  0.00     0.069 A 
ENDROOT
BRANCH   1  12
ATOM     12  C   UNL     1      18.251  -6.747 -15.619  1.00  0.00    -0.011 A 
ATOM     13  C   UNL     1      19.480  -7.085 -16.213  1.00  0.00     0.013 A 
ATOM     14  C   UNL     1      19.580  -8.204 -17.045  1.00  0.00     0.047 A 
ATOM     15  C   UNL     1      18.453  -8.996 -17.299  1.00  0.00     0.115 A 
ATOM     16  C   UNL     1      17.123  -7.543 -15.884  1.00  0.00     0.013 A 
ATOM     17  C   UNL     1      17.226  -8.661 -16.717  1.00  0.00     0.047 A 
BRANCH  15  18
ATOM     18  O   UNL     1      18.540 -10.113 -18.125  1.00  0.00    -0.508 OA
ATOM     19  H   UNL     1      18.519 -10.027 -19.135  1.00  0.00     0.293 HD
ENDBRANCH  15  18
ENDBRANCH   1  12
BRANCH  11  20
ATOM     20  C   UNL     1      18.278  -2.516 -10.622  1.00  0.00     0.188 C 
ATOM     21  C   UNL     1      16.986  -2.501  -9.770  1.00  0.00     0.179 C 
ATOM     22  O   UNL     1      19.173  -1.493 -10.214  1.00  0.00    -0.362 OA
ATOM     23  C   UNL     1      17.320  -2.716  -8.285  1.00  0.00     0.177 C 
ATOM     24  C   UNL     1      19.593  -1.616  -8.861  1.00  0.00     0.176 C 
ATOM     25  C   UNL     1      18.416  -1.725  -7.849  1.00  0.00     0.177 C 
BRANCH  21  26
ATOM     26  O   UNL     1      16.050  -3.451 -10.217  1.00  0.00    -0.387 OA
ATOM     27  H   UNL     1      16.498  -4.035 -10.883  1.00  0.00     0.211 HD
ENDBRANCH  21  26
BRANCH  23  28
ATOM     28  O   UNL     1      17.732  -4.038  -8.045  1.00  0.00    -0.387 OA
ATOM     29  H   UNL     1      16.965  -4.516  -7.635  1.00  0.00     0.211 HD
ENDBRANCH  23  28
BRANCH  24  30
ATOM     30  C   UNL     1      20.748  -2.630  -8.689  1.00  0.00     0.191 C 
BRANCH  30  31
ATOM     31  O   UNL     1      21.533  -2.354  -7.563  1.00  0.00    -0.394 OA
ATOM     32  H   UNL     1      21.251  -1.458  -7.243  1.00  0.00     0.210 HD
ENDBRANCH  30  31
ENDBRANCH  24  30
BRANCH  25  33
ATOM     33  O   UNL     1      18.901  -2.051  -6.570  1.00  0.00    -0.388 OA
ATOM     34  H   UNL     1      18.270  -1.654  -5.914  1.00  0.00     0.211 HD
ENDBRANCH  25  33
ENDBRANCH  11  20
BRANCH  10  35
ATOM     35  O   UNL     1      17.549   0.066 -11.711  1.00  0.00    -0.507 OA
ATOM     36  H   UNL     1      16.681   0.546 -11.503  1.00  0.00     0.293 HD
ENDBRANCH  10  35
TORSDOF 9
ENDMDL
