MODEL 1
REMARK VINA RESULT:    -4.196      0.000      0.000
REMARK INTER + INTRA:         -10.030
REMARK INTER:                  -8.120
REMARK INTRA:                  -1.910
REMARK UNBOUND:                -1.910
REMARK SMILES CCCCCCCCCCCCCCCCCC(=O)[O-]
REMARK SMILES IDX 10 1 11 2 12 3 13 4 14 5 15 6 16 7 17 8 18 9 19 10 20 11
REMARK SMILES IDX 9 12 8 13 7 14 6 15 5 16 4 17 3 18 2 19 1 20
REMARK H PARENT
REMARK Flexibility Score: inf
ROOT
ATOM      1  C   UNL     1       2.667 125.629 110.761  1.00  0.00     0.000 C 
ENDROOT
BRANCH   1   2
ATOM      2  C   UNL     1       3.125 126.937 110.091  1.00  0.00     0.000 C 
BRANCH   2   3
ATOM      3  C   UNL     1       2.269 128.143 110.510  1.00  0.00     0.000 C 
BRANCH   3   4
ATOM      4  C   UNL     1       3.026 129.110 111.438  1.00  0.00     0.000 C 
BRANCH   4   5
ATOM      5  C   UNL     1       3.431 128.440 112.769  1.00  0.00     0.000 C 
BRANCH   5   6
ATOM      6  C   UNL     1       4.865 128.772 113.214  1.00  0.00     0.000 C 
BRANCH   6   7
ATOM      7  C   UNL     1       5.139 130.284 113.270  1.00  0.00     0.006 C 
BRANCH   7   8
ATOM      8  C   UNL     1       5.593 130.741 114.663  1.00  0.00     0.053 C 
BRANCH   8   9
ATOM      9  C   UNL     1       7.079 130.913 114.734  1.00  0.00     0.041 C 
ATOM     10  O   UNL     1       7.792 130.692 113.719  1.00  0.00    -0.550 OA
ATOM     11  O   UNL     1       7.675 131.343 115.913  1.00  0.00    -0.550 OA
ENDBRANCH   8   9
ENDBRANCH   7   8
ENDBRANCH   6   7
ENDBRANCH   5   6
ENDBRANCH   4   5
ENDBRANCH   3   4
ENDBRANCH   2   3
ENDBRANCH   1   2
BRANCH   1  12
ATOM     12  C   UNL     1       3.810 124.612 110.933  1.00  0.00     0.000 C 
BRANCH  12  13
ATOM     13  C   UNL     1       4.093 124.191 112.387  1.00  0.00    -0.000 C 
BRANCH  13  14
ATOM     14  C   UNL     1       5.123 125.098 113.083  1.00  0.00    -0.000 C 
BRANCH  14  15
ATOM     15  C   UNL     1       6.293 125.477 112.160  1.00  0.00    -0.000 C 
BRANCH  15  16
ATOM     16  C   UNL     1       7.463 124.486 112.246  1.00  0.00    -0.000 C 
BRANCH  16  17
ATOM     17  C   UNL     1       8.299 124.511 110.961  1.00  0.00    -0.000 C 
BRANCH  17  18
ATOM     18  C   UNL     1       7.428 124.212 109.731  1.00  0.00    -0.000 C 
BRANCH  18  19
ATOM     19  C   UNL     1       7.697 125.178 108.567  1.00  0.00    -0.003 C 
ATOM     20  C   UNL     1       6.462 125.419 107.701  1.00  0.00     0.004 C 
ENDBRANCH  18  19
ENDBRANCH  17  18
ENDBRANCH  16  17
ENDBRANCH  15  16
ENDBRANCH  14  15
ENDBRANCH  13  14
ENDBRANCH  12  13
ENDBRANCH   1  12
TORSDOF 16
ENDMDL
MODEL 2
REMARK VINA RESULT:    -4.162      1.270      2.043
REMARK INTER + INTRA:          -9.966
REMARK INTER:                  -7.863
REMARK INTRA:                  -2.103
REMARK UNBOUND:                -1.910
REMARK SMILES CCCCCCCCCCCCCCCCCC(=O)[O-]
REMARK SMILES IDX 10 1 11 2 12 3 13 4 14 5 15 6 16 7 17 8 18 9 19 10 20 11
REMARK SMILES IDX 9 12 8 13 7 14 6 15 5 16 4 17 3 18 2 19 1 20
REMARK H PARENT
REMARK Flexibility Score: inf
ROOT
ATOM      1  C   UNL     1       1.145 126.811 112.513  1.00  0.00     0.000 C 
ENDROOT
BRANCH   1   2
ATOM      2  C   UNL     1       0.896 127.830 111.386  1.00  0.00     0.000 C 
BRANCH   2   3
ATOM      3  C   UNL     1       1.467 129.219 111.712  1.00  0.00     0.000 C 
BRANCH   3   4
ATOM      4  C   UNL     1       2.952 129.352 111.331  1.00  0.00     0.000 C 
BRANCH   4   5
ATOM      5  C   UNL     1       3.839 129.672 112.552  1.00  0.00     0.000 C 
BRANCH   5   6
ATOM      6  C   UNL     1       4.435 128.423 113.224  1.00  0.00     0.000 C 
BRANCH   6   7
ATOM      7  C   UNL     1       5.130 128.735 114.559  1.00  0.00     0.006 C 
BRANCH   7   8
ATOM      8  C   UNL     1       6.139 129.885 114.433  1.00  0.00     0.053 C 
BRANCH   8   9
ATOM      9  C   UNL     1       6.403 130.540 115.754  1.00  0.00     0.041 C 
ATOM     10  O   UNL     1       5.659 130.297 116.741  1.00  0.00    -0.550 OA
ATOM     11  O   UNL     1       7.485 131.398 115.902  1.00  0.00    -0.550 OA
ENDBRANCH   8   9
ENDBRANCH   7   8
ENDBRANCH   6   7
ENDBRANCH   5   6
ENDBRANCH   4   5
ENDBRANCH   3   4
ENDBRANCH   2   3
ENDBRANCH   1   2
BRANCH   1  12
ATOM     12  C   UNL     1       2.075 125.660 112.087  1.00  0.00     0.000 C 
BRANCH  12  13
ATOM     13  C   UNL     1       2.588 125.741 110.637  1.00  0.00    -0.000 C 
BRANCH  13  14
ATOM     14  C   UNL     1       4.067 125.338 110.502  1.00  0.00    -0.000 C 
BRANCH  14  15
ATOM     15  C   UNL     1       4.457 124.203 111.464  1.00  0.00    -0.000 C 
BRANCH  15  16
ATOM     16  C   UNL     1       5.865 124.381 112.051  1.00  0.00    -0.000 C 
BRANCH  16  17
ATOM     17  C   UNL     1       6.426 125.770 111.722  1.00  0.00    -0.000 C 
BRANCH  17  18
ATOM     18  C   UNL     1       7.735 125.661 110.926  1.00  0.00    -0.000 C 
BRANCH  18  19
ATOM     19  C   UNL     1       7.770 124.427 110.012  1.00  0.00    -0.003 C 
ATOM     20  C   UNL     1       7.464 124.763 108.553  1.00  0.00     0.004 C 
ENDBRANCH  18  19
ENDBRANCH  17  18
ENDBRANCH  16  17
ENDBRANCH  15  16
ENDBRANCH  14  15
ENDBRANCH  13  14
ENDBRANCH  12  13
ENDBRANCH   1  12
TORSDOF 16
ENDMDL
MODEL 3
REMARK VINA RESULT:    -4.068      1.791      3.631
REMARK INTER + INTRA:          -9.784
REMARK INTER:                  -7.230
REMARK INTRA:                  -2.554
REMARK UNBOUND:                -1.910
REMARK SMILES CCCCCCCCCCCCCCCCCC(=O)[O-]
REMARK SMILES IDX 10 1 11 2 12 3 13 4 14 5 15 6 16 7 17 8 18 9 19 10 20 11
REMARK SMILES IDX 9 12 8 13 7 14 6 15 5 16 4 17 3 18 2 19 1 20
REMARK H PARENT
REMARK Flexibility Score: inf
ROOT
ATOM      1  C   UNL     1       2.966 125.104 110.618  1.00  0.00     0.000 C 
ENDROOT
BRANCH   1   2
ATOM      2  C   UNL     1       2.167 126.362 111.006  1.00  0.00     0.000 C 
BRANCH   2   3
ATOM      3  C   UNL     1       2.988 127.651 110.846  1.00  0.00     0.000 C 
BRANCH   3   4
ATOM      4  C   UNL     1       2.558 128.751 111.834  1.00  0.00     0.000 C 
BRANCH   4   5
ATOM      5  C   UNL     1       3.766 129.531 112.395  1.00  0.00     0.000 C 
BRANCH   5   6
ATOM      6  C   UNL     1       3.442 130.335 113.666  1.00  0.00     0.000 C 
BRANCH   6   7
ATOM      7  C   UNL     1       4.686 130.978 114.301  1.00  0.00     0.006 C 
BRANCH   7   8
ATOM      8  C   UNL     1       5.825 129.968 114.498  1.00  0.00     0.053 C 
BRANCH   8   9
ATOM      9  C   UNL     1       7.161 130.642 114.556  1.00  0.00     0.041 C 
ATOM     10  O   UNL     1       7.572 131.142 115.637  1.00  0.00    -0.550 OA
ATOM     11  O   UNL     1       7.964 130.695 113.424  1.00  0.00    -0.550 OA
ENDBRANCH   8   9
ENDBRANCH   7   8
ENDBRANCH   6   7
ENDBRANCH   5   6
ENDBRANCH   4   5
ENDBRANCH   3   4
ENDBRANCH   2   3
ENDBRANCH   1   2
BRANCH   1  12
ATOM     12  C   UNL     1       4.471 125.379 110.444  1.00  0.00     0.000 C 
BRANCH  12  13
ATOM     13  C   UNL     1       5.376 124.755 111.521  1.00  0.00    -0.000 C 
BRANCH  13  14
ATOM     14  C   UNL     1       5.055 123.274 111.789  1.00  0.00    -0.000 C 
BRANCH  14  15
ATOM     15  C   UNL     1       4.899 122.967 113.288  1.00  0.00    -0.000 C 
BRANCH  15  16
ATOM     16  C   UNL     1       3.505 122.431 113.643  1.00  0.00    -0.000 C 
BRANCH  16  17
ATOM     17  C   UNL     1       2.488 123.575 113.750  1.00  0.00    -0.000 C 
BRANCH  17  18
ATOM     18  C   UNL     1       2.845 124.523 114.905  1.00  0.00    -0.000 C 
BRANCH  18  19
ATOM     19  C   UNL     1       2.964 125.986 114.452  1.00  0.00    -0.003 C 
ATOM     20  C   UNL     1       4.394 126.517 114.536  1.00  0.00     0.004 C 
ENDBRANCH  18  19
ENDBRANCH  17  18
ENDBRANCH  16  17
ENDBRANCH  15  16
ENDBRANCH  14  15
ENDBRANCH  13  14
ENDBRANCH  12  13
ENDBRANCH   1  12
TORSDOF 16
ENDMDL
MODEL 4
REMARK VINA RESULT:    -4.054      2.166      3.468
REMARK INTER + INTRA:          -9.757
REMARK INTER:                  -7.269
REMARK INTRA:                  -2.488
REMARK UNBOUND:                -1.910
REMARK SMILES CCCCCCCCCCCCCCCCCC(=O)[O-]
REMARK SMILES IDX 10 1 11 2 12 3 13 4 14 5 15 6 16 7 17 8 18 9 19 10 20 11
REMARK SMILES IDX 9 12 8 13 7 14 6 15 5 16 4 17 3 18 2 19 1 20
REMARK H PARENT
REMARK Flexibility Score: inf
ROOT
ATOM      1  C   UNL     1       2.550 128.983 110.668  1.00  0.00     0.000 C 
ENDROOT
BRANCH   1   2
ATOM      2  C   UNL     1       1.848 128.979 112.038  1.00  0.00     0.000 C 
BRANCH   2   3
ATOM      3  C   UNL     1       2.739 129.540 113.157  1.00  0.00     0.000 C 
BRANCH   3   4
ATOM      4  C   UNL     1       4.238 129.434 112.827  1.00  0.00     0.000 C 
BRANCH   4   5
ATOM      5  C   UNL     1       4.824 128.062 113.223  1.00  0.00     0.000 C 
BRANCH   5   6
ATOM      6  C   UNL     1       4.004 127.330 114.299  1.00  0.00     0.000 C 
BRANCH   6   7
ATOM      7  C   UNL     1       4.130 125.800 114.211  1.00  0.00     0.006 C 
BRANCH   7   8
ATOM      8  C   UNL     1       4.890 125.210 115.406  1.00  0.00     0.053 C 
BRANCH   8   9
ATOM      9  C   UNL     1       6.369 125.404 115.275  1.00  0.00     0.041 C 
ATOM     10  O   UNL     1       7.053 124.612 114.574  1.00  0.00    -0.550 OA
ATOM     11  O   UNL     1       6.989 126.476 115.906  1.00  0.00    -0.550 OA
ENDBRANCH   8   9
ENDBRANCH   7   8
ENDBRANCH   6   7
ENDBRANCH   5   6
ENDBRANCH   4   5
ENDBRANCH   3   4
ENDBRANCH   2   3
ENDBRANCH   1   2
BRANCH   1  12
ATOM     12  C   UNL     1       2.545 127.601 109.988  1.00  0.00     0.000 C 
BRANCH  12  13
ATOM     13  C   UNL     1       2.150 126.427 110.903  1.00  0.00    -0.000 C 
BRANCH  13  14
ATOM     14  C   UNL     1       3.069 125.203 110.736  1.00  0.00    -0.000 C 
BRANCH  14  15
ATOM     15  C   UNL     1       4.494 125.591 110.311  1.00  0.00    -0.000 C 
BRANCH  15  16
ATOM     16  C   UNL     1       5.575 124.835 111.098  1.00  0.00    -0.000 C 
BRANCH  16  17
ATOM     17  C   UNL     1       6.829 125.700 111.275  1.00  0.00    -0.000 C 
BRANCH  17  18
ATOM     18  C   UNL     1       8.045 125.054 110.594  1.00  0.00    -0.000 C 
BRANCH  18  19
ATOM     19  C   UNL     1       7.646 124.082 109.472  1.00  0.00    -0.003 C 
ATOM     20  C   UNL     1       7.704 124.722 108.087  1.00  0.00     0.004 C 
ENDBRANCH  18  19
ENDBRANCH  17  18
ENDBRANCH  16  17
ENDBRANCH  15  16
ENDBRANCH  14  15
ENDBRANCH  13  14
ENDBRANCH  12  13
ENDBRANCH   1  12
TORSDOF 16
ENDMDL
MODEL 5
REMARK VINA RESULT:    -4.037      1.583      3.810
REMARK INTER + INTRA:          -9.722
REMARK INTER:                  -6.987
REMARK INTRA:                  -2.735
REMARK UNBOUND:                -1.910
REMARK SMILES CCCCCCCCCCCCCCCCCC(=O)[O-]
REMARK SMILES IDX 10 1 11 2 12 3 13 4 14 5 15 6 16 7 17 8 18 9 19 10 20 11
REMARK SMILES IDX 9 12 8 13 7 14 6 15 5 16 4 17 3 18 2 19 1 20
REMARK H PARENT
REMARK Flexibility Score: inf
ROOT
ATOM      1  C   UNL     1       0.748 128.011 113.936  1.00  0.00     0.000 C 
ENDROOT
BRANCH   1   2
ATOM      2  C   UNL     1       1.281 126.705 114.555  1.00  0.00     0.000 C 
BRANCH   2   3
ATOM      3  C   UNL     1       2.702 126.859 115.119  1.00  0.00     0.000 C 
BRANCH   3   4
ATOM      4  C   UNL     1       3.780 126.329 114.156  1.00  0.00     0.000 C 
BRANCH   4   5
ATOM      5  C   UNL     1       4.625 127.469 113.548  1.00  0.00     0.000 C 
BRANCH   5   6
ATOM      6  C   UNL     1       4.313 128.852 114.144  1.00  0.00     0.000 C 
BRANCH   6   7
ATOM      7  C   UNL     1       5.076 129.990 113.447  1.00  0.00     0.006 C 
BRANCH   7   8
ATOM      8  C   UNL     1       5.729 130.951 114.451  1.00  0.00     0.053 C 
BRANCH   8   9
ATOM      9  C   UNL     1       7.222 130.835 114.439  1.00  0.00     0.041 C 
ATOM     10  O   UNL     1       7.877 130.960 115.508  1.00  0.00    -0.550 OA
ATOM     11  O   UNL     1       7.890 130.562 113.252  1.00  0.00    -0.550 OA
ENDBRANCH   8   9
ENDBRANCH   7   8
ENDBRANCH   6   7
ENDBRANCH   5   6
ENDBRANCH   4   5
ENDBRANCH   3   4
ENDBRANCH   2   3
ENDBRANCH   1   2
BRANCH   1  12
ATOM     12  C   UNL     1       0.779 128.001 112.397  1.00  0.00     0.000 C 
BRANCH  12  13
ATOM     13  C   UNL     1       1.634 129.110 111.756  1.00  0.00    -0.000 C 
BRANCH  13  14
ATOM     14  C   UNL     1       2.521 128.596 110.608  1.00  0.00    -0.000 C 
BRANCH  14  15
ATOM     15  C   UNL     1       2.229 127.128 110.252  1.00  0.00    -0.000 C 
BRANCH  15  16
ATOM     16  C   UNL     1       3.488 126.248 110.285  1.00  0.00    -0.000 C 
BRANCH  16  17
ATOM     17  C   UNL     1       3.153 124.830 110.762  1.00  0.00    -0.000 C 
BRANCH  17  18
ATOM     18  C   UNL     1       4.370 124.172 111.430  1.00  0.00    -0.000 C 
BRANCH  18  19
ATOM     19  C   UNL     1       5.696 124.829 111.020  1.00  0.00    -0.003 C 
ATOM     20  C   UNL     1       6.762 124.741 112.111  1.00  0.00     0.004 C 
ENDBRANCH  18  19
ENDBRANCH  17  18
ENDBRANCH  16  17
ENDBRANCH  15  16
ENDBRANCH  14  15
ENDBRANCH  13  14
ENDBRANCH  12  13
ENDBRANCH   1  12
TORSDOF 16
ENDMDL
MODEL 6
REMARK VINA RESULT:    -3.963      3.138      6.116
REMARK INTER + INTRA:          -9.580
REMARK INTER:                  -7.018
REMARK INTRA:                  -2.562
REMARK UNBOUND:                -1.910
REMARK SMILES CCCCCCCCCCCCCCCCCC(=O)[O-]
REMARK SMILES IDX 10 1 11 2 12 3 13 4 14 5 15 6 16 7 17 8 18 9 19 10 20 11
REMARK SMILES IDX 9 12 8 13 7 14 6 15 5 16 4 17 3 18 2 19 1 20
REMARK H PARENT
REMARK Flexibility Score: inf
ROOT
ATOM      1  C   UNL     1       2.672 125.296 110.814  1.00  0.00     0.000 C 
ENDROOT
BRANCH   1   2
ATOM      2  C   UNL     1       2.033 125.233 112.213  1.00  0.00     0.000 C 
BRANCH   2   3
ATOM      3  C   UNL     1       2.918 124.495 113.230  1.00  0.00     0.000 C 
BRANCH   3   4
ATOM      4  C   UNL     1       4.209 123.943 112.600  1.00  0.00     0.000 C 
BRANCH   4   5
ATOM      5  C   UNL     1       5.415 124.053 113.557  1.00  0.00     0.000 C 
BRANCH   5   6
ATOM      6  C   UNL     1       6.321 125.262 113.270  1.00  0.00     0.000 C 
BRANCH   6   7
ATOM      7  C   UNL     1       6.330 125.664 111.786  1.00  0.00     0.006 C 
BRANCH   7   8
ATOM      8  C   UNL     1       7.657 125.314 111.098  1.00  0.00     0.053 C 
BRANCH   8   9
ATOM      9  C   UNL     1       7.515 124.136 110.184  1.00  0.00     0.041 C 
ATOM     10  O   UNL     1       7.176 123.014 110.644  1.00  0.00    -0.550 OA
ATOM     11  O   UNL     1       7.731 124.284 108.820  1.00  0.00    -0.550 OA
ENDBRANCH   8   9
ENDBRANCH   7   8
ENDBRANCH   6   7
ENDBRANCH   5   6
ENDBRANCH   4   5
ENDBRANCH   3   4
ENDBRANCH   2   3
ENDBRANCH   1   2
BRANCH   1  12
ATOM     12  C   UNL     1       2.832 126.736 110.292  1.00  0.00     0.000 C 
BRANCH  12  13
ATOM     13  C   UNL     1       1.530 127.557 110.237  1.00  0.00    -0.000 C 
BRANCH  13  14
ATOM     14  C   UNL     1       1.587 128.829 111.103  1.00  0.00    -0.000 C 
BRANCH  14  15
ATOM     15  C   UNL     1       3.022 129.349 111.289  1.00  0.00    -0.000 C 
BRANCH  15  16
ATOM     16  C   UNL     1       3.415 129.488 112.767  1.00  0.00    -0.000 C 
BRANCH  16  17
ATOM     17  C   UNL     1       4.632 128.615 113.095  1.00  0.00    -0.000 C 
BRANCH  17  18
ATOM     18  C   UNL     1       5.293 129.060 114.409  1.00  0.00    -0.000 C 
BRANCH  18  19
ATOM     19  C   UNL     1       5.271 127.962 115.483  1.00  0.00    -0.003 C 
ATOM     20  C   UNL     1       3.955 127.187 115.511  1.00  0.00     0.004 C 
ENDBRANCH  18  19
ENDBRANCH  17  18
ENDBRANCH  16  17
ENDBRANCH  15  16
ENDBRANCH  14  15
ENDBRANCH  13  14
ENDBRANCH  12  13
ENDBRANCH   1  12
TORSDOF 16
ENDMDL
MODEL 7
REMARK VINA RESULT:    -3.961      3.011      6.513
REMARK INTER + INTRA:          -9.576
REMARK INTER:                  -6.481
REMARK INTRA:                  -3.095
REMARK UNBOUND:                -1.910
REMARK SMILES CCCCCCCCCCCCCCCCCC(=O)[O-]
REMARK SMILES IDX 10 1 11 2 12 3 13 4 14 5 15 6 16 7 17 8 18 9 19 10 20 11
REMARK SMILES IDX 9 12 8 13 7 14 6 15 5 16 4 17 3 18 2 19 1 20
REMARK H PARENT
REMARK Flexibility Score: inf
ROOT
ATOM      1  C   UNL     1       2.979 125.602 115.149  1.00  0.00     0.000 C 
ENDROOT
BRANCH   1   2
ATOM      2  C   UNL     1       1.544 125.470 114.608  1.00  0.00     0.000 C 
BRANCH   2   3
ATOM      3  C   UNL     1       1.462 125.716 113.093  1.00  0.00     0.000 C 
BRANCH   3   4
ATOM      4  C   UNL     1       2.183 124.627 112.279  1.00  0.00     0.000 C 
BRANCH   4   5
ATOM      5  C   UNL     1       2.813 125.190 110.987  1.00  0.00     0.000 C 
BRANCH   5   6
ATOM      6  C   UNL     1       4.305 124.847 110.830  1.00  0.00     0.000 C 
BRANCH   6   7
ATOM      7  C   UNL     1       4.826 123.920 111.940  1.00  0.00     0.006 C 
BRANCH   7   8
ATOM      8  C   UNL     1       6.145 123.237 111.553  1.00  0.00     0.053 C 
BRANCH   8   9
ATOM      9  C   UNL     1       7.320 123.877 112.225  1.00  0.00     0.041 C 
ATOM     10  O   UNL     1       7.431 125.132 112.249  1.00  0.00    -0.550 OA
ATOM     11  O   UNL     1       8.280 123.090 112.849  1.00  0.00    -0.550 OA
ENDBRANCH   8   9
ENDBRANCH   7   8
ENDBRANCH   6   7
ENDBRANCH   5   6
ENDBRANCH   4   5
ENDBRANCH   3   4
ENDBRANCH   2   3
ENDBRANCH   1   2
BRANCH   1  12
ATOM     12  C   UNL     1       3.635 126.948 114.787  1.00  0.00     0.000 C 
BRANCH  12  13
ATOM     13  C   UNL     1       4.995 126.838 114.073  1.00  0.00    -0.000 C 
BRANCH  13  14
ATOM     14  C   UNL     1       5.136 127.824 112.900  1.00  0.00    -0.000 C 
BRANCH  14  15
ATOM     15  C   UNL     1       3.806 128.507 112.542  1.00  0.00    -0.000 C 
BRANCH  15  16
ATOM     16  C   UNL     1       3.792 130.002 112.896  1.00  0.00    -0.000 C 
BRANCH  16  17
ATOM     17  C   UNL     1       2.468 130.396 113.561  1.00  0.00    -0.000 C 
BRANCH  17  18
ATOM     18  C   UNL     1       1.321 129.491 113.085  1.00  0.00    -0.000 C 
BRANCH  18  19
ATOM     19  C   UNL     1       0.427 129.013 114.239  1.00  0.00    -0.003 C 
ATOM     20  C   UNL     1       0.988 129.379 115.612  1.00  0.00     0.004 C 
ENDBRANCH  18  19
ENDBRANCH  17  18
ENDBRANCH  16  17
ENDBRANCH  15  16
ENDBRANCH  14  15
ENDBRANCH  13  14
ENDBRANCH  12  13
ENDBRANCH   1  12
TORSDOF 16
ENDMDL
MODEL 8
REMARK VINA RESULT:    -3.952      1.409      2.063
REMARK INTER + INTRA:          -9.559
REMARK INTER:                  -7.321
REMARK INTRA:                  -2.238
REMARK UNBOUND:                -1.910
REMARK SMILES CCCCCCCCCCCCCCCCCC(=O)[O-]
REMARK SMILES IDX 10 1 11 2 12 3 13 4 14 5 15 6 16 7 17 8 18 9 19 10 20 11
REMARK SMILES IDX 9 12 8 13 7 14 6 15 5 16 4 17 3 18 2 19 1 20
REMARK H PARENT
REMARK Flexibility Score: inf
ROOT
ATOM      1  C   UNL     1       1.542 124.200 112.866  1.00  0.00     0.000 C 
ENDROOT
BRANCH   1   2
ATOM      2  C   UNL     1       1.937 125.688 112.876  1.00  0.00     0.000 C 
BRANCH   2   3
ATOM      3  C   UNL     1       2.675 126.109 111.595  1.00  0.00     0.000 C 
BRANCH   3   4
ATOM      4  C   UNL     1       3.554 127.355 111.802  1.00  0.00     0.000 C 
BRANCH   4   5
ATOM      5  C   UNL     1       4.094 127.451 113.245  1.00  0.00     0.000 C 
BRANCH   5   6
ATOM      6  C   UNL     1       5.368 128.304 113.369  1.00  0.00     0.000 C 
BRANCH   6   7
ATOM      7  C   UNL     1       5.098 129.809 113.207  1.00  0.00     0.006 C 
BRANCH   7   8
ATOM      8  C   UNL     1       5.633 130.626 114.391  1.00  0.00     0.053 C 
BRANCH   8   9
ATOM      9  C   UNL     1       7.128 130.710 114.378  1.00  0.00     0.041 C 
ATOM     10  O   UNL     1       7.765 130.853 115.455  1.00  0.00    -0.550 OA
ATOM     11  O   UNL     1       7.821 130.603 113.178  1.00  0.00    -0.550 OA
ENDBRANCH   8   9
ENDBRANCH   7   8
ENDBRANCH   6   7
ENDBRANCH   5   6
ENDBRANCH   4   5
ENDBRANCH   3   4
ENDBRANCH   2   3
ENDBRANCH   1   2
BRANCH   1  12
ATOM     12  C   UNL     1       2.440 123.336 113.771  1.00  0.00     0.000 C 
BRANCH  12  13
ATOM     13  C   UNL     1       3.590 124.093 114.461  1.00  0.00    -0.000 C 
BRANCH  13  14
ATOM     14  C   UNL     1       4.971 123.742 113.881  1.00  0.00    -0.000 C 
BRANCH  14  15
ATOM     15  C   UNL     1       4.873 122.942 112.571  1.00  0.00    -0.000 C 
BRANCH  15  16
ATOM     16  C   UNL     1       5.548 123.653 111.389  1.00  0.00    -0.000 C 
BRANCH  16  17
ATOM     17  C   UNL     1       6.351 124.870 111.867  1.00  0.00    -0.000 C 
BRANCH  17  18
ATOM     18  C   UNL     1       7.456 125.229 110.863  1.00  0.00    -0.000 C 
BRANCH  18  19
ATOM     19  C   UNL     1       6.947 125.274 109.414  1.00  0.00    -0.003 C 
ATOM     20  C   UNL     1       7.859 124.525 108.444  1.00  0.00     0.004 C 
ENDBRANCH  18  19
ENDBRANCH  17  18
ENDBRANCH  16  17
ENDBRANCH  15  16
ENDBRANCH  14  15
ENDBRANCH  13  14
ENDBRANCH  12  13
ENDBRANCH   1  12
TORSDOF 16
ENDMDL
MODEL 9
REMARK VINA RESULT:    -3.917      2.544      3.143
REMARK INTER + INTRA:          -9.491
REMARK INTER:                  -6.890
REMARK INTRA:                  -2.601
REMARK UNBOUND:                -1.910
REMARK SMILES CCCCCCCCCCCCCCCCCC(=O)[O-]
REMARK SMILES IDX 10 1 11 2 12 3 13 4 14 5 15 6 16 7 17 8 18 9 19 10 20 11
REMARK SMILES IDX 9 12 8 13 7 14 6 15 5 16 4 17 3 18 2 19 1 20
REMARK H PARENT
REMARK Flexibility Score: inf
ROOT
ATOM      1  C   UNL     1       1.152 126.741 112.425  1.00  0.00     0.000 C 
ENDROOT
BRANCH   1   2
ATOM      2  C   UNL     1       0.903 127.668 111.221  1.00  0.00     0.000 C 
BRANCH   2   3
ATOM      3  C   UNL     1       1.382 129.106 111.478  1.00  0.00     0.000 C 
BRANCH   3   4
ATOM      4  C   UNL     1       2.874 129.298 111.153  1.00  0.00     0.000 C 
BRANCH   4   5
ATOM      5  C   UNL     1       3.722 129.514 112.425  1.00  0.00     0.000 C 
BRANCH   5   6
ATOM      6  C   UNL     1       4.537 128.277 112.839  1.00  0.00     0.000 C 
BRANCH   6   7
ATOM      7  C   UNL     1       4.344 127.901 114.317  1.00  0.00     0.006 C 
BRANCH   7   8
ATOM      8  C   UNL     1       3.317 128.801 115.016  1.00  0.00     0.053 C 
BRANCH   8   9
ATOM      9  C   UNL     1       2.612 128.082 116.125  1.00  0.00     0.041 C 
ATOM     10  O   UNL     1       2.739 128.473 117.316  1.00  0.00    -0.550 OA
ATOM     11  O   UNL     1       1.795 126.996 115.841  1.00  0.00    -0.550 OA
ENDBRANCH   8   9
ENDBRANCH   7   8
ENDBRANCH   6   7
ENDBRANCH   5   6
ENDBRANCH   4   5
ENDBRANCH   3   4
ENDBRANCH   2   3
ENDBRANCH   1   2
BRANCH   1  12
ATOM     12  C   UNL     1       2.088 125.565 112.092  1.00  0.00     0.000 C 
BRANCH  12  13
ATOM     13  C   UNL     1       2.644 125.562 110.656  1.00  0.00    -0.000 C 
BRANCH  13  14
ATOM     14  C   UNL     1       4.170 125.369 110.605  1.00  0.00    -0.000 C 
BRANCH  14  15
ATOM     15  C   UNL     1       4.639 124.161 111.433  1.00  0.00    -0.000 C 
BRANCH  15  16
ATOM     16  C   UNL     1       6.133 124.224 111.781  1.00  0.00    -0.000 C 
BRANCH  16  17
ATOM     17  C   UNL     1       6.693 125.632 111.546  1.00  0.00    -0.000 C 
BRANCH  17  18
ATOM     18  C   UNL     1       7.893 125.596 110.587  1.00  0.00    -0.000 C 
BRANCH  18  19
ATOM     19  C   UNL     1       7.818 124.428 109.592  1.00  0.00    -0.003 C 
ATOM     20  C   UNL     1       7.480 124.880 108.173  1.00  0.00     0.004 C 
ENDBRANCH  18  19
ENDBRANCH  17  18
ENDBRANCH  16  17
ENDBRANCH  15  16
ENDBRANCH  14  15
ENDBRANCH  13  14
ENDBRANCH  12  13
ENDBRANCH   1  12
TORSDOF 16
ENDMDL
