MODEL 1
REMARK VINA RESULT:    -5.223      0.000      0.000
REMARK INTER + INTRA:          -8.685
REMARK INTER:                  -8.124
REMARK INTRA:                  -0.561
REMARK UNBOUND:                -0.561
REMARK SMILES COc1cc(CNC(=O)CCCCC=CC(C)C)ccc1O
REMARK SMILES IDX 11 1 12 2 13 3 14 4 15 5 16 6 17 7 18 8 10 9 8 10 9 11 7 12
REMARK SMILES IDX 6 14 5 15 4 16 19 17 3 18 20 19 21 20 2 21 1 22 22 23
REMARK H PARENT 7 13 22 24
REMARK Flexibility Score: inf
ROOT
ATOM      1  C   UNL     1       1.388  27.694   0.953  1.00  0.00     0.010 C 
ENDROOT
BRANCH   1   2
ATOM      2  C   UNL     1      -0.112  27.454   1.156  1.00  0.00     0.005 C 
BRANCH   2   3
ATOM      3  C   UNL     1      -0.403  25.963   1.376  1.00  0.00     0.027 C 
BRANCH   3   4
ATOM      4  C   UNL     1      -1.823  25.623   0.999  1.00  0.00    -0.031 C 
ATOM      5  C   UNL     1      -2.751  25.130   1.840  1.00  0.00    -0.028 C 
BRANCH   5   6
ATOM      6  C   UNL     1      -2.536  24.843   3.312  1.00  0.00     0.005 C 
ATOM      7  C   UNL     1      -3.426  23.674   3.744  1.00  0.00     0.012 C 
ATOM      8  C   UNL     1      -2.856  26.095   4.134  1.00  0.00     0.012 C 
ENDBRANCH   5   6
ENDBRANCH   3   4
ENDBRANCH   2   3
ENDBRANCH   1   2
BRANCH   1   9
ATOM      9  C   UNL     1       1.743  29.169   1.164  1.00  0.00     0.100 C 
BRANCH   9  10
ATOM     10  C   UNL     1       3.028  29.502   0.468  1.00  0.00     0.220 C 
ATOM     11  O   UNL     1       3.001  30.205  -0.579  1.00  0.00    -0.275 OA
ATOM     12  N   UNL     1       4.271  28.984   0.963  1.00  0.00    -0.352 N 
ATOM     13  H   UNL     1       4.261  28.354   1.798  1.00  0.00     0.163 HD
BRANCH  12  14
ATOM     14  C   UNL     1       5.553  29.282   0.330  1.00  0.00     0.151 C 
BRANCH  14  15
ATOM     15  C   UNL     1       6.606  29.534   1.374  1.00  0.00    -0.025 A 
ATOM     16  C   UNL     1       7.149  28.471   2.115  1.00  0.00     0.056 A 
ATOM     17  C   UNL     1       7.071  30.838   1.595  1.00  0.00     0.009 A 
ATOM     18  C   UNL     1       8.146  28.711   3.083  1.00  0.00     0.160 A 
ATOM     19  C   UNL     1       8.059  31.081   2.552  1.00  0.00     0.050 A 
ATOM     20  C   UNL     1       8.597  30.022   3.296  1.00  0.00     0.157 A 
BRANCH  18  21
ATOM     21  O   UNL     1       8.710  27.678   3.848  1.00  0.00    -0.493 OA
ATOM     22  C   UNL     1       8.231  26.336   3.870  1.00  0.00     0.278 C 
ENDBRANCH  18  21
BRANCH  20  23
ATOM     23  O   UNL     1       9.582  30.265   4.251  1.00  0.00    -0.504 OA
ATOM     24  H   UNL     1       9.534  31.067   4.870  1.00  0.00     0.293 HD
ENDBRANCH  20  23
ENDBRANCH  14  15
ENDBRANCH  12  14
ENDBRANCH   9  10
ENDBRANCH   1   9
TORSDOF 10
ENDMDL
MODEL 2
REMARK VINA RESULT:    -4.878      3.181      9.719
REMARK INTER + INTRA:          -8.149
REMARK INTER:                  -7.301
REMARK INTRA:                  -0.848
REMARK UNBOUND:                -0.561
REMARK SMILES COc1cc(CNC(=O)CCCCC=CC(C)C)ccc1O
REMARK SMILES IDX 11 1 12 2 13 3 14 4 15 5 16 6 17 7 18 8 10 9 8 10 9 11 7 12
REMARK SMILES IDX 6 14 5 15 4 16 19 17 3 18 20 19 21 20 2 21 1 22 22 23
REMARK H PARENT 7 13 22 24
REMARK Flexibility Score: inf
ROOT
ATOM      1  C   UNL     1       8.816  30.814   1.897  1.00  0.00     0.010 C 
ENDROOT
BRANCH   1   2
ATOM      2  C   UNL     1       9.067  32.258   1.447  1.00  0.00     0.005 C 
BRANCH   2   3
ATOM      3  C   UNL     1       7.752  33.047   1.377  1.00  0.00     0.027 C 
BRANCH   3   4
ATOM      4  C   UNL     1       7.628  33.787   0.070  1.00  0.00    -0.031 C 
ATOM      5  C   UNL     1       7.599  35.127  -0.062  1.00  0.00    -0.028 C 
BRANCH   5   6
ATOM      6  C   UNL     1       7.698  36.123   1.076  1.00  0.00     0.005 C 
ATOM      7  C   UNL     1       6.333  36.776   1.309  1.00  0.00     0.012 C 
ATOM      8  C   UNL     1       8.753  37.182   0.744  1.00  0.00     0.012 C 
ENDBRANCH   5   6
ENDBRANCH   3   4
ENDBRANCH   2   3
ENDBRANCH   1   2
BRANCH   1   9
ATOM      9  C   UNL     1       7.419  30.663   2.506  1.00  0.00     0.100 C 
BRANCH   9  10
ATOM     10  C   UNL     1       6.694  29.514   1.872  1.00  0.00     0.220 C 
ATOM     11  O   UNL     1       6.911  28.342   2.285  1.00  0.00    -0.275 OA
ATOM     12  N   UNL     1       5.800  29.744   0.774  1.00  0.00    -0.352 N 
ATOM     13  H   UNL     1       5.682  30.717   0.411  1.00  0.00     0.163 HD
BRANCH  12  14
ATOM     14  C   UNL     1       5.063  28.663   0.124  1.00  0.00     0.151 C 
BRANCH  14  15
ATOM     15  C   UNL     1       3.584  28.836   0.339  1.00  0.00    -0.025 A 
ATOM     16  C   UNL     1       2.982  30.097   0.192  1.00  0.00     0.056 A 
ATOM     17  C   UNL     1       2.791  27.726   0.663  1.00  0.00     0.009 A 
ATOM     18  C   UNL     1       1.593  30.252   0.381  1.00  0.00     0.160 A 
ATOM     19  C   UNL     1       1.415  27.874   0.850  1.00  0.00     0.050 A 
ATOM     20  C   UNL     1       0.815  29.133   0.710  1.00  0.00     0.157 A 
BRANCH  18  21
ATOM     21  O   UNL     1       0.954  31.495   0.250  1.00  0.00    -0.493 OA
ATOM     22  C   UNL     1       0.540  32.063  -0.988  1.00  0.00     0.278 C 
ENDBRANCH  18  21
BRANCH  20  23
ATOM     23  O   UNL     1      -0.558  29.280   0.898  1.00  0.00    -0.504 OA
ATOM     24  H   UNL     1      -1.228  28.772   0.332  1.00  0.00     0.293 HD
ENDBRANCH  20  23
ENDBRANCH  14  15
ENDBRANCH  12  14
ENDBRANCH   9  10
ENDBRANCH   1   9
TORSDOF 10
ENDMDL
MODEL 3
REMARK VINA RESULT:    -4.872      2.649      8.894
REMARK INTER + INTRA:          -8.138
REMARK INTER:                  -7.559
REMARK INTRA:                  -0.579
REMARK UNBOUND:                -0.561
REMARK SMILES COc1cc(CNC(=O)CCCCC=CC(C)C)ccc1O
REMARK SMILES IDX 11 1 12 2 13 3 14 4 15 5 16 6 17 7 18 8 10 9 8 10 9 11 7 12
REMARK SMILES IDX 6 14 5 15 4 16 19 17 3 18 20 19 21 20 2 21 1 22 22 23
REMARK H PARENT 7 13 22 24
REMARK Flexibility Score: inf
ROOT
ATOM      1  C   UNL     1       8.605  28.132   2.944  1.00  0.00     0.010 C 
ENDROOT
BRANCH   1   2
ATOM      2  C   UNL     1       7.899  26.977   3.664  1.00  0.00     0.005 C 
BRANCH   2   3
ATOM      3  C   UNL     1       8.920  25.998   4.259  1.00  0.00     0.027 C 
BRANCH   3   4
ATOM      4  C   UNL     1       9.007  24.735   3.440  1.00  0.00    -0.031 C 
ATOM      5  C   UNL     1       9.984  23.814   3.537  1.00  0.00    -0.028 C 
BRANCH   5   6
ATOM      6  C   UNL     1      11.159  23.879   4.493  1.00  0.00     0.005 C 
ATOM      7  C   UNL     1      12.468  23.753   3.708  1.00  0.00     0.012 C 
ATOM      8  C   UNL     1      11.043  22.759   5.530  1.00  0.00     0.012 C 
ENDBRANCH   5   6
ENDBRANCH   3   4
ENDBRANCH   2   3
ENDBRANCH   1   2
BRANCH   1   9
ATOM      9  C   UNL     1       7.646  29.303   2.710  1.00  0.00     0.100 C 
BRANCH   9  10
ATOM     10  C   UNL     1       6.958  29.159   1.386  1.00  0.00     0.220 C 
ATOM     11  O   UNL     1       7.634  29.242   0.325  1.00  0.00    -0.275 OA
ATOM     12  N   UNL     1       5.536  28.978   1.329  1.00  0.00    -0.352 N 
ATOM     13  H   UNL     1       4.989  28.972   2.220  1.00  0.00     0.163 HD
BRANCH  12  14
ATOM     14  C   UNL     1       4.815  28.825   0.068  1.00  0.00     0.151 C 
BRANCH  14  15
ATOM     15  C   UNL     1       3.332  28.932   0.298  1.00  0.00    -0.025 A 
ATOM     16  C   UNL     1       2.593  27.819   0.734  1.00  0.00     0.056 A 
ATOM     17  C   UNL     1       2.682  30.159   0.103  1.00  0.00     0.009 A 
ATOM     18  C   UNL     1       1.206  27.927   0.963  1.00  0.00     0.160 A 
ATOM     19  C   UNL     1       1.308  30.271   0.329  1.00  0.00     0.050 A 
ATOM     20  C   UNL     1       0.569  29.160   0.757  1.00  0.00     0.157 A 
BRANCH  18  21
ATOM     21  O   UNL     1       0.431  26.838   1.392  1.00  0.00    -0.493 OA
ATOM     22  C   UNL     1       0.437  25.552   0.779  1.00  0.00     0.278 C 
ENDBRANCH  18  21
BRANCH  20  23
ATOM     23  O   UNL     1      -0.802  29.272   0.981  1.00  0.00    -0.504 OA
ATOM     24  H   UNL     1      -1.207  29.089   1.892  1.00  0.00     0.293 HD
ENDBRANCH  20  23
ENDBRANCH  14  15
ENDBRANCH  12  14
ENDBRANCH   9  10
ENDBRANCH   1   9
TORSDOF 10
ENDMDL
MODEL 4
REMARK VINA RESULT:    -4.835      4.545      7.723
REMARK INTER + INTRA:          -8.081
REMARK INTER:                  -7.419
REMARK INTRA:                  -0.662
REMARK UNBOUND:                -0.561
REMARK SMILES COc1cc(CNC(=O)CCCCC=CC(C)C)ccc1O
REMARK SMILES IDX 11 1 12 2 13 3 14 4 15 5 16 6 17 7 18 8 10 9 8 10 9 11 7 12
REMARK SMILES IDX 6 14 5 15 4 16 19 17 3 18 20 19 21 20 2 21 1 22 22 23
REMARK H PARENT 7 13 22 24
REMARK Flexibility Score: inf
ROOT
ATOM      1  C   UNL     1      -3.506  27.256   5.462  1.00  0.00     0.010 C 
ENDROOT
BRANCH   1   2
ATOM      2  C   UNL     1      -3.955  27.019   6.909  1.00  0.00     0.005 C 
BRANCH   2   3
ATOM      3  C   UNL     1      -3.415  28.115   7.837  1.00  0.00     0.027 C 
BRANCH   3   4
ATOM      4  C   UNL     1      -1.989  27.837   8.238  1.00  0.00    -0.031 C 
ATOM      5  C   UNL     1      -1.259  28.592   9.080  1.00  0.00    -0.028 C 
BRANCH   5   6
ATOM      6  C   UNL     1      -1.747  29.844   9.782  1.00  0.00     0.005 C 
ATOM      7  C   UNL     1      -0.900  31.043   9.345  1.00  0.00     0.012 C 
ATOM      8  C   UNL     1      -1.665  29.651  11.299  1.00  0.00     0.012 C 
ENDBRANCH   5   6
ENDBRANCH   3   4
ENDBRANCH   2   3
ENDBRANCH   1   2
BRANCH   1   9
ATOM      9  C   UNL     1      -2.910  25.982   4.856  1.00  0.00     0.100 C 
BRANCH   9  10
ATOM     10  C   UNL     1      -2.786  26.121   3.368  1.00  0.00     0.220 C 
ATOM     11  O   UNL     1      -3.743  26.611   2.710  1.00  0.00    -0.275 OA
ATOM     12  N   UNL     1      -1.608  25.652   2.697  1.00  0.00    -0.352 N 
ATOM     13  H   UNL     1      -0.854  25.194   3.257  1.00  0.00     0.163 HD
BRANCH  12  14
ATOM     14  C   UNL     1      -1.431  25.767   1.251  1.00  0.00     0.151 C 
BRANCH  14  15
ATOM     15  C   UNL     1      -0.082  26.355   0.936  1.00  0.00    -0.025 A 
ATOM     16  C   UNL     1       0.184  27.712   1.184  1.00  0.00     0.056 A 
ATOM     17  C   UNL     1       0.931  25.537   0.414  1.00  0.00     0.009 A 
ATOM     18  C   UNL     1       1.453  28.255   0.901  1.00  0.00     0.160 A 
ATOM     19  C   UNL     1       2.190  26.071   0.133  1.00  0.00     0.050 A 
ATOM     20  C   UNL     1       2.454  27.426   0.374  1.00  0.00     0.157 A 
BRANCH  18  21
ATOM     21  O   UNL     1       1.757  29.606   1.128  1.00  0.00    -0.493 OA
ATOM     22  C   UNL     1       1.314  30.683   0.306  1.00  0.00     0.278 C 
ENDBRANCH  18  21
BRANCH  20  23
ATOM     23  O   UNL     1       3.711  27.957   0.091  1.00  0.00    -0.504 OA
ATOM     24  H   UNL     1       4.049  28.794   0.552  1.00  0.00     0.293 HD
ENDBRANCH  20  23
ENDBRANCH  14  15
ENDBRANCH  12  14
ENDBRANCH   9  10
ENDBRANCH   1   9
TORSDOF 10
ENDMDL
MODEL 5
REMARK VINA RESULT:    -4.747      6.464      9.096
REMARK INTER + INTRA:          -7.944
REMARK INTER:                  -7.162
REMARK INTRA:                  -0.782
REMARK UNBOUND:                -0.561
REMARK SMILES COc1cc(CNC(=O)CCCCC=CC(C)C)ccc1O
REMARK SMILES IDX 11 1 12 2 13 3 14 4 15 5 16 6 17 7 18 8 10 9 8 10 9 11 7 12
REMARK SMILES IDX 6 14 5 15 4 16 19 17 3 18 20 19 21 20 2 21 1 22 22 23
REMARK H PARENT 7 13 22 24
REMARK Flexibility Score: inf
ROOT
ATOM      1  C   UNL     1       8.901  31.240   2.586  1.00  0.00     0.010 C 
ENDROOT
BRANCH   1   2
ATOM      2  C   UNL     1       8.988  32.281   1.464  1.00  0.00     0.005 C 
BRANCH   2   3
ATOM      3  C   UNL     1       7.642  32.993   1.271  1.00  0.00     0.027 C 
BRANCH   3   4
ATOM      4  C   UNL     1       7.614  33.767  -0.021  1.00  0.00    -0.031 C 
ATOM      5  C   UNL     1       7.661  35.109  -0.123  1.00  0.00    -0.028 C 
BRANCH   5   6
ATOM      6  C   UNL     1       7.764  36.073   1.043  1.00  0.00     0.005 C 
ATOM      7  C   UNL     1       6.377  36.633   1.371  1.00  0.00     0.012 C 
ATOM      8  C   UNL     1       8.733  37.205   0.691  1.00  0.00     0.012 C 
ENDBRANCH   5   6
ENDBRANCH   3   4
ENDBRANCH   2   3
ENDBRANCH   1   2
BRANCH   1   9
ATOM      9  C   UNL     1       7.480  30.684   2.711  1.00  0.00     0.100 C 
BRANCH   9  10
ATOM     10  C   UNL     1       7.425  29.274   2.204  1.00  0.00     0.220 C 
ATOM     11  O   UNL     1       6.309  28.764   1.911  1.00  0.00    -0.275 OA
ATOM     12  N   UNL     1       8.627  28.497   2.102  1.00  0.00    -0.352 N 
ATOM     13  H   UNL     1       9.532  28.922   2.408  1.00  0.00     0.163 HD
BRANCH  12  14
ATOM     14  C   UNL     1       8.633  27.122   1.609  1.00  0.00     0.151 C 
BRANCH  14  15
ATOM     15  C   UNL     1       9.070  26.179   2.697  1.00  0.00    -0.025 A 
ATOM     16  C   UNL     1      10.215  25.382   2.538  1.00  0.00     0.056 A 
ATOM     17  C   UNL     1       8.344  26.113   3.895  1.00  0.00     0.009 A 
ATOM     18  C   UNL     1      10.629  24.511   3.566  1.00  0.00     0.160 A 
ATOM     19  C   UNL     1       8.750  25.252   4.917  1.00  0.00     0.050 A 
ATOM     20  C   UNL     1       9.889  24.451   4.755  1.00  0.00     0.157 A 
BRANCH  18  21
ATOM     21  O   UNL     1      11.764  23.694   3.443  1.00  0.00    -0.493 OA
ATOM     22  C   UNL     1      12.895  24.000   2.633  1.00  0.00     0.278 C 
ENDBRANCH  18  21
BRANCH  20  23
ATOM     23  O   UNL     1      10.293  23.591   5.775  1.00  0.00    -0.504 OA
ATOM     24  H   UNL     1      11.122  23.014   5.685  1.00  0.00     0.293 HD
ENDBRANCH  20  23
ENDBRANCH  14  15
ENDBRANCH  12  14
ENDBRANCH   9  10
ENDBRANCH   1   9
TORSDOF 10
ENDMDL
MODEL 6
REMARK VINA RESULT:    -4.649      4.707      7.709
REMARK INTER + INTRA:          -7.793
REMARK INTER:                  -7.139
REMARK INTRA:                  -0.654
REMARK UNBOUND:                -0.561
REMARK SMILES COc1cc(CNC(=O)CCCCC=CC(C)C)ccc1O
REMARK SMILES IDX 11 1 12 2 13 3 14 4 15 5 16 6 17 7 18 8 10 9 8 10 9 11 7 12
REMARK SMILES IDX 6 14 5 15 4 16 19 17 3 18 20 19 21 20 2 21 1 22 22 23
REMARK H PARENT 7 13 22 24
REMARK Flexibility Score: inf
ROOT
ATOM      1  C   UNL     1      -3.459  27.144   5.851  1.00  0.00     0.010 C 
ENDROOT
BRANCH   1   2
ATOM      2  C   UNL     1      -4.294  26.796   7.089  1.00  0.00     0.005 C 
BRANCH   2   3
ATOM      3  C   UNL     1      -3.577  27.231   8.373  1.00  0.00     0.027 C 
BRANCH   3   4
ATOM      4  C   UNL     1      -2.238  27.854   8.067  1.00  0.00    -0.031 C 
ATOM      5  C   UNL     1      -1.355  28.284   8.987  1.00  0.00    -0.028 C 
BRANCH   5   6
ATOM      6  C   UNL     1      -1.546  28.207  10.489  1.00  0.00     0.005 C 
ATOM      7  C   UNL     1      -1.555  29.619  11.081  1.00  0.00     0.012 C 
ATOM      8  C   UNL     1      -0.422  27.371  11.109  1.00  0.00     0.012 C 
ENDBRANCH   5   6
ENDBRANCH   3   4
ENDBRANCH   2   3
ENDBRANCH   1   2
BRANCH   1   9
ATOM      9  C   UNL     1      -3.089  25.883   5.065  1.00  0.00     0.100 C 
BRANCH   9  10
ATOM     10  C   UNL     1      -3.020  26.184   3.598  1.00  0.00     0.220 C 
ATOM     11  O   UNL     1      -3.974  26.798   3.046  1.00  0.00    -0.275 OA
ATOM     12  N   UNL     1      -1.902  25.731   2.821  1.00  0.00    -0.352 N 
ATOM     13  H   UNL     1      -1.154  25.171   3.289  1.00  0.00     0.163 HD
BRANCH  12  14
ATOM     14  C   UNL     1      -1.780  26.000   1.390  1.00  0.00     0.151 C 
BRANCH  14  15
ATOM     15  C   UNL     1      -0.383  26.450   1.061  1.00  0.00    -0.025 A 
ATOM     16  C   UNL     1       0.550  25.550   0.520  1.00  0.00     0.056 A 
ATOM     17  C   UNL     1      -0.013  27.786   1.269  1.00  0.00     0.009 A 
ATOM     18  C   UNL     1       1.854  25.980   0.199  1.00  0.00     0.160 A 
ATOM     19  C   UNL     1       1.278  28.217   0.952  1.00  0.00     0.050 A 
ATOM     20  C   UNL     1       2.211  27.318   0.419  1.00  0.00     0.157 A 
BRANCH  18  21
ATOM     21  O   UNL     1       2.818  25.111  -0.336  1.00  0.00    -0.493 OA
ATOM     22  C   UNL     1       2.652  23.701  -0.463  1.00  0.00     0.278 C 
ENDBRANCH  18  21
BRANCH  20  23
ATOM     23  O   UNL     1       3.499  27.748   0.105  1.00  0.00    -0.504 OA
ATOM     24  H   UNL     1       4.231  27.092  -0.145  1.00  0.00     0.293 HD
ENDBRANCH  20  23
ENDBRANCH  14  15
ENDBRANCH  12  14
ENDBRANCH   9  10
ENDBRANCH   1   9
TORSDOF 10
ENDMDL
MODEL 7
REMARK VINA RESULT:    -4.646      9.198     10.948
REMARK INTER + INTRA:          -7.787
REMARK INTER:                  -6.763
REMARK INTRA:                  -1.024
REMARK UNBOUND:                -0.561
REMARK SMILES COc1cc(CNC(=O)CCCCC=CC(C)C)ccc1O
REMARK SMILES IDX 11 1 12 2 13 3 14 4 15 5 16 6 17 7 18 8 10 9 8 10 9 11 7 12
REMARK SMILES IDX 6 14 5 15 4 16 19 17 3 18 20 19 21 20 2 21 1 22 22 23
REMARK H PARENT 7 13 22 24
REMARK Flexibility Score: inf
ROOT
ATOM      1  C   UNL     1      -1.540  29.959   9.376  1.00  0.00     0.010 C 
ENDROOT
BRANCH   1   2
ATOM      2  C   UNL     1      -2.430  30.517   8.259  1.00  0.00     0.005 C 
BRANCH   2   3
ATOM      3  C   UNL     1      -3.810  29.848   8.272  1.00  0.00     0.027 C 
BRANCH   3   4
ATOM      4  C   UNL     1      -4.325  29.630   6.872  1.00  0.00    -0.031 C 
ATOM      5  C   UNL     1      -4.181  28.496   6.161  1.00  0.00    -0.028 C 
BRANCH   5   6
ATOM      6  C   UNL     1      -3.488  27.238   6.647  1.00  0.00     0.005 C 
ATOM      7  C   UNL     1      -3.004  26.421   5.446  1.00  0.00     0.012 C 
ATOM      8  C   UNL     1      -4.455  26.416   7.504  1.00  0.00     0.012 C 
ENDBRANCH   5   6
ENDBRANCH   3   4
ENDBRANCH   2   3
ENDBRANCH   1   2
BRANCH   1   9
ATOM      9  C   UNL     1      -1.277  28.464   9.175  1.00  0.00     0.100 C 
BRANCH   9  10
ATOM     10  C   UNL     1      -1.496  27.717  10.456  1.00  0.00     0.220 C 
ATOM     11  O   UNL     1      -2.599  27.139  10.656  1.00  0.00    -0.275 OA
ATOM     12  N   UNL     1      -0.476  27.704  11.465  1.00  0.00    -0.352 N 
ATOM     13  H   UNL     1       0.406  28.241  11.301  1.00  0.00     0.163 HD
BRANCH  12  14
ATOM     14  C   UNL     1      -0.632  26.988  12.729  1.00  0.00     0.151 C 
BRANCH  14  15
ATOM     15  C   UNL     1       0.564  26.110  12.982  1.00  0.00    -0.025 A 
ATOM     16  C   UNL     1       1.319  26.250  14.158  1.00  0.00     0.056 A 
ATOM     17  C   UNL     1       0.914  25.123  12.051  1.00  0.00     0.009 A 
ATOM     18  C   UNL     1       2.429  25.416  14.399  1.00  0.00     0.160 A 
ATOM     19  C   UNL     1       2.013  24.293  12.284  1.00  0.00     0.050 A 
ATOM     20  C   UNL     1       2.771  24.437  13.454  1.00  0.00     0.157 A 
BRANCH  18  21
ATOM     21  O   UNL     1       3.213  25.529  15.557  1.00  0.00    -0.493 OA
ATOM     22  C   UNL     1       3.185  26.642  16.446  1.00  0.00     0.278 C 
ENDBRANCH  18  21
BRANCH  20  23
ATOM     23  O   UNL     1       3.868  23.609  13.686  1.00  0.00    -0.504 OA
ATOM     24  H   UNL     1       4.552  23.421  12.962  1.00  0.00     0.293 HD
ENDBRANCH  20  23
ENDBRANCH  14  15
ENDBRANCH  12  14
ENDBRANCH   9  10
ENDBRANCH   1   9
TORSDOF 10
ENDMDL
MODEL 8
REMARK VINA RESULT:    -4.629      6.278     11.175
REMARK INTER + INTRA:          -7.761
REMARK INTER:                  -6.613
REMARK INTRA:                  -1.148
REMARK UNBOUND:                -0.561
REMARK SMILES COc1cc(CNC(=O)CCCCC=CC(C)C)ccc1O
REMARK SMILES IDX 11 1 12 2 13 3 14 4 15 5 16 6 17 7 18 8 10 9 8 10 9 11 7 12
REMARK SMILES IDX 6 14 5 15 4 16 19 17 3 18 20 19 21 20 2 21 1 22 22 23
REMARK H PARENT 7 13 22 24
REMARK Flexibility Score: inf
ROOT
ATOM      1  C   UNL     1      10.396  36.803   0.883  1.00  0.00     0.010 C 
ENDROOT
BRANCH   1   2
ATOM      2  C   UNL     1      10.417  37.724  -0.342  1.00  0.00     0.005 C 
BRANCH   2   3
ATOM      3  C   UNL     1       9.891  39.121   0.014  1.00  0.00     0.027 C 
BRANCH   3   4
ATOM      4  C   UNL     1       8.667  39.466  -0.795  1.00  0.00    -0.031 C 
ATOM      5  C   UNL     1       7.573  40.089  -0.319  1.00  0.00    -0.028 C 
BRANCH   5   6
ATOM      6  C   UNL     1       7.386  40.564   1.108  1.00  0.00     0.005 C 
ATOM      7  C   UNL     1       6.670  39.481   1.921  1.00  0.00     0.012 C 
ATOM      8  C   UNL     1       6.579  41.865   1.118  1.00  0.00     0.012 C 
ENDBRANCH   5   6
ENDBRANCH   3   4
ENDBRANCH   2   3
ENDBRANCH   1   2
BRANCH   1   9
ATOM      9  C   UNL     1       8.997  36.746   1.505  1.00  0.00     0.100 C 
BRANCH   9  10
ATOM     10  C   UNL     1       8.106  35.843   0.706  1.00  0.00     0.220 C 
ATOM     11  O   UNL     1       6.937  36.219   0.422  1.00  0.00    -0.275 OA
ATOM     12  N   UNL     1       8.566  34.542   0.313  1.00  0.00    -0.352 N 
ATOM     13  H   UNL     1       9.518  34.228   0.612  1.00  0.00     0.163 HD
BRANCH  12  14
ATOM     14  C   UNL     1       7.744  33.623  -0.471  1.00  0.00     0.151 C 
BRANCH  14  15
ATOM     15  C   UNL     1       7.454  32.377   0.321  1.00  0.00    -0.025 A 
ATOM     16  C   UNL     1       8.011  32.193   1.597  1.00  0.00     0.056 A 
ATOM     17  C   UNL     1       6.598  31.399  -0.206  1.00  0.00     0.009 A 
ATOM     18  C   UNL     1       7.725  31.031   2.342  1.00  0.00     0.160 A 
ATOM     19  C   UNL     1       6.311  30.246   0.528  1.00  0.00     0.050 A 
ATOM     20  C   UNL     1       6.872  30.059   1.798  1.00  0.00     0.157 A 
BRANCH  18  21
ATOM     21  O   UNL     1       8.266  30.807   3.617  1.00  0.00    -0.493 OA
ATOM     22  C   UNL     1       9.559  30.259   3.861  1.00  0.00     0.278 C 
ENDBRANCH  18  21
BRANCH  20  23
ATOM     23  O   UNL     1       6.586  28.907   2.529  1.00  0.00    -0.504 OA
ATOM     24  H   UNL     1       7.189  28.592   3.280  1.00  0.00     0.293 HD
ENDBRANCH  20  23
ENDBRANCH  14  15
ENDBRANCH  12  14
ENDBRANCH   9  10
ENDBRANCH   1   9
TORSDOF 10
ENDMDL
MODEL 9
REMARK VINA RESULT:    -4.506     10.355     12.385
REMARK INTER + INTRA:          -7.570
REMARK INTER:                  -6.809
REMARK INTRA:                  -0.761
REMARK UNBOUND:                -0.561
REMARK SMILES COc1cc(CNC(=O)CCCCC=CC(C)C)ccc1O
REMARK SMILES IDX 11 1 12 2 13 3 14 4 15 5 16 6 17 7 18 8 10 9 8 10 9 11 7 12
REMARK SMILES IDX 6 14 5 15 4 16 19 17 3 18 20 19 21 20 2 21 1 22 22 23
REMARK H PARENT 7 13 22 24
REMARK Flexibility Score: inf
ROOT
ATOM      1  C   UNL     1      -0.853  30.394   9.078  1.00  0.00     0.010 C 
ENDROOT
BRANCH   1   2
ATOM      2  C   UNL     1      -1.934  31.290   9.692  1.00  0.00     0.005 C 
BRANCH   2   3
ATOM      3  C   UNL     1      -1.396  32.029  10.925  1.00  0.00     0.027 C 
BRANCH   3   4
ATOM      4  C   UNL     1      -0.144  32.801  10.596  1.00  0.00    -0.031 C 
ATOM      5  C   UNL     1       0.522  33.600  11.450  1.00  0.00    -0.028 C 
BRANCH   5   6
ATOM      6  C   UNL     1       0.136  33.854  12.894  1.00  0.00     0.005 C 
ATOM      7  C   UNL     1       0.373  35.327  13.239  1.00  0.00     0.012 C 
ATOM      8  C   UNL     1       0.957  32.947  13.814  1.00  0.00     0.012 C 
ENDBRANCH   5   6
ENDBRANCH   3   4
ENDBRANCH   2   3
ENDBRANCH   1   2
BRANCH   1   9
ATOM      9  C   UNL     1      -1.415  29.010   8.738  1.00  0.00     0.100 C 
BRANCH   9  10
ATOM     10  C   UNL     1      -1.729  28.251   9.993  1.00  0.00     0.220 C 
ATOM     11  O   UNL     1      -2.932  28.020  10.292  1.00  0.00    -0.275 OA
ATOM     12  N   UNL     1      -0.671  27.837  10.869  1.00  0.00    -0.352 N 
ATOM     13  H   UNL     1       0.314  28.093  10.630  1.00  0.00     0.163 HD
BRANCH  12  14
ATOM     14  C   UNL     1      -0.919  27.090  12.099  1.00  0.00     0.151 C 
BRANCH  14  15
ATOM     15  C   UNL     1       0.303  26.301  12.486  1.00  0.00    -0.025 A 
ATOM     16  C   UNL     1       1.007  26.603  13.664  1.00  0.00     0.056 A 
ATOM     17  C   UNL     1       0.730  25.236  11.681  1.00  0.00     0.009 A 
ATOM     18  C   UNL     1       2.142  25.852  14.030  1.00  0.00     0.160 A 
ATOM     19  C   UNL     1       1.853  24.489  12.040  1.00  0.00     0.050 A 
ATOM     20  C   UNL     1       2.560  24.794  13.211  1.00  0.00     0.157 A 
BRANCH  18  21
ATOM     21  O   UNL     1       2.877  26.126  15.195  1.00  0.00    -0.493 OA
ATOM     22  C   UNL     1       2.502  27.085  16.179  1.00  0.00     0.278 C 
ENDBRANCH  18  21
BRANCH  20  23
ATOM     23  O   UNL     1       3.682  24.048  13.567  1.00  0.00    -0.504 OA
ATOM     24  H   UNL     1       4.494  23.989  12.963  1.00  0.00     0.293 HD
ENDBRANCH  20  23
ENDBRANCH  14  15
ENDBRANCH  12  14
ENDBRANCH   9  10
ENDBRANCH   1   9
TORSDOF 10
ENDMDL
