MODEL 1
REMARK VINA RESULT:    -4.047      0.000      0.000
REMARK INTER + INTRA:          -6.197
REMARK INTER:                  -5.466
REMARK INTRA:                  -0.731
REMARK UNBOUND:                -0.731
REMARK SMILES O=C[C@H](O)[C@H](O)[C@@H](O)CO
REMARK SMILES IDX 7 1 9 2 10 3 5 5 3 6 2 7 1 8 4 9 6 11 8 13
REMARK H PARENT 10 4 4 10 6 12 8 14
REMARK Flexibility Score: inf
ROOT
ATOM      1  C   UNL     1      17.294   1.856 -47.476  1.00  0.00     0.171 C 
ENDROOT
BRANCH   1   2
ATOM      2  C   UNL     1      17.107   1.868 -45.948  1.00  0.00     0.190 C 
BRANCH   2   3
ATOM      3  O   UNL     1      17.564   0.669 -45.383  1.00  0.00    -0.394 OA
ATOM      4  H   UNL     1      18.526   0.604 -45.616  1.00  0.00     0.210 HD
ENDBRANCH   2   3
ENDBRANCH   1   2
BRANCH   1   5
ATOM      5  C   UNL     1      16.263   0.972 -48.244  1.00  0.00     0.181 C 
BRANCH   5   6
ATOM      6  C   UNL     1      14.777   1.336 -47.973  1.00  0.00     0.209 C 
BRANCH   6   7
ATOM      7  C   UNL     1      13.819   0.552 -48.830  1.00  0.00     0.258 C 
ATOM      8  O   UNL     1      14.245  -0.177 -49.711  1.00  0.00    -0.300 OA
ENDBRANCH   6   7
BRANCH   6   9
ATOM      9  O   UNL     1      14.546   2.710 -48.154  1.00  0.00    -0.383 OA
ATOM     10  H   UNL     1      15.156   3.186 -47.531  1.00  0.00     0.211 HD
ENDBRANCH   6   9
ENDBRANCH   5   6
BRANCH   5  11
ATOM     11  O   UNL     1      16.453  -0.368 -47.865  1.00  0.00    -0.387 OA
ATOM     12  H   UNL     1      16.073  -0.937 -48.585  1.00  0.00     0.211 HD
ENDBRANCH   5  11
ENDBRANCH   1   5
BRANCH   1  13
ATOM     13  O   UNL     1      17.273   3.175 -47.964  1.00  0.00    -0.388 OA
ATOM     14  H   UNL     1      17.291   3.787 -47.182  1.00  0.00     0.211 HD
ENDBRANCH   1  13
TORSDOF 8
ENDMDL
MODEL 2
REMARK VINA RESULT:    -4.006      9.541     11.188
REMARK INTER + INTRA:          -6.142
REMARK INTER:                  -5.602
REMARK INTRA:                  -0.540
REMARK UNBOUND:                -0.731
REMARK SMILES O=C[C@H](O)[C@H](O)[C@@H](O)CO
REMARK SMILES IDX 7 1 9 2 10 3 5 5 3 6 2 7 1 8 4 9 6 11 8 13
REMARK H PARENT 10 4 4 10 6 12 8 14
REMARK Flexibility Score: inf
ROOT
ATOM      1  C   UNL     1      25.076  -2.241 -48.790  1.00  0.00     0.171 C 
ENDROOT
BRANCH   1   2
ATOM      2  C   UNL     1      24.775  -1.536 -50.125  1.00  0.00     0.190 C 
BRANCH   2   3
ATOM      3  O   UNL     1      23.579  -0.809 -50.043  1.00  0.00    -0.394 OA
ATOM      4  H   UNL     1      22.904  -1.331 -50.549  1.00  0.00     0.210 HD
ENDBRANCH   2   3
ENDBRANCH   1   2
BRANCH   1   5
ATOM      5  C   UNL     1      26.490  -1.935 -48.206  1.00  0.00     0.181 C 
BRANCH   5   6
ATOM      6  C   UNL     1      26.850  -0.424 -48.149  1.00  0.00     0.209 C 
BRANCH   6   7
ATOM      7  C   UNL     1      28.195  -0.167 -47.525  1.00  0.00     0.258 C 
ATOM      8  O   UNL     1      28.790  -1.072 -46.963  1.00  0.00    -0.300 OA
ENDBRANCH   6   7
BRANCH   6   9
ATOM      9  O   UNL     1      25.869   0.309 -47.460  1.00  0.00    -0.383 OA
ATOM     10  H   UNL     1      25.563   1.025 -48.075  1.00  0.00     0.211 HD
ENDBRANCH   6   9
ENDBRANCH   5   6
BRANCH   5  11
ATOM     11  O   UNL     1      27.454  -2.575 -49.005  1.00  0.00    -0.387 OA
ATOM     12  H   UNL     1      28.347  -2.315 -48.659  1.00  0.00     0.211 HD
ENDBRANCH   5  11
ENDBRANCH   1   5
BRANCH   1  13
ATOM     13  O   UNL     1      24.077  -1.925 -47.853  1.00  0.00    -0.388 OA
ATOM     14  H   UNL     1      24.347  -1.086 -47.394  1.00  0.00     0.211 HD
ENDBRANCH   1  13
TORSDOF 8
ENDMDL
MODEL 3
REMARK VINA RESULT:    -3.975      1.317      2.411
REMARK INTER + INTRA:          -6.100
REMARK INTER:                  -5.630
REMARK INTRA:                  -0.470
REMARK UNBOUND:                -0.731
REMARK SMILES O=C[C@H](O)[C@H](O)[C@@H](O)CO
REMARK SMILES IDX 7 1 9 2 10 3 5 5 3 6 2 7 1 8 4 9 6 11 8 13
REMARK H PARENT 10 4 4 10 6 12 8 14
REMARK Flexibility Score: inf
ROOT
ATOM      1  C   UNL     1      16.512   1.505 -45.731  1.00  0.00     0.171 C 
ENDROOT
BRANCH   1   2
ATOM      2  C   UNL     1      17.752   2.137 -46.388  1.00  0.00     0.190 C 
BRANCH   2   3
ATOM      3  O   UNL     1      18.928   1.567 -45.879  1.00  0.00    -0.394 OA
ATOM      4  H   UNL     1      18.809   0.584 -45.946  1.00  0.00     0.210 HD
ENDBRANCH   2   3
ENDBRANCH   1   2
BRANCH   1   5
ATOM      5  C   UNL     1      15.330   1.236 -46.713  1.00  0.00     0.181 C 
BRANCH   5   6
ATOM      6  C   UNL     1      15.756   0.642 -48.084  1.00  0.00     0.209 C 
BRANCH   6   7
ATOM      7  C   UNL     1      14.583   0.338 -48.977  1.00  0.00     0.258 C 
ATOM      8  O   UNL     1      13.455   0.310 -48.515  1.00  0.00    -0.300 OA
ENDBRANCH   6   7
BRANCH   6   9
ATOM      9  O   UNL     1      16.530  -0.519 -47.920  1.00  0.00    -0.383 OA
ATOM     10  H   UNL     1      15.895  -1.270 -47.791  1.00  0.00     0.211 HD
ENDBRANCH   6   9
ENDBRANCH   5   6
BRANCH   5  11
ATOM     11  O   UNL     1      14.666   2.450 -46.958  1.00  0.00    -0.387 OA
ATOM     12  H   UNL     1      13.819   2.436 -46.439  1.00  0.00     0.211 HD
ENDBRANCH   5  11
ENDBRANCH   1   5
BRANCH   1  13
ATOM     13  O   UNL     1      16.881   0.322 -45.066  1.00  0.00    -0.388 OA
ATOM     14  H   UNL     1      17.526  -0.162 -45.646  1.00  0.00     0.211 HD
ENDBRANCH   1  13
TORSDOF 8
ENDMDL
MODEL 4
REMARK VINA RESULT:    -3.934     15.566     16.739
REMARK INTER + INTRA:          -6.045
REMARK INTER:                  -5.692
REMARK INTRA:                  -0.353
REMARK UNBOUND:                -0.731
REMARK SMILES O=C[C@H](O)[C@H](O)[C@@H](O)CO
REMARK SMILES IDX 7 1 9 2 10 3 5 5 3 6 2 7 1 8 4 9 6 11 8 13
REMARK H PARENT 10 4 4 10 6 12 8 14
REMARK Flexibility Score: inf
ROOT
ATOM      1  C   UNL     1      15.369  -5.719 -33.942  1.00  0.00     0.171 C 
ENDROOT
BRANCH   1   2
ATOM      2  C   UNL     1      15.298  -7.196 -34.369  1.00  0.00     0.190 C 
BRANCH   2   3
ATOM      3  O   UNL     1      16.423  -7.547 -35.128  1.00  0.00    -0.394 OA
ATOM      4  H   UNL     1      16.239  -8.453 -35.490  1.00  0.00     0.210 HD
ENDBRANCH   2   3
ENDBRANCH   1   2
BRANCH   1   5
ATOM      5  C   UNL     1      14.441  -5.350 -32.743  1.00  0.00     0.181 C 
BRANCH   5   6
ATOM      6  C   UNL     1      13.707  -6.560 -32.102  1.00  0.00     0.209 C 
BRANCH   6   7
ATOM      7  C   UNL     1      12.212  -6.388 -32.074  1.00  0.00     0.258 C 
ATOM      8  O   UNL     1      11.565  -6.499 -33.102  1.00  0.00    -0.300 OA
ENDBRANCH   6   7
BRANCH   6   9
ATOM      9  O   UNL     1      14.172  -6.808 -30.800  1.00  0.00    -0.383 OA
ATOM     10  H   UNL     1      13.560  -6.329 -30.182  1.00  0.00     0.211 HD
ENDBRANCH   6   9
ENDBRANCH   5   6
BRANCH   5  11
ATOM     11  O   UNL     1      13.464  -4.446 -33.195  1.00  0.00    -0.387 OA
ATOM     12  H   UNL     1      13.931  -3.609 -33.455  1.00  0.00     0.211 HD
ENDBRANCH   5  11
ENDBRANCH   1   5
BRANCH   1  13
ATOM     13  O   UNL     1      16.702  -5.373 -33.658  1.00  0.00    -0.388 OA
ATOM     14  H   UNL     1      16.687  -4.575 -33.066  1.00  0.00     0.211 HD
ENDBRANCH   1  13
TORSDOF 8
ENDMDL
MODEL 5
REMARK VINA RESULT:    -3.924      1.365      3.689
REMARK INTER + INTRA:          -6.032
REMARK INTER:                  -5.137
REMARK INTRA:                  -0.895
REMARK UNBOUND:                -0.731
REMARK SMILES O=C[C@H](O)[C@H](O)[C@@H](O)CO
REMARK SMILES IDX 7 1 9 2 10 3 5 5 3 6 2 7 1 8 4 9 6 11 8 13
REMARK H PARENT 10 4 4 10 6 12 8 14
REMARK Flexibility Score: inf
ROOT
ATOM      1  C   UNL     1      16.014   0.517 -48.716  1.00  0.00     0.171 C 
ENDROOT
BRANCH   1   2
ATOM      2  C   UNL     1      14.477   0.464 -48.745  1.00  0.00     0.190 C 
BRANCH   2   3
ATOM      3  O   UNL     1      13.972   0.026 -47.513  1.00  0.00    -0.394 OA
ATOM      4  H   UNL     1      13.039   0.361 -47.462  1.00  0.00     0.210 HD
ENDBRANCH   2   3
ENDBRANCH   1   2
BRANCH   1   5
ATOM      5  C   UNL     1      16.603   1.694 -47.878  1.00  0.00     0.181 C 
BRANCH   5   6
ATOM      6  C   UNL     1      17.251   1.265 -46.533  1.00  0.00     0.209 C 
BRANCH   6   7
ATOM      7  C   UNL     1      16.389   1.586 -45.342  1.00  0.00     0.258 C 
ATOM      8  O   UNL     1      15.270   1.109 -45.252  1.00  0.00    -0.300 OA
ENDBRANCH   6   7
BRANCH   6   9
ATOM      9  O   UNL     1      18.516   1.852 -46.364  1.00  0.00    -0.383 OA
ATOM     10  H   UNL     1      19.186   1.159 -46.601  1.00  0.00     0.211 HD
ENDBRANCH   6   9
ENDBRANCH   5   6
BRANCH   5  11
ATOM     11  O   UNL     1      15.567   2.599 -47.587  1.00  0.00    -0.387 OA
ATOM     12  H   UNL     1      15.540   2.712 -46.601  1.00  0.00     0.211 HD
ENDBRANCH   5  11
ENDBRANCH   1   5
BRANCH   1  13
ATOM     13  O   UNL     1      16.521  -0.714 -48.260  1.00  0.00    -0.388 OA
ATOM     14  H   UNL     1      15.983  -0.988 -47.470  1.00  0.00     0.211 HD
ENDBRANCH   1  13
TORSDOF 8
ENDMDL
MODEL 6
REMARK VINA RESULT:    -3.917     15.258     16.588
REMARK INTER + INTRA:          -6.022
REMARK INTER:                  -5.086
REMARK INTRA:                  -0.936
REMARK UNBOUND:                -0.731
REMARK SMILES O=C[C@H](O)[C@H](O)[C@@H](O)CO
REMARK SMILES IDX 7 1 9 2 10 3 5 5 3 6 2 7 1 8 4 9 6 11 8 13
REMARK H PARENT 10 4 4 10 6 12 8 14
REMARK Flexibility Score: inf
ROOT
ATOM      1  C   UNL     1      13.637  -6.843 -32.463  1.00  0.00     0.171 C 
ENDROOT
BRANCH   1   2
ATOM      2  C   UNL     1      12.524  -5.786 -32.355  1.00  0.00     0.190 C 
BRANCH   2   3
ATOM      3  O   UNL     1      13.046  -4.496 -32.522  1.00  0.00    -0.394 OA
ATOM      4  H   UNL     1      13.902  -4.478 -32.021  1.00  0.00     0.210 HD
ENDBRANCH   2   3
ENDBRANCH   1   2
BRANCH   1   5
ATOM      5  C   UNL     1      14.316  -6.922 -33.865  1.00  0.00     0.181 C 
BRANCH   5   6
ATOM      6  C   UNL     1      15.854  -6.695 -33.849  1.00  0.00     0.209 C 
BRANCH   6   7
ATOM      7  C   UNL     1      16.234  -5.261 -34.097  1.00  0.00     0.258 C 
ATOM      8  O   UNL     1      15.977  -4.408 -33.263  1.00  0.00    -0.300 OA
ENDBRANCH   6   7
BRANCH   6   9
ATOM      9  O   UNL     1      16.501  -7.518 -34.786  1.00  0.00    -0.383 OA
ATOM     10  H   UNL     1      16.664  -8.389 -34.337  1.00  0.00     0.211 HD
ENDBRANCH   6   9
ENDBRANCH   5   6
BRANCH   5  11
ATOM     11  O   UNL     1      13.746  -5.940 -34.695  1.00  0.00    -0.387 OA
ATOM     12  H   UNL     1      13.848  -5.066 -34.235  1.00  0.00     0.211 HD
ENDBRANCH   5  11
ENDBRANCH   1   5
BRANCH   1  13
ATOM     13  O   UNL     1      14.599  -6.619 -31.462  1.00  0.00    -0.388 OA
ATOM     14  H   UNL     1      15.449  -7.040 -31.759  1.00  0.00     0.211 HD
ENDBRANCH   1  13
TORSDOF 8
ENDMDL
MODEL 7
REMARK VINA RESULT:    -3.874      1.320      2.301
REMARK INTER + INTRA:          -5.964
REMARK INTER:                  -5.280
REMARK INTRA:                  -0.684
REMARK UNBOUND:                -0.731
REMARK SMILES O=C[C@H](O)[C@H](O)[C@@H](O)CO
REMARK SMILES IDX 7 1 9 2 10 3 5 5 3 6 2 7 1 8 4 9 6 11 8 13
REMARK H PARENT 10 4 4 10 6 12 8 14
REMARK Flexibility Score: inf
ROOT
ATOM      1  C   UNL     1      16.105   0.917 -46.663  1.00  0.00     0.171 C 
ENDROOT
BRANCH   1   2
ATOM      2  C   UNL     1      17.141   1.537 -45.709  1.00  0.00     0.190 C 
BRANCH   2   3
ATOM      3  O   UNL     1      18.393   1.634 -46.332  1.00  0.00    -0.394 OA
ATOM      4  H   UNL     1      19.063   1.385 -45.644  1.00  0.00     0.210 HD
ENDBRANCH   2   3
ENDBRANCH   1   2
BRANCH   1   5
ATOM      5  C   UNL     1      15.309   1.956 -47.513  1.00  0.00     0.181 C 
BRANCH   5   6
ATOM      6  C   UNL     1      14.386   1.330 -48.595  1.00  0.00     0.209 C 
BRANCH   6   7
ATOM      7  C   UNL     1      13.335   2.286 -49.090  1.00  0.00     0.258 C 
ATOM      8  O   UNL     1      13.660   3.379 -49.525  1.00  0.00    -0.300 OA
ENDBRANCH   6   7
BRANCH   6   9
ATOM      9  O   UNL     1      13.768   0.160 -48.124  1.00  0.00    -0.383 OA
ATOM     10  H   UNL     1      14.403  -0.585 -48.287  1.00  0.00     0.211 HD
ENDBRANCH   6   9
ENDBRANCH   5   6
BRANCH   5  11
ATOM     11  O   UNL     1      16.227   2.798 -48.166  1.00  0.00    -0.387 OA
ATOM     12  H   UNL     1      16.941   2.221 -48.546  1.00  0.00     0.211 HD
ENDBRANCH   5  11
ENDBRANCH   1   5
BRANCH   1  13
ATOM     13  O   UNL     1      16.735  -0.023 -47.498  1.00  0.00    -0.388 OA
ATOM     14  H   UNL     1      16.509  -0.929 -47.157  1.00  0.00     0.211 HD
ENDBRANCH   1  13
TORSDOF 8
ENDMDL
MODEL 8
REMARK VINA RESULT:    -3.850     15.363     16.523
REMARK INTER + INTRA:          -5.932
REMARK INTER:                  -5.362
REMARK INTRA:                  -0.569
REMARK UNBOUND:                -0.731
REMARK SMILES O=C[C@H](O)[C@H](O)[C@@H](O)CO
REMARK SMILES IDX 7 1 9 2 10 3 5 5 3 6 2 7 1 8 4 9 6 11 8 13
REMARK H PARENT 10 4 4 10 6 12 8 14
REMARK Flexibility Score: inf
ROOT
ATOM      1  C   UNL     1      14.312  -6.318 -33.586  1.00  0.00     0.171 C 
ENDROOT
BRANCH   1   2
ATOM      2  C   UNL     1      15.072  -7.591 -34.000  1.00  0.00     0.190 C 
BRANCH   2   3
ATOM      3  O   UNL     1      15.804  -7.371 -35.176  1.00  0.00    -0.394 OA
ATOM      4  H   UNL     1      16.318  -6.535 -35.028  1.00  0.00     0.210 HD
ENDBRANCH   2   3
ENDBRANCH   1   2
BRANCH   1   5
ATOM      5  C   UNL     1      15.104  -5.380 -32.623  1.00  0.00     0.181 C 
BRANCH   5   6
ATOM      6  C   UNL     1      16.527  -5.003 -33.119  1.00  0.00     0.209 C 
BRANCH   6   7
ATOM      7  C   UNL     1      17.281  -4.150 -32.134  1.00  0.00     0.258 C 
ATOM      8  O   UNL     1      17.740  -4.650 -31.120  1.00  0.00    -0.300 OA
ENDBRANCH   6   7
BRANCH   6   9
ATOM      9  O   UNL     1      16.479  -4.348 -34.361  1.00  0.00    -0.383 OA
ATOM     10  H   UNL     1      16.921  -4.948 -35.017  1.00  0.00     0.211 HD
ENDBRANCH   6   9
ENDBRANCH   5   6
BRANCH   5  11
ATOM     11  O   UNL     1      15.239  -6.025 -31.380  1.00  0.00    -0.387 OA
ATOM     12  H   UNL     1      14.391  -6.511 -31.204  1.00  0.00     0.211 HD
ENDBRANCH   5  11
ENDBRANCH   1   5
BRANCH   1  13
ATOM     13  O   UNL     1      13.906  -5.616 -34.734  1.00  0.00    -0.388 OA
ATOM     14  H   UNL     1      14.546  -5.832 -35.463  1.00  0.00     0.211 HD
ENDBRANCH   1  13
TORSDOF 8
ENDMDL
MODEL 9
REMARK VINA RESULT:    -3.786      1.713      3.367
REMARK INTER + INTRA:          -5.844
REMARK INTER:                  -5.368
REMARK INTRA:                  -0.476
REMARK UNBOUND:                -0.731
REMARK SMILES O=C[C@H](O)[C@H](O)[C@@H](O)CO
REMARK SMILES IDX 7 1 9 2 10 3 5 5 3 6 2 7 1 8 4 9 6 11 8 13
REMARK H PARENT 10 4 4 10 6 12 8 14
REMARK Flexibility Score: inf
ROOT
ATOM      1  C   UNL     1      14.696   2.106 -48.064  1.00  0.00     0.171 C 
ENDROOT
BRANCH   1   2
ATOM      2  C   UNL     1      13.749   2.951 -48.934  1.00  0.00     0.190 C 
BRANCH   2   3
ATOM      3  O   UNL     1      13.376   4.125 -48.264  1.00  0.00    -0.394 OA
ATOM      4  H   UNL     1      12.627   3.873 -47.663  1.00  0.00     0.210 HD
ENDBRANCH   2   3
ENDBRANCH   1   2
BRANCH   1   5
ATOM      5  C   UNL     1      14.705   0.585 -48.412  1.00  0.00     0.181 C 
BRANCH   5   6
ATOM      6  C   UNL     1      16.122  -0.018 -48.622  1.00  0.00     0.209 C 
BRANCH   6   7
ATOM      7  C   UNL     1      16.084  -1.426 -49.152  1.00  0.00     0.258 C 
ATOM      8  O   UNL     1      15.297  -2.233 -48.685  1.00  0.00    -0.300 OA
ENDBRANCH   6   7
BRANCH   6   9
ATOM      9  O   UNL     1      16.872   0.014 -47.434  1.00  0.00    -0.383 OA
ATOM     10  H   UNL     1      17.592   0.684 -47.569  1.00  0.00     0.211 HD
ENDBRANCH   6   9
ENDBRANCH   5   6
BRANCH   5  11
ATOM     11  O   UNL     1      13.977   0.393 -49.600  1.00  0.00    -0.387 OA
ATOM     12  H   UNL     1      13.706   1.289 -49.930  1.00  0.00     0.211 HD
ENDBRANCH   5  11
ENDBRANCH   1   5
BRANCH   1  13
ATOM     13  O   UNL     1      15.997   2.635 -48.132  1.00  0.00    -0.388 OA
ATOM     14  H   UNL     1      15.919   3.622 -48.208  1.00  0.00     0.211 HD
ENDBRANCH   1  13
TORSDOF 8
ENDMDL
