MODEL 1
REMARK VINA RESULT:     8.032      0.000      0.000
REMARK INTER + INTRA:          14.221
REMARK INTER:                  14.606
REMARK INTRA:                  -0.385
REMARK UNBOUND:                -0.385
REMARK SMILES CCCCCCCCCCCCCCCC(=O)[O-]
REMARK SMILES IDX 9 1 10 2 11 3 12 4 13 5 14 6 15 7 16 8 17 9 18 10 8 11 7 12
REMARK SMILES IDX 6 13 5 14 4 15 3 16 2 17 1 18
REMARK H PARENT
REMARK Flexibility Score: inf
ROOT
ATOM      1  C   UNL     1      27.851  45.444   3.951  1.00  0.00     0.000 C 
ENDROOT
BRANCH   1   2
ATOM      2  C   UNL     1      28.974  44.492   3.511  1.00  0.00     0.000 C 
BRANCH   2   3
ATOM      3  C   UNL     1      29.386  44.693   2.042  1.00  0.00     0.000 C 
BRANCH   3   4
ATOM      4  C   UNL     1      29.545  43.370   1.263  1.00  0.00     0.000 C 
BRANCH   4   5
ATOM      5  C   UNL     1      30.570  43.487   0.121  1.00  0.00     0.000 C 
BRANCH   5   6
ATOM      6  C   UNL     1      30.344  42.459  -1.001  1.00  0.00     0.006 C 
BRANCH   6   7
ATOM      7  C   UNL     1      29.727  43.054  -2.279  1.00  0.00     0.053 C 
BRANCH   7   8
ATOM      8  C   UNL     1      28.979  42.038  -3.088  1.00  0.00     0.041 C 
ATOM      9  O   UNL     1      29.314  41.799  -4.278  1.00  0.00    -0.550 OA
ATOM     10  O   UNL     1      27.929  41.329  -2.517  1.00  0.00    -0.550 OA
ENDBRANCH   7   8
ENDBRANCH   6   7
ENDBRANCH   5   6
ENDBRANCH   4   5
ENDBRANCH   3   4
ENDBRANCH   2   3
ENDBRANCH   1   2
BRANCH   1  11
ATOM     11  C   UNL     1      27.119  44.952   5.210  1.00  0.00     0.000 C 
BRANCH  11  12
ATOM     12  C   UNL     1      26.384  43.620   4.981  1.00  0.00    -0.000 C 
BRANCH  12  13
ATOM     13  C   UNL     1      25.731  43.536   3.593  1.00  0.00    -0.000 C 
BRANCH  13  14
ATOM     14  C   UNL     1      24.941  42.231   3.387  1.00  0.00    -0.000 C 
BRANCH  14  15
ATOM     15  C   UNL     1      23.923  41.980   4.521  1.00  0.00    -0.000 C 
BRANCH  15  16
ATOM     16  C   UNL     1      22.484  42.400   4.164  1.00  0.00    -0.000 C 
BRANCH  16  17
ATOM     17  C   UNL     1      22.256  42.705   2.675  1.00  0.00    -0.003 C 
ATOM     18  C   UNL     1      22.292  41.452   1.801  1.00  0.00     0.004 C 
ENDBRANCH  16  17
ENDBRANCH  15  16
ENDBRANCH  14  15
ENDBRANCH  13  14
ENDBRANCH  12  13
ENDBRANCH  11  12
ENDBRANCH   1  11
TORSDOF 14
ENDMDL
MODEL 2
REMARK VINA RESULT:     8.275     13.049     15.139
REMARK INTER + INTRA:          14.661
REMARK INTER:                  14.920
REMARK INTRA:                  -0.259
REMARK UNBOUND:                -0.385
REMARK SMILES CCCCCCCCCCCCCCCC(=O)[O-]
REMARK SMILES IDX 9 1 10 2 11 3 12 4 13 5 14 6 15 7 16 8 17 9 18 10 8 11 7 12
REMARK SMILES IDX 6 13 5 14 4 15 3 16 2 17 1 18
REMARK H PARENT
REMARK Flexibility Score: inf
ROOT
ATOM      1  C   UNL     1      25.213  31.422  -4.036  1.00  0.00     0.000 C 
ENDROOT
BRANCH   1   2
ATOM      2  C   UNL     1      26.024  32.091  -2.916  1.00  0.00     0.000 C 
BRANCH   2   3
ATOM      3  C   UNL     1      27.327  31.340  -2.590  1.00  0.00     0.000 C 
BRANCH   3   4
ATOM      4  C   UNL     1      27.124  30.137  -1.645  1.00  0.00     0.000 C 
BRANCH   4   5
ATOM      5  C   UNL     1      27.432  30.489  -0.180  1.00  0.00     0.000 C 
BRANCH   5   6
ATOM      6  C   UNL     1      26.547  29.729   0.823  1.00  0.00     0.006 C 
BRANCH   6   7
ATOM      7  C   UNL     1      26.964  28.264   1.041  1.00  0.00     0.053 C 
BRANCH   7   8
ATOM      8  C   UNL     1      28.317  28.135   1.671  1.00  0.00     0.041 C 
ATOM      9  O   UNL     1      28.426  27.894   2.903  1.00  0.00    -0.550 OA
ATOM     10  O   UNL     1      29.462  28.249   0.892  1.00  0.00    -0.550 OA
ENDBRANCH   7   8
ENDBRANCH   6   7
ENDBRANCH   5   6
ENDBRANCH   4   5
ENDBRANCH   3   4
ENDBRANCH   2   3
ENDBRANCH   1   2
BRANCH   1  11
ATOM     11  C   UNL     1      26.095  30.616  -5.003  1.00  0.00     0.000 C 
BRANCH  11  12
ATOM     12  C   UNL     1      26.285  31.324  -6.356  1.00  0.00    -0.000 C 
BRANCH  12  13
ATOM     13  C   UNL     1      24.966  31.489  -7.127  1.00  0.00    -0.000 C 
BRANCH  13  14
ATOM     14  C   UNL     1      24.539  32.961  -7.263  1.00  0.00    -0.000 C 
BRANCH  14  15
ATOM     15  C   UNL     1      23.007  33.117  -7.373  1.00  0.00    -0.000 C 
BRANCH  15  16
ATOM     16  C   UNL     1      22.320  31.960  -8.125  1.00  0.00    -0.000 C 
BRANCH  16  17
ATOM     17  C   UNL     1      22.080  30.700  -7.279  1.00  0.00    -0.003 C 
ATOM     18  C   UNL     1      22.189  29.410  -8.092  1.00  0.00     0.004 C 
ENDBRANCH  16  17
ENDBRANCH  15  16
ENDBRANCH  14  15
ENDBRANCH  13  14
ENDBRANCH  12  13
ENDBRANCH  11  12
ENDBRANCH   1  11
TORSDOF 14
ENDMDL
MODEL 3
REMARK VINA RESULT:     8.539      2.360      6.848
REMARK INTER + INTRA:          15.142
REMARK INTER:                  14.609
REMARK INTRA:                   0.533
REMARK UNBOUND:                -0.385
REMARK SMILES CCCCCCCCCCCCCCCC(=O)[O-]
REMARK SMILES IDX 9 1 10 2 11 3 12 4 13 5 14 6 15 7 16 8 17 9 18 10 8 11 7 12
REMARK SMILES IDX 6 13 5 14 4 15 3 16 2 17 1 18
REMARK H PARENT
REMARK Flexibility Score: inf
ROOT
ATOM      1  C   UNL     1      28.209  45.537   4.195  1.00  0.00     0.000 C 
ENDROOT
BRANCH   1   2
ATOM      2  C   UNL     1      27.072  45.175   5.163  1.00  0.00     0.000 C 
BRANCH   2   3
ATOM      3  C   UNL     1      26.663  43.694   5.077  1.00  0.00     0.000 C 
BRANCH   3   4
ATOM      4  C   UNL     1      25.690  43.392   3.918  1.00  0.00     0.000 C 
BRANCH   4   5
ATOM      5  C   UNL     1      24.785  42.184   4.218  1.00  0.00     0.000 C 
BRANCH   5   6
ATOM      6  C   UNL     1      23.356  42.586   4.624  1.00  0.00     0.006 C 
BRANCH   6   7
ATOM      7  C   UNL     1      22.381  42.711   3.440  1.00  0.00     0.053 C 
BRANCH   7   8
ATOM      8  C   UNL     1      22.888  42.039   2.200  1.00  0.00     0.041 C 
ATOM      9  O   UNL     1      22.224  41.114   1.661  1.00  0.00    -0.550 OA
ATOM     10  O   UNL     1      24.078  42.457   1.619  1.00  0.00    -0.550 OA
ENDBRANCH   7   8
ENDBRANCH   6   7
ENDBRANCH   5   6
ENDBRANCH   4   5
ENDBRANCH   3   4
ENDBRANCH   2   3
ENDBRANCH   1   2
BRANCH   1  11
ATOM     11  C   UNL     1      28.791  44.307   3.480  1.00  0.00     0.000 C 
BRANCH  11  12
ATOM     12  C   UNL     1      29.470  44.666   2.147  1.00  0.00    -0.000 C 
BRANCH  12  13
ATOM     13  C   UNL     1      29.298  43.572   1.082  1.00  0.00    -0.000 C 
BRANCH  13  14
ATOM     14  C   UNL     1      30.527  43.439   0.165  1.00  0.00    -0.000 C 
BRANCH  14  15
ATOM     15  C   UNL     1      30.275  42.472  -1.012  1.00  0.00    -0.000 C 
BRANCH  15  16
ATOM     16  C   UNL     1      29.855  43.179  -2.315  1.00  0.00    -0.000 C 
BRANCH  16  17
ATOM     17  C   UNL     1      29.201  42.260  -3.360  1.00  0.00    -0.003 C 
ATOM     18  C   UNL     1      28.034  41.453  -2.792  1.00  0.00     0.004 C 
ENDBRANCH  16  17
ENDBRANCH  15  16
ENDBRANCH  14  15
ENDBRANCH  13  14
ENDBRANCH  12  13
ENDBRANCH  11  12
ENDBRANCH   1  11
TORSDOF 14
ENDMDL
MODEL 4
REMARK VINA RESULT:     8.590      4.557      7.501
REMARK INTER + INTRA:          15.234
REMARK INTER:                  15.578
REMARK INTRA:                  -0.343
REMARK UNBOUND:                -0.385
REMARK SMILES CCCCCCCCCCCCCCCC(=O)[O-]
REMARK SMILES IDX 9 1 10 2 11 3 12 4 13 5 14 6 15 7 16 8 17 9 18 10 8 11 7 12
REMARK SMILES IDX 6 13 5 14 4 15 3 16 2 17 1 18
REMARK H PARENT
REMARK Flexibility Score: inf
ROOT
ATOM      1  C   UNL     1      25.425  43.800   2.898  1.00  0.00     0.000 C 
ENDROOT
BRANCH   1   2
ATOM      2  C   UNL     1      24.743  42.472   2.531  1.00  0.00     0.000 C 
BRANCH   2   3
ATOM      3  C   UNL     1      23.240  42.462   2.858  1.00  0.00     0.000 C 
BRANCH   3   4
ATOM      4  C   UNL     1      22.932  42.062   4.317  1.00  0.00     0.000 C 
BRANCH   4   5
ATOM      5  C   UNL     1      24.209  41.788   5.129  1.00  0.00     0.000 C 
BRANCH   5   6
ATOM      6  C   UNL     1      24.604  40.301   5.150  1.00  0.00     0.006 C 
BRANCH   6   7
ATOM      7  C   UNL     1      24.734  39.709   6.564  1.00  0.00     0.053 C 
BRANCH   7   8
ATOM      8  C   UNL     1      25.713  38.576   6.630  1.00  0.00     0.041 C 
ATOM      9  O   UNL     1      25.649  37.631   5.800  1.00  0.00    -0.550 OA
ATOM     10  O   UNL     1      26.719  38.581   7.587  1.00  0.00    -0.550 OA
ENDBRANCH   7   8
ENDBRANCH   6   7
ENDBRANCH   5   6
ENDBRANCH   4   5
ENDBRANCH   3   4
ENDBRANCH   2   3
ENDBRANCH   1   2
BRANCH   1  11
ATOM     11  C   UNL     1      26.578  43.614   3.897  1.00  0.00     0.000 C 
BRANCH  11  12
ATOM     12  C   UNL     1      27.902  44.208   3.386  1.00  0.00    -0.000 C 
BRANCH  12  13
ATOM     13  C   UNL     1      28.275  45.520   4.095  1.00  0.00    -0.000 C 
BRANCH  13  14
ATOM     14  C   UNL     1      27.245  45.930   5.161  1.00  0.00    -0.000 C 
BRANCH  14  15
ATOM     15  C   UNL     1      27.623  47.255   5.859  1.00  0.00    -0.000 C 
BRANCH  15  16
ATOM     16  C   UNL     1      26.977  47.430   7.247  1.00  0.00    -0.000 C 
BRANCH  16  17
ATOM     17  C   UNL     1      25.977  46.328   7.631  1.00  0.00    -0.003 C 
ATOM     18  C   UNL     1      24.568  46.866   7.883  1.00  0.00     0.004 C 
ENDBRANCH  16  17
ENDBRANCH  15  16
ENDBRANCH  14  15
ENDBRANCH  13  14
ENDBRANCH  12  13
ENDBRANCH  11  12
ENDBRANCH   1  11
TORSDOF 14
ENDMDL
MODEL 5
REMARK VINA RESULT:     9.009     12.860     14.831
REMARK INTER + INTRA:          15.998
REMARK INTER:                  16.717
REMARK INTRA:                  -0.720
REMARK UNBOUND:                -0.385
REMARK SMILES CCCCCCCCCCCCCCCC(=O)[O-]
REMARK SMILES IDX 9 1 10 2 11 3 12 4 13 5 14 6 15 7 16 8 17 9 18 10 8 11 7 12
REMARK SMILES IDX 6 13 5 14 4 15 3 16 2 17 1 18
REMARK H PARENT
REMARK Flexibility Score: inf
ROOT
ATOM      1  C   UNL     1      25.122  31.456  -4.146  1.00  0.00     0.000 C 
ENDROOT
BRANCH   1   2
ATOM      2  C   UNL     1      26.177  32.055  -3.203  1.00  0.00     0.000 C 
BRANCH   2   3
ATOM      3  C   UNL     1      27.289  31.056  -2.838  1.00  0.00     0.000 C 
BRANCH   3   4
ATOM      4  C   UNL     1      26.877  30.055  -1.737  1.00  0.00     0.000 C 
BRANCH   4   5
ATOM      5  C   UNL     1      27.395  30.470  -0.349  1.00  0.00     0.000 C 
BRANCH   5   6
ATOM      6  C   UNL     1      26.635  29.794   0.806  1.00  0.00     0.006 C 
BRANCH   6   7
ATOM      7  C   UNL     1      27.010  28.317   1.021  1.00  0.00     0.053 C 
BRANCH   7   8
ATOM      8  C   UNL     1      28.343  28.150   1.686  1.00  0.00     0.041 C 
ATOM      9  O   UNL     1      29.403  28.187   1.007  1.00  0.00    -0.550 OA
ATOM     10  O   UNL     1      28.417  27.985   3.064  1.00  0.00    -0.550 OA
ENDBRANCH   7   8
ENDBRANCH   6   7
ENDBRANCH   5   6
ENDBRANCH   4   5
ENDBRANCH   3   4
ENDBRANCH   2   3
ENDBRANCH   1   2
BRANCH   1  11
ATOM     11  C   UNL     1      25.747  30.641  -5.289  1.00  0.00     0.000 C 
BRANCH  11  12
ATOM     12  C   UNL     1      25.968  31.481  -6.560  1.00  0.00    -0.000 C 
BRANCH  12  13
ATOM     13  C   UNL     1      24.870  31.261  -7.612  1.00  0.00    -0.000 C 
BRANCH  13  14
ATOM     14  C   UNL     1      24.103  32.553  -7.947  1.00  0.00    -0.000 C 
BRANCH  14  15
ATOM     15  C   UNL     1      25.046  33.764  -8.119  1.00  0.00    -0.000 C 
BRANCH  15  16
ATOM     16  C   UNL     1      24.315  35.120  -8.121  1.00  0.00    -0.000 C 
BRANCH  16  17
ATOM     17  C   UNL     1      25.235  36.343  -7.979  1.00  0.00    -0.003 C 
ATOM     18  C   UNL     1      26.716  35.992  -8.123  1.00  0.00     0.004 C 
ENDBRANCH  16  17
ENDBRANCH  15  16
ENDBRANCH  14  15
ENDBRANCH  13  14
ENDBRANCH  12  13
ENDBRANCH  11  12
ENDBRANCH   1  11
TORSDOF 14
ENDMDL
MODEL 6
REMARK VINA RESULT:     9.052     13.124     14.255
REMARK INTER + INTRA:          16.075
REMARK INTER:                  16.594
REMARK INTRA:                  -0.518
REMARK UNBOUND:                -0.385
REMARK SMILES CCCCCCCCCCCCCCCC(=O)[O-]
REMARK SMILES IDX 9 1 10 2 11 3 12 4 13 5 14 6 15 7 16 8 17 9 18 10 8 11 7 12
REMARK SMILES IDX 6 13 5 14 4 15 3 16 2 17 1 18
REMARK H PARENT
REMARK Flexibility Score: inf
ROOT
ATOM      1  C   UNL     1      27.062  31.263  -2.130  1.00  0.00     0.000 C 
ENDROOT
BRANCH   1   2
ATOM      2  C   UNL     1      26.172  31.452  -3.369  1.00  0.00     0.000 C 
BRANCH   2   3
ATOM      3  C   UNL     1      26.644  30.622  -4.575  1.00  0.00     0.000 C 
BRANCH   3   4
ATOM      4  C   UNL     1      25.735  30.768  -5.814  1.00  0.00     0.000 C 
BRANCH   4   5
ATOM      5  C   UNL     1      26.324  31.731  -6.859  1.00  0.00     0.000 C 
BRANCH   5   6
ATOM      6  C   UNL     1      25.458  31.853  -8.125  1.00  0.00     0.006 C 
BRANCH   6   7
ATOM      7  C   UNL     1      24.443  33.009  -8.078  1.00  0.00     0.053 C 
BRANCH   7   8
ATOM      8  C   UNL     1      23.026  32.530  -7.969  1.00  0.00     0.041 C 
ATOM      9  O   UNL     1      22.780  31.314  -7.752  1.00  0.00    -0.550 OA
ATOM     10  O   UNL     1      21.977  33.434  -8.074  1.00  0.00    -0.550 OA
ENDBRANCH   7   8
ENDBRANCH   6   7
ENDBRANCH   5   6
ENDBRANCH   4   5
ENDBRANCH   3   4
ENDBRANCH   2   3
ENDBRANCH   1   2
BRANCH   1  11
ATOM     11  C   UNL     1      26.641  30.053  -1.281  1.00  0.00     0.000 C 
BRANCH  11  12
ATOM     12  C   UNL     1      27.218  30.106   0.145  1.00  0.00    -0.000 C 
BRANCH  12  13
ATOM     13  C   UNL     1      27.005  28.794   0.918  1.00  0.00    -0.000 C 
BRANCH  13  14
ATOM     14  C   UNL     1      28.265  28.343   1.678  1.00  0.00    -0.000 C 
BRANCH  14  15
ATOM     15  C   UNL     1      28.003  28.168   3.190  1.00  0.00    -0.000 C 
BRANCH  15  16
ATOM     16  C   UNL     1      27.517  29.454   3.886  1.00  0.00    -0.000 C 
BRANCH  16  17
ATOM     17  C   UNL     1      28.039  29.642   5.320  1.00  0.00    -0.003 C 
ATOM     18  C   UNL     1      27.296  28.779   6.339  1.00  0.00     0.004 C 
ENDBRANCH  16  17
ENDBRANCH  15  16
ENDBRANCH  14  15
ENDBRANCH  13  14
ENDBRANCH  12  13
ENDBRANCH  11  12
ENDBRANCH   1  11
TORSDOF 14
ENDMDL
MODEL 7
REMARK VINA RESULT:     9.357     13.308     15.064
REMARK INTER + INTRA:          16.630
REMARK INTER:                  16.632
REMARK INTRA:                  -0.002
REMARK UNBOUND:                -0.385
REMARK SMILES CCCCCCCCCCCCCCCC(=O)[O-]
REMARK SMILES IDX 9 1 10 2 11 3 12 4 13 5 14 6 15 7 16 8 17 9 18 10 8 11 7 12
REMARK SMILES IDX 6 13 5 14 4 15 3 16 2 17 1 18
REMARK H PARENT
REMARK Flexibility Score: inf
ROOT
ATOM      1  C   UNL     1      25.137  31.688  -5.624  1.00  0.00     0.000 C 
ENDROOT
BRANCH   1   2
ATOM      2  C   UNL     1      26.094  31.732  -4.422  1.00  0.00     0.000 C 
BRANCH   2   3
ATOM      3  C   UNL     1      27.008  30.498  -4.340  1.00  0.00     0.000 C 
BRANCH   3   4
ATOM      4  C   UNL     1      27.711  30.343  -2.975  1.00  0.00     0.000 C 
BRANCH   4   5
ATOM      5  C   UNL     1      26.746  30.550  -1.795  1.00  0.00     0.000 C 
BRANCH   5   6
ATOM      6  C   UNL     1      27.391  30.260  -0.428  1.00  0.00     0.006 C 
BRANCH   6   7
ATOM      7  C   UNL     1      26.532  29.376   0.493  1.00  0.00     0.053 C 
BRANCH   7   8
ATOM      8  C   UNL     1      27.276  28.914   1.709  1.00  0.00     0.041 C 
ATOM      9  O   UNL     1      27.047  29.436   2.832  1.00  0.00    -0.550 OA
ATOM     10  O   UNL     1      28.199  27.881   1.609  1.00  0.00    -0.550 OA
ENDBRANCH   7   8
ENDBRANCH   6   7
ENDBRANCH   5   6
ENDBRANCH   4   5
ENDBRANCH   3   4
ENDBRANCH   2   3
ENDBRANCH   1   2
BRANCH   1  11
ATOM     11  C   UNL     1      25.741  30.955  -6.832  1.00  0.00     0.000 C 
BRANCH  11  12
ATOM     12  C   UNL     1      24.911  31.148  -8.113  1.00  0.00    -0.000 C 
BRANCH  12  13
ATOM     13  C   UNL     1      23.433  30.770  -7.922  1.00  0.00    -0.000 C 
BRANCH  13  14
ATOM     14  C   UNL     1      22.662  31.802  -7.081  1.00  0.00    -0.000 C 
BRANCH  14  15
ATOM     15  C   UNL     1      21.898  32.817  -7.959  1.00  0.00    -0.000 C 
BRANCH  15  16
ATOM     16  C   UNL     1      22.629  34.164  -8.123  1.00  0.00    -0.000 C 
BRANCH  16  17
ATOM     17  C   UNL     1      23.985  34.249  -7.405  1.00  0.00    -0.003 C 
ATOM     18  C   UNL     1      24.806  35.466  -7.831  1.00  0.00     0.004 C 
ENDBRANCH  16  17
ENDBRANCH  15  16
ENDBRANCH  14  15
ENDBRANCH  13  14
ENDBRANCH  12  13
ENDBRANCH  11  12
ENDBRANCH   1  11
TORSDOF 14
ENDMDL
MODEL 8
REMARK VINA RESULT:     9.791      1.931      2.803
REMARK INTER + INTRA:          17.418
REMARK INTER:                  17.952
REMARK INTRA:                  -0.534
REMARK UNBOUND:                -0.385
REMARK SMILES CCCCCCCCCCCCCCCC(=O)[O-]
REMARK SMILES IDX 9 1 10 2 11 3 12 4 13 5 14 6 15 7 16 8 17 9 18 10 8 11 7 12
REMARK SMILES IDX 6 13 5 14 4 15 3 16 2 17 1 18
REMARK H PARENT
REMARK Flexibility Score: inf
ROOT
ATOM      1  C   UNL     1      27.222  44.341   4.709  1.00  0.00     0.000 C 
ENDROOT
BRANCH   1   2
ATOM      2  C   UNL     1      27.667  44.757   3.298  1.00  0.00     0.000 C 
BRANCH   2   3
ATOM      3  C   UNL     1      29.193  44.700   3.112  1.00  0.00     0.000 C 
BRANCH   3   4
ATOM      4  C   UNL     1      29.634  44.735   1.633  1.00  0.00     0.000 C 
BRANCH   4   5
ATOM      5  C   UNL     1      29.733  43.326   1.022  1.00  0.00     0.000 C 
BRANCH   5   6
ATOM      6  C   UNL     1      30.444  43.309  -0.343  1.00  0.00     0.006 C 
BRANCH   6   7
ATOM      7  C   UNL     1      29.986  42.171  -1.272  1.00  0.00     0.053 C 
BRANCH   7   8
ATOM      8  C   UNL     1      29.328  42.674  -2.521  1.00  0.00     0.041 C 
ATOM      9  O   UNL     1      29.431  43.884  -2.853  1.00  0.00    -0.550 OA
ATOM     10  O   UNL     1      28.626  41.797  -3.339  1.00  0.00    -0.550 OA
ENDBRANCH   7   8
ENDBRANCH   6   7
ENDBRANCH   5   6
ENDBRANCH   4   5
ENDBRANCH   3   4
ENDBRANCH   2   3
ENDBRANCH   1   2
BRANCH   1  11
ATOM     11  C   UNL     1      25.933  43.504   4.698  1.00  0.00     0.000 C 
BRANCH  11  12
ATOM     12  C   UNL     1      25.394  43.271   3.275  1.00  0.00    -0.000 C 
BRANCH  12  13
ATOM     13  C   UNL     1      24.165  42.348   3.251  1.00  0.00    -0.000 C 
BRANCH  13  14
ATOM     14  C   UNL     1      23.923  41.649   4.600  1.00  0.00    -0.000 C 
BRANCH  14  15
ATOM     15  C   UNL     1      24.817  40.402   4.780  1.00  0.00    -0.000 C 
BRANCH  15  16
ATOM     16  C   UNL     1      24.917  39.919   6.239  1.00  0.00    -0.000 C 
BRANCH  16  17
ATOM     17  C   UNL     1      25.838  38.707   6.451  1.00  0.00    -0.003 C 
ATOM     18  C   UNL     1      25.150  37.377   6.142  1.00  0.00     0.004 C 
ENDBRANCH  16  17
ENDBRANCH  15  16
ENDBRANCH  14  15
ENDBRANCH  13  14
ENDBRANCH  12  13
ENDBRANCH  11  12
ENDBRANCH   1  11
TORSDOF 14
ENDMDL
MODEL 9
REMARK VINA RESULT:     9.865      5.108      7.083
REMARK INTER + INTRA:          17.554
REMARK INTER:                  18.007
REMARK INTRA:                  -0.454
REMARK UNBOUND:                -0.385
REMARK SMILES CCCCCCCCCCCCCCCC(=O)[O-]
REMARK SMILES IDX 9 1 10 2 11 3 12 4 13 5 14 6 15 7 16 8 17 9 18 10 8 11 7 12
REMARK SMILES IDX 6 13 5 14 4 15 3 16 2 17 1 18
REMARK H PARENT
REMARK Flexibility Score: inf
ROOT
ATOM      1  C   UNL     1      25.184  43.825   2.878  1.00  0.00     0.000 C 
ENDROOT
BRANCH   1   2
ATOM      2  C   UNL     1      26.275  43.625   3.941  1.00  0.00     0.000 C 
BRANCH   2   3
ATOM      3  C   UNL     1      27.670  44.053   3.453  1.00  0.00     0.000 C 
BRANCH   3   4
ATOM      4  C   UNL     1      28.210  45.313   4.161  1.00  0.00     0.000 C 
BRANCH   4   5
ATOM      5  C   UNL     1      27.172  45.937   5.111  1.00  0.00     0.000 C 
BRANCH   5   6
ATOM      6  C   UNL     1      27.595  47.317   5.645  1.00  0.00     0.006 C 
BRANCH   6   7
ATOM      7  C   UNL     1      27.318  47.518   7.145  1.00  0.00     0.053 C 
BRANCH   7   8
ATOM      8  C   UNL     1      26.237  46.616   7.661  1.00  0.00     0.041 C 
ATOM      9  O   UNL     1      25.030  46.970   7.598  1.00  0.00    -0.550 OA
ATOM     10  O   UNL     1      26.560  45.369   8.181  1.00  0.00    -0.550 OA
ENDBRANCH   7   8
ENDBRANCH   6   7
ENDBRANCH   5   6
ENDBRANCH   4   5
ENDBRANCH   3   4
ENDBRANCH   2   3
ENDBRANCH   1   2
BRANCH   1  11
ATOM     11  C   UNL     1      24.485  42.511   2.495  1.00  0.00     0.000 C 
BRANCH  11  12
ATOM     12  C   UNL     1      23.112  42.355   3.172  1.00  0.00    -0.000 C 
BRANCH  12  13
ATOM     13  C   UNL     1      23.223  41.922   4.642  1.00  0.00    -0.000 C 
BRANCH  13  14
ATOM     14  C   UNL     1      24.455  41.040   4.908  1.00  0.00    -0.000 C 
BRANCH  14  15
ATOM     15  C   UNL     1      24.257  40.113   6.127  1.00  0.00    -0.000 C 
BRANCH  15  16
ATOM     16  C   UNL     1      25.554  39.839   6.913  1.00  0.00    -0.000 C 
BRANCH  16  17
ATOM     17  C   UNL     1      26.061  38.391   6.828  1.00  0.00    -0.003 C 
ATOM     18  C   UNL     1      25.456  37.618   5.656  1.00  0.00     0.004 C 
ENDBRANCH  16  17
ENDBRANCH  15  16
ENDBRANCH  14  15
ENDBRANCH  13  14
ENDBRANCH  12  13
ENDBRANCH  11  12
ENDBRANCH   1  11
TORSDOF 14
ENDMDL
