MODEL 1
REMARK VINA RESULT:    -4.859      0.000      0.000
REMARK INTER + INTRA:          -5.434
REMARK INTER:                  -5.143
REMARK INTRA:                  -0.290
REMARK UNBOUND:                -0.290
REMARK SMILES C=C1CC[C@@]2(C(C)C)C[C@@H]12
REMARK SMILES IDX 5 1 4 2 3 3 2 4 1 5 10 6 9 7 6 8 7 9 8 10
REMARK H PARENT
REMARK Flexibility Score: inf
ROOT
ATOM      1  C   UNL     1     -48.289 -50.285  16.961  1.00  0.00    -0.020 C 
ATOM      2  C   UNL     1     -49.629 -50.337  17.714  1.00  0.00     0.012 C 
ATOM      3  C   UNL     1     -50.698 -50.794  16.717  1.00  0.00     0.031 C 
ATOM      4  C   UNL     1     -49.958 -51.055  15.449  1.00  0.00    -0.074 C 
ATOM      5  C   UNL     1     -50.542 -51.520  14.342  1.00  0.00     0.008 C 
ATOM      6  C   UNL     1     -48.502 -50.768  15.535  1.00  0.00     0.021 C 
ATOM      7  C   UNL     1     -47.722 -51.635  16.518  1.00  0.00     0.016 C 
ENDROOT
BRANCH   1   8
ATOM      8  C   UNL     1     -47.277 -49.152  17.304  1.00  0.00    -0.011 C 
ATOM      9  C   UNL     1     -47.374 -48.035  16.259  1.00  0.00     0.008 C 
ATOM     10  C   UNL     1     -47.382 -48.566  18.723  1.00  0.00     0.008 C 
ENDBRANCH   1   8
TORSDOF 1
ENDMDL
MODEL 2
REMARK VINA RESULT:    -4.822      0.838      3.993
REMARK INTER + INTRA:          -5.394
REMARK INTER:                  -5.149
REMARK INTRA:                  -0.245
REMARK UNBOUND:                -0.290
REMARK SMILES C=C1CC[C@@]2(C(C)C)C[C@@H]12
REMARK SMILES IDX 5 1 4 2 3 3 2 4 1 5 10 6 9 7 6 8 7 9 8 10
REMARK H PARENT
REMARK Flexibility Score: inf
ROOT
ATOM      1  C   UNL     1     -48.584 -50.557  16.631  1.00  0.00    -0.020 C 
ATOM      2  C   UNL     1     -47.856 -49.554  15.720  1.00  0.00     0.012 C 
ATOM      3  C   UNL     1     -47.241 -48.479  16.620  1.00  0.00     0.031 C 
ATOM      4  C   UNL     1     -47.563 -48.908  18.011  1.00  0.00    -0.074 C 
ATOM      5  C   UNL     1     -47.153 -48.246  19.096  1.00  0.00     0.008 C 
ATOM      6  C   UNL     1     -48.370 -50.155  18.083  1.00  0.00     0.021 C 
ATOM      7  C   UNL     1     -47.689 -51.406  17.536  1.00  0.00     0.016 C 
ENDROOT
BRANCH   1   8
ATOM      8  C   UNL     1     -49.921 -51.186  16.140  1.00  0.00    -0.011 C 
ATOM      9  C   UNL     1     -51.085 -50.662  16.990  1.00  0.00     0.008 C 
ATOM     10  C   UNL     1     -50.234 -51.014  14.643  1.00  0.00     0.008 C 
ENDBRANCH   1   8
TORSDOF 1
ENDMDL
MODEL 3
REMARK VINA RESULT:    -4.802      1.741      3.969
REMARK INTER + INTRA:          -5.373
REMARK INTER:                  -5.071
REMARK INTRA:                  -0.302
REMARK UNBOUND:                -0.290
REMARK SMILES C=C1CC[C@@]2(C(C)C)C[C@@H]12
REMARK SMILES IDX 5 1 4 2 3 3 2 4 1 5 10 6 9 7 6 8 7 9 8 10
REMARK H PARENT
REMARK Flexibility Score: inf
ROOT
ATOM      1  C   UNL     1     -47.835 -49.427  17.742  1.00  0.00    -0.020 C 
ATOM      2  C   UNL     1     -47.278 -49.428  16.309  1.00  0.00     0.012 C 
ATOM      3  C   UNL     1     -47.404 -48.001  15.767  1.00  0.00     0.031 C 
ATOM      4  C   UNL     1     -47.960 -47.205  16.898  1.00  0.00    -0.074 C 
ATOM      5  C   UNL     1     -48.173 -45.888  16.834  1.00  0.00     0.008 C 
ATOM      6  C   UNL     1     -48.239 -48.009  18.117  1.00  0.00     0.021 C 
ATOM      7  C   UNL     1     -47.019 -48.647  18.774  1.00  0.00     0.016 C 
ENDROOT
BRANCH   1   8
ATOM      8  C   UNL     1     -48.632 -50.669  18.240  1.00  0.00    -0.011 C 
ATOM      9  C   UNL     1     -50.115 -50.512  17.883  1.00  0.00     0.008 C 
ATOM     10  C   UNL     1     -48.110 -52.036  17.763  1.00  0.00     0.008 C 
ENDBRANCH   1   8
TORSDOF 1
ENDMDL
MODEL 4
REMARK VINA RESULT:    -4.782      1.280      2.918
REMARK INTER + INTRA:          -5.352
REMARK INTER:                  -5.291
REMARK INTRA:                  -0.060
REMARK UNBOUND:                -0.290
REMARK SMILES C=C1CC[C@@]2(C(C)C)C[C@@H]12
REMARK SMILES IDX 5 1 4 2 3 3 2 4 1 5 10 6 9 7 6 8 7 9 8 10
REMARK H PARENT
REMARK Flexibility Score: inf
ROOT
ATOM      1  C   UNL     1     -48.026 -50.171  17.278  1.00  0.00    -0.020 C 
ATOM      2  C   UNL     1     -47.669 -49.255  18.460  1.00  0.00     0.012 C 
ATOM      3  C   UNL     1     -48.802 -49.365  19.483  1.00  0.00     0.031 C 
ATOM      4  C   UNL     1     -49.742 -50.373  18.915  1.00  0.00    -0.074 C 
ATOM      5  C   UNL     1     -50.846 -50.784  19.544  1.00  0.00     0.008 C 
ATOM      6  C   UNL     1     -49.326 -50.897  17.586  1.00  0.00     0.021 C 
ATOM      7  C   UNL     1     -48.013 -51.672  17.571  1.00  0.00     0.016 C 
ENDROOT
BRANCH   1   8
ATOM      8  C   UNL     1     -47.662 -49.713  15.834  1.00  0.00    -0.011 C 
ATOM      9  C   UNL     1     -48.840 -49.985  14.890  1.00  0.00     0.008 C 
ATOM     10  C   UNL     1     -47.189 -48.256  15.692  1.00  0.00     0.008 C 
ENDBRANCH   1   8
TORSDOF 1
ENDMDL
MODEL 5
REMARK VINA RESULT:    -4.637      6.991      8.869
REMARK INTER + INTRA:          -5.199
REMARK INTER:                  -4.986
REMARK INTRA:                  -0.213
REMARK UNBOUND:                -0.290
REMARK SMILES C=C1CC[C@@]2(C(C)C)C[C@@H]12
REMARK SMILES IDX 5 1 4 2 3 3 2 4 1 5 10 6 9 7 6 8 7 9 8 10
REMARK H PARENT
REMARK Flexibility Score: inf
ROOT
ATOM      1  C   UNL     1     -54.323 -47.745  21.421  1.00  0.00    -0.020 C 
ATOM      2  C   UNL     1     -54.031 -46.417  22.138  1.00  0.00     0.012 C 
ATOM      3  C   UNL     1     -53.154 -46.734  23.352  1.00  0.00     0.031 C 
ATOM      4  C   UNL     1     -52.907 -48.203  23.278  1.00  0.00    -0.074 C 
ATOM      5  C   UNL     1     -52.135 -48.861  24.146  1.00  0.00     0.008 C 
ATOM      6  C   UNL     1     -53.585 -48.868  22.134  1.00  0.00     0.021 C 
ATOM      7  C   UNL     1     -53.125 -48.419  20.751  1.00  0.00     0.016 C 
ENDROOT
BRANCH   1   8
ATOM      8  C   UNL     1     -55.726 -47.961  20.780  1.00  0.00    -0.011 C 
ATOM      9  C   UNL     1     -56.441 -49.127  21.472  1.00  0.00     0.008 C 
ATOM     10  C   UNL     1     -56.641 -46.724  20.736  1.00  0.00     0.008 C 
ENDBRANCH   1   8
TORSDOF 1
ENDMDL
MODEL 6
REMARK VINA RESULT:    -4.607     11.691     14.352
REMARK INTER + INTRA:          -5.167
REMARK INTER:                  -4.962
REMARK INTRA:                  -0.205
REMARK UNBOUND:                -0.290
REMARK SMILES C=C1CC[C@@]2(C(C)C)C[C@@H]12
REMARK SMILES IDX 5 1 4 2 3 3 2 4 1 5 10 6 9 7 6 8 7 9 8 10
REMARK H PARENT
REMARK Flexibility Score: inf
ROOT
ATOM      1  C   UNL     1     -40.346 -47.564  28.432  1.00  0.00    -0.020 C 
ATOM      2  C   UNL     1     -40.823 -46.249  27.793  1.00  0.00     0.012 C 
ATOM      3  C   UNL     1     -41.541 -46.607  26.489  1.00  0.00     0.031 C 
ATOM      4  C   UNL     1     -41.524 -48.097  26.434  1.00  0.00    -0.074 C 
ATOM      5  C   UNL     1     -42.101 -48.801  25.457  1.00  0.00     0.008 C 
ATOM      6  C   UNL     1     -40.818 -48.731  27.579  1.00  0.00     0.021 C 
ATOM      7  C   UNL     1     -41.447 -48.492  28.947  1.00  0.00     0.016 C 
ENDROOT
BRANCH   1   8
ATOM      8  C   UNL     1     -38.976 -47.587  29.172  1.00  0.00    -0.011 C 
ATOM      9  C   UNL     1     -38.028 -48.575  28.482  1.00  0.00     0.008 C 
ATOM     10  C   UNL     1     -38.287 -46.222  29.350  1.00  0.00     0.008 C 
ENDBRANCH   1   8
TORSDOF 1
ENDMDL
MODEL 7
REMARK VINA RESULT:    -4.549     13.263     14.573
REMARK INTER + INTRA:          -5.105
REMARK INTER:                  -4.870
REMARK INTRA:                  -0.235
REMARK UNBOUND:                -0.290
REMARK SMILES C=C1CC[C@@]2(C(C)C)C[C@@H]12
REMARK SMILES IDX 5 1 4 2 3 3 2 4 1 5 10 6 9 7 6 8 7 9 8 10
REMARK H PARENT
REMARK Flexibility Score: inf
ROOT
ATOM      1  C   UNL     1     -40.275 -47.811  27.899  1.00  0.00    -0.020 C 
ATOM      2  C   UNL     1     -40.610 -49.284  28.184  1.00  0.00     0.012 C 
ATOM      3  C   UNL     1     -42.078 -49.345  28.617  1.00  0.00     0.031 C 
ATOM      4  C   UNL     1     -42.571 -47.943  28.512  1.00  0.00    -0.074 C 
ATOM      5  C   UNL     1     -43.834 -47.589  28.763  1.00  0.00     0.008 C 
ATOM      6  C   UNL     1     -41.530 -46.971  28.083  1.00  0.00     0.021 C 
ATOM      7  C   UNL     1     -40.967 -47.193  26.683  1.00  0.00     0.016 C 
ENDROOT
BRANCH   1   8
ATOM      8  C   UNL     1     -38.863 -47.274  28.279  1.00  0.00    -0.011 C 
ATOM      9  C   UNL     1     -38.985 -46.242  29.407  1.00  0.00     0.008 C 
ATOM     10  C   UNL     1     -37.815 -48.340  28.642  1.00  0.00     0.008 C 
ENDBRANCH   1   8
TORSDOF 1
ENDMDL
MODEL 8
REMARK VINA RESULT:    -4.523      1.339      3.289
REMARK INTER + INTRA:          -5.078
REMARK INTER:                  -4.965
REMARK INTRA:                  -0.113
REMARK UNBOUND:                -0.290
REMARK SMILES C=C1CC[C@@]2(C(C)C)C[C@@H]12
REMARK SMILES IDX 5 1 4 2 3 3 2 4 1 5 10 6 9 7 6 8 7 9 8 10
REMARK H PARENT
REMARK Flexibility Score: inf
ROOT
ATOM      1  C   UNL     1     -48.978 -50.240  17.687  1.00  0.00    -0.020 C 
ATOM      2  C   UNL     1     -49.323 -50.805  16.299  1.00  0.00     0.012 C 
ATOM      3  C   UNL     1     -48.579 -49.959  15.263  1.00  0.00     0.031 C 
ATOM      4  C   UNL     1     -47.782 -48.982  16.059  1.00  0.00    -0.074 C 
ATOM      5  C   UNL     1     -46.954 -48.091  15.510  1.00  0.00     0.008 C 
ATOM      6  C   UNL     1     -47.981 -49.103  17.528  1.00  0.00     0.021 C 
ATOM      7  C   UNL     1     -47.530 -50.425  18.141  1.00  0.00     0.016 C 
ENDROOT
BRANCH   1   8
ATOM      8  C   UNL     1     -50.083 -50.217  18.785  1.00  0.00    -0.011 C 
ATOM      9  C   UNL     1     -50.158 -48.823  19.419  1.00  0.00     0.008 C 
ATOM     10  C   UNL     1     -51.482 -50.676  18.338  1.00  0.00     0.008 C 
ENDBRANCH   1   8
TORSDOF 1
ENDMDL
MODEL 9
REMARK VINA RESULT:    -4.437     14.738     15.978
REMARK INTER + INTRA:          -4.986
REMARK INTER:                  -4.878
REMARK INTRA:                  -0.109
REMARK UNBOUND:                -0.290
REMARK SMILES C=C1CC[C@@]2(C(C)C)C[C@@H]12
REMARK SMILES IDX 5 1 4 2 3 3 2 4 1 5 10 6 9 7 6 8 7 9 8 10
REMARK H PARENT
REMARK Flexibility Score: inf
ROOT
ATOM      1  C   UNL     1     -45.408 -50.484  31.658  1.00  0.00    -0.020 C 
ATOM      2  C   UNL     1     -45.387 -49.200  30.812  1.00  0.00     0.012 C 
ATOM      3  C   UNL     1     -43.954 -49.005  30.312  1.00  0.00     0.031 C 
ATOM      4  C   UNL     1     -43.203 -50.190  30.813  1.00  0.00    -0.074 C 
ATOM      5  C   UNL     1     -41.914 -50.411  30.542  1.00  0.00     0.008 C 
ATOM      6  C   UNL     1     -44.026 -51.120  31.631  1.00  0.00     0.021 C 
ATOM      7  C   UNL     1     -45.182 -51.790  30.894  1.00  0.00     0.016 C 
ENDROOT
BRANCH   1   8
ATOM      8  C   UNL     1     -46.312 -50.536  32.926  1.00  0.00    -0.011 C 
ATOM      9  C   UNL     1     -45.500 -51.044  34.123  1.00  0.00     0.008 C 
ATOM     10  C   UNL     1     -47.034 -49.226  33.287  1.00  0.00     0.008 C 
ENDBRANCH   1   8
TORSDOF 1
ENDMDL
