MODEL 1
REMARK VINA RESULT:    -2.949      0.000      0.000
REMARK INTER + INTRA:          -3.572
REMARK INTER:                  -3.466
REMARK INTRA:                  -0.106
REMARK UNBOUND:                -0.106
REMARK SMILES O=C([O-])CCC(=O)[O-]
REMARK SMILES IDX 4 1 2 2 1 3 3 4 5 5 6 6 7 7 8 8
REMARK H PARENT
REMARK Flexibility Score: inf
ROOT
ATOM      1  C   UNL     1      19.946  14.302 -15.846  1.00  0.00     0.059 C 
ENDROOT
BRANCH   1   2
ATOM      2  C   UNL     1      21.376  14.350 -16.293  1.00  0.00     0.042 C 
ATOM      3  O   UNL     1      21.945  13.307 -16.707  1.00  0.00    -0.550 OA
ATOM      4  O   UNL     1      22.065  15.556 -16.292  1.00  0.00    -0.550 OA
ENDBRANCH   1   2
BRANCH   1   5
ATOM      5  C   UNL     1      19.445  12.861 -15.708  1.00  0.00     0.059 C 
BRANCH   5   6
ATOM      6  C   UNL     1      18.411  12.534 -16.742  1.00  0.00     0.042 C 
ATOM      7  O   UNL     1      17.595  11.594 -16.547  1.00  0.00    -0.550 OA
ATOM      8  O   UNL     1      18.321  13.293 -17.902  1.00  0.00    -0.550 OA
ENDBRANCH   5   6
ENDBRANCH   1   5
TORSDOF 3
ENDMDL
MODEL 2
REMARK VINA RESULT:    -2.942      0.494      3.860
REMARK INTER + INTRA:          -3.564
REMARK INTER:                  -3.483
REMARK INTRA:                  -0.081
REMARK UNBOUND:                -0.106
REMARK SMILES O=C([O-])CCC(=O)[O-]
REMARK SMILES IDX 4 1 2 2 1 3 3 4 5 5 6 6 7 7 8 8
REMARK H PARENT
REMARK Flexibility Score: inf
ROOT
ATOM      1  C   UNL     1      19.637  12.648 -15.911  1.00  0.00     0.059 C 
ENDROOT
BRANCH   1   2
ATOM      2  C   UNL     1      18.347  12.451 -16.650  1.00  0.00     0.042 C 
ATOM      3  O   UNL     1      17.519  11.588 -16.259  1.00  0.00    -0.550 OA
ATOM      4  O   UNL     1      18.044  13.251 -17.744  1.00  0.00    -0.550 OA
ENDBRANCH   1   2
BRANCH   1   5
ATOM      5  C   UNL     1      19.852  14.117 -15.531  1.00  0.00     0.059 C 
BRANCH   5   6
ATOM      6  C   UNL     1      21.088  14.676 -16.165  1.00  0.00     0.042 C 
ATOM      7  O   UNL     1      21.969  13.903 -16.627  1.00  0.00    -0.550 OA
ATOM      8  O   UNL     1      21.250  16.050 -16.284  1.00  0.00    -0.550 OA
ENDBRANCH   5   6
ENDBRANCH   1   5
TORSDOF 3
ENDMDL
MODEL 3
REMARK VINA RESULT:    -2.940      0.068      3.902
REMARK INTER + INTRA:          -3.561
REMARK INTER:                  -3.460
REMARK INTRA:                  -0.102
REMARK UNBOUND:                -0.106
REMARK SMILES O=C([O-])CCC(=O)[O-]
REMARK SMILES IDX 4 1 2 2 1 3 3 4 5 5 6 6 7 7 8 8
REMARK H PARENT
REMARK Flexibility Score: inf
ROOT
ATOM      1  C   UNL     1      19.430  12.887 -15.683  1.00  0.00     0.059 C 
ENDROOT
BRANCH   1   2
ATOM      2  C   UNL     1      18.398  12.558 -16.719  1.00  0.00     0.042 C 
ATOM      3  O   UNL     1      17.596  11.606 -16.534  1.00  0.00    -0.550 OA
ATOM      4  O   UNL     1      18.296  13.331 -17.869  1.00  0.00    -0.550 OA
ENDBRANCH   1   2
BRANCH   1   5
ATOM      5  C   UNL     1      19.914  14.336 -15.807  1.00  0.00     0.059 C 
BRANCH   5   6
ATOM      6  C   UNL     1      21.330  14.406 -16.290  1.00  0.00     0.042 C 
ATOM      7  O   UNL     1      21.945  15.506 -16.293  1.00  0.00    -0.550 OA
ATOM      8  O   UNL     1      21.984  13.251 -16.699  1.00  0.00    -0.550 OA
ENDBRANCH   5   6
ENDBRANCH   1   5
TORSDOF 3
ENDMDL
MODEL 4
REMARK VINA RESULT:    -2.906      2.060      3.166
REMARK INTER + INTRA:          -3.522
REMARK INTER:                  -3.441
REMARK INTRA:                  -0.080
REMARK UNBOUND:                -0.106
REMARK SMILES O=C([O-])CCC(=O)[O-]
REMARK SMILES IDX 4 1 2 2 1 3 3 4 5 5 6 6 7 7 8 8
REMARK H PARENT
REMARK Flexibility Score: inf
ROOT
ATOM      1  C   UNL     1      21.335  15.770 -16.374  1.00  0.00     0.059 C 
ENDROOT
BRANCH   1   2
ATOM      2  C   UNL     1      20.755  16.691 -17.405  1.00  0.00     0.042 C 
ATOM      3  O   UNL     1      21.455  17.617 -17.892  1.00  0.00    -0.550 OA
ATOM      4  O   UNL     1      19.456  16.499 -17.857  1.00  0.00    -0.550 OA
ENDBRANCH   1   2
BRANCH   1   5
ATOM      5  C   UNL     1      20.314  14.724 -15.913  1.00  0.00     0.059 C 
BRANCH   5   6
ATOM      6  C   UNL     1      20.747  13.336 -16.270  1.00  0.00     0.042 C 
ATOM      7  O   UNL     1      21.912  13.126 -16.702  1.00  0.00    -0.550 OA
ATOM      8  O   UNL     1      19.879  12.267 -16.088  1.00  0.00    -0.550 OA
ENDBRANCH   5   6
ENDBRANCH   1   5
TORSDOF 3
ENDMDL
MODEL 5
REMARK VINA RESULT:    -2.867      0.395      4.018
REMARK INTER + INTRA:          -3.475
REMARK INTER:                  -3.385
REMARK INTRA:                  -0.090
REMARK UNBOUND:                -0.106
REMARK SMILES O=C([O-])CCC(=O)[O-]
REMARK SMILES IDX 4 1 2 2 1 3 3 4 5 5 6 6 7 7 8 8
REMARK H PARENT
REMARK Flexibility Score: inf
ROOT
ATOM      1  C   UNL     1      19.452  12.928 -15.641  1.00  0.00     0.059 C 
ENDROOT
BRANCH   1   2
ATOM      2  C   UNL     1      18.547  12.417 -16.721  1.00  0.00     0.042 C 
ATOM      3  O   UNL     1      18.012  13.218 -17.531  1.00  0.00    -0.550 OA
ATOM      4  O   UNL     1      18.330  11.052 -16.858  1.00  0.00    -0.550 OA
ENDBRANCH   1   2
BRANCH   1   5
ATOM      5  C   UNL     1      19.920  14.359 -15.927  1.00  0.00     0.059 C 
BRANCH   5   6
ATOM      6  C   UNL     1      21.359  14.397 -16.341  1.00  0.00     0.042 C 
ATOM      7  O   UNL     1      22.000  15.482 -16.303  1.00  0.00    -0.550 OA
ATOM      8  O   UNL     1      22.003  13.231 -16.730  1.00  0.00    -0.550 OA
ENDBRANCH   5   6
ENDBRANCH   1   5
TORSDOF 3
ENDMDL
MODEL 6
REMARK VINA RESULT:    -2.841      1.966      3.741
REMARK INTER + INTRA:          -3.445
REMARK INTER:                  -3.354
REMARK INTRA:                  -0.091
REMARK UNBOUND:                -0.106
REMARK SMILES O=C([O-])CCC(=O)[O-]
REMARK SMILES IDX 4 1 2 2 1 3 3 4 5 5 6 6 7 7 8 8
REMARK H PARENT
REMARK Flexibility Score: inf
ROOT
ATOM      1  C   UNL     1      20.244  14.791 -15.650  1.00  0.00     0.059 C 
ENDROOT
BRANCH   1   2
ATOM      2  C   UNL     1      20.160  13.367 -16.111  1.00  0.00     0.042 C 
ATOM      3  O   UNL     1      21.055  12.888 -16.855  1.00  0.00    -0.550 OA
ATOM      4  O   UNL     1      19.114  12.559 -15.684  1.00  0.00    -0.550 OA
ENDBRANCH   1   2
BRANCH   1   5
ATOM      5  C   UNL     1      21.307  15.574 -16.428  1.00  0.00     0.059 C 
BRANCH   5   6
ATOM      6  C   UNL     1      20.687  16.561 -17.369  1.00  0.00     0.042 C 
ATOM      7  O   UNL     1      19.496  16.408 -17.754  1.00  0.00    -0.550 OA
ATOM      8  O   UNL     1      21.408  17.669 -17.791  1.00  0.00    -0.550 OA
ENDBRANCH   5   6
ENDBRANCH   1   5
TORSDOF 3
ENDMDL
MODEL 7
REMARK VINA RESULT:    -2.665      1.577      2.165
REMARK INTER + INTRA:          -3.239
REMARK INTER:                  -3.166
REMARK INTRA:                  -0.072
REMARK UNBOUND:                -0.106
REMARK SMILES O=C([O-])CCC(=O)[O-]
REMARK SMILES IDX 4 1 2 2 1 3 3 4 5 5 6 6 7 7 8 8
REMARK H PARENT
REMARK Flexibility Score: inf
ROOT
ATOM      1  C   UNL     1      19.340  12.721 -15.654  1.00  0.00     0.059 C 
ENDROOT
BRANCH   1   2
ATOM      2  C   UNL     1      19.825  13.977 -16.314  1.00  0.00     0.042 C 
ATOM      3  O   UNL     1      19.128  14.536 -17.200  1.00  0.00    -0.550 OA
ATOM      4  O   UNL     1      21.027  14.550 -15.920  1.00  0.00    -0.550 OA
ENDBRANCH   1   2
BRANCH   1   5
ATOM      5  C   UNL     1      18.216  12.058 -16.457  1.00  0.00     0.059 C 
BRANCH   5   6
ATOM      6  C   UNL     1      18.678  10.794 -17.113  1.00  0.00     0.042 C 
ATOM      7  O   UNL     1      19.443  10.004 -16.498  1.00  0.00    -0.550 OA
ATOM      8  O   UNL     1      18.232  10.466 -18.387  1.00  0.00    -0.550 OA
ENDBRANCH   5   6
ENDBRANCH   1   5
TORSDOF 3
ENDMDL
MODEL 8
REMARK VINA RESULT:    -2.644      1.860      3.544
REMARK INTER + INTRA:          -3.213
REMARK INTER:                  -3.110
REMARK INTRA:                  -0.103
REMARK UNBOUND:                -0.106
REMARK SMILES O=C([O-])CCC(=O)[O-]
REMARK SMILES IDX 4 1 2 2 1 3 3 4 5 5 6 6 7 7 8 8
REMARK H PARENT
REMARK Flexibility Score: inf
ROOT
ATOM      1  C   UNL     1      18.534  11.794 -16.622  1.00  0.00     0.059 C 
ENDROOT
BRANCH   1   2
ATOM      2  C   UNL     1      19.474  10.672 -16.946  1.00  0.00     0.042 C 
ATOM      3  O   UNL     1      19.345   9.555 -16.380  1.00  0.00    -0.550 OA
ATOM      4  O   UNL     1      20.463  10.849 -17.904  1.00  0.00    -0.550 OA
ENDBRANCH   1   2
BRANCH   1   5
ATOM      5  C   UNL     1      19.153  12.780 -15.626  1.00  0.00     0.059 C 
BRANCH   5   6
ATOM      6  C   UNL     1      19.796  13.940 -16.323  1.00  0.00     0.042 C 
ATOM      7  O   UNL     1      20.977  14.274 -16.039  1.00  0.00    -0.550 OA
ATOM      8  O   UNL     1      19.107  14.626 -17.314  1.00  0.00    -0.550 OA
ENDBRANCH   5   6
ENDBRANCH   1   5
TORSDOF 3
ENDMDL
MODEL 9
REMARK VINA RESULT:    -2.519      2.851      4.153
REMARK INTER + INTRA:          -3.067
REMARK INTER:                  -2.960
REMARK INTRA:                  -0.106
REMARK UNBOUND:                -0.106
REMARK SMILES O=C([O-])CCC(=O)[O-]
REMARK SMILES IDX 4 1 2 2 1 3 3 4 5 5 6 6 7 7 8 8
REMARK H PARENT
REMARK Flexibility Score: inf
ROOT
ATOM      1  C   UNL     1      19.377  11.011 -16.549  1.00  0.00     0.059 C 
ENDROOT
BRANCH   1   2
ATOM      2  C   UNL     1      19.191   9.576 -16.940  1.00  0.00     0.042 C 
ATOM      3  O   UNL     1      18.736   9.284 -18.076  1.00  0.00    -0.550 OA
ATOM      4  O   UNL     1      19.561   8.563 -16.065  1.00  0.00    -0.550 OA
ENDBRANCH   1   2
BRANCH   1   5
ATOM      5  C   UNL     1      18.043  11.762 -16.503  1.00  0.00     0.059 C 
BRANCH   5   6
ATOM      6  C   UNL     1      17.921  12.742 -17.629  1.00  0.00     0.042 C 
ATOM      7  O   UNL     1      18.573  13.820 -17.604  1.00  0.00    -0.550 OA
ATOM      8  O   UNL     1      17.120  12.449 -18.725  1.00  0.00    -0.550 OA
ENDBRANCH   5   6
ENDBRANCH   1   5
TORSDOF 3
ENDMDL
