MODEL 1
REMARK VINA RESULT:    -4.797      0.000      0.000
REMARK INTER + INTRA:          -9.952
REMARK INTER:                  -8.163
REMARK INTRA:                  -1.789
REMARK UNBOUND:                -1.789
REMARK SMILES CCCCCCCCCCCCCC(=O)[O-]
REMARK SMILES IDX 8 1 9 2 10 3 11 4 12 5 13 6 14 7 15 8 16 9 7 10 6 11 5 12
REMARK SMILES IDX 4 13 3 14 2 15 1 16
REMARK H PARENT
REMARK Flexibility Score: inf
ROOT
ATOM      1  C   UNL     1       4.493   3.118  13.500  1.00  0.00     0.000 C 
ENDROOT
BRANCH   1   2
ATOM      2  C   UNL     1       3.569   2.873  14.704  1.00  0.00     0.000 C 
BRANCH   2   3
ATOM      3  C   UNL     1       4.320   2.934  16.046  1.00  0.00     0.000 C 
BRANCH   3   4
ATOM      4  C   UNL     1       4.278   1.598  16.807  1.00  0.00     0.000 C 
BRANCH   4   5
ATOM      5  C   UNL     1       5.644   0.895  16.849  1.00  0.00     0.006 C 
BRANCH   5   6
ATOM      6  C   UNL     1       5.499  -0.552  17.327  1.00  0.00     0.053 C 
BRANCH   6   7
ATOM      7  C   UNL     1       5.647  -0.630  18.815  1.00  0.00     0.041 C 
ATOM      8  O   UNL     1       6.568  -1.320  19.325  1.00  0.00    -0.550 OA
ATOM      9  O   UNL     1       4.737   0.022  19.638  1.00  0.00    -0.550 OA
ENDBRANCH   6   7
ENDBRANCH   5   6
ENDBRANCH   4   5
ENDBRANCH   3   4
ENDBRANCH   2   3
ENDBRANCH   1   2
BRANCH   1  10
ATOM     10  C   UNL     1       5.227   1.842  13.050  1.00  0.00     0.000 C 
BRANCH  10  11
ATOM     11  C   UNL     1       4.293   0.623  12.963  1.00  0.00    -0.000 C 
BRANCH  11  12
ATOM     12  C   UNL     1       4.899  -0.635  13.604  1.00  0.00    -0.000 C 
BRANCH  12  13
ATOM     13  C   UNL     1       3.851  -1.754  13.717  1.00  0.00    -0.000 C 
BRANCH  13  14
ATOM     14  C   UNL     1       3.002  -1.633  15.000  1.00  0.00    -0.000 C 
BRANCH  14  15
ATOM     15  C   UNL     1       1.529  -1.278  14.733  1.00  0.00    -0.003 C 
ATOM     16  C   UNL     1       1.195   0.176  15.058  1.00  0.00     0.004 C 
ENDBRANCH  14  15
ENDBRANCH  13  14
ENDBRANCH  12  13
ENDBRANCH  11  12
ENDBRANCH  10  11
ENDBRANCH   1  10
TORSDOF 12
ENDMDL
MODEL 2
REMARK VINA RESULT:    -4.775      2.288      4.552
REMARK INTER + INTRA:          -9.913
REMARK INTER:                  -7.804
REMARK INTRA:                  -2.110
REMARK UNBOUND:                -1.789
REMARK SMILES CCCCCCCCCCCCCC(=O)[O-]
REMARK SMILES IDX 8 1 9 2 10 3 11 4 12 5 13 6 14 7 15 8 16 9 7 10 6 11 5 12
REMARK SMILES IDX 4 13 3 14 2 15 1 16
REMARK H PARENT
REMARK Flexibility Score: inf
ROOT
ATOM      1  C   UNL     1       5.766   1.189  13.434  1.00  0.00     0.000 C 
ENDROOT
BRANCH   1   2
ATOM      2  C   UNL     1       5.736  -0.292  13.020  1.00  0.00     0.000 C 
BRANCH   2   3
ATOM      3  C   UNL     1       6.370  -1.213  14.078  1.00  0.00     0.000 C 
BRANCH   3   4
ATOM      4  C   UNL     1       5.320  -1.979  14.899  1.00  0.00     0.000 C 
BRANCH   4   5
ATOM      5  C   UNL     1       3.886  -1.735  14.405  1.00  0.00     0.006 C 
BRANCH   5   6
ATOM      6  C   UNL     1       2.971  -1.329  15.564  1.00  0.00     0.053 C 
BRANCH   6   7
ATOM      7  C   UNL     1       1.845  -0.476  15.069  1.00  0.00     0.041 C 
ATOM      8  O   UNL     1       1.439  -0.590  13.883  1.00  0.00    -0.550 OA
ATOM      9  O   UNL     1       1.278   0.479  15.904  1.00  0.00    -0.550 OA
ENDBRANCH   6   7
ENDBRANCH   5   6
ENDBRANCH   4   5
ENDBRANCH   3   4
ENDBRANCH   2   3
ENDBRANCH   1   2
BRANCH   1  10
ATOM     10  C   UNL     1       4.417   1.893  13.208  1.00  0.00     0.000 C 
BRANCH  10  11
ATOM     11  C   UNL     1       3.831   2.478  14.504  1.00  0.00    -0.000 C 
BRANCH  11  12
ATOM     12  C   UNL     1       4.875   2.605  15.623  1.00  0.00    -0.000 C 
BRANCH  12  13
ATOM     13  C   UNL     1       4.487   1.745  16.837  1.00  0.00    -0.000 C 
BRANCH  13  14
ATOM     14  C   UNL     1       5.610   0.770  17.247  1.00  0.00    -0.000 C 
BRANCH  14  15
ATOM     15  C   UNL     1       5.239  -0.129  18.439  1.00  0.00    -0.003 C 
ATOM     16  C   UNL     1       6.096  -1.390  18.528  1.00  0.00     0.004 C 
ENDBRANCH  14  15
ENDBRANCH  13  14
ENDBRANCH  12  13
ENDBRANCH  11  12
ENDBRANCH  10  11
ENDBRANCH   1  10
TORSDOF 12
ENDMDL
MODEL 3
REMARK VINA RESULT:    -4.668      2.339      4.605
REMARK INTER + INTRA:          -9.731
REMARK INTER:                  -8.083
REMARK INTRA:                  -1.648
REMARK UNBOUND:                -1.789
REMARK SMILES CCCCCCCCCCCCCC(=O)[O-]
REMARK SMILES IDX 8 1 9 2 10 3 11 4 12 5 13 6 14 7 15 8 16 9 7 10 6 11 5 12
REMARK SMILES IDX 4 13 3 14 2 15 1 16
REMARK H PARENT
REMARK Flexibility Score: inf
ROOT
ATOM      1  C   UNL     1       4.064   2.954  13.633  1.00  0.00     0.000 C 
ENDROOT
BRANCH   1   2
ATOM      2  C   UNL     1       5.407   2.259  13.353  1.00  0.00     0.000 C 
BRANCH   2   3
ATOM      3  C   UNL     1       5.243   0.755  13.064  1.00  0.00     0.000 C 
BRANCH   3   4
ATOM      4  C   UNL     1       3.794   0.274  13.243  1.00  0.00     0.000 C 
BRANCH   4   5
ATOM      5  C   UNL     1       3.699  -1.060  13.999  1.00  0.00     0.006 C 
BRANCH   5   6
ATOM      6  C   UNL     1       2.933  -0.890  15.313  1.00  0.00     0.053 C 
BRANCH   6   7
ATOM      7  C   UNL     1       1.575  -0.313  15.058  1.00  0.00     0.041 C 
ATOM      8  O   UNL     1       0.720  -0.970  14.408  1.00  0.00    -0.550 OA
ATOM      9  O   UNL     1       1.272   0.970  15.495  1.00  0.00    -0.550 OA
ENDBRANCH   6   7
ENDBRANCH   5   6
ENDBRANCH   4   5
ENDBRANCH   3   4
ENDBRANCH   2   3
ENDBRANCH   1   2
BRANCH   1  10
ATOM     10  C   UNL     1       3.909   3.367  15.107  1.00  0.00     0.000 C 
BRANCH  10  11
ATOM     11  C   UNL     1       4.718   2.471  16.061  1.00  0.00    -0.000 C 
BRANCH  11  12
ATOM     12  C   UNL     1       3.920   2.060  17.307  1.00  0.00    -0.000 C 
BRANCH  12  13
ATOM     13  C   UNL     1       4.692   1.021  18.136  1.00  0.00    -0.000 C 
BRANCH  13  14
ATOM     14  C   UNL     1       5.778   0.301  17.309  1.00  0.00    -0.000 C 
BRANCH  14  15
ATOM     15  C   UNL     1       5.809  -1.221  17.526  1.00  0.00    -0.003 C 
ATOM     16  C   UNL     1       6.318  -1.620  18.909  1.00  0.00     0.004 C 
ENDBRANCH  14  15
ENDBRANCH  13  14
ENDBRANCH  12  13
ENDBRANCH  11  12
ENDBRANCH  10  11
ENDBRANCH   1  10
TORSDOF 12
ENDMDL
MODEL 4
REMARK VINA RESULT:    -4.540      2.673      4.198
REMARK INTER + INTRA:          -9.515
REMARK INTER:                  -8.078
REMARK INTRA:                  -1.437
REMARK UNBOUND:                -1.789
REMARK SMILES CCCCCCCCCCCCCC(=O)[O-]
REMARK SMILES IDX 8 1 9 2 10 3 11 4 12 5 13 6 14 7 15 8 16 9 7 10 6 11 5 12
REMARK SMILES IDX 4 13 3 14 2 15 1 16
REMARK H PARENT
REMARK Flexibility Score: inf
ROOT
ATOM      1  C   UNL     1       4.975   1.801  12.875  1.00  0.00     0.000 C 
ENDROOT
BRANCH   1   2
ATOM      2  C   UNL     1       4.984   3.205  13.502  1.00  0.00     0.000 C 
BRANCH   2   3
ATOM      3  C   UNL     1       4.391   3.220  14.923  1.00  0.00     0.000 C 
BRANCH   3   4
ATOM      4  C   UNL     1       2.904   2.829  14.946  1.00  0.00     0.000 C 
BRANCH   4   5
ATOM      5  C   UNL     1       2.650   1.504  15.680  1.00  0.00     0.006 C 
BRANCH   5   6
ATOM      6  C   UNL     1       2.535   0.343  14.688  1.00  0.00     0.053 C 
BRANCH   6   7
ATOM      7  C   UNL     1       1.221  -0.356  14.849  1.00  0.00     0.041 C 
ATOM      8  O   UNL     1       0.190   0.297  15.160  1.00  0.00    -0.550 OA
ATOM      9  O   UNL     1       1.145  -1.735  14.703  1.00  0.00    -0.550 OA
ENDBRANCH   6   7
ENDBRANCH   5   6
ENDBRANCH   4   5
ENDBRANCH   3   4
ENDBRANCH   2   3
ENDBRANCH   1   2
BRANCH   1  10
ATOM     10  C   UNL     1       6.348   1.112  12.949  1.00  0.00     0.000 C 
BRANCH  10  11
ATOM     11  C   UNL     1       6.620   0.481  14.325  1.00  0.00    -0.000 C 
BRANCH  11  12
ATOM     12  C   UNL     1       5.947  -0.889  14.494  1.00  0.00    -0.000 C 
BRANCH  12  13
ATOM     13  C   UNL     1       5.614  -1.161  15.969  1.00  0.00    -0.000 C 
BRANCH  13  14
ATOM     14  C   UNL     1       5.597   0.130  16.814  1.00  0.00    -0.000 C 
BRANCH  14  15
ATOM     15  C   UNL     1       5.430  -0.123  18.322  1.00  0.00    -0.003 C 
ATOM     16  C   UNL     1       6.269  -1.293  18.831  1.00  0.00     0.004 C 
ENDBRANCH  14  15
ENDBRANCH  13  14
ENDBRANCH  12  13
ENDBRANCH  11  12
ENDBRANCH  10  11
ENDBRANCH   1  10
TORSDOF 12
ENDMDL
MODEL 5
REMARK VINA RESULT:    -4.521      1.197      2.875
REMARK INTER + INTRA:          -9.481
REMARK INTER:                  -7.977
REMARK INTRA:                  -1.504
REMARK UNBOUND:                -1.789
REMARK SMILES CCCCCCCCCCCCCC(=O)[O-]
REMARK SMILES IDX 8 1 9 2 10 3 11 4 12 5 13 6 14 7 15 8 16 9 7 10 6 11 5 12
REMARK SMILES IDX 4 13 3 14 2 15 1 16
REMARK H PARENT
REMARK Flexibility Score: inf
ROOT
ATOM      1  C   UNL     1       6.247   1.257  13.236  1.00  0.00     0.000 C 
ENDROOT
BRANCH   1   2
ATOM      2  C   UNL     1       6.257   0.426  14.530  1.00  0.00     0.000 C 
BRANCH   2   3
ATOM      3  C   UNL     1       6.089  -1.081  14.266  1.00  0.00     0.000 C 
BRANCH   3   4
ATOM      4  C   UNL     1       6.096  -1.912  15.559  1.00  0.00     0.000 C 
BRANCH   4   5
ATOM      5  C   UNL     1       5.370  -1.213  16.719  1.00  0.00     0.006 C 
BRANCH   5   6
ATOM      6  C   UNL     1       5.839  -1.762  18.068  1.00  0.00     0.053 C 
BRANCH   6   7
ATOM      7  C   UNL     1       5.808  -0.689  19.111  1.00  0.00     0.041 C 
ATOM      8  O   UNL     1       6.700  -0.641  19.998  1.00  0.00    -0.550 OA
ATOM      9  O   UNL     1       4.766   0.230  19.131  1.00  0.00    -0.550 OA
ENDBRANCH   6   7
ENDBRANCH   5   6
ENDBRANCH   4   5
ENDBRANCH   3   4
ENDBRANCH   2   3
ENDBRANCH   1   2
BRANCH   1  10
ATOM     10  C   UNL     1       4.845   1.782  12.882  1.00  0.00     0.000 C 
BRANCH  10  11
ATOM     11  C   UNL     1       4.633   3.241  13.319  1.00  0.00    -0.000 C 
BRANCH  11  12
ATOM     12  C   UNL     1       4.281   3.370  14.808  1.00  0.00    -0.000 C 
BRANCH  12  13
ATOM     13  C   UNL     1       2.890   2.786  15.098  1.00  0.00    -0.000 C 
BRANCH  13  14
ATOM     14  C   UNL     1       2.965   1.439  15.848  1.00  0.00    -0.000 C 
BRANCH  14  15
ATOM     15  C   UNL     1       1.879   0.436  15.422  1.00  0.00    -0.003 C 
ATOM     16  C   UNL     1       2.409  -0.672  14.515  1.00  0.00     0.004 C 
ENDBRANCH  14  15
ENDBRANCH  13  14
ENDBRANCH  12  13
ENDBRANCH  11  12
ENDBRANCH  10  11
ENDBRANCH   1  10
TORSDOF 12
ENDMDL
MODEL 6
REMARK VINA RESULT:    -4.474      1.098      3.505
REMARK INTER + INTRA:          -9.401
REMARK INTER:                  -7.460
REMARK INTRA:                  -1.941
REMARK UNBOUND:                -1.789
REMARK SMILES CCCCCCCCCCCCCC(=O)[O-]
REMARK SMILES IDX 8 1 9 2 10 3 11 4 12 5 13 6 14 7 15 8 16 9 7 10 6 11 5 12
REMARK SMILES IDX 4 13 3 14 2 15 1 16
REMARK H PARENT
REMARK Flexibility Score: inf
ROOT
ATOM      1  C   UNL     1       3.723   0.017  13.131  1.00  0.00     0.000 C 
ENDROOT
BRANCH   1   2
ATOM      2  C   UNL     1       5.230  -0.243  12.968  1.00  0.00     0.000 C 
BRANCH   2   3
ATOM      3  C   UNL     1       6.002  -0.086  14.291  1.00  0.00     0.000 C 
BRANCH   3   4
ATOM      4  C   UNL     1       6.485  -1.433  14.855  1.00  0.00     0.000 C 
BRANCH   4   5
ATOM      5  C   UNL     1       5.883  -1.751  16.232  1.00  0.00     0.006 C 
BRANCH   5   6
ATOM      6  C   UNL     1       5.479  -0.466  16.961  1.00  0.00     0.053 C 
BRANCH   6   7
ATOM      7  C   UNL     1       5.533  -0.666  18.443  1.00  0.00     0.041 C 
ATOM      8  O   UNL     1       6.254  -1.575  18.934  1.00  0.00    -0.550 OA
ATOM      9  O   UNL     1       4.751   0.120  19.280  1.00  0.00    -0.550 OA
ENDBRANCH   6   7
ENDBRANCH   5   6
ENDBRANCH   4   5
ENDBRANCH   3   4
ENDBRANCH   2   3
ENDBRANCH   1   2
BRANCH   1  10
ATOM     10  C   UNL     1       3.030  -1.051  13.995  1.00  0.00     0.000 C 
BRANCH  10  11
ATOM     11  C   UNL     1       2.248  -0.445  15.172  1.00  0.00    -0.000 C 
BRANCH  11  12
ATOM     12  C   UNL     1       2.152   1.087  15.095  1.00  0.00    -0.000 C 
BRANCH  12  13
ATOM     13  C   UNL     1       2.875   1.744  16.282  1.00  0.00    -0.000 C 
BRANCH  13  14
ATOM     14  C   UNL     1       4.022   2.670  15.829  1.00  0.00    -0.000 C 
BRANCH  14  15
ATOM     15  C   UNL     1       3.608   3.677  14.743  1.00  0.00    -0.003 C 
ATOM     16  C   UNL     1       4.375   3.498  13.435  1.00  0.00     0.004 C 
ENDBRANCH  14  15
ENDBRANCH  13  14
ENDBRANCH  12  13
ENDBRANCH  11  12
ENDBRANCH  10  11
ENDBRANCH   1  10
TORSDOF 12
ENDMDL
MODEL 7
REMARK VINA RESULT:    -4.449      1.166      2.175
REMARK INTER + INTRA:          -9.359
REMARK INTER:                  -7.421
REMARK INTRA:                  -1.938
REMARK UNBOUND:                -1.789
REMARK SMILES CCCCCCCCCCCCCC(=O)[O-]
REMARK SMILES IDX 8 1 9 2 10 3 11 4 12 5 13 6 14 7 15 8 16 9 7 10 6 11 5 12
REMARK SMILES IDX 4 13 3 14 2 15 1 16
REMARK H PARENT
REMARK Flexibility Score: inf
ROOT
ATOM      1  C   UNL     1       3.206   3.321  14.908  1.00  0.00     0.000 C 
ENDROOT
BRANCH   1   2
ATOM      2  C   UNL     1       2.671   1.890  15.086  1.00  0.00     0.000 C 
BRANCH   2   3
ATOM      3  C   UNL     1       3.233   1.203  16.343  1.00  0.00     0.000 C 
BRANCH   3   4
ATOM      4  C   UNL     1       4.422   1.965  16.951  1.00  0.00     0.000 C 
BRANCH   4   5
ATOM      5  C   UNL     1       5.693   1.108  17.043  1.00  0.00     0.006 C 
BRANCH   5   6
ATOM      6  C   UNL     1       5.359  -0.320  17.483  1.00  0.00     0.053 C 
BRANCH   6   7
ATOM      7  C   UNL     1       5.534  -0.468  18.962  1.00  0.00     0.041 C 
ATOM      8  O   UNL     1       6.542  -1.065  19.424  1.00  0.00    -0.550 OA
ATOM      9  O   UNL     1       4.560   0.012  19.829  1.00  0.00    -0.550 OA
ENDBRANCH   6   7
ENDBRANCH   5   6
ENDBRANCH   4   5
ENDBRANCH   3   4
ENDBRANCH   2   3
ENDBRANCH   1   2
BRANCH   1  10
ATOM     10  C   UNL     1       4.126   3.459  13.682  1.00  0.00     0.000 C 
BRANCH  10  11
ATOM     11  C   UNL     1       4.481   2.101  13.053  1.00  0.00    -0.000 C 
BRANCH  11  12
ATOM     12  C   UNL     1       5.911   1.649  13.383  1.00  0.00    -0.000 C 
BRANCH  12  13
ATOM     13  C   UNL     1       6.160   0.213  12.895  1.00  0.00    -0.000 C 
BRANCH  13  14
ATOM     14  C   UNL     1       6.491  -0.751  14.054  1.00  0.00    -0.000 C 
BRANCH  14  15
ATOM     15  C   UNL     1       5.522  -1.940  14.161  1.00  0.00    -0.003 C 
ATOM     16  C   UNL     1       4.054  -1.528  14.071  1.00  0.00     0.004 C 
ENDBRANCH  14  15
ENDBRANCH  13  14
ENDBRANCH  12  13
ENDBRANCH  11  12
ENDBRANCH  10  11
ENDBRANCH   1  10
TORSDOF 12
ENDMDL
MODEL 8
REMARK VINA RESULT:    -4.437      1.900      3.657
REMARK INTER + INTRA:          -9.338
REMARK INTER:                  -7.952
REMARK INTRA:                  -1.386
REMARK UNBOUND:                -1.789
REMARK SMILES CCCCCCCCCCCCCC(=O)[O-]
REMARK SMILES IDX 8 1 9 2 10 3 11 4 12 5 13 6 14 7 15 8 16 9 7 10 6 11 5 12
REMARK SMILES IDX 4 13 3 14 2 15 1 16
REMARK H PARENT
REMARK Flexibility Score: inf
ROOT
ATOM      1  C   UNL     1       6.590   0.650  13.574  1.00  0.00     0.000 C 
ENDROOT
BRANCH   1   2
ATOM      2  C   UNL     1       5.959   1.865  12.875  1.00  0.00     0.000 C 
BRANCH   2   3
ATOM      3  C   UNL     1       4.470   2.041  13.228  1.00  0.00     0.000 C 
BRANCH   3   4
ATOM      4  C   UNL     1       4.136   3.472  13.679  1.00  0.00     0.000 C 
BRANCH   4   5
ATOM      5  C   UNL     1       3.828   3.565  15.181  1.00  0.00     0.006 C 
BRANCH   5   6
ATOM      6  C   UNL     1       4.372   2.344  15.927  1.00  0.00     0.053 C 
BRANCH   6   7
ATOM      7  C   UNL     1       3.391   1.877  16.956  1.00  0.00     0.041 C 
ATOM      8  O   UNL     1       3.738   1.774  18.162  1.00  0.00    -0.550 OA
ATOM      9  O   UNL     1       2.106   1.510  16.575  1.00  0.00    -0.550 OA
ENDBRANCH   6   7
ENDBRANCH   5   6
ENDBRANCH   4   5
ENDBRANCH   3   4
ENDBRANCH   2   3
ENDBRANCH   1   2
BRANCH   1  10
ATOM     10  C   UNL     1       6.219  -0.680  12.895  1.00  0.00     0.000 C 
BRANCH  10  11
ATOM     11  C   UNL     1       5.571  -1.680  13.868  1.00  0.00    -0.000 C 
BRANCH  11  12
ATOM     12  C   UNL     1       4.155  -1.262  14.292  1.00  0.00    -0.000 C 
BRANCH  12  13
ATOM     13  C   UNL     1       3.955  -1.452  15.804  1.00  0.00    -0.000 C 
BRANCH  13  14
ATOM     14  C   UNL     1       5.263  -1.252  16.597  1.00  0.00    -0.000 C 
BRANCH  14  15
ATOM     15  C   UNL     1       5.111  -1.503  18.107  1.00  0.00    -0.003 C 
ATOM     16  C   UNL     1       6.203  -0.835  18.939  1.00  0.00     0.004 C 
ENDBRANCH  14  15
ENDBRANCH  13  14
ENDBRANCH  12  13
ENDBRANCH  11  12
ENDBRANCH  10  11
ENDBRANCH   1  10
TORSDOF 12
ENDMDL
MODEL 9
REMARK VINA RESULT:    -4.413      2.482      4.591
REMARK INTER + INTRA:          -9.298
REMARK INTER:                  -7.659
REMARK INTRA:                  -1.640
REMARK UNBOUND:                -1.789
REMARK SMILES CCCCCCCCCCCCCC(=O)[O-]
REMARK SMILES IDX 8 1 9 2 10 3 11 4 12 5 13 6 14 7 15 8 16 9 7 10 6 11 5 12
REMARK SMILES IDX 4 13 3 14 2 15 1 16
REMARK H PARENT
REMARK Flexibility Score: inf
ROOT
ATOM      1  C   UNL     1       4.482   0.908  18.937  1.00  0.00     0.000 C 
ENDROOT
BRANCH   1   2
ATOM      2  C   UNL     1       3.976   1.976  17.952  1.00  0.00     0.000 C 
BRANCH   2   3
ATOM      3  C   UNL     1       4.758   1.972  16.626  1.00  0.00     0.000 C 
BRANCH   3   4
ATOM      4  C   UNL     1       4.256   3.042  15.642  1.00  0.00     0.000 C 
BRANCH   4   5
ATOM      5  C   UNL     1       3.003   2.599  14.872  1.00  0.00     0.006 C 
BRANCH   5   6
ATOM      6  C   UNL     1       3.030   1.092  14.605  1.00  0.00     0.053 C 
BRANCH   6   7
ATOM      7  C   UNL     1       1.739   0.462  15.026  1.00  0.00     0.041 C 
ATOM      8  O   UNL     1       1.241   0.730  16.151  1.00  0.00    -0.550 OA
ATOM      9  O   UNL     1       1.112  -0.458  14.196  1.00  0.00    -0.550 OA
ENDBRANCH   6   7
ENDBRANCH   5   6
ENDBRANCH   4   5
ENDBRANCH   3   4
ENDBRANCH   2   3
ENDBRANCH   1   2
BRANCH   1  10
ATOM     10  C   UNL     1       5.658   0.094  18.372  1.00  0.00     0.000 C 
BRANCH  10  11
ATOM     11  C   UNL     1       5.272  -1.360  18.052  1.00  0.00    -0.000 C 
BRANCH  11  12
ATOM     12  C   UNL     1       4.753  -1.535  16.617  1.00  0.00    -0.000 C 
BRANCH  12  13
ATOM     13  C   UNL     1       5.902  -1.430  15.600  1.00  0.00    -0.000 C 
BRANCH  13  14
ATOM     14  C   UNL     1       5.434  -1.711  14.157  1.00  0.00    -0.000 C 
BRANCH  14  15
ATOM     15  C   UNL     1       5.931  -0.673  13.136  1.00  0.00    -0.003 C 
ATOM     16  C   UNL     1       6.587   0.542  13.787  1.00  0.00     0.004 C 
ENDBRANCH  14  15
ENDBRANCH  13  14
ENDBRANCH  12  13
ENDBRANCH  11  12
ENDBRANCH  10  11
ENDBRANCH   1  10
TORSDOF 12
ENDMDL
