MODEL 1
REMARK VINA RESULT:    -2.714      0.000      0.000
REMARK INTER + INTRA:          -2.714
REMARK INTER:                  -2.714
REMARK INTRA:                   0.000
REMARK UNBOUND:                 0.000
REMARK SMILES CC(=O)[O-]
REMARK SMILES IDX 1 1 2 2 3 3 4 4
REMARK H PARENT
REMARK Flexibility Score: inf
ROOT
ATOM      1  C   UNL     1      -8.897  -0.830   3.604  1.00  0.00     0.063 C 
ATOM      2  C   UNL     1      -9.561  -0.851   4.939  1.00  0.00     0.038 C 
ATOM      3  O   UNL     1      -9.115  -1.588   5.856  1.00  0.00    -0.550 OA
ATOM      4  O   UNL     1     -10.643  -0.016   5.190  1.00  0.00    -0.550 OA
ENDROOT
TORSDOF 0
ENDMDL
MODEL 2
REMARK VINA RESULT:    -2.711      0.105      1.619
REMARK INTER + INTRA:          -2.711
REMARK INTER:                  -2.711
REMARK INTRA:                   0.000
REMARK UNBOUND:                 0.000
REMARK SMILES CC(=O)[O-]
REMARK SMILES IDX 1 1 2 2 3 3 4 4
REMARK H PARENT
REMARK Flexibility Score: inf
ROOT
ATOM      1  C   UNL     1      -8.890  -0.836   3.591  1.00  0.00     0.063 C 
ATOM      2  C   UNL     1      -9.574  -0.759   4.913  1.00  0.00     0.038 C 
ATOM      3  O   UNL     1     -10.568  -0.003   5.067  1.00  0.00    -0.550 OA
ATOM      4  O   UNL     1      -9.148  -1.561   5.964  1.00  0.00    -0.550 OA
ENDROOT
TORSDOF 0
ENDMDL
MODEL 3
REMARK VINA RESULT:    -2.540      9.234      9.789
REMARK INTER + INTRA:          -2.540
REMARK INTER:                  -2.540
REMARK INTRA:                   0.000
REMARK UNBOUND:                 0.000
REMARK SMILES CC(=O)[O-]
REMARK SMILES IDX 1 1 2 2 3 3 4 4
REMARK H PARENT
REMARK Flexibility Score: inf
ROOT
ATOM      1  C   UNL     1     -11.961   3.687  -4.853  1.00  0.00     0.063 C 
ATOM      2  C   UNL     1     -11.295   3.622  -3.520  1.00  0.00     0.038 C 
ATOM      3  O   UNL     1     -10.084   3.944  -3.402  1.00  0.00    -0.550 OA
ATOM      4  O   UNL     1     -12.025   3.257  -2.395  1.00  0.00    -0.550 OA
ENDROOT
TORSDOF 0
ENDMDL
MODEL 4
REMARK VINA RESULT:    -2.527      1.661      2.050
REMARK INTER + INTRA:          -2.527
REMARK INTER:                  -2.527
REMARK INTRA:                   0.000
REMARK UNBOUND:                 0.000
REMARK SMILES CC(=O)[O-]
REMARK SMILES IDX 1 1 2 2 3 3 4 4
REMARK H PARENT
REMARK Flexibility Score: inf
ROOT
ATOM      1  C   UNL     1     -10.051   0.563   4.397  1.00  0.00     0.063 C 
ATOM      2  C   UNL     1      -9.047  -0.539   4.375  1.00  0.00     0.038 C 
ATOM      3  O   UNL     1      -8.088  -0.504   3.561  1.00  0.00    -0.550 OA
ATOM      4  O   UNL     1      -9.138  -1.581   5.289  1.00  0.00    -0.550 OA
ENDROOT
TORSDOF 0
ENDMDL
MODEL 5
REMARK VINA RESULT:    -2.397      9.911     10.434
REMARK INTER + INTRA:          -2.397
REMARK INTER:                  -2.397
REMARK INTRA:                   0.000
REMARK UNBOUND:                 0.000
REMARK SMILES CC(=O)[O-]
REMARK SMILES IDX 1 1 2 2 3 3 4 4
REMARK H PARENT
REMARK Flexibility Score: inf
ROOT
ATOM      1  C   UNL     1      -9.327   4.126  -4.907  1.00  0.00     0.063 C 
ATOM      2  C   UNL     1     -10.652   3.803  -4.304  1.00  0.00     0.038 C 
ATOM      3  O   UNL     1     -11.526   3.202  -4.983  1.00  0.00    -0.550 OA
ATOM      4  O   UNL     1     -10.906   4.116  -2.975  1.00  0.00    -0.550 OA
ENDROOT
TORSDOF 0
ENDMDL
MODEL 6
REMARK VINA RESULT:    -2.303     11.409     11.720
REMARK INTER + INTRA:          -2.303
REMARK INTER:                  -2.303
REMARK INTRA:                   0.000
REMARK UNBOUND:                 0.000
REMARK SMILES CC(=O)[O-]
REMARK SMILES IDX 1 1 2 2 3 3 4 4
REMARK H PARENT
REMARK Flexibility Score: inf
ROOT
ATOM      1  C   UNL     1      -9.370 -10.989   2.026  1.00  0.00     0.063 C 
ATOM      2  C   UNL     1     -10.271 -11.906   1.271  1.00  0.00     0.038 C 
ATOM      3  O   UNL     1      -9.841 -13.014   0.855  1.00  0.00    -0.550 OA
ATOM      4  O   UNL     1     -11.602 -11.563   1.070  1.00  0.00    -0.550 OA
ENDROOT
TORSDOF 0
ENDMDL
MODEL 7
REMARK VINA RESULT:    -2.164     12.692     13.291
REMARK INTER + INTRA:          -2.164
REMARK INTER:                  -2.164
REMARK INTRA:                   0.000
REMARK UNBOUND:                 0.000
REMARK SMILES CC(=O)[O-]
REMARK SMILES IDX 1 1 2 2 3 3 4 4
REMARK H PARENT
REMARK Flexibility Score: inf
ROOT
ATOM      1  C   UNL     1      -0.422  -8.594   6.695  1.00  0.00     0.063 C 
ATOM      2  C   UNL     1       0.654  -8.833   7.699  1.00  0.00     0.038 C 
ATOM      3  O   UNL     1       1.685  -9.479   7.380  1.00  0.00    -0.550 OA
ATOM      4  O   UNL     1       0.544  -8.296   8.976  1.00  0.00    -0.550 OA
ENDROOT
TORSDOF 0
ENDMDL
MODEL 8
REMARK VINA RESULT:    -1.975     10.546     11.055
REMARK INTER + INTRA:          -1.975
REMARK INTER:                  -1.975
REMARK INTRA:                   0.000
REMARK UNBOUND:                 0.000
REMARK SMILES CC(=O)[O-]
REMARK SMILES IDX 1 1 2 2 3 3 4 4
REMARK H PARENT
REMARK Flexibility Score: inf
ROOT
ATOM      1  C   UNL     1      -2.555  -7.554   5.840  1.00  0.00     0.063 C 
ATOM      2  C   UNL     1      -1.693  -8.291   6.807  1.00  0.00     0.038 C 
ATOM      3  O   UNL     1      -0.457  -8.404   6.596  1.00  0.00    -0.550 OA
ATOM      4  O   UNL     1      -2.242  -8.810   7.973  1.00  0.00    -0.550 OA
ENDROOT
TORSDOF 0
ENDMDL
MODEL 9
REMARK VINA RESULT:    -1.944     11.030     11.342
REMARK INTER + INTRA:          -1.944
REMARK INTER:                  -1.944
REMARK INTRA:                   0.000
REMARK UNBOUND:                 0.000
REMARK SMILES CC(=O)[O-]
REMARK SMILES IDX 1 1 2 2 3 3 4 4
REMARK H PARENT
REMARK Flexibility Score: inf
ROOT
ATOM      1  C   UNL     1      -9.883 -11.858   1.375  1.00  0.00     0.063 C 
ATOM      2  C   UNL     1     -11.248 -11.510   1.861  1.00  0.00     0.038 C 
ATOM      3  O   UNL     1     -12.236 -11.590   1.085  1.00  0.00    -0.550 OA
ATOM      4  O   UNL     1     -11.442 -11.147   3.188  1.00  0.00    -0.550 OA
ENDROOT
TORSDOF 0
ENDMDL
