MODEL 1
REMARK VINA RESULT:    -4.870      0.000      0.000
REMARK INTER + INTRA:          -5.652
REMARK INTER:                  -5.440
REMARK INTRA:                  -0.212
REMARK UNBOUND:                -0.212
REMARK SMILES CC(C)c1ccc(C(=O)[O-])cc1
REMARK SMILES IDX 7 1 6 2 11 3 5 4 12 5 4 6 8 7 9 8 10 9 2 10 1 11 3 12
REMARK H PARENT
REMARK Flexibility Score: inf
ROOT
ATOM      1  C   UNL     1       5.499  -4.358  24.778  1.00  0.00    -0.003 A 
ATOM      2  C   UNL     1       4.170  -4.398  24.321  1.00  0.00     0.010 A 
ATOM      3  C   UNL     1       5.754  -3.946  26.096  1.00  0.00     0.010 A 
ATOM      4  C   UNL     1       3.119  -4.032  25.166  1.00  0.00     0.004 A 
ATOM      5  C   UNL     1       4.703  -3.581  26.941  1.00  0.00     0.004 A 
ATOM      6  C   UNL     1       3.372  -3.620  26.485  1.00  0.00    -0.045 A 
ENDROOT
BRANCH   1   7
ATOM      7  C   UNL     1       6.616  -4.745  23.886  1.00  0.00     0.071 C 
ATOM      8  O   UNL     1       6.406  -5.004  22.672  1.00  0.00    -0.545 OA
ATOM      9  O   UNL     1       7.913  -4.828  24.378  1.00  0.00    -0.545 OA
ENDBRANCH   1   7
BRANCH   6  10
ATOM     10  C   UNL     1       2.221  -3.225  27.392  1.00  0.00     0.013 C 
ATOM     11  C   UNL     1       1.110  -2.526  26.601  1.00  0.00     0.012 C 
ATOM     12  C   UNL     1       1.677  -4.438  28.154  1.00  0.00     0.012 C 
ENDBRANCH   6  10
TORSDOF 2
ENDMDL
MODEL 2
REMARK VINA RESULT:    -4.568      1.069      1.560
REMARK INTER + INTRA:          -5.314
REMARK INTER:                  -5.094
REMARK INTRA:                  -0.220
REMARK UNBOUND:                -0.212
REMARK SMILES CC(C)c1ccc(C(=O)[O-])cc1
REMARK SMILES IDX 7 1 6 2 11 3 5 4 12 5 4 6 8 7 9 8 10 9 2 10 1 11 3 12
REMARK H PARENT
REMARK Flexibility Score: inf
ROOT
ATOM      1  C   UNL     1       5.551  -4.748  25.006  1.00  0.00    -0.003 A 
ATOM      2  C   UNL     1       4.169  -4.891  24.794  1.00  0.00     0.010 A 
ATOM      3  C   UNL     1       6.029  -4.621  26.321  1.00  0.00     0.010 A 
ATOM      4  C   UNL     1       3.284  -4.906  25.876  1.00  0.00     0.004 A 
ATOM      5  C   UNL     1       5.144  -4.636  27.401  1.00  0.00     0.004 A 
ATOM      6  C   UNL     1       3.760  -4.780  27.191  1.00  0.00    -0.045 A 
ENDROOT
BRANCH   1   7
ATOM      7  C   UNL     1       6.493  -4.731  23.864  1.00  0.00     0.071 C 
ATOM      8  O   UNL     1       6.065  -4.788  22.680  1.00  0.00    -0.545 OA
ATOM      9  O   UNL     1       7.863  -4.653  24.081  1.00  0.00    -0.545 OA
ENDBRANCH   1   7
BRANCH   6  10
ATOM     10  C   UNL     1       2.788  -4.797  28.356  1.00  0.00     0.013 C 
ATOM     11  C   UNL     1       3.494  -4.446  29.670  1.00  0.00     0.012 C 
ATOM     12  C   UNL     1       1.601  -3.863  28.099  1.00  0.00     0.012 C 
ENDBRANCH   6  10
TORSDOF 2
ENDMDL
MODEL 3
REMARK VINA RESULT:    -4.527      2.947      4.150
REMARK INTER + INTRA:          -5.268
REMARK INTER:                  -5.058
REMARK INTRA:                  -0.210
REMARK UNBOUND:                -0.212
REMARK SMILES CC(C)c1ccc(C(=O)[O-])cc1
REMARK SMILES IDX 7 1 6 2 11 3 5 4 12 5 4 6 8 7 9 8 10 9 2 10 1 11 3 12
REMARK H PARENT
REMARK Flexibility Score: inf
ROOT
ATOM      1  C   UNL     1       4.724  -4.583  28.147  1.00  0.00    -0.003 A 
ATOM      2  C   UNL     1       3.329  -4.460  28.034  1.00  0.00     0.010 A 
ATOM      3  C   UNL     1       5.514  -4.467  26.991  1.00  0.00     0.010 A 
ATOM      4  C   UNL     1       2.736  -4.227  26.789  1.00  0.00     0.004 A 
ATOM      5  C   UNL     1       4.921  -4.233  25.748  1.00  0.00     0.004 A 
ATOM      6  C   UNL     1       3.524  -4.110  25.633  1.00  0.00    -0.045 A 
ENDROOT
BRANCH   1   7
ATOM      7  C   UNL     1       5.357  -4.830  29.462  1.00  0.00     0.071 C 
ATOM      8  O   UNL     1       6.580  -5.124  29.540  1.00  0.00    -0.545 OA
ATOM      9  O   UNL     1       4.610  -4.743  30.631  1.00  0.00    -0.545 OA
ENDBRANCH   1   7
BRANCH   6  10
ATOM     10  C   UNL     1       2.868  -3.857  24.289  1.00  0.00     0.013 C 
ATOM     11  C   UNL     1       1.923  -5.003  23.911  1.00  0.00     0.012 C 
ATOM     12  C   UNL     1       2.136  -2.511  24.275  1.00  0.00     0.012 C 
ENDBRANCH   6  10
TORSDOF 2
ENDMDL
MODEL 4
REMARK VINA RESULT:    -4.398      3.217      4.536
REMARK INTER + INTRA:          -5.124
REMARK INTER:                  -4.903
REMARK INTRA:                  -0.220
REMARK UNBOUND:                -0.212
REMARK SMILES CC(C)c1ccc(C(=O)[O-])cc1
REMARK SMILES IDX 7 1 6 2 11 3 5 4 12 5 4 6 8 7 9 8 10 9 2 10 1 11 3 12
REMARK H PARENT
REMARK Flexibility Score: inf
ROOT
ATOM      1  C   UNL     1       3.147  -3.453  26.676  1.00  0.00    -0.003 A 
ATOM      2  C   UNL     1       4.467  -3.870  26.432  1.00  0.00     0.010 A 
ATOM      3  C   UNL     1       2.622  -3.576  27.973  1.00  0.00     0.010 A 
ATOM      4  C   UNL     1       5.245  -4.401  27.465  1.00  0.00     0.004 A 
ATOM      5  C   UNL     1       3.401  -4.105  29.006  1.00  0.00     0.004 A 
ATOM      6  C   UNL     1       4.722  -4.524  28.763  1.00  0.00    -0.045 A 
ENDROOT
BRANCH   1   7
ATOM      7  C   UNL     1       2.319  -2.891  25.585  1.00  0.00     0.071 C 
ATOM      8  O   UNL     1       2.647  -3.060  24.380  1.00  0.00    -0.545 OA
ATOM      9  O   UNL     1       1.168  -2.169  25.875  1.00  0.00    -0.545 OA
ENDBRANCH   1   7
BRANCH   6  10
ATOM     10  C   UNL     1       5.578  -5.101  29.875  1.00  0.00     0.013 C 
ATOM     11  C   UNL     1       7.058  -5.124  29.478  1.00  0.00     0.012 C 
ATOM     12  C   UNL     1       5.370  -4.336  31.187  1.00  0.00     0.012 C 
ENDBRANCH   6  10
TORSDOF 2
ENDMDL
MODEL 5
REMARK VINA RESULT:    -4.359      3.054      5.121
REMARK INTER + INTRA:          -5.080
REMARK INTER:                  -4.865
REMARK INTRA:                  -0.215
REMARK UNBOUND:                -0.212
REMARK SMILES CC(C)c1ccc(C(=O)[O-])cc1
REMARK SMILES IDX 7 1 6 2 11 3 5 4 12 5 4 6 8 7 9 8 10 9 2 10 1 11 3 12
REMARK H PARENT
REMARK Flexibility Score: inf
ROOT
ATOM      1  C   UNL     1       3.020  -3.433  25.924  1.00  0.00    -0.003 A 
ATOM      2  C   UNL     1       4.147  -3.573  26.752  1.00  0.00     0.010 A 
ATOM      3  C   UNL     1       3.105  -3.843  24.583  1.00  0.00     0.010 A 
ATOM      4  C   UNL     1       5.335  -4.111  26.248  1.00  0.00     0.004 A 
ATOM      5  C   UNL     1       4.292  -4.381  24.080  1.00  0.00     0.004 A 
ATOM      6  C   UNL     1       5.421  -4.521  24.907  1.00  0.00    -0.045 A 
ENDROOT
BRANCH   1   7
ATOM      7  C   UNL     1       1.760  -2.863  26.453  1.00  0.00     0.071 C 
ATOM      8  O   UNL     1       1.037  -2.128  25.729  1.00  0.00    -0.545 OA
ATOM      9  O   UNL     1       1.358  -3.131  27.756  1.00  0.00    -0.545 OA
ENDBRANCH   1   7
BRANCH   6  10
ATOM     10  C   UNL     1       6.716  -5.104  24.373  1.00  0.00     0.013 C 
ATOM     11  C   UNL     1       7.192  -4.344  23.130  1.00  0.00     0.012 C 
ATOM     12  C   UNL     1       7.801  -5.125  25.456  1.00  0.00     0.012 C 
ENDBRANCH   6  10
TORSDOF 2
ENDMDL
MODEL 6
REMARK VINA RESULT:    -4.137      3.260      5.202
REMARK INTER + INTRA:          -4.832
REMARK INTER:                  -4.623
REMARK INTRA:                  -0.209
REMARK UNBOUND:                -0.212
REMARK SMILES CC(C)c1ccc(C(=O)[O-])cc1
REMARK SMILES IDX 7 1 6 2 11 3 5 4 12 5 4 6 8 7 9 8 10 9 2 10 1 11 3 12
REMARK H PARENT
REMARK Flexibility Score: inf
ROOT
ATOM      1  C   UNL     1       4.510  -4.076  27.570  1.00  0.00    -0.003 A 
ATOM      2  C   UNL     1       5.757  -4.723  27.603  1.00  0.00     0.010 A 
ATOM      3  C   UNL     1       3.932  -3.771  26.326  1.00  0.00     0.010 A 
ATOM      4  C   UNL     1       6.414  -5.057  26.414  1.00  0.00     0.004 A 
ATOM      5  C   UNL     1       4.589  -4.106  25.139  1.00  0.00     0.004 A 
ATOM      6  C   UNL     1       5.837  -4.753  25.170  1.00  0.00    -0.045 A 
ENDROOT
BRANCH   1   7
ATOM      7  C   UNL     1       3.811  -3.719  28.826  1.00  0.00     0.071 C 
ATOM      8  O   UNL     1       3.719  -2.516  29.188  1.00  0.00    -0.545 OA
ATOM      9  O   UNL     1       3.247  -4.707  29.623  1.00  0.00    -0.545 OA
ENDBRANCH   1   7
BRANCH   6  10
ATOM     10  C   UNL     1       6.561  -5.122  23.888  1.00  0.00     0.013 C 
ATOM     11  C   UNL     1       5.713  -4.781  22.657  1.00  0.00     0.012 C 
ATOM     12  C   UNL     1       7.936  -4.448  23.815  1.00  0.00     0.012 C 
ENDBRANCH   6  10
TORSDOF 2
ENDMDL
MODEL 7
REMARK VINA RESULT:    -3.773      3.241      4.961
REMARK INTER + INTRA:          -4.426
REMARK INTER:                  -4.207
REMARK INTRA:                  -0.219
REMARK UNBOUND:                -0.212
REMARK SMILES CC(C)c1ccc(C(=O)[O-])cc1
REMARK SMILES IDX 7 1 6 2 11 3 5 4 12 5 4 6 8 7 9 8 10 9 2 10 1 11 3 12
REMARK H PARENT
REMARK Flexibility Score: inf
ROOT
ATOM      1  C   UNL     1       2.610  -3.309  26.130  1.00  0.00    -0.003 A 
ATOM      2  C   UNL     1       2.804  -3.551  24.759  1.00  0.00     0.010 A 
ATOM      3  C   UNL     1       3.624  -3.662  27.035  1.00  0.00     0.010 A 
ATOM      4  C   UNL     1       3.990  -4.137  24.304  1.00  0.00     0.004 A 
ATOM      5  C   UNL     1       4.809  -4.247  26.580  1.00  0.00     0.004 A 
ATOM      6  C   UNL     1       5.005  -4.490  25.208  1.00  0.00    -0.045 A 
ENDROOT
BRANCH   1   7
ATOM      7  C   UNL     1       1.356  -2.690  26.617  1.00  0.00     0.071 C 
ATOM      8  O   UNL     1       0.679  -1.939  25.865  1.00  0.00    -0.545 OA
ATOM      9  O   UNL     1       0.909  -2.928  27.911  1.00  0.00    -0.545 OA
ENDBRANCH   1   7
BRANCH   6  10
ATOM     10  C   UNL     1       6.287  -5.125  24.700  1.00  0.00     0.013 C 
ATOM     11  C   UNL     1       6.774  -4.438  23.420  1.00  0.00     0.012 C 
ATOM     12  C   UNL     1       7.374  -5.116  25.780  1.00  0.00     0.012 C 
ENDBRANCH   6  10
TORSDOF 2
ENDMDL
MODEL 8
REMARK VINA RESULT:    -3.684      3.203      4.598
REMARK INTER + INTRA:          -4.326
REMARK INTER:                  -4.114
REMARK INTRA:                  -0.212
REMARK UNBOUND:                -0.212
REMARK SMILES CC(C)c1ccc(C(=O)[O-])cc1
REMARK SMILES IDX 7 1 6 2 11 3 5 4 12 5 4 6 8 7 9 8 10 9 2 10 1 11 3 12
REMARK H PARENT
REMARK Flexibility Score: inf
ROOT
ATOM      1  C   UNL     1       2.636  -3.443  26.568  1.00  0.00    -0.003 A 
ATOM      2  C   UNL     1       2.138  -3.809  27.831  1.00  0.00     0.010 A 
ATOM      3  C   UNL     1       4.001  -3.630  26.293  1.00  0.00     0.010 A 
ATOM      4  C   UNL     1       2.990  -4.349  28.799  1.00  0.00     0.004 A 
ATOM      5  C   UNL     1       4.851  -4.171  27.261  1.00  0.00     0.004 A 
ATOM      6  C   UNL     1       4.355  -4.537  28.526  1.00  0.00    -0.045 A 
ENDROOT
BRANCH   1   7
ATOM      7  C   UNL     1       1.738  -2.870  25.539  1.00  0.00     0.071 C 
ATOM      8  O   UNL     1       1.135  -1.785  25.750  1.00  0.00    -0.545 OA
ATOM      9  O   UNL     1       1.549  -3.522  24.327  1.00  0.00    -0.545 OA
ENDBRANCH   1   7
BRANCH   6  10
ATOM     10  C   UNL     1       5.268  -5.125  29.586  1.00  0.00     0.013 C 
ATOM     11  C   UNL     1       6.728  -5.125  29.119  1.00  0.00     0.012 C 
ATOM     12  C   UNL     1       5.114  -4.386  30.920  1.00  0.00     0.012 C 
ENDBRANCH   6  10
TORSDOF 2
ENDMDL
