MODEL 1
REMARK VINA RESULT:    -3.365      0.000      0.000
REMARK INTER + INTRA:          -4.077
REMARK INTER:                  -3.955
REMARK INTRA:                  -0.121
REMARK UNBOUND:                -0.121
REMARK SMILES O=C([O-])CCC(=O)[O-]
REMARK SMILES IDX 4 1 2 2 1 3 3 4 5 5 6 6 7 7 8 8
REMARK H PARENT
REMARK Flexibility Score: inf
ROOT
ATOM      1  C   UNL     1      -6.423   9.331  -7.636  1.00  0.00     0.059 C 
ENDROOT
BRANCH   1   2
ATOM      2  C   UNL     1      -7.344   9.819  -6.560  1.00  0.00     0.042 C 
ATOM      3  O   UNL     1      -7.910   9.000  -5.790  1.00  0.00    -0.550 OA
ATOM      4  O   UNL     1      -7.607  11.178  -6.433  1.00  0.00    -0.550 OA
ENDBRANCH   1   2
BRANCH   1   5
ATOM      5  C   UNL     1      -5.949  10.477  -8.534  1.00  0.00     0.059 C 
BRANCH   5   6
ATOM      6  C   UNL     1      -4.515  10.826  -8.272  1.00  0.00     0.042 C 
ATOM      7  O   UNL     1      -3.630  10.549  -9.124  1.00  0.00    -0.550 OA
ATOM      8  O   UNL     1      -4.153  11.421  -7.071  1.00  0.00    -0.550 OA
ENDBRANCH   5   6
ENDBRANCH   1   5
TORSDOF 3
ENDMDL
MODEL 2
REMARK VINA RESULT:    -3.336     18.132     18.996
REMARK INTER + INTRA:          -4.043
REMARK INTER:                  -3.877
REMARK INTRA:                  -0.165
REMARK UNBOUND:                -0.121
REMARK SMILES O=C([O-])CCC(=O)[O-]
REMARK SMILES IDX 4 1 2 2 1 3 3 4 5 5 6 6 7 7 8 8
REMARK H PARENT
REMARK Flexibility Score: inf
ROOT
ATOM      1  C   UNL     1       4.225   9.501   7.548  1.00  0.00     0.059 C 
ENDROOT
BRANCH   1   2
ATOM      2  C   UNL     1       5.355  10.300   6.974  1.00  0.00     0.042 C 
ATOM      3  O   UNL     1       5.237  10.844   5.844  1.00  0.00    -0.550 OA
ATOM      4  O   UNL     1       6.552  10.412   7.669  1.00  0.00    -0.550 OA
ENDBRANCH   1   2
BRANCH   1   5
ATOM      5  C   UNL     1       3.074  10.403   8.006  1.00  0.00     0.059 C 
BRANCH   5   6
ATOM      6  C   UNL     1       3.422  11.148   9.258  1.00  0.00     0.042 C 
ATOM      7  O   UNL     1       3.162  12.377   9.357  1.00  0.00    -0.550 OA
ATOM      8  O   UNL     1       4.070  10.495  10.299  1.00  0.00    -0.550 OA
ENDBRANCH   5   6
ENDBRANCH   1   5
TORSDOF 3
ENDMDL
MODEL 3
REMARK VINA RESULT:    -3.319      0.178      3.893
REMARK INTER + INTRA:          -4.023
REMARK INTER:                  -3.913
REMARK INTRA:                  -0.110
REMARK UNBOUND:                -0.121
REMARK SMILES O=C([O-])CCC(=O)[O-]
REMARK SMILES IDX 4 1 2 2 1 3 3 4 5 5 6 6 7 7 8 8
REMARK H PARENT
REMARK Flexibility Score: inf
ROOT
ATOM      1  C   UNL     1      -6.001  10.454  -8.421  1.00  0.00     0.059 C 
ENDROOT
BRANCH   1   2
ATOM      2  C   UNL     1      -4.554  10.793  -8.228  1.00  0.00     0.042 C 
ATOM      3  O   UNL     1      -3.714  10.519  -9.125  1.00  0.00    -0.550 OA
ATOM      4  O   UNL     1      -4.128  11.375  -7.041  1.00  0.00    -0.550 OA
ENDBRANCH   1   2
BRANCH   1   5
ATOM      5  C   UNL     1      -6.466   9.385  -7.428  1.00  0.00     0.059 C 
BRANCH   5   6
ATOM      6  C   UNL     1      -7.516   9.915  -6.499  1.00  0.00     0.042 C 
ATOM      7  O   UNL     1      -7.777  11.148  -6.474  1.00  0.00    -0.550 OA
ATOM      8  O   UNL     1      -8.178   9.054  -5.634  1.00  0.00    -0.550 OA
ENDBRANCH   5   6
ENDBRANCH   1   5
TORSDOF 3
ENDMDL
MODEL 4
REMARK VINA RESULT:    -3.307     18.127     18.778
REMARK INTER + INTRA:          -4.009
REMARK INTER:                  -3.859
REMARK INTRA:                  -0.149
REMARK UNBOUND:                -0.121
REMARK SMILES O=C([O-])CCC(=O)[O-]
REMARK SMILES IDX 4 1 2 2 1 3 3 4 5 5 6 6 7 7 8 8
REMARK H PARENT
REMARK Flexibility Score: inf
ROOT
ATOM      1  C   UNL     1       3.336  10.499   7.965  1.00  0.00     0.059 C 
ENDROOT
BRANCH   1   2
ATOM      2  C   UNL     1       3.732  11.235   9.209  1.00  0.00     0.042 C 
ATOM      3  O   UNL     1       3.778  12.493   9.213  1.00  0.00    -0.550 OA
ATOM      4  O   UNL     1       4.087  10.529  10.352  1.00  0.00    -0.550 OA
ENDBRANCH   1   2
BRANCH   1   5
ATOM      5  C   UNL     1       4.477   9.619   7.445  1.00  0.00     0.059 C 
BRANCH   5   6
ATOM      6  C   UNL     1       5.532  10.433   6.759  1.00  0.00     0.042 C 
ATOM      7  O   UNL     1       6.690  10.512   7.249  1.00  0.00    -0.550 OA
ATOM      8  O   UNL     1       5.225  11.135   5.600  1.00  0.00    -0.550 OA
ENDBRANCH   5   6
ENDBRANCH   1   5
TORSDOF 3
ENDMDL
MODEL 5
REMARK VINA RESULT:    -3.288     18.410     19.207
REMARK INTER + INTRA:          -3.986
REMARK INTER:                  -3.889
REMARK INTRA:                  -0.098
REMARK UNBOUND:                -0.121
REMARK SMILES O=C([O-])CCC(=O)[O-]
REMARK SMILES IDX 4 1 2 2 1 3 3 4 5 5 6 6 7 7 8 8
REMARK H PARENT
REMARK Flexibility Score: inf
ROOT
ATOM      1  C   UNL     1       3.451  10.662   7.956  1.00  0.00     0.059 C 
ENDROOT
BRANCH   1   2
ATOM      2  C   UNL     1       4.698   9.832   7.993  1.00  0.00     0.042 C 
ATOM      3  O   UNL     1       4.894   9.025   8.940  1.00  0.00    -0.550 OA
ATOM      4  O   UNL     1       5.661   9.978   7.003  1.00  0.00    -0.550 OA
ENDBRANCH   1   2
BRANCH   1   5
ATOM      5  C   UNL     1       3.318  11.532   9.210  1.00  0.00     0.059 C 
BRANCH   5   6
ATOM      6  C   UNL     1       2.019  11.286   9.916  1.00  0.00     0.042 C 
ATOM      7  O   UNL     1       1.076  12.115   9.815  1.00  0.00    -0.550 OA
ATOM      8  O   UNL     1       1.866  10.162  10.717  1.00  0.00    -0.550 OA
ENDBRANCH   5   6
ENDBRANCH   1   5
TORSDOF 3
ENDMDL
MODEL 6
REMARK VINA RESULT:    -3.285     17.648     18.432
REMARK INTER + INTRA:          -3.982
REMARK INTER:                  -3.865
REMARK INTRA:                  -0.117
REMARK UNBOUND:                -0.121
REMARK SMILES O=C([O-])CCC(=O)[O-]
REMARK SMILES IDX 4 1 2 2 1 3 3 4 5 5 6 6 7 7 8 8
REMARK H PARENT
REMARK Flexibility Score: inf
ROOT
ATOM      1  C   UNL     1       6.454  10.834   4.606  1.00  0.00     0.059 C 
ENDROOT
BRANCH   1   2
ATOM      2  C   UNL     1       7.335  12.031   4.412  1.00  0.00     0.042 C 
ATOM      3  O   UNL     1       8.204  12.036   3.500  1.00  0.00    -0.550 OA
ATOM      4  O   UNL     1       7.223  13.123   5.262  1.00  0.00    -0.550 OA
ENDBRANCH   1   2
BRANCH   1   5
ATOM      5  C   UNL     1       5.382  11.092   5.669  1.00  0.00     0.059 C 
BRANCH   5   6
ATOM      6  C   UNL     1       5.662  10.331   6.930  1.00  0.00     0.042 C 
ATOM      7  O   UNL     1       6.755  10.489   7.536  1.00  0.00    -0.550 OA
ATOM      8  O   UNL     1       4.732   9.419   7.412  1.00  0.00    -0.550 OA
ENDBRANCH   5   6
ENDBRANCH   1   5
TORSDOF 3
ENDMDL
MODEL 7
REMARK VINA RESULT:    -3.280     18.292     18.942
REMARK INTER + INTRA:          -3.977
REMARK INTER:                  -3.873
REMARK INTRA:                  -0.104
REMARK UNBOUND:                -0.121
REMARK SMILES O=C([O-])CCC(=O)[O-]
REMARK SMILES IDX 4 1 2 2 1 3 3 4 5 5 6 6 7 7 8 8
REMARK H PARENT
REMARK Flexibility Score: inf
ROOT
ATOM      1  C   UNL     1       4.772  11.160   7.994  1.00  0.00     0.059 C 
ENDROOT
BRANCH   1   2
ATOM      2  C   UNL     1       4.547  10.171   9.098  1.00  0.00     0.042 C 
ATOM      3  O   UNL     1       4.801   8.951   8.917  1.00  0.00    -0.550 OA
ATOM      4  O   UNL     1       4.022  10.592  10.313  1.00  0.00    -0.550 OA
ENDBRANCH   1   2
BRANCH   1   5
ATOM      5  C   UNL     1       4.957  10.462   6.643  1.00  0.00     0.059 C 
BRANCH   5   6
ATOM      6  C   UNL     1       6.381  10.528   6.180  1.00  0.00     0.042 C 
ATOM      7  O   UNL     1       7.314  10.663   7.015  1.00  0.00    -0.550 OA
ATOM      8  O   UNL     1       6.673  10.480   4.823  1.00  0.00    -0.550 OA
ENDBRANCH   5   6
ENDBRANCH   1   5
TORSDOF 3
ENDMDL
MODEL 8
REMARK VINA RESULT:    -3.250     17.133     18.164
REMARK INTER + INTRA:          -3.942
REMARK INTER:                  -3.909
REMARK INTRA:                  -0.033
REMARK UNBOUND:                -0.121
REMARK SMILES O=C([O-])CCC(=O)[O-]
REMARK SMILES IDX 4 1 2 2 1 3 3 4 5 5 6 6 7 7 8 8
REMARK H PARENT
REMARK Flexibility Score: inf
ROOT
ATOM      1  C   UNL     1       4.958  10.910   5.773  1.00  0.00     0.059 C 
ENDROOT
BRANCH   1   2
ATOM      2  C   UNL     1       6.148  11.268   4.935  1.00  0.00     0.042 C 
ATOM      3  O   UNL     1       6.227  12.405   4.400  1.00  0.00    -0.550 OA
ATOM      4  O   UNL     1       7.151  10.333   4.715  1.00  0.00    -0.550 OA
ENDBRANCH   1   2
BRANCH   1   5
ATOM      5  C   UNL     1       5.362  10.097   7.006  1.00  0.00     0.059 C 
BRANCH   5   6
ATOM      6  C   UNL     1       4.167   9.679   7.807  1.00  0.00     0.042 C 
ATOM      7  O   UNL     1       4.303   8.901   8.789  1.00  0.00    -0.550 OA
ATOM      8  O   UNL     1       2.900  10.117   7.445  1.00  0.00    -0.550 OA
ENDBRANCH   5   6
ENDBRANCH   1   5
TORSDOF 3
ENDMDL
MODEL 9
REMARK VINA RESULT:    -3.245     17.989     18.888
REMARK INTER + INTRA:          -3.936
REMARK INTER:                  -3.816
REMARK INTRA:                  -0.120
REMARK UNBOUND:                -0.121
REMARK SMILES O=C([O-])CCC(=O)[O-]
REMARK SMILES IDX 4 1 2 2 1 3 3 4 5 5 6 6 7 7 8 8
REMARK H PARENT
REMARK Flexibility Score: inf
ROOT
ATOM      1  C   UNL     1       4.441  10.502   6.652  1.00  0.00     0.059 C 
ENDROOT
BRANCH   1   2
ATOM      2  C   UNL     1       5.686  10.881   5.910  1.00  0.00     0.042 C 
ATOM      3  O   UNL     1       6.812  10.497   6.324  1.00  0.00    -0.550 OA
ATOM      4  O   UNL     1       5.607  11.690   4.784  1.00  0.00    -0.550 OA
ENDBRANCH   1   2
BRANCH   1   5
ATOM      5  C   UNL     1       4.391  11.153   8.037  1.00  0.00     0.059 C 
BRANCH   5   6
ATOM      6  C   UNL     1       4.451  10.130   9.130  1.00  0.00     0.042 C 
ATOM      7  O   UNL     1       4.857   8.963   8.885  1.00  0.00    -0.550 OA
ATOM      8  O   UNL     1       4.020  10.454  10.410  1.00  0.00    -0.550 OA
ENDBRANCH   5   6
ENDBRANCH   1   5
TORSDOF 3
ENDMDL
