MODEL 1
REMARK VINA RESULT:    -4.871      0.000      0.000
REMARK INTER + INTRA:          -6.869
REMARK INTER:                  -6.579
REMARK INTRA:                  -0.290
REMARK UNBOUND:                -0.290
REMARK SMILES CCCCCCCC(=O)[O-]
REMARK SMILES IDX 5 1 6 2 7 3 8 4 9 5 10 6 4 7 3 8 2 9 1 10
REMARK H PARENT
REMARK Flexibility Score: inf
ROOT
ATOM      1  C   UNL     1     103.594 306.421 193.274  1.00  0.00     0.000 C 
ENDROOT
BRANCH   1   2
ATOM      2  C   UNL     1     103.750 307.600 192.297  1.00  0.00     0.006 C 
BRANCH   2   3
ATOM      3  C   UNL     1     102.444 307.915 191.557  1.00  0.00     0.053 C 
BRANCH   3   4
ATOM      4  C   UNL     1     102.662 308.883 190.434  1.00  0.00     0.041 C 
ATOM      5  O   UNL     1     101.697 309.240 189.708  1.00  0.00    -0.550 OA
ATOM      6  O   UNL     1     103.938 309.362 190.169  1.00  0.00    -0.550 OA
ENDBRANCH   3   4
ENDBRANCH   2   3
ENDBRANCH   1   2
BRANCH   1   7
ATOM      7  C   UNL     1     102.152 305.893 193.340  1.00  0.00     0.000 C 
BRANCH   7   8
ATOM      8  C   UNL     1     101.489 306.155 194.703  1.00  0.00    -0.000 C 
BRANCH   8   9
ATOM      9  C   UNL     1     102.516 306.317 195.835  1.00  0.00    -0.003 C 
ATOM     10  C   UNL     1     102.005 305.798 197.178  1.00  0.00     0.004 C 
ENDBRANCH   8   9
ENDBRANCH   7   8
ENDBRANCH   1   7
TORSDOF 6
ENDMDL
MODEL 2
REMARK VINA RESULT:    -4.809      3.758      5.663
REMARK INTER + INTRA:          -6.785
REMARK INTER:                  -6.467
REMARK INTRA:                  -0.319
REMARK UNBOUND:                -0.290
REMARK SMILES CCCCCCCC(=O)[O-]
REMARK SMILES IDX 5 1 6 2 7 3 8 4 9 5 10 6 4 7 3 8 2 9 1 10
REMARK H PARENT
REMARK Flexibility Score: inf
ROOT
ATOM      1  C   UNL     1     102.209 305.881 193.172  1.00  0.00     0.000 C 
ENDROOT
BRANCH   1   2
ATOM      2  C   UNL     1     101.578 305.949 194.574  1.00  0.00     0.006 C 
BRANCH   2   3
ATOM      3  C   UNL     1     102.454 306.728 195.565  1.00  0.00     0.053 C 
BRANCH   3   4
ATOM      4  C   UNL     1     102.006 306.524 196.980  1.00  0.00     0.041 C 
ATOM      5  O   UNL     1     101.966 307.496 197.779  1.00  0.00    -0.550 OA
ATOM      6  O   UNL     1     101.667 305.253 197.424  1.00  0.00    -0.550 OA
ENDBRANCH   3   4
ENDBRANCH   2   3
ENDBRANCH   1   2
BRANCH   1   7
ATOM      7  C   UNL     1     103.582 306.568 193.105  1.00  0.00     0.000 C 
BRANCH   7   8
ATOM      8  C   UNL     1     103.622 307.709 192.075  1.00  0.00    -0.000 C 
BRANCH   8   9
ATOM      9  C   UNL     1     102.253 307.960 191.421  1.00  0.00    -0.003 C 
ATOM     10  C   UNL     1     102.324 308.943 190.253  1.00  0.00     0.004 C 
ENDBRANCH   8   9
ENDBRANCH   7   8
ENDBRANCH   1   7
TORSDOF 6
ENDMDL
MODEL 3
REMARK VINA RESULT:    -4.749     20.243     21.236
REMARK INTER + INTRA:          -6.705
REMARK INTER:                  -6.420
REMARK INTRA:                  -0.284
REMARK UNBOUND:                -0.290
REMARK SMILES CCCCCCCC(=O)[O-]
REMARK SMILES IDX 5 1 6 2 7 3 8 4 9 5 10 6 4 7 3 8 2 9 1 10
REMARK H PARENT
REMARK Flexibility Score: inf
ROOT
ATOM      1  C   UNL     1      86.539 320.984 194.309  1.00  0.00     0.000 C 
ENDROOT
BRANCH   1   2
ATOM      2  C   UNL     1      87.283 320.580 195.595  1.00  0.00     0.006 C 
BRANCH   2   3
ATOM      3  C   UNL     1      86.317 320.237 196.737  1.00  0.00     0.053 C 
BRANCH   3   4
ATOM      4  C   UNL     1      87.018 320.195 198.061  1.00  0.00     0.041 C 
ATOM      5  O   UNL     1      87.362 321.263 198.632  1.00  0.00    -0.550 OA
ATOM      6  O   UNL     1      87.321 318.972 198.647  1.00  0.00    -0.550 OA
ENDBRANCH   3   4
ENDBRANCH   2   3
ENDBRANCH   1   2
BRANCH   1   7
ATOM      7  C   UNL     1      85.118 320.404 194.239  1.00  0.00     0.000 C 
BRANCH   7   8
ATOM      8  C   UNL     1      85.050 319.104 193.419  1.00  0.00    -0.000 C 
BRANCH   8   9
ATOM      9  C   UNL     1      86.239 318.953 192.457  1.00  0.00    -0.003 C 
ATOM     10  C   UNL     1      85.976 317.941 191.343  1.00  0.00     0.004 C 
ENDBRANCH   8   9
ENDBRANCH   7   8
ENDBRANCH   1   7
TORSDOF 6
ENDMDL
MODEL 4
REMARK VINA RESULT:    -4.731      4.265      6.086
REMARK INTER + INTRA:          -6.680
REMARK INTER:                  -6.376
REMARK INTRA:                  -0.305
REMARK UNBOUND:                -0.290
REMARK SMILES CCCCCCCC(=O)[O-]
REMARK SMILES IDX 5 1 6 2 7 3 8 4 9 5 10 6 4 7 3 8 2 9 1 10
REMARK H PARENT
REMARK Flexibility Score: inf
ROOT
ATOM      1  C   UNL     1     101.451 306.239 194.792  1.00  0.00     0.000 C 
ENDROOT
BRANCH   1   2
ATOM      2  C   UNL     1     102.458 306.277 195.956  1.00  0.00     0.006 C 
BRANCH   2   3
ATOM      3  C   UNL     1     101.950 305.513 197.185  1.00  0.00     0.053 C 
BRANCH   3   4
ATOM      4  C   UNL     1     101.797 306.413 198.373  1.00  0.00     0.041 C 
ATOM      5  O   UNL     1     102.019 307.648 198.267  1.00  0.00    -0.550 OA
ATOM      6  O   UNL     1     101.443 305.881 199.606  1.00  0.00    -0.550 OA
ENDBRANCH   3   4
ENDBRANCH   2   3
ENDBRANCH   1   2
BRANCH   1   7
ATOM      7  C   UNL     1     102.108 305.873 193.452  1.00  0.00     0.000 C 
BRANCH   7   8
ATOM      8  C   UNL     1     103.607 306.212 193.416  1.00  0.00    -0.000 C 
BRANCH   8   9
ATOM      9  C   UNL     1     103.937 307.314 192.396  1.00  0.00    -0.003 C 
ATOM     10  C   UNL     1     102.696 307.868 191.698  1.00  0.00     0.004 C 
ENDBRANCH   8   9
ENDBRANCH   7   8
ENDBRANCH   1   7
TORSDOF 6
ENDMDL
MODEL 5
REMARK VINA RESULT:    -4.715     19.799     20.611
REMARK INTER + INTRA:          -6.658
REMARK INTER:                  -6.212
REMARK INTRA:                  -0.446
REMARK UNBOUND:                -0.290
REMARK SMILES CCCCCCCC(=O)[O-]
REMARK SMILES IDX 5 1 6 2 7 3 8 4 9 5 10 6 4 7 3 8 2 9 1 10
REMARK H PARENT
REMARK Flexibility Score: inf
ROOT
ATOM      1  C   UNL     1      85.127 320.546 194.508  1.00  0.00     0.000 C 
ENDROOT
BRANCH   1   2
ATOM      2  C   UNL     1      84.712 319.408 193.558  1.00  0.00     0.006 C 
BRANCH   2   3
ATOM      3  C   UNL     1      85.914 318.808 192.816  1.00  0.00     0.053 C 
BRANCH   3   4
ATOM      4  C   UNL     1      85.487 318.017 191.618  1.00  0.00     0.041 C 
ATOM      5  O   UNL     1      84.315 317.562 191.543  1.00  0.00    -0.550 OA
ATOM      6  O   UNL     1      86.395 317.752 190.601  1.00  0.00    -0.550 OA
ENDBRANCH   3   4
ENDBRANCH   2   3
ENDBRANCH   1   2
BRANCH   1   7
ATOM      7  C   UNL     1      86.615 320.909 194.386  1.00  0.00     0.000 C 
BRANCH   7   8
ATOM      8  C   UNL     1      87.396 320.644 195.684  1.00  0.00    -0.000 C 
BRANCH   8   9
ATOM      9  C   UNL     1      86.695 319.623 196.595  1.00  0.00    -0.003 C 
ATOM     10  C   UNL     1      87.321 318.231 196.518  1.00  0.00     0.004 C 
ENDBRANCH   8   9
ENDBRANCH   7   8
ENDBRANCH   1   7
TORSDOF 6
ENDMDL
MODEL 6
REMARK VINA RESULT:    -4.714      1.447      2.399
REMARK INTER + INTRA:          -6.657
REMARK INTER:                  -6.398
REMARK INTRA:                  -0.259
REMARK UNBOUND:                -0.290
REMARK SMILES CCCCCCCC(=O)[O-]
REMARK SMILES IDX 5 1 6 2 7 3 8 4 9 5 10 6 4 7 3 8 2 9 1 10
REMARK H PARENT
REMARK Flexibility Score: inf
ROOT
ATOM      1  C   UNL     1     101.433 306.011 194.669  1.00  0.00     0.000 C 
ENDROOT
BRANCH   1   2
ATOM      2  C   UNL     1     101.923 305.749 193.233  1.00  0.00     0.006 C 
BRANCH   2   3
ATOM      3  C   UNL     1     102.930 306.807 192.764  1.00  0.00     0.053 C 
BRANCH   3   4
ATOM      4  C   UNL     1     102.249 307.966 192.103  1.00  0.00     0.041 C 
ATOM      5  O   UNL     1     102.093 307.981 190.853  1.00  0.00    -0.550 OA
ATOM      6  O   UNL     1     101.819 309.045 192.864  1.00  0.00    -0.550 OA
ENDBRANCH   3   4
ENDBRANCH   2   3
ENDBRANCH   1   2
BRANCH   1   7
ATOM      7  C   UNL     1     102.538 306.569 195.580  1.00  0.00     0.000 C 
BRANCH   7   8
ATOM      8  C   UNL     1     102.034 306.871 197.002  1.00  0.00    -0.000 C 
BRANCH   8   9
ATOM      9  C   UNL     1     101.843 305.597 197.841  1.00  0.00    -0.003 C 
ATOM     10  C   UNL     1     101.380 305.891 199.268  1.00  0.00     0.004 C 
ENDBRANCH   8   9
ENDBRANCH   7   8
ENDBRANCH   1   7
TORSDOF 6
ENDMDL
MODEL 7
REMARK VINA RESULT:    -4.711      3.077      5.572
REMARK INTER + INTRA:          -6.654
REMARK INTER:                  -6.389
REMARK INTRA:                  -0.265
REMARK UNBOUND:                -0.290
REMARK SMILES CCCCCCCC(=O)[O-]
REMARK SMILES IDX 5 1 6 2 7 3 8 4 9 5 10 6 4 7 3 8 2 9 1 10
REMARK H PARENT
REMARK Flexibility Score: inf
ROOT
ATOM      1  C   UNL     1     102.166 307.388 192.358  1.00  0.00     0.000 C 
ENDROOT
BRANCH   1   2
ATOM      2  C   UNL     1     102.238 306.013 193.047  1.00  0.00     0.006 C 
BRANCH   2   3
ATOM      3  C   UNL     1     101.600 306.032 194.442  1.00  0.00     0.053 C 
BRANCH   3   4
ATOM      4  C   UNL     1     102.591 306.408 195.501  1.00  0.00     0.041 C 
ATOM      5  O   UNL     1     103.787 306.023 195.415  1.00  0.00    -0.550 OA
ATOM      6  O   UNL     1     102.184 307.153 196.600  1.00  0.00    -0.550 OA
ENDBRANCH   3   4
ENDBRANCH   2   3
ENDBRANCH   1   2
BRANCH   1   7
ATOM      7  C   UNL     1     103.539 307.883 191.878  1.00  0.00     0.000 C 
BRANCH   7   8
ATOM      8  C   UNL     1     103.432 308.891 190.721  1.00  0.00    -0.000 C 
BRANCH   8   9
ATOM      9  C   UNL     1     102.008 308.981 190.149  1.00  0.00    -0.003 C 
ATOM     10  C   UNL     1     101.961 309.645 188.773  1.00  0.00     0.004 C 
ENDBRANCH   8   9
ENDBRANCH   7   8
ENDBRANCH   1   7
TORSDOF 6
ENDMDL
MODEL 8
REMARK VINA RESULT:    -4.597     20.321     20.939
REMARK INTER + INTRA:          -6.500
REMARK INTER:                  -6.193
REMARK INTRA:                  -0.307
REMARK UNBOUND:                -0.290
REMARK SMILES CCCCCCCC(=O)[O-]
REMARK SMILES IDX 5 1 6 2 7 3 8 4 9 5 10 6 4 7 3 8 2 9 1 10
REMARK H PARENT
REMARK Flexibility Score: inf
ROOT
ATOM      1  C   UNL     1      84.785 319.615 193.653  1.00  0.00     0.000 C 
ENDROOT
BRANCH   1   2
ATOM      2  C   UNL     1      85.966 318.786 193.118  1.00  0.00     0.006 C 
BRANCH   2   3
ATOM      3  C   UNL     1      85.687 318.217 191.721  1.00  0.00     0.053 C 
BRANCH   3   4
ATOM      4  C   UNL     1      84.714 317.079 191.770  1.00  0.00     0.041 C 
ATOM      5  O   UNL     1      83.884 316.913 190.837  1.00  0.00    -0.550 OA
ATOM      6  O   UNL     1      84.701 316.223 192.863  1.00  0.00    -0.550 OA
ENDBRANCH   3   4
ENDBRANCH   2   3
ENDBRANCH   1   2
BRANCH   1   7
ATOM      7  C   UNL     1      85.237 320.804 194.515  1.00  0.00     0.000 C 
BRANCH   7   8
ATOM      8  C   UNL     1      86.765 320.986 194.514  1.00  0.00    -0.000 C 
BRANCH   8   9
ATOM      9  C   UNL     1      87.409 320.557 195.842  1.00  0.00    -0.003 C 
ATOM     10  C   UNL     1      86.391 320.388 196.969  1.00  0.00     0.004 C 
ENDBRANCH   8   9
ENDBRANCH   7   8
ENDBRANCH   1   7
TORSDOF 6
ENDMDL
MODEL 9
REMARK VINA RESULT:    -4.466      1.162      1.710
REMARK INTER + INTRA:          -6.322
REMARK INTER:                  -6.105
REMARK INTRA:                  -0.217
REMARK UNBOUND:                -0.290
REMARK SMILES CCCCCCCC(=O)[O-]
REMARK SMILES IDX 5 1 6 2 7 3 8 4 9 5 10 6 4 7 3 8 2 9 1 10
REMARK H PARENT
REMARK Flexibility Score: inf
ROOT
ATOM      1  C   UNL     1     103.630 307.735 192.052  1.00  0.00     0.000 C 
ENDROOT
BRANCH   1   2
ATOM      2  C   UNL     1     103.574 308.764 190.909  1.00  0.00     0.006 C 
BRANCH   2   3
ATOM      3  C   UNL     1     102.179 308.851 190.277  1.00  0.00     0.053 C 
BRANCH   3   4
ATOM      4  C   UNL     1     102.099 309.948 189.259  1.00  0.00     0.041 C 
ATOM      5  O   UNL     1     100.987 310.461 188.966  1.00  0.00    -0.550 OA
ATOM      6  O   UNL     1     103.249 310.377 188.610  1.00  0.00    -0.550 OA
ENDBRANCH   3   4
ENDBRANCH   2   3
ENDBRANCH   1   2
BRANCH   1   7
ATOM      7  C   UNL     1     102.238 307.228 192.462  1.00  0.00     0.000 C 
BRANCH   7   8
ATOM      8  C   UNL     1     102.301 305.921 193.271  1.00  0.00    -0.000 C 
BRANCH   8   9
ATOM      9  C   UNL     1     101.624 306.047 194.646  1.00  0.00    -0.003 C 
ATOM     10  C   UNL     1     102.539 306.662 195.703  1.00  0.00     0.004 C 
ENDBRANCH   8   9
ENDBRANCH   7   8
ENDBRANCH   1   7
TORSDOF 6
ENDMDL
