MODEL 1
REMARK VINA RESULT:    -4.944      0.000      0.000
REMARK INTER + INTRA:          -9.934
REMARK INTER:                  -8.991
REMARK INTRA:                  -0.943
REMARK UNBOUND:                -0.943
REMARK SMILES CCCCCCCCCCCCCC[C@H](C)C(=O)[O-]
REMARK SMILES IDX 9 1 10 2 11 3 12 4 13 5 14 6 15 7 16 8 17 9 18 10 19 11 8 12
REMARK SMILES IDX 7 13 6 14 5 15 4 16 3 17 2 18 1 19
REMARK H PARENT
REMARK Flexibility Score: inf
ROOT
ATOM      1  C   UNL     1      52.769  -3.394  82.377  1.00  0.00     0.000 C 
ENDROOT
BRANCH   1   2
ATOM      2  C   UNL     1      54.124  -2.692  82.208  1.00  0.00     0.000 C 
BRANCH   2   3
ATOM      3  C   UNL     1      55.313  -3.648  82.392  1.00  0.00     0.000 C 
BRANCH   3   4
ATOM      4  C   UNL     1      56.596  -2.923  82.828  1.00  0.00     0.000 C 
BRANCH   4   5
ATOM      5  C   UNL     1      57.672  -3.925  83.266  1.00  0.00     0.001 C 
BRANCH   5   6
ATOM      6  C   UNL     1      59.060  -3.265  83.297  1.00  0.00     0.009 C 
BRANCH   6   7
ATOM      7  C   UNL     1      59.021  -1.776  82.890  1.00  0.00     0.032 C 
ATOM      8  C   UNL     1      60.035  -1.447  81.785  1.00  0.00     0.014 C 
BRANCH   7   9
ATOM      9  C   UNL     1      59.278  -0.909  84.092  1.00  0.00     0.044 C 
ATOM     10  O   UNL     1      58.349  -0.224  84.597  1.00  0.00    -0.550 OA
ATOM     11  O   UNL     1      60.549  -0.858  84.652  1.00  0.00    -0.550 OA
ENDBRANCH   7   9
ENDBRANCH   6   7
ENDBRANCH   5   6
ENDBRANCH   4   5
ENDBRANCH   3   4
ENDBRANCH   2   3
ENDBRANCH   1   2
BRANCH   1  12
ATOM     12  C   UNL     1      51.610  -2.399  82.202  1.00  0.00     0.000 C 
BRANCH  12  13
ATOM     13  C   UNL     1      50.498  -2.944  81.292  1.00  0.00    -0.000 C 
BRANCH  13  14
ATOM     14  C   UNL     1      49.141  -2.265  81.544  1.00  0.00    -0.000 C 
BRANCH  14  15
ATOM     15  C   UNL     1      48.249  -3.075  82.509  1.00  0.00    -0.000 C 
BRANCH  15  16
ATOM     16  C   UNL     1      47.749  -2.264  83.719  1.00  0.00    -0.000 C 
BRANCH  16  17
ATOM     17  C   UNL     1      47.927  -2.953  85.084  1.00  0.00    -0.000 C 
BRANCH  17  18
ATOM     18  C   UNL     1      49.353  -3.458  85.370  1.00  0.00    -0.003 C 
ATOM     19  C   UNL     1      50.206  -2.441  86.125  1.00  0.00     0.004 C 
ENDBRANCH  17  18
ENDBRANCH  16  17
ENDBRANCH  15  16
ENDBRANCH  14  15
ENDBRANCH  13  14
ENDBRANCH  12  13
ENDBRANCH   1  12
TORSDOF 14
ENDMDL
MODEL 2
REMARK VINA RESULT:    -4.877      9.426     11.015
REMARK INTER + INTRA:          -9.811
REMARK INTER:                  -8.091
REMARK INTRA:                  -1.720
REMARK UNBOUND:                -0.943
REMARK SMILES CCCCCCCCCCCCCC[C@H](C)C(=O)[O-]
REMARK SMILES IDX 9 1 10 2 11 3 12 4 13 5 14 6 15 7 16 8 17 9 18 10 19 11 8 12
REMARK SMILES IDX 7 13 6 14 5 15 4 16 3 17 2 18 1 19
REMARK H PARENT
REMARK Flexibility Score: inf
ROOT
ATOM      1  C   UNL     1      50.764   0.017  73.240  1.00  0.00     0.000 C 
ENDROOT
BRANCH   1   2
ATOM      2  C   UNL     1      51.729   0.280  72.074  1.00  0.00     0.000 C 
BRANCH   2   3
ATOM      3  C   UNL     1      52.910  -0.703  72.051  1.00  0.00     0.000 C 
BRANCH   3   4
ATOM      4  C   UNL     1      52.945  -1.618  73.285  1.00  0.00     0.000 C 
BRANCH   4   5
ATOM      5  C   UNL     1      53.047  -3.092  72.873  1.00  0.00     0.001 C 
BRANCH   5   6
ATOM      6  C   UNL     1      52.647  -4.018  74.034  1.00  0.00     0.009 C 
BRANCH   6   7
ATOM      7  C   UNL     1      53.670  -5.148  74.276  1.00  0.00     0.032 C 
ATOM      8  C   UNL     1      53.380  -5.933  75.562  1.00  0.00     0.014 C 
BRANCH   7   9
ATOM      9  C   UNL     1      55.061  -4.576  74.331  1.00  0.00     0.044 C 
ATOM     10  O   UNL     1      55.959  -5.004  73.558  1.00  0.00    -0.550 OA
ATOM     11  O   UNL     1      55.362  -3.571  75.241  1.00  0.00    -0.550 OA
ENDBRANCH   7   9
ENDBRANCH   6   7
ENDBRANCH   5   6
ENDBRANCH   4   5
ENDBRANCH   3   4
ENDBRANCH   2   3
ENDBRANCH   1   2
BRANCH   1  12
ATOM     12  C   UNL     1      49.303   0.180  72.789  1.00  0.00     0.000 C 
BRANCH  12  13
ATOM     13  C   UNL     1      48.749  -1.088  72.119  1.00  0.00    -0.000 C 
BRANCH  13  14
ATOM     14  C   UNL     1      48.851  -2.328  73.022  1.00  0.00    -0.000 C 
BRANCH  14  15
ATOM     15  C   UNL     1      49.466  -3.540  72.288  1.00  0.00    -0.000 C 
BRANCH  15  16
ATOM     16  C   UNL     1      49.203  -4.887  72.989  1.00  0.00    -0.000 C 
BRANCH  16  17
ATOM     17  C   UNL     1      48.071  -4.868  74.031  1.00  0.00    -0.000 C 
BRANCH  17  18
ATOM     18  C   UNL     1      46.670  -5.169  73.468  1.00  0.00    -0.003 C 
ATOM     19  C   UNL     1      46.672  -6.289  72.430  1.00  0.00     0.004 C 
ENDBRANCH  17  18
ENDBRANCH  16  17
ENDBRANCH  15  16
ENDBRANCH  14  15
ENDBRANCH  13  14
ENDBRANCH  12  13
ENDBRANCH   1  12
TORSDOF 14
ENDMDL
MODEL 3
REMARK VINA RESULT:    -4.711     10.497     13.218
REMARK INTER + INTRA:          -9.509
REMARK INTER:                  -7.371
REMARK INTRA:                  -2.138
REMARK UNBOUND:                -0.943
REMARK SMILES CCCCCCCCCCCCCC[C@H](C)C(=O)[O-]
REMARK SMILES IDX 9 1 10 2 11 3 12 4 13 5 14 6 15 7 16 8 17 9 18 10 19 11 8 12
REMARK SMILES IDX 7 13 6 14 5 15 4 16 3 17 2 18 1 19
REMARK H PARENT
REMARK Flexibility Score: inf
ROOT
ATOM      1  C   UNL     1      48.193  -1.136  75.163  1.00  0.00     0.000 C 
ENDROOT
BRANCH   1   2
ATOM      2  C   UNL     1      49.200  -2.140  75.744  1.00  0.00     0.000 C 
BRANCH   2   3
ATOM      3  C   UNL     1      49.073  -3.537  75.115  1.00  0.00     0.000 C 
BRANCH   3   4
ATOM      4  C   UNL     1      47.734  -3.742  74.390  1.00  0.00     0.000 C 
BRANCH   4   5
ATOM      5  C   UNL     1      47.955  -4.085  72.912  1.00  0.00     0.001 C 
BRANCH   5   6
ATOM      6  C   UNL     1      48.872  -5.311  72.762  1.00  0.00     0.009 C 
BRANCH   6   7
ATOM      7  C   UNL     1      48.087  -6.616  72.510  1.00  0.00     0.032 C 
ATOM      8  C   UNL     1      46.601  -6.357  72.227  1.00  0.00     0.014 C 
BRANCH   7   9
ATOM      9  C   UNL     1      48.227  -7.534  73.693  1.00  0.00     0.044 C 
ATOM     10  O   UNL     1      47.743  -8.697  73.661  1.00  0.00    -0.550 OA
ATOM     11  O   UNL     1      48.893  -7.101  74.833  1.00  0.00    -0.550 OA
ENDBRANCH   7   9
ENDBRANCH   6   7
ENDBRANCH   5   6
ENDBRANCH   4   5
ENDBRANCH   3   4
ENDBRANCH   2   3
ENDBRANCH   1   2
BRANCH   1  12
ATOM     12  C   UNL     1      48.797   0.276  75.108  1.00  0.00     0.000 C 
BRANCH  12  13
ATOM     13  C   UNL     1      49.097   0.734  73.671  1.00  0.00    -0.000 C 
BRANCH  13  14
ATOM     14  C   UNL     1      48.617  -0.277  72.615  1.00  0.00    -0.000 C 
BRANCH  14  15
ATOM     15  C   UNL     1      49.762  -0.756  71.696  1.00  0.00    -0.000 C 
BRANCH  15  16
ATOM     16  C   UNL     1      50.828  -1.597  72.423  1.00  0.00    -0.000 C 
BRANCH  16  17
ATOM     17  C   UNL     1      52.239  -0.982  72.444  1.00  0.00    -0.000 C 
BRANCH  17  18
ATOM     18  C   UNL     1      52.328   0.449  71.884  1.00  0.00    -0.003 C 
ATOM     19  C   UNL     1      53.688   0.764  71.266  1.00  0.00     0.004 C 
ENDBRANCH  17  18
ENDBRANCH  16  17
ENDBRANCH  15  16
ENDBRANCH  14  15
ENDBRANCH  13  14
ENDBRANCH  12  13
ENDBRANCH   1  12
TORSDOF 14
ENDMDL
MODEL 4
REMARK VINA RESULT:    -4.695     10.977     12.952
REMARK INTER + INTRA:          -9.481
REMARK INTER:                  -7.310
REMARK INTRA:                  -2.171
REMARK UNBOUND:                -0.943
REMARK SMILES CCCCCCCCCCCCCC[C@H](C)C(=O)[O-]
REMARK SMILES IDX 9 1 10 2 11 3 12 4 13 5 14 6 15 7 16 8 17 9 18 10 19 11 8 12
REMARK SMILES IDX 7 13 6 14 5 15 4 16 3 17 2 18 1 19
REMARK H PARENT
REMARK Flexibility Score: inf
ROOT
ATOM      1  C   UNL     1      52.586  -1.866  73.437  1.00  0.00     0.000 C 
ENDROOT
BRANCH   1   2
ATOM      2  C   UNL     1      52.294  -3.295  72.954  1.00  0.00     0.000 C 
BRANCH   2   3
ATOM      3  C   UNL     1      50.845  -3.729  73.230  1.00  0.00     0.000 C 
BRANCH   3   4
ATOM      4  C   UNL     1      50.258  -3.070  74.488  1.00  0.00     0.000 C 
BRANCH   4   5
ATOM      5  C   UNL     1      48.757  -3.358  74.609  1.00  0.00     0.001 C 
BRANCH   5   6
ATOM      6  C   UNL     1      48.219  -4.028  73.334  1.00  0.00     0.009 C 
BRANCH   6   7
ATOM      7  C   UNL     1      47.226  -5.171  73.634  1.00  0.00     0.032 C 
ATOM      8  C   UNL     1      47.322  -5.662  75.086  1.00  0.00     0.014 C 
BRANCH   7   9
ATOM      9  C   UNL     1      47.466  -6.319  72.692  1.00  0.00     0.044 C 
ATOM     10  O   UNL     1      48.582  -6.903  72.667  1.00  0.00    -0.550 OA
ATOM     11  O   UNL     1      46.453  -6.740  71.840  1.00  0.00    -0.550 OA
ENDBRANCH   7   9
ENDBRANCH   6   7
ENDBRANCH   5   6
ENDBRANCH   4   5
ENDBRANCH   3   4
ENDBRANCH   2   3
ENDBRANCH   1   2
BRANCH   1  12
ATOM     12  C   UNL     1      52.439  -0.858  72.286  1.00  0.00     0.000 C 
BRANCH  12  13
ATOM     13  C   UNL     1      51.179   0.012  72.421  1.00  0.00    -0.000 C 
BRANCH  13  14
ATOM     14  C   UNL     1      49.971  -0.575  71.671  1.00  0.00    -0.000 C 
BRANCH  14  15
ATOM     15  C   UNL     1      48.655  -0.418  72.463  1.00  0.00    -0.000 C 
BRANCH  15  16
ATOM     16  C   UNL     1      48.817   0.349  73.789  1.00  0.00    -0.000 C 
BRANCH  16  17
ATOM     17  C   UNL     1      47.834   1.517  73.991  1.00  0.00    -0.000 C 
BRANCH  17  18
ATOM     18  C   UNL     1      48.467   2.917  73.895  1.00  0.00    -0.003 C 
ATOM     19  C   UNL     1      49.952   2.927  74.250  1.00  0.00     0.004 C 
ENDBRANCH  17  18
ENDBRANCH  16  17
ENDBRANCH  15  16
ENDBRANCH  14  15
ENDBRANCH  13  14
ENDBRANCH  12  13
ENDBRANCH   1  12
TORSDOF 14
ENDMDL
MODEL 5
REMARK VINA RESULT:    -4.632     10.876     13.577
REMARK INTER + INTRA:          -9.366
REMARK INTER:                  -7.139
REMARK INTRA:                  -2.227
REMARK UNBOUND:                -0.943
REMARK SMILES CCCCCCCCCCCCCC[C@H](C)C(=O)[O-]
REMARK SMILES IDX 9 1 10 2 11 3 12 4 13 5 14 6 15 7 16 8 17 9 18 10 19 11 8 12
REMARK SMILES IDX 7 13 6 14 5 15 4 16 3 17 2 18 1 19
REMARK H PARENT
REMARK Flexibility Score: inf
ROOT
ATOM      1  C   UNL     1      49.856  -2.700  75.544  1.00  0.00     0.000 C 
ENDROOT
BRANCH   1   2
ATOM      2  C   UNL     1      49.581  -4.101  74.977  1.00  0.00     0.000 C 
BRANCH   2   3
ATOM      3  C   UNL     1      49.991  -4.233  73.501  1.00  0.00     0.000 C 
BRANCH   3   4
ATOM      4  C   UNL     1      48.787  -4.196  72.546  1.00  0.00     0.000 C 
BRANCH   4   5
ATOM      5  C   UNL     1      47.496  -4.590  73.274  1.00  0.00     0.001 C 
BRANCH   5   6
ATOM      6  C   UNL     1      46.768  -5.722  72.530  1.00  0.00     0.009 C 
BRANCH   6   7
ATOM      7  C   UNL     1      46.211  -6.801  73.484  1.00  0.00     0.032 C 
ATOM      8  C   UNL     1      47.058  -6.949  74.756  1.00  0.00     0.014 C 
BRANCH   7   9
ATOM      9  C   UNL     1      46.129  -8.122  72.771  1.00  0.00     0.044 C 
ATOM     10  O   UNL     1      45.198  -8.932  73.028  1.00  0.00    -0.550 OA
ATOM     11  O   UNL     1      47.087  -8.459  71.822  1.00  0.00    -0.550 OA
ENDBRANCH   7   9
ENDBRANCH   6   7
ENDBRANCH   5   6
ENDBRANCH   4   5
ENDBRANCH   3   4
ENDBRANCH   2   3
ENDBRANCH   1   2
BRANCH   1  12
ATOM     12  C   UNL     1      48.675  -1.756  75.266  1.00  0.00     0.000 C 
BRANCH  12  13
ATOM     13  C   UNL     1      49.127  -0.395  74.711  1.00  0.00    -0.000 C 
BRANCH  13  14
ATOM     14  C   UNL     1      48.692  -0.177  73.252  1.00  0.00    -0.000 C 
BRANCH  14  15
ATOM     15  C   UNL     1      49.768  -0.635  72.243  1.00  0.00    -0.000 C 
BRANCH  15  16
ATOM     16  C   UNL     1      51.188  -0.150  72.589  1.00  0.00    -0.000 C 
BRANCH  16  17
ATOM     17  C   UNL     1      52.309  -1.168  72.313  1.00  0.00    -0.000 C 
BRANCH  17  18
ATOM     18  C   UNL     1      52.842  -1.896  73.561  1.00  0.00    -0.003 C 
ATOM     19  C   UNL     1      53.543  -3.212  73.230  1.00  0.00     0.004 C 
ENDBRANCH  17  18
ENDBRANCH  16  17
ENDBRANCH  15  16
ENDBRANCH  14  15
ENDBRANCH  13  14
ENDBRANCH  12  13
ENDBRANCH   1  12
TORSDOF 14
ENDMDL
MODEL 6
REMARK VINA RESULT:    -4.631     11.097     13.395
REMARK INTER + INTRA:          -9.364
REMARK INTER:                  -7.060
REMARK INTRA:                  -2.303
REMARK UNBOUND:                -0.943
REMARK SMILES CCCCCCCCCCCCCC[C@H](C)C(=O)[O-]
REMARK SMILES IDX 9 1 10 2 11 3 12 4 13 5 14 6 15 7 16 8 17 9 18 10 19 11 8 12
REMARK SMILES IDX 7 13 6 14 5 15 4 16 3 17 2 18 1 19
REMARK H PARENT
REMARK Flexibility Score: inf
ROOT
ATOM      1  C   UNL     1      51.674  -3.927  74.072  1.00  0.00     0.000 C 
ENDROOT
BRANCH   1   2
ATOM      2  C   UNL     1      50.314  -4.632  74.172  1.00  0.00     0.000 C 
BRANCH   2   3
ATOM      3  C   UNL     1      49.228  -3.738  74.794  1.00  0.00     0.000 C 
BRANCH   3   4
ATOM      4  C   UNL     1      47.892  -3.815  74.039  1.00  0.00     0.000 C 
BRANCH   4   5
ATOM      5  C   UNL     1      48.067  -4.505  72.680  1.00  0.00     0.001 C 
BRANCH   5   6
ATOM      6  C   UNL     1      46.979  -5.568  72.458  1.00  0.00     0.009 C 
BRANCH   6   7
ATOM      7  C   UNL     1      47.223  -6.852  73.281  1.00  0.00     0.032 C 
ATOM      8  C   UNL     1      48.446  -7.638  72.787  1.00  0.00     0.014 C 
BRANCH   7   9
ATOM      9  C   UNL     1      46.002  -7.729  73.236  1.00  0.00     0.044 C 
ATOM     10  O   UNL     1      45.072  -7.574  74.072  1.00  0.00    -0.550 OA
ATOM     11  O   UNL     1      45.895  -8.720  72.268  1.00  0.00    -0.550 OA
ENDBRANCH   7   9
ENDBRANCH   6   7
ENDBRANCH   5   6
ENDBRANCH   4   5
ENDBRANCH   3   4
ENDBRANCH   2   3
ENDBRANCH   1   2
BRANCH   1  12
ATOM     12  C   UNL     1      51.801  -3.165  72.743  1.00  0.00     0.000 C 
BRANCH  12  13
ATOM     13  C   UNL     1      52.244  -1.707  72.940  1.00  0.00    -0.000 C 
BRANCH  13  14
ATOM     14  C   UNL     1      51.206  -0.698  72.420  1.00  0.00    -0.000 C 
BRANCH  14  15
ATOM     15  C   UNL     1      49.952  -1.389  71.842  1.00  0.00    -0.000 C 
BRANCH  15  16
ATOM     16  C   UNL     1      48.633  -0.677  72.198  1.00  0.00    -0.000 C 
BRANCH  16  17
ATOM     17  C   UNL     1      48.758   0.436  73.254  1.00  0.00    -0.000 C 
BRANCH  17  18
ATOM     18  C   UNL     1      47.879   0.242  74.503  1.00  0.00    -0.003 C 
ATOM     19  C   UNL     1      48.672  -0.211  75.726  1.00  0.00     0.004 C 
ENDBRANCH  17  18
ENDBRANCH  16  17
ENDBRANCH  15  16
ENDBRANCH  14  15
ENDBRANCH  13  14
ENDBRANCH  12  13
ENDBRANCH   1  12
TORSDOF 14
ENDMDL
MODEL 7
REMARK VINA RESULT:    -4.629     11.626     14.220
REMARK INTER + INTRA:          -9.360
REMARK INTER:                  -7.488
REMARK INTRA:                  -1.872
REMARK UNBOUND:                -0.943
REMARK SMILES CCCCCCCCCCCCCC[C@H](C)C(=O)[O-]
REMARK SMILES IDX 9 1 10 2 11 3 12 4 13 5 14 6 15 7 16 8 17 9 18 10 19 11 8 12
REMARK SMILES IDX 7 13 6 14 5 15 4 16 3 17 2 18 1 19
REMARK H PARENT
REMARK Flexibility Score: inf
ROOT
ATOM      1  C   UNL     1      49.724  -4.414  72.629  1.00  0.00     0.000 C 
ENDROOT
BRANCH   1   2
ATOM      2  C   UNL     1      48.234  -4.043  72.654  1.00  0.00     0.000 C 
BRANCH   2   3
ATOM      3  C   UNL     1      47.616  -4.168  74.056  1.00  0.00     0.000 C 
BRANCH   3   4
ATOM      4  C   UNL     1      46.642  -5.351  74.172  1.00  0.00     0.000 C 
BRANCH   4   5
ATOM      5  C   UNL     1      46.489  -6.071  72.826  1.00  0.00     0.001 C 
BRANCH   5   6
ATOM      6  C   UNL     1      46.005  -7.516  73.026  1.00  0.00     0.009 C 
BRANCH   6   7
ATOM      7  C   UNL     1      47.031  -8.562  72.537  1.00  0.00     0.032 C 
ATOM      8  C   UNL     1      48.398  -7.936  72.225  1.00  0.00     0.014 C 
BRANCH   7   9
ATOM      9  C   UNL     1      46.503  -9.266  71.317  1.00  0.00     0.044 C 
ATOM     10  O   UNL     1      45.898  -8.622  70.419  1.00  0.00    -0.550 OA
ATOM     11  O   UNL     1      46.680 -10.637  71.176  1.00  0.00    -0.550 OA
ENDBRANCH   7   9
ENDBRANCH   6   7
ENDBRANCH   5   6
ENDBRANCH   4   5
ENDBRANCH   3   4
ENDBRANCH   2   3
ENDBRANCH   1   2
BRANCH   1  12
ATOM     12  C   UNL     1      50.579  -3.218  72.184  1.00  0.00     0.000 C 
BRANCH  12  13
ATOM     13  C   UNL     1      51.830  -3.030  73.058  1.00  0.00    -0.000 C 
BRANCH  13  14
ATOM     14  C   UNL     1      52.284  -1.563  73.134  1.00  0.00    -0.000 C 
BRANCH  14  15
ATOM     15  C   UNL     1      51.438  -0.638  72.233  1.00  0.00    -0.000 C 
BRANCH  15  16
ATOM     16  C   UNL     1      50.522   0.323  73.016  1.00  0.00    -0.000 C 
BRANCH  16  17
ATOM     17  C   UNL     1      49.031  -0.059  73.021  1.00  0.00    -0.000 C 
BRANCH  17  18
ATOM     18  C   UNL     1      48.428  -0.287  74.420  1.00  0.00    -0.003 C 
ATOM     19  C   UNL     1      49.282  -1.200  75.296  1.00  0.00     0.004 C 
ENDBRANCH  17  18
ENDBRANCH  16  17
ENDBRANCH  15  16
ENDBRANCH  14  15
ENDBRANCH  13  14
ENDBRANCH  12  13
ENDBRANCH   1  12
TORSDOF 14
ENDMDL
MODEL 8
REMARK VINA RESULT:    -4.614      9.798     11.833
REMARK INTER + INTRA:          -9.333
REMARK INTER:                  -7.810
REMARK INTRA:                  -1.523
REMARK UNBOUND:                -0.943
REMARK SMILES CCCCCCCCCCCCCC[C@H](C)C(=O)[O-]
REMARK SMILES IDX 9 1 10 2 11 3 12 4 13 5 14 6 15 7 16 8 17 9 18 10 19 11 8 12
REMARK SMILES IDX 7 13 6 14 5 15 4 16 3 17 2 18 1 19
REMARK H PARENT
REMARK Flexibility Score: inf
ROOT
ATOM      1  C   UNL     1      49.547  -2.401  72.880  1.00  0.00     0.000 C 
ENDROOT
BRANCH   1   2
ATOM      2  C   UNL     1      49.937  -1.250  71.942  1.00  0.00     0.000 C 
BRANCH   2   3
ATOM      3  C   UNL     1      50.995  -0.319  72.556  1.00  0.00     0.000 C 
BRANCH   3   4
ATOM      4  C   UNL     1      52.431  -0.764  72.240  1.00  0.00     0.000 C 
BRANCH   4   5
ATOM      5  C   UNL     1      53.014  -1.598  73.388  1.00  0.00     0.001 C 
BRANCH   5   6
ATOM      6  C   UNL     1      53.457  -2.984  72.893  1.00  0.00     0.009 C 
BRANCH   6   7
ATOM      7  C   UNL     1      52.989  -4.127  73.820  1.00  0.00     0.032 C 
ATOM      8  C   UNL     1      52.328  -3.604  75.103  1.00  0.00     0.014 C 
BRANCH   7   9
ATOM      9  C   UNL     1      54.154  -5.010  74.172  1.00  0.00     0.044 C 
ATOM     10  O   UNL     1      55.337  -4.601  74.020  1.00  0.00    -0.550 OA
ATOM     11  O   UNL     1      53.931  -6.290  74.666  1.00  0.00    -0.550 OA
ENDBRANCH   7   9
ENDBRANCH   6   7
ENDBRANCH   5   6
ENDBRANCH   4   5
ENDBRANCH   3   4
ENDBRANCH   2   3
ENDBRANCH   1   2
BRANCH   1  12
ATOM     12  C   UNL     1      49.718  -3.759  72.181  1.00  0.00     0.000 C 
BRANCH  12  13
ATOM     13  C   UNL     1      49.174  -4.927  73.020  1.00  0.00    -0.000 C 
BRANCH  13  14
ATOM     14  C   UNL     1      47.700  -4.735  73.416  1.00  0.00    -0.000 C 
BRANCH  14  15
ATOM     15  C   UNL     1      46.741  -5.556  72.527  1.00  0.00    -0.000 C 
BRANCH  15  16
ATOM     16  C   UNL     1      46.731  -7.062  72.853  1.00  0.00    -0.000 C 
BRANCH  16  17
ATOM     17  C   UNL     1      47.280  -7.972  71.739  1.00  0.00    -0.000 C 
BRANCH  17  18
ATOM     18  C   UNL     1      46.422  -9.216  71.441  1.00  0.00    -0.003 C 
ATOM     19  C   UNL     1      47.080 -10.517  71.891  1.00  0.00     0.004 C 
ENDBRANCH  17  18
ENDBRANCH  16  17
ENDBRANCH  15  16
ENDBRANCH  14  15
ENDBRANCH  13  14
ENDBRANCH  12  13
ENDBRANCH   1  12
TORSDOF 14
ENDMDL
MODEL 9
REMARK VINA RESULT:    -4.561      8.796     11.289
REMARK INTER + INTRA:          -9.237
REMARK INTER:                  -6.893
REMARK INTRA:                  -2.345
REMARK UNBOUND:                -0.943
REMARK SMILES CCCCCCCCCCCCCC[C@H](C)C(=O)[O-]
REMARK SMILES IDX 9 1 10 2 11 3 12 4 13 5 14 6 15 7 16 8 17 9 18 10 19 11 8 12
REMARK SMILES IDX 7 13 6 14 5 15 4 16 3 17 2 18 1 19
REMARK H PARENT
REMARK Flexibility Score: inf
ROOT
ATOM      1  C   UNL     1      53.076  -1.817  73.452  1.00  0.00     0.000 C 
ENDROOT
BRANCH   1   2
ATOM      2  C   UNL     1      53.128  -3.297  73.045  1.00  0.00     0.000 C 
BRANCH   2   3
ATOM      3  C   UNL     1      52.389  -4.209  74.037  1.00  0.00     0.000 C 
BRANCH   3   4
ATOM      4  C   UNL     1      51.728  -3.428  75.183  1.00  0.00     0.000 C 
BRANCH   4   5
ATOM      5  C   UNL     1      51.208  -4.379  76.268  1.00  0.00     0.001 C 
BRANCH   5   6
ATOM      6  C   UNL     1      50.057  -5.247  75.734  1.00  0.00     0.009 C 
BRANCH   6   7
ATOM      7  C   UNL     1      48.769  -5.114  76.575  1.00  0.00     0.032 C 
ATOM      8  C   UNL     1      48.335  -3.652  76.751  1.00  0.00     0.014 C 
BRANCH   7   9
ATOM      9  C   UNL     1      48.970  -5.751  77.923  1.00  0.00     0.044 C 
ATOM     10  O   UNL     1      49.029  -5.043  78.963  1.00  0.00    -0.550 OA
ATOM     11  O   UNL     1      49.095  -7.131  78.027  1.00  0.00    -0.550 OA
ENDBRANCH   7   9
ENDBRANCH   6   7
ENDBRANCH   5   6
ENDBRANCH   4   5
ENDBRANCH   3   4
ENDBRANCH   2   3
ENDBRANCH   1   2
BRANCH   1  12
ATOM     12  C   UNL     1      53.031  -0.909  72.213  1.00  0.00     0.000 C 
BRANCH  12  13
ATOM     13  C   UNL     1      51.810   0.026  72.211  1.00  0.00    -0.000 C 
BRANCH  13  14
ATOM     14  C   UNL     1      50.654  -0.508  73.074  1.00  0.00    -0.000 C 
BRANCH  14  15
ATOM     15  C   UNL     1      49.546  -1.171  72.227  1.00  0.00    -0.000 C 
BRANCH  15  16
ATOM     16  C   UNL     1      49.544  -2.710  72.305  1.00  0.00    -0.000 C 
BRANCH  16  17
ATOM     17  C   UNL     1      48.328  -3.324  73.021  1.00  0.00    -0.000 C 
BRANCH  17  18
ATOM     18  C   UNL     1      48.039  -4.792  72.659  1.00  0.00    -0.003 C 
ATOM     19  C   UNL     1      46.815  -5.354  73.378  1.00  0.00     0.004 C 
ENDBRANCH  17  18
ENDBRANCH  16  17
ENDBRANCH  15  16
ENDBRANCH  14  15
ENDBRANCH  13  14
ENDBRANCH  12  13
ENDBRANCH   1  12
TORSDOF 14
ENDMDL
