MODEL 1
REMARK VINA RESULT:    -7.351      0.000      0.000
REMARK INTER + INTRA:          -9.817
REMARK INTER:                  -9.285
REMARK INTRA:                  -0.532
REMARK UNBOUND:                -0.532
REMARK SMILES O=C(C=Cc1ccc(O)cc1)c1ccc(O)cc1O
REMARK SMILES IDX 4 1 3 2 5 3 6 4 7 5 8 6 11 7 10 8 9 9 2 11 1 12 12 13 18 14
REMARK SMILES IDX 13 15 17 16 14 17 15 18 19 19 16 21
REMARK H PARENT 9 10 19 20 16 22
REMARK Flexibility Score: inf
ROOT
ATOM      1  C   UNL     1      -8.137 -22.079  -6.547  1.00  0.00     0.012 C 
ATOM      2  C   UNL     1      -8.365 -21.549  -7.759  1.00  0.00     0.053 C 
ENDROOT
BRANCH   1   3
ATOM      3  C   UNL     1      -8.557 -21.437  -5.277  1.00  0.00    -0.025 A 
ATOM      4  C   UNL     1      -7.640 -21.090  -4.264  1.00  0.00     0.012 A 
ATOM      5  C   UNL     1      -8.083 -20.476  -3.089  1.00  0.00     0.047 A 
ATOM      6  C   UNL     1      -9.439 -20.190  -2.910  1.00  0.00     0.115 A 
ATOM      7  C   UNL     1      -9.916 -21.130  -5.095  1.00  0.00     0.012 A 
ATOM      8  C   UNL     1     -10.355 -20.516  -3.917  1.00  0.00     0.047 A 
BRANCH   6   9
ATOM      9  O   UNL     1      -9.865 -19.579  -1.733  1.00  0.00    -0.508 OA
ATOM     10  H   UNL     1      -9.406 -18.751  -1.371  1.00  0.00     0.293 HD
ENDBRANCH   6   9
ENDBRANCH   1   3
BRANCH   2  11
ATOM     11  C   UNL     1      -7.914 -22.210  -9.005  1.00  0.00     0.189 C 
ATOM     12  O   UNL     1      -8.767 -22.650  -9.823  1.00  0.00    -0.289 OA
BRANCH  11  13
ATOM     13  C   UNL     1      -6.468 -22.371  -9.302  1.00  0.00     0.064 A 
ATOM     14  C   UNL     1      -5.703 -21.287  -9.790  1.00  0.00     0.130 A 
ATOM     15  C   UNL     1      -5.832 -23.607  -9.080  1.00  0.00     0.020 A 
ATOM     16  C   UNL     1      -4.334 -21.455 -10.048  1.00  0.00     0.093 A 
ATOM     17  C   UNL     1      -4.469 -23.764  -9.344  1.00  0.00     0.047 A 
ATOM     18  C   UNL     1      -3.718 -22.692  -9.828  1.00  0.00     0.119 A 
BRANCH  14  19
ATOM     19  O   UNL     1      -6.302 -20.051 -10.031  1.00  0.00    -0.507 OA
ATOM     20  H   UNL     1      -5.788 -19.280 -10.439  1.00  0.00     0.293 HD
ENDBRANCH  14  19
BRANCH  18  21
ATOM     21  O   UNL     1      -2.359 -22.864 -10.084  1.00  0.00    -0.508 OA
ATOM     22  H   UNL     1      -2.034 -23.334 -10.921  1.00  0.00     0.293 HD
ENDBRANCH  18  21
ENDBRANCH  11  13
ENDBRANCH   2  11
TORSDOF 6
ENDMDL
MODEL 2
REMARK VINA RESULT:    -7.171     11.324     14.172
REMARK INTER + INTRA:          -9.589
REMARK INTER:                  -9.207
REMARK INTRA:                  -0.383
REMARK UNBOUND:                -0.532
REMARK SMILES O=C(C=Cc1ccc(O)cc1)c1ccc(O)cc1O
REMARK SMILES IDX 4 1 3 2 5 3 6 4 7 5 8 6 11 7 10 8 9 9 2 11 1 12 12 13 18 14
REMARK SMILES IDX 13 15 17 16 14 17 15 18 19 19 16 21
REMARK H PARENT 9 10 19 20 16 22
REMARK Flexibility Score: inf
ROOT
ATOM      1  C   UNL     1      -4.843 -13.919   1.949  1.00  0.00     0.012 C 
ATOM      2  C   UNL     1      -5.701 -14.919   1.697  1.00  0.00     0.053 C 
ENDROOT
BRANCH   1   3
ATOM      3  C   UNL     1      -3.468 -14.126   2.467  1.00  0.00    -0.025 A 
ATOM      4  C   UNL     1      -3.134 -13.942   3.824  1.00  0.00     0.012 A 
ATOM      5  C   UNL     1      -1.826 -14.162   4.266  1.00  0.00     0.047 A 
ATOM      6  C   UNL     1      -0.838 -14.577   3.369  1.00  0.00     0.115 A 
ATOM      7  C   UNL     1      -2.471 -14.559   1.576  1.00  0.00     0.012 A 
ATOM      8  C   UNL     1      -1.164 -14.777   2.022  1.00  0.00     0.047 A 
BRANCH   6   9
ATOM      9  O   UNL     1       0.461 -14.789   3.825  1.00  0.00    -0.508 OA
ATOM     10  H   UNL     1       1.024 -14.031   4.191  1.00  0.00     0.293 HD
ENDBRANCH   6   9
ENDBRANCH   1   3
BRANCH   2  11
ATOM     11  C   UNL     1      -7.074 -14.671   1.198  1.00  0.00     0.189 C 
ATOM     12  O   UNL     1      -7.448 -15.196   0.113  1.00  0.00    -0.289 OA
BRANCH  11  13
ATOM     13  C   UNL     1      -8.015 -13.806   1.952  1.00  0.00     0.064 A 
ATOM     14  C   UNL     1      -8.396 -14.129   3.273  1.00  0.00     0.130 A 
ATOM     15  C   UNL     1      -8.526 -12.633   1.364  1.00  0.00     0.020 A 
ATOM     16  C   UNL     1      -9.273 -13.289   3.976  1.00  0.00     0.093 A 
ATOM     17  C   UNL     1      -9.402 -11.805   2.071  1.00  0.00     0.047 A 
ATOM     18  C   UNL     1      -9.777 -12.129   3.376  1.00  0.00     0.119 A 
BRANCH  14  19
ATOM     19  O   UNL     1      -7.917 -15.288   3.884  1.00  0.00    -0.507 OA
ATOM     20  H   UNL     1      -8.444 -15.768   4.604  1.00  0.00     0.293 HD
ENDBRANCH  14  19
BRANCH  18  21
ATOM     21  O   UNL     1     -10.650 -11.292   4.068  1.00  0.00    -0.508 OA
ATOM     22  H   UNL     1     -11.045 -11.562   4.961  1.00  0.00     0.293 HD
ENDBRANCH  18  21
ENDBRANCH  11  13
ENDBRANCH   2  11
TORSDOF 6
ENDMDL
MODEL 3
REMARK VINA RESULT:    -7.019      4.342      6.119
REMARK INTER + INTRA:          -9.397
REMARK INTER:                  -8.777
REMARK INTRA:                  -0.620
REMARK UNBOUND:                -0.532
REMARK SMILES O=C(C=Cc1ccc(O)cc1)c1ccc(O)cc1O
REMARK SMILES IDX 4 1 3 2 5 3 6 4 7 5 8 6 11 7 10 8 9 9 2 11 1 12 12 13 18 14
REMARK SMILES IDX 13 15 17 16 14 17 15 18 19 19 16 21
REMARK H PARENT 9 10 19 20 16 22
REMARK Flexibility Score: inf
ROOT
ATOM      1  C   UNL     1     -11.703 -18.637  -7.482  1.00  0.00     0.012 C 
ATOM      2  C   UNL     1     -11.113 -19.581  -6.733  1.00  0.00     0.053 C 
ENDROOT
BRANCH   1   3
ATOM      3  C   UNL     1     -12.929 -17.909  -7.073  1.00  0.00    -0.025 A 
ATOM      4  C   UNL     1     -13.797 -17.303  -8.004  1.00  0.00     0.012 A 
ATOM      5  C   UNL     1     -14.947 -16.638  -7.569  1.00  0.00     0.047 A 
ATOM      6  C   UNL     1     -15.254 -16.576  -6.207  1.00  0.00     0.115 A 
ATOM      7  C   UNL     1     -13.255 -17.855  -5.707  1.00  0.00     0.012 A 
ATOM      8  C   UNL     1     -14.406 -17.187  -5.277  1.00  0.00     0.047 A 
BRANCH   6   9
ATOM      9  O   UNL     1     -16.403 -15.908  -5.790  1.00  0.00    -0.508 OA
ATOM     10  H   UNL     1     -16.450 -14.895  -5.773  1.00  0.00     0.293 HD
ENDBRANCH   6   9
ENDBRANCH   1   3
BRANCH   2  11
ATOM     11  C   UNL     1      -9.900 -20.301  -7.185  1.00  0.00     0.189 C 
ATOM     12  O   UNL     1      -9.417 -20.058  -8.324  1.00  0.00    -0.289 OA
BRANCH  11  13
ATOM     13  C   UNL     1      -9.247 -21.314  -6.317  1.00  0.00     0.064 A 
ATOM     14  C   UNL     1      -9.101 -22.651  -6.748  1.00  0.00     0.130 A 
ATOM     15  C   UNL     1      -8.742 -20.947  -5.055  1.00  0.00     0.020 A 
ATOM     16  C   UNL     1      -8.465 -23.590  -5.920  1.00  0.00     0.093 A 
ATOM     17  C   UNL     1      -8.115 -21.890  -4.237  1.00  0.00     0.047 A 
ATOM     18  C   UNL     1      -7.974 -23.210  -4.666  1.00  0.00     0.119 A 
BRANCH  14  19
ATOM     19  O   UNL     1      -9.598 -23.053  -7.988  1.00  0.00    -0.507 OA
ATOM     20  H   UNL     1     -10.580 -23.258  -8.128  1.00  0.00     0.293 HD
ENDBRANCH  14  19
BRANCH  18  21
ATOM     21  O   UNL     1      -7.344 -24.138  -3.840  1.00  0.00    -0.508 OA
ATOM     22  H   UNL     1      -6.595 -24.728  -4.182  1.00  0.00     0.293 HD
ENDBRANCH  18  21
ENDBRANCH  11  13
ENDBRANCH   2  11
TORSDOF 6
ENDMDL
MODEL 4
REMARK VINA RESULT:    -7.008     11.337     14.027
REMARK INTER + INTRA:          -9.383
REMARK INTER:                  -8.659
REMARK INTRA:                  -0.724
REMARK UNBOUND:                -0.532
REMARK SMILES O=C(C=Cc1ccc(O)cc1)c1ccc(O)cc1O
REMARK SMILES IDX 4 1 3 2 5 3 6 4 7 5 8 6 11 7 10 8 9 9 2 11 1 12 12 13 18 14
REMARK SMILES IDX 13 15 17 16 14 17 15 18 19 19 16 21
REMARK H PARENT 9 10 19 20 16 22
REMARK Flexibility Score: inf
ROOT
ATOM      1  C   UNL     1      -4.729 -13.916   1.757  1.00  0.00     0.012 C 
ATOM      2  C   UNL     1      -5.674 -14.865   1.681  1.00  0.00     0.053 C 
ENDROOT
BRANCH   1   3
ATOM      3  C   UNL     1      -3.371 -14.149   2.306  1.00  0.00    -0.025 A 
ATOM      4  C   UNL     1      -2.260 -14.434   1.486  1.00  0.00     0.012 A 
ATOM      5  C   UNL     1      -0.997 -14.634   2.050  1.00  0.00     0.047 A 
ATOM      6  C   UNL     1      -0.820 -14.543   3.433  1.00  0.00     0.115 A 
ATOM      7  C   UNL     1      -3.179 -14.044   3.694  1.00  0.00     0.012 A 
ATOM      8  C   UNL     1      -1.913 -14.245   4.255  1.00  0.00     0.047 A 
BRANCH   6   9
ATOM      9  O   UNL     1       0.445 -14.747   3.980  1.00  0.00    -0.508 OA
ATOM     10  H   UNL     1       1.257 -14.248   3.637  1.00  0.00     0.293 HD
ENDBRANCH   6   9
ENDBRANCH   1   3
BRANCH   2  11
ATOM     11  C   UNL     1      -7.026 -14.588   1.143  1.00  0.00     0.189 C 
ATOM     12  O   UNL     1      -7.356 -15.046   0.015  1.00  0.00    -0.289 OA
BRANCH  11  13
ATOM     13  C   UNL     1      -8.000 -13.771   1.911  1.00  0.00     0.064 A 
ATOM     14  C   UNL     1      -8.632 -12.654   1.321  1.00  0.00     0.130 A 
ATOM     15  C   UNL     1      -8.323 -14.113   3.238  1.00  0.00     0.020 A 
ATOM     16  C   UNL     1      -9.562 -11.904   2.057  1.00  0.00     0.093 A 
ATOM     17  C   UNL     1      -9.248 -13.358   3.963  1.00  0.00     0.047 A 
ATOM     18  C   UNL     1      -9.869 -12.254   3.377  1.00  0.00     0.119 A 
BRANCH  14  19
ATOM     19  O   UNL     1      -8.329 -12.279   0.012  1.00  0.00    -0.507 OA
ATOM     20  H   UNL     1      -7.415 -12.446  -0.392  1.00  0.00     0.293 HD
ENDBRANCH  14  19
BRANCH  18  21
ATOM     21  O   UNL     1     -10.790 -11.512   4.113  1.00  0.00    -0.508 OA
ATOM     22  H   UNL     1     -11.120 -10.610   3.792  1.00  0.00     0.293 HD
ENDBRANCH  18  21
ENDBRANCH  11  13
ENDBRANCH   2  11
TORSDOF 6
ENDMDL
MODEL 5
REMARK VINA RESULT:    -6.922      4.849      6.951
REMARK INTER + INTRA:          -9.275
REMARK INTER:                  -8.615
REMARK INTRA:                  -0.660
REMARK UNBOUND:                -0.532
REMARK SMILES O=C(C=Cc1ccc(O)cc1)c1ccc(O)cc1O
REMARK SMILES IDX 4 1 3 2 5 3 6 4 7 5 8 6 11 7 10 8 9 9 2 11 1 12 12 13 18 14
REMARK SMILES IDX 13 15 17 16 14 17 15 18 19 19 16 21
REMARK H PARENT 9 10 19 20 16 22
REMARK Flexibility Score: inf
ROOT
ATOM      1  C   UNL     1     -12.936 -18.483  -5.658  1.00  0.00     0.012 C 
ATOM      2  C   UNL     1     -12.957 -19.820  -5.760  1.00  0.00     0.053 C 
ENDROOT
BRANCH   1   3
ATOM      3  C   UNL     1     -13.942 -17.593  -6.289  1.00  0.00    -0.025 A 
ATOM      4  C   UNL     1     -13.988 -17.367  -7.680  1.00  0.00     0.012 A 
ATOM      5  C   UNL     1     -14.963 -16.529  -8.228  1.00  0.00     0.047 A 
ATOM      6  C   UNL     1     -15.911 -15.916  -7.403  1.00  0.00     0.115 A 
ATOM      7  C   UNL     1     -14.909 -16.985  -5.470  1.00  0.00     0.012 A 
ATOM      8  C   UNL     1     -15.883 -16.147  -6.023  1.00  0.00     0.047 A 
BRANCH   6   9
ATOM      9  O   UNL     1     -16.875 -15.082  -7.965  1.00  0.00    -0.508 OA
ATOM     10  H   UNL     1     -16.959 -14.971  -8.969  1.00  0.00     0.293 HD
ENDBRANCH   6   9
ENDBRANCH   1   3
BRANCH   2  11
ATOM     11  C   UNL     1     -11.923 -20.675  -5.131  1.00  0.00     0.189 C 
ATOM     12  O   UNL     1     -12.209 -21.349  -4.104  1.00  0.00    -0.289 OA
BRANCH  11  13
ATOM     13  C   UNL     1     -10.549 -20.743  -5.688  1.00  0.00     0.064 A 
ATOM     14  C   UNL     1      -9.431 -20.915  -4.841  1.00  0.00     0.130 A 
ATOM     15  C   UNL     1     -10.342 -20.659  -7.078  1.00  0.00     0.020 A 
ATOM     16  C   UNL     1      -8.142 -20.996  -5.389  1.00  0.00     0.093 A 
ATOM     17  C   UNL     1      -9.053 -20.736  -7.613  1.00  0.00     0.047 A 
ATOM     18  C   UNL     1      -7.952 -20.904  -6.772  1.00  0.00     0.119 A 
BRANCH  14  19
ATOM     19  O   UNL     1      -9.597 -20.993  -3.458  1.00  0.00    -0.507 OA
ATOM     20  H   UNL     1     -10.351 -20.510  -2.984  1.00  0.00     0.293 HD
ENDBRANCH  14  19
BRANCH  18  21
ATOM     21  O   UNL     1      -6.674 -20.982  -7.321  1.00  0.00    -0.508 OA
ATOM     22  H   UNL     1      -6.310 -20.250  -7.920  1.00  0.00     0.293 HD
ENDBRANCH  18  21
ENDBRANCH  11  13
ENDBRANCH   2  11
TORSDOF 6
ENDMDL
MODEL 6
REMARK VINA RESULT:    -6.895      4.760      6.278
REMARK INTER + INTRA:          -9.241
REMARK INTER:                  -8.516
REMARK INTRA:                  -0.724
REMARK UNBOUND:                -0.532
REMARK SMILES O=C(C=Cc1ccc(O)cc1)c1ccc(O)cc1O
REMARK SMILES IDX 4 1 3 2 5 3 6 4 7 5 8 6 11 7 10 8 9 9 2 11 1 12 12 13 18 14
REMARK SMILES IDX 13 15 17 16 14 17 15 18 19 19 16 21
REMARK H PARENT 9 10 19 20 16 22
REMARK Flexibility Score: inf
ROOT
ATOM      1  C   UNL     1     -12.281 -18.513  -7.643  1.00  0.00     0.012 C 
ATOM      2  C   UNL     1     -12.377 -19.709  -8.243  1.00  0.00     0.053 C 
ENDROOT
BRANCH   1   3
ATOM      3  C   UNL     1     -13.453 -17.683  -7.270  1.00  0.00    -0.025 A 
ATOM      4  C   UNL     1     -14.233 -16.999  -8.225  1.00  0.00     0.012 A 
ATOM      5  C   UNL     1     -15.336 -16.239  -7.824  1.00  0.00     0.047 A 
ATOM      6  C   UNL     1     -15.684 -16.159  -6.473  1.00  0.00     0.115 A 
ATOM      7  C   UNL     1     -13.822 -17.610  -5.916  1.00  0.00     0.012 A 
ATOM      8  C   UNL     1     -14.926 -16.848  -5.519  1.00  0.00     0.047 A 
BRANCH   6   9
ATOM      9  O   UNL     1     -16.785 -15.396  -6.090  1.00  0.00    -0.508 OA
ATOM     10  H   UNL     1     -17.243 -14.765  -6.738  1.00  0.00     0.293 HD
ENDBRANCH   6   9
ENDBRANCH   1   3
BRANCH   2  11
ATOM     11  C   UNL     1     -11.182 -20.500  -8.617  1.00  0.00     0.189 C 
ATOM     12  O   UNL     1     -10.945 -20.736  -9.834  1.00  0.00    -0.289 OA
BRANCH  11  13
ATOM     13  C   UNL     1     -10.262 -21.030  -7.579  1.00  0.00     0.064 A 
ATOM     14  C   UNL     1      -8.954 -20.515  -7.440  1.00  0.00     0.130 A 
ATOM     15  C   UNL     1     -10.692 -22.042  -6.701  1.00  0.00     0.020 A 
ATOM     16  C   UNL     1      -8.105 -21.016  -6.441  1.00  0.00     0.093 A 
ATOM     17  C   UNL     1      -9.838 -22.537  -5.712  1.00  0.00     0.047 A 
ATOM     18  C   UNL     1      -8.545 -22.027  -5.579  1.00  0.00     0.119 A 
BRANCH  14  19
ATOM     19  O   UNL     1      -8.491 -19.518  -8.299  1.00  0.00    -0.507 OA
ATOM     20  H   UNL     1      -7.636 -19.008  -8.112  1.00  0.00     0.293 HD
ENDBRANCH  14  19
BRANCH  18  21
ATOM     21  O   UNL     1      -7.707 -22.530  -4.587  1.00  0.00    -0.508 OA
ATOM     22  H   UNL     1      -6.699 -22.538  -4.699  1.00  0.00     0.293 HD
ENDBRANCH  18  21
ENDBRANCH  11  13
ENDBRANCH   2  11
TORSDOF 6
ENDMDL
MODEL 7
REMARK VINA RESULT:    -6.762     11.827     14.489
REMARK INTER + INTRA:          -9.072
REMARK INTER:                  -8.336
REMARK INTRA:                  -0.736
REMARK UNBOUND:                -0.532
REMARK SMILES O=C(C=Cc1ccc(O)cc1)c1ccc(O)cc1O
REMARK SMILES IDX 4 1 3 2 5 3 6 4 7 5 8 6 11 7 10 8 9 9 2 11 1 12 12 13 18 14
REMARK SMILES IDX 13 15 17 16 14 17 15 18 19 19 16 21
REMARK H PARENT 9 10 19 20 16 22
REMARK Flexibility Score: inf
ROOT
ATOM      1  C   UNL     1      -3.396 -13.457   3.542  1.00  0.00     0.012 C 
ATOM      2  C   UNL     1      -3.335 -14.569   2.794  1.00  0.00     0.053 C 
ENDROOT
BRANCH   1   3
ATOM      3  C   UNL     1      -2.523 -13.204   4.714  1.00  0.00    -0.025 A 
ATOM      4  C   UNL     1      -1.461 -14.061   5.068  1.00  0.00     0.012 A 
ATOM      5  C   UNL     1      -0.658 -13.773   6.175  1.00  0.00     0.047 A 
ATOM      6  C   UNL     1      -0.894 -12.626   6.938  1.00  0.00     0.115 A 
ATOM      7  C   UNL     1      -2.742 -12.045   5.478  1.00  0.00     0.012 A 
ATOM      8  C   UNL     1      -1.936 -11.761   6.586  1.00  0.00     0.047 A 
BRANCH   6   9
ATOM      9  O   UNL     1      -0.086 -12.354   8.040  1.00  0.00    -0.508 OA
ATOM     10  H   UNL     1      -0.426 -12.472   8.987  1.00  0.00     0.293 HD
ENDBRANCH   6   9
ENDBRANCH   1   3
BRANCH   2  11
ATOM     11  C   UNL     1      -4.236 -14.794   1.641  1.00  0.00     0.189 C 
ATOM     12  O   UNL     1      -3.803 -15.386   0.615  1.00  0.00    -0.289 OA
BRANCH  11  13
ATOM     13  C   UNL     1      -5.645 -14.324   1.671  1.00  0.00     0.064 A 
ATOM     14  C   UNL     1      -6.093 -13.322   0.783  1.00  0.00     0.130 A 
ATOM     15  C   UNL     1      -6.562 -14.891   2.577  1.00  0.00     0.020 A 
ATOM     16  C   UNL     1      -7.433 -12.904   0.815  1.00  0.00     0.093 A 
ATOM     17  C   UNL     1      -7.892 -14.465   2.604  1.00  0.00     0.047 A 
ATOM     18  C   UNL     1      -8.331 -13.473   1.725  1.00  0.00     0.119 A 
BRANCH  14  19
ATOM     19  O   UNL     1      -5.210 -12.732  -0.122  1.00  0.00    -0.507 OA
ATOM     20  H   UNL     1      -4.404 -13.228  -0.481  1.00  0.00     0.293 HD
ENDBRANCH  14  19
BRANCH  18  21
ATOM     21  O   UNL     1      -9.661 -13.061   1.763  1.00  0.00    -0.508 OA
ATOM     22  H   UNL     1      -9.925 -12.158   2.139  1.00  0.00     0.293 HD
ENDBRANCH  18  21
ENDBRANCH  11  13
ENDBRANCH   2  11
TORSDOF 6
ENDMDL
MODEL 8
REMARK VINA RESULT:    -6.694      4.454      7.691
REMARK INTER + INTRA:          -8.986
REMARK INTER:                  -8.516
REMARK INTRA:                  -0.470
REMARK UNBOUND:                -0.532
REMARK SMILES O=C(C=Cc1ccc(O)cc1)c1ccc(O)cc1O
REMARK SMILES IDX 4 1 3 2 5 3 6 4 7 5 8 6 11 7 10 8 9 9 2 11 1 12 12 13 18 14
REMARK SMILES IDX 13 15 17 16 14 17 15 18 19 19 16 21
REMARK H PARENT 9 10 19 20 16 22
REMARK Flexibility Score: inf
ROOT
ATOM      1  C   UNL     1     -10.733 -21.039  -6.252  1.00  0.00     0.012 C 
ATOM      2  C   UNL     1     -10.697 -19.812  -6.791  1.00  0.00     0.053 C 
ENDROOT
BRANCH   1   3
ATOM      3  C   UNL     1      -9.649 -21.598  -5.406  1.00  0.00    -0.025 A 
ATOM      4  C   UNL     1      -9.137 -22.899  -5.591  1.00  0.00     0.012 A 
ATOM      5  C   UNL     1      -8.107 -23.376  -4.776  1.00  0.00     0.047 A 
ATOM      6  C   UNL     1      -7.565 -22.564  -3.775  1.00  0.00     0.115 A 
ATOM      7  C   UNL     1      -9.087 -20.784  -4.408  1.00  0.00     0.012 A 
ATOM      8  C   UNL     1      -8.056 -21.266  -3.594  1.00  0.00     0.047 A 
BRANCH   6   9
ATOM      9  O   UNL     1      -6.540 -23.055  -2.970  1.00  0.00    -0.508 OA
ATOM     10  H   UNL     1      -6.100 -23.947  -3.160  1.00  0.00     0.293 HD
ENDBRANCH   6   9
ENDBRANCH   1   3
BRANCH   2  11
ATOM     11  C   UNL     1     -11.790 -19.295  -7.647  1.00  0.00     0.189 C 
ATOM     12  O   UNL     1     -11.823 -19.599  -8.871  1.00  0.00    -0.289 OA
BRANCH  11  13
ATOM     13  C   UNL     1     -12.847 -18.416  -7.086  1.00  0.00     0.064 A 
ATOM     14  C   UNL     1     -13.702 -17.678  -7.935  1.00  0.00     0.130 A 
ATOM     15  C   UNL     1     -13.025 -18.322  -5.692  1.00  0.00     0.020 A 
ATOM     16  C   UNL     1     -14.706 -16.866  -7.385  1.00  0.00     0.093 A 
ATOM     17  C   UNL     1     -14.025 -17.507  -5.155  1.00  0.00     0.047 A 
ATOM     18  C   UNL     1     -14.867 -16.779  -5.998  1.00  0.00     0.119 A 
BRANCH  14  19
ATOM     19  O   UNL     1     -13.548 -17.739  -9.320  1.00  0.00    -0.507 OA
ATOM     20  H   UNL     1     -13.656 -16.919  -9.904  1.00  0.00     0.293 HD
ENDBRANCH  14  19
BRANCH  18  21
ATOM     21  O   UNL     1     -15.861 -15.973  -5.447  1.00  0.00    -0.508 OA
ATOM     22  H   UNL     1     -15.634 -15.198  -4.834  1.00  0.00     0.293 HD
ENDBRANCH  18  21
ENDBRANCH  11  13
ENDBRANCH   2  11
TORSDOF 6
ENDMDL
MODEL 9
REMARK VINA RESULT:    -6.616     11.884     15.905
REMARK INTER + INTRA:          -8.888
REMARK INTER:                  -8.270
REMARK INTRA:                  -0.618
REMARK UNBOUND:                -0.532
REMARK SMILES O=C(C=Cc1ccc(O)cc1)c1ccc(O)cc1O
REMARK SMILES IDX 4 1 3 2 5 3 6 4 7 5 8 6 11 7 10 8 9 9 2 11 1 12 12 13 18 14
REMARK SMILES IDX 13 15 17 16 14 17 15 18 19 19 16 21
REMARK H PARENT 9 10 19 20 16 22
REMARK Flexibility Score: inf
ROOT
ATOM      1  C   UNL     1      -2.900 -14.653   2.859  1.00  0.00     0.012 C 
ATOM      2  C   UNL     1      -2.676 -14.241   4.116  1.00  0.00     0.053 C 
ENDROOT
BRANCH   1   3
ATOM      3  C   UNL     1      -4.252 -14.771   2.260  1.00  0.00    -0.025 A 
ATOM      4  C   UNL     1      -4.665 -15.912   1.541  1.00  0.00     0.012 A 
ATOM      5  C   UNL     1      -5.954 -15.981   1.006  1.00  0.00     0.047 A 
ATOM      6  C   UNL     1      -6.852 -14.925   1.187  1.00  0.00     0.115 A 
ATOM      7  C   UNL     1      -5.167 -13.722   2.451  1.00  0.00     0.012 A 
ATOM      8  C   UNL     1      -6.456 -13.796   1.913  1.00  0.00     0.047 A 
BRANCH   6   9
ATOM      9  O   UNL     1      -8.133 -15.010   0.646  1.00  0.00    -0.508 OA
ATOM     10  H   UNL     1      -8.678 -14.179   0.447  1.00  0.00     0.293 HD
ENDBRANCH   6   9
ENDBRANCH   1   3
BRANCH   2  11
ATOM     11  C   UNL     1      -1.312 -14.154   4.685  1.00  0.00     0.189 C 
ATOM     12  O   UNL     1      -0.319 -14.496   3.986  1.00  0.00    -0.289 OA
BRANCH  11  13
ATOM     13  C   UNL     1      -1.094 -13.676   6.074  1.00  0.00     0.064 A 
ATOM     14  C   UNL     1      -0.403 -14.472   7.014  1.00  0.00     0.130 A 
ATOM     15  C   UNL     1      -1.559 -12.406   6.468  1.00  0.00     0.020 A 
ATOM     16  C   UNL     1      -0.192 -13.995   8.317  1.00  0.00     0.093 A 
ATOM     17  C   UNL     1      -1.347 -11.942   7.769  1.00  0.00     0.047 A 
ATOM     18  C   UNL     1      -0.665 -12.733   8.695  1.00  0.00     0.119 A 
BRANCH  14  19
ATOM     19  O   UNL     1       0.063 -15.739   6.662  1.00  0.00    -0.507 OA
ATOM     20  H   UNL     1      -0.431 -16.581   6.928  1.00  0.00     0.293 HD
ENDBRANCH  14  19
BRANCH  18  21
ATOM     21  O   UNL     1      -0.460 -12.255   9.988  1.00  0.00    -0.508 OA
ATOM     22  H   UNL     1       0.037 -12.802  10.682  1.00  0.00     0.293 HD
ENDBRANCH  18  21
ENDBRANCH  11  13
ENDBRANCH   2  11
TORSDOF 6
ENDMDL
