MODEL 1
REMARK VINA RESULT:    -4.207      0.000      0.000
REMARK INTER + INTRA:          -6.857
REMARK INTER:                  -6.174
REMARK INTRA:                  -0.684
REMARK UNBOUND:                -0.684
REMARK SMILES O=C([O-])CCCCCCCC(=O)[O-]
REMARK SMILES IDX 7 1 6 2 5 3 4 4 2 5 1 6 3 7 8 8 9 9 10 10 11 11 12 12 13 13
REMARK H PARENT
REMARK Flexibility Score: inf
ROOT
ATOM      1  C   UNL     1       6.069   0.389  14.799  1.00  0.00     0.000 C 
ENDROOT
BRANCH   1   2
ATOM      2  C   UNL     1       4.969   1.230  14.128  1.00  0.00     0.000 C 
BRANCH   2   3
ATOM      3  C   UNL     1       3.676   0.434  13.877  1.00  0.00     0.006 C 
BRANCH   3   4
ATOM      4  C   UNL     1       2.563   0.810  14.865  1.00  0.00     0.053 C 
BRANCH   4   5
ATOM      5  C   UNL     1       1.600  -0.319  15.071  1.00  0.00     0.041 C 
ATOM      6  O   UNL     1       0.360  -0.106  15.052  1.00  0.00    -0.550 OA
ATOM      7  O   UNL     1       2.072  -1.614  15.246  1.00  0.00    -0.550 OA
ENDBRANCH   4   5
ENDBRANCH   3   4
ENDBRANCH   2   3
ENDBRANCH   1   2
BRANCH   1   8
ATOM      8  C   UNL     1       5.826  -1.131  14.785  1.00  0.00     0.000 C 
BRANCH   8   9
ATOM      9  C   UNL     1       5.844  -1.755  16.191  1.00  0.00     0.006 C 
BRANCH   9  10
ATOM     10  C   UNL     1       4.920  -1.012  17.166  1.00  0.00     0.053 C 
BRANCH  10  11
ATOM     11  C   UNL     1       5.530  -0.887  18.529  1.00  0.00     0.041 C 
ATOM     12  O   UNL     1       6.488  -1.632  18.865  1.00  0.00    -0.550 OA
ATOM     13  O   UNL     1       5.022   0.033  19.438  1.00  0.00    -0.550 OA
ENDBRANCH  10  11
ENDBRANCH   9  10
ENDBRANCH   8   9
ENDBRANCH   1   8
TORSDOF 8
ENDMDL
MODEL 2
REMARK VINA RESULT:    -4.167      0.619      4.600
REMARK INTER + INTRA:          -6.799
REMARK INTER:                  -6.009
REMARK INTRA:                  -0.790
REMARK UNBOUND:                -0.684
REMARK SMILES O=C([O-])CCCCCCCC(=O)[O-]
REMARK SMILES IDX 7 1 6 2 5 3 4 4 2 5 1 6 3 7 8 8 9 9 10 10 11 11 12 12 13 13
REMARK H PARENT
REMARK Flexibility Score: inf
ROOT
ATOM      1  C   UNL     1       6.183   0.099  14.332  1.00  0.00     0.000 C 
ENDROOT
BRANCH   1   2
ATOM      2  C   UNL     1       5.684  -1.337  14.571  1.00  0.00     0.000 C 
BRANCH   2   3
ATOM      3  C   UNL     1       6.020  -1.862  15.978  1.00  0.00     0.006 C 
BRANCH   3   4
ATOM      4  C   UNL     1       4.975  -1.441  17.019  1.00  0.00     0.053 C 
BRANCH   4   5
ATOM      5  C   UNL     1       5.535  -0.456  18.000  1.00  0.00     0.041 C 
ATOM      6  O   UNL     1       5.262   0.769  17.894  1.00  0.00    -0.550 OA
ATOM      7  O   UNL     1       6.329  -0.895  19.052  1.00  0.00    -0.550 OA
ENDBRANCH   4   5
ENDBRANCH   3   4
ENDBRANCH   2   3
ENDBRANCH   1   2
BRANCH   1   8
ATOM      8  C   UNL     1       5.080   1.172  14.289  1.00  0.00     0.000 C 
BRANCH   8   9
ATOM      9  C   UNL     1       3.698   0.598  13.930  1.00  0.00     0.006 C 
BRANCH   9  10
ATOM     10  C   UNL     1       2.692   0.748  15.079  1.00  0.00     0.053 C 
BRANCH  10  11
ATOM     11  C   UNL     1       1.634  -0.311  15.037  1.00  0.00     0.041 C 
ATOM     12  O   UNL     1       0.432   0.002  14.833  1.00  0.00    -0.550 OA
ATOM     13  O   UNL     1       1.971  -1.641  15.254  1.00  0.00    -0.550 OA
ENDBRANCH  10  11
ENDBRANCH   9  10
ENDBRANCH   8   9
ENDBRANCH   1   8
TORSDOF 8
ENDMDL
MODEL 3
REMARK VINA RESULT:    -4.167      2.159      4.794
REMARK INTER + INTRA:          -6.799
REMARK INTER:                  -6.068
REMARK INTRA:                  -0.731
REMARK UNBOUND:                -0.684
REMARK SMILES O=C([O-])CCCCCCCC(=O)[O-]
REMARK SMILES IDX 7 1 6 2 5 3 4 4 2 5 1 6 3 7 8 8 9 9 10 10 11 11 12 12 13 13
REMARK H PARENT
REMARK Flexibility Score: inf
ROOT
ATOM      1  C   UNL     1       6.240   0.290  14.593  1.00  0.00     0.000 C 
ENDROOT
BRANCH   1   2
ATOM      2  C   UNL     1       5.043  -0.652  14.815  1.00  0.00     0.000 C 
BRANCH   2   3
ATOM      3  C   UNL     1       4.437  -0.530  16.224  1.00  0.00     0.006 C 
BRANCH   3   4
ATOM      4  C   UNL     1       5.321   0.298  17.166  1.00  0.00     0.053 C 
BRANCH   4   5
ATOM      5  C   UNL     1       5.531  -0.393  18.479  1.00  0.00     0.041 C 
ATOM      6  O   UNL     1       6.318  -1.373  18.561  1.00  0.00    -0.550 OA
ATOM      7  O   UNL     1       4.885   0.067  19.619  1.00  0.00    -0.550 OA
ENDBRANCH   4   5
ENDBRANCH   3   4
ENDBRANCH   2   3
ENDBRANCH   1   2
BRANCH   1   8
ATOM      8  C   UNL     1       6.170   1.138  13.310  1.00  0.00     0.000 C 
BRANCH   8   9
ATOM      9  C   UNL     1       4.746   1.620  12.987  1.00  0.00     0.006 C 
BRANCH   9  10
ATOM     10  C   UNL     1       4.521   3.081  13.398  1.00  0.00     0.053 C 
BRANCH  10  11
ATOM     11  C   UNL     1       3.991   3.194  14.794  1.00  0.00     0.041 C 
ATOM     12  O   UNL     1       4.562   3.944  15.630  1.00  0.00    -0.550 OA
ATOM     13  O   UNL     1       2.885   2.449  15.182  1.00  0.00    -0.550 OA
ENDBRANCH  10  11
ENDBRANCH   9  10
ENDBRANCH   8   9
ENDBRANCH   1   8
TORSDOF 8
ENDMDL
MODEL 4
REMARK VINA RESULT:    -4.160      2.087      3.908
REMARK INTER + INTRA:          -6.789
REMARK INTER:                  -5.962
REMARK INTRA:                  -0.827
REMARK UNBOUND:                -0.684
REMARK SMILES O=C([O-])CCCCCCCC(=O)[O-]
REMARK SMILES IDX 7 1 6 2 5 3 4 4 2 5 1 6 3 7 8 8 9 9 10 10 11 11 12 12 13 13
REMARK H PARENT
REMARK Flexibility Score: inf
ROOT
ATOM      1  C   UNL     1       5.244   1.960  13.214  1.00  0.00     0.000 C 
ENDROOT
BRANCH   1   2
ATOM      2  C   UNL     1       4.391   0.719  12.897  1.00  0.00     0.000 C 
BRANCH   2   3
ATOM      3  C   UNL     1       5.038  -0.592  13.376  1.00  0.00     0.006 C 
BRANCH   3   4
ATOM      4  C   UNL     1       5.749  -0.429  14.725  1.00  0.00     0.053 C 
BRANCH   4   5
ATOM      5  C   UNL     1       5.088  -1.237  15.801  1.00  0.00     0.041 C 
ATOM      6  O   UNL     1       3.854  -1.479  15.744  1.00  0.00    -0.550 OA
ATOM      7  O   UNL     1       5.842  -1.753  16.847  1.00  0.00    -0.550 OA
ENDBRANCH   4   5
ENDBRANCH   3   4
ENDBRANCH   2   3
ENDBRANCH   1   2
BRANCH   1   8
ATOM      8  C   UNL     1       4.473   3.292  13.233  1.00  0.00     0.000 C 
BRANCH   8   9
ATOM      9  C   UNL     1       3.684   3.510  14.536  1.00  0.00     0.006 C 
BRANCH   9  10
ATOM     10  C   UNL     1       4.479   3.073  15.774  1.00  0.00     0.053 C 
BRANCH  10  11
ATOM     11  C   UNL     1       3.724   2.078  16.601  1.00  0.00     0.041 C 
ATOM     12  O   UNL     1       4.143   1.757  17.744  1.00  0.00    -0.550 OA
ATOM     13  O   UNL     1       2.573   1.484  16.098  1.00  0.00    -0.550 OA
ENDBRANCH  10  11
ENDBRANCH   9  10
ENDBRANCH   8   9
ENDBRANCH   1   8
TORSDOF 8
ENDMDL
MODEL 5
REMARK VINA RESULT:    -4.154      1.361      2.242
REMARK INTER + INTRA:          -6.781
REMARK INTER:                  -6.017
REMARK INTRA:                  -0.763
REMARK UNBOUND:                -0.684
REMARK SMILES O=C([O-])CCCCCCCC(=O)[O-]
REMARK SMILES IDX 7 1 6 2 5 3 4 4 2 5 1 6 3 7 8 8 9 9 10 10 11 11 12 12 13 13
REMARK H PARENT
REMARK Flexibility Score: inf
ROOT
ATOM      1  C   UNL     1       5.226   1.897  14.989  1.00  0.00     0.000 C 
ENDROOT
BRANCH   1   2
ATOM      2  C   UNL     1       4.489   1.540  13.686  1.00  0.00     0.000 C 
BRANCH   2   3
ATOM      3  C   UNL     1       4.259   0.027  13.522  1.00  0.00     0.006 C 
BRANCH   3   4
ATOM      4  C   UNL     1       2.772  -0.344  13.598  1.00  0.00     0.053 C 
BRANCH   4   5
ATOM      5  C   UNL     1       2.327  -0.560  15.012  1.00  0.00     0.041 C 
ATOM      6  O   UNL     1       2.983  -1.318  15.774  1.00  0.00    -0.550 OA
ATOM      7  O   UNL     1       1.209   0.104  15.500  1.00  0.00    -0.550 OA
ENDBRANCH   4   5
ENDBRANCH   3   4
ENDBRANCH   2   3
ENDBRANCH   1   2
BRANCH   1   8
ATOM      8  C   UNL     1       4.330   2.446  16.114  1.00  0.00     0.000 C 
BRANCH   8   9
ATOM      9  C   UNL     1       4.328   1.556  17.369  1.00  0.00     0.006 C 
BRANCH   9  10
ATOM     10  C   UNL     1       5.456   0.515  17.342  1.00  0.00     0.053 C 
BRANCH  10  11
ATOM     11  C   UNL     1       5.475  -0.320  18.585  1.00  0.00     0.041 C 
ATOM     12  O   UNL     1       4.826   0.041  19.601  1.00  0.00    -0.550 OA
ATOM     13  O   UNL     1       6.234  -1.483  18.631  1.00  0.00    -0.550 OA
ENDBRANCH  10  11
ENDBRANCH   9  10
ENDBRANCH   8   9
ENDBRANCH   1   8
TORSDOF 8
ENDMDL
MODEL 6
REMARK VINA RESULT:    -4.149      1.685      4.249
REMARK INTER + INTRA:          -6.773
REMARK INTER:                  -5.941
REMARK INTRA:                  -0.832
REMARK UNBOUND:                -0.684
REMARK SMILES O=C([O-])CCCCCCCC(=O)[O-]
REMARK SMILES IDX 7 1 6 2 5 3 4 4 2 5 1 6 3 7 8 8 9 9 10 10 11 11 12 12 13 13
REMARK H PARENT
REMARK Flexibility Score: inf
ROOT
ATOM      1  C   UNL     1       3.937   2.541  14.440  1.00  0.00     0.000 C 
ENDROOT
BRANCH   1   2
ATOM      2  C   UNL     1       4.412   2.830  15.875  1.00  0.00     0.000 C 
BRANCH   2   3
ATOM      3  C   UNL     1       4.209   1.637  16.825  1.00  0.00     0.006 C 
BRANCH   3   4
ATOM      4  C   UNL     1       5.492   0.814  17.003  1.00  0.00     0.053 C 
BRANCH   4   5
ATOM      5  C   UNL     1       5.294  -0.319  17.965  1.00  0.00     0.041 C 
ATOM      6  O   UNL     1       5.376  -1.510  17.566  1.00  0.00    -0.550 OA
ATOM      7  O   UNL     1       5.056  -0.059  19.308  1.00  0.00    -0.550 OA
ENDBRANCH   4   5
ENDBRANCH   3   4
ENDBRANCH   2   3
ENDBRANCH   1   2
BRANCH   1   8
ATOM      8  C   UNL     1       4.973   1.844  13.539  1.00  0.00     0.000 C 
BRANCH   8   9
ATOM      9  C   UNL     1       4.455   0.527  12.937  1.00  0.00     0.006 C 
BRANCH   9  10
ATOM     10  C   UNL     1       3.209   0.007  13.666  1.00  0.00     0.053 C 
BRANCH  10  11
ATOM     11  C   UNL     1       3.521  -1.169  14.539  1.00  0.00     0.041 C 
ATOM     12  O   UNL     1       4.578  -1.828  14.359  1.00  0.00    -0.550 OA
ATOM     13  O   UNL     1       2.630  -1.554  15.533  1.00  0.00    -0.550 OA
ENDBRANCH  10  11
ENDBRANCH   9  10
ENDBRANCH   8   9
ENDBRANCH   1   8
TORSDOF 8
ENDMDL
MODEL 7
REMARK VINA RESULT:    -4.140      2.094      3.246
REMARK INTER + INTRA:          -6.760
REMARK INTER:                  -5.951
REMARK INTRA:                  -0.809
REMARK UNBOUND:                -0.684
REMARK SMILES O=C([O-])CCCCCCCC(=O)[O-]
REMARK SMILES IDX 7 1 6 2 5 3 4 4 2 5 1 6 3 7 8 8 9 9 10 10 11 11 12 12 13 13
REMARK H PARENT
REMARK Flexibility Score: inf
ROOT
ATOM      1  C   UNL     1       5.191   1.975  13.200  1.00  0.00     0.000 C 
ENDROOT
BRANCH   1   2
ATOM      2  C   UNL     1       4.383   3.284  13.254  1.00  0.00     0.000 C 
BRANCH   2   3
ATOM      3  C   UNL     1       3.652   3.482  14.593  1.00  0.00     0.006 C 
BRANCH   3   4
ATOM      4  C   UNL     1       4.497   3.024  15.788  1.00  0.00     0.053 C 
BRANCH   4   5
ATOM      5  C   UNL     1       3.763   2.031  16.638  1.00  0.00     0.041 C 
ATOM      6  O   UNL     1       4.242   1.666  17.743  1.00  0.00    -0.550 OA
ATOM      7  O   UNL     1       2.532   1.538  16.226  1.00  0.00    -0.550 OA
ENDBRANCH   4   5
ENDBRANCH   3   4
ENDBRANCH   2   3
ENDBRANCH   1   2
BRANCH   1   8
ATOM      8  C   UNL     1       4.361   0.709  12.918  1.00  0.00     0.000 C 
BRANCH   8   9
ATOM      9  C   UNL     1       5.085  -0.586  13.323  1.00  0.00     0.006 C 
BRANCH   9  10
ATOM     10  C   UNL     1       5.827  -0.442  14.658  1.00  0.00     0.053 C 
BRANCH  10  11
ATOM     11  C   UNL     1       5.155  -1.205  15.757  1.00  0.00     0.041 C 
ATOM     12  O   UNL     1       5.828  -1.649  16.724  1.00  0.00    -0.550 OA
ATOM     13  O   UNL     1       3.789  -1.452  15.700  1.00  0.00    -0.550 OA
ENDBRANCH  10  11
ENDBRANCH   9  10
ENDBRANCH   8   9
ENDBRANCH   1   8
TORSDOF 8
ENDMDL
MODEL 8
REMARK VINA RESULT:    -4.137      2.463      3.592
REMARK INTER + INTRA:          -6.756
REMARK INTER:                  -5.838
REMARK INTRA:                  -0.918
REMARK UNBOUND:                -0.684
REMARK SMILES O=C([O-])CCCCCCCC(=O)[O-]
REMARK SMILES IDX 7 1 6 2 5 3 4 4 2 5 1 6 3 7 8 8 9 9 10 10 11 11 12 12 13 13
REMARK H PARENT
REMARK Flexibility Score: inf
ROOT
ATOM      1  C   UNL     1       2.320   0.876  15.513  1.00  0.00     0.000 C 
ENDROOT
BRANCH   1   2
ATOM      2  C   UNL     1       2.565  -0.043  14.303  1.00  0.00     0.000 C 
BRANCH   2   3
ATOM      3  C   UNL     1       3.840   0.321  13.522  1.00  0.00     0.006 C 
BRANCH   3   4
ATOM      4  C   UNL     1       4.762  -0.889  13.322  1.00  0.00     0.053 C 
BRANCH   4   5
ATOM      5  C   UNL     1       6.170  -0.588  13.737  1.00  0.00     0.041 C 
ATOM      6  O   UNL     1       6.623   0.583  13.637  1.00  0.00    -0.550 OA
ATOM      7  O   UNL     1       6.971  -1.591  14.268  1.00  0.00    -0.550 OA
ENDBRANCH   4   5
ENDBRANCH   3   4
ENDBRANCH   2   3
ENDBRANCH   1   2
BRANCH   1   8
ATOM      8  C   UNL     1       3.442   1.892  15.796  1.00  0.00     0.000 C 
BRANCH   8   9
ATOM      9  C   UNL     1       4.146   1.648  17.142  1.00  0.00     0.006 C 
BRANCH   9  10
ATOM     10  C   UNL     1       5.471   0.891  16.975  1.00  0.00     0.053 C 
BRANCH  10  11
ATOM     11  C   UNL     1       5.392  -0.502  17.518  1.00  0.00     0.041 C 
ATOM     12  O   UNL     1       4.683  -1.368  16.940  1.00  0.00    -0.550 OA
ATOM     13  O   UNL     1       6.077  -0.838  18.679  1.00  0.00    -0.550 OA
ENDBRANCH  10  11
ENDBRANCH   9  10
ENDBRANCH   8   9
ENDBRANCH   1   8
TORSDOF 8
ENDMDL
MODEL 9
REMARK VINA RESULT:    -4.100      2.523      4.591
REMARK INTER + INTRA:          -6.701
REMARK INTER:                  -6.002
REMARK INTRA:                  -0.699
REMARK UNBOUND:                -0.684
REMARK SMILES O=C([O-])CCCCCCCC(=O)[O-]
REMARK SMILES IDX 7 1 6 2 5 3 4 4 2 5 1 6 3 7 8 8 9 9 10 10 11 11 12 12 13 13
REMARK H PARENT
REMARK Flexibility Score: inf
ROOT
ATOM      1  C   UNL     1       4.509   2.979  15.464  1.00  0.00     0.000 C 
ENDROOT
BRANCH   1   2
ATOM      2  C   UNL     1       3.608   2.090  16.339  1.00  0.00     0.000 C 
BRANCH   2   3
ATOM      3  C   UNL     1       4.343   1.510  17.561  1.00  0.00     0.006 C 
BRANCH   3   4
ATOM      4  C   UNL     1       5.517   0.609  17.157  1.00  0.00     0.053 C 
BRANCH   4   5
ATOM      5  C   UNL     1       5.150  -0.843  17.228  1.00  0.00     0.041 C 
ATOM      6  O   UNL     1       4.212  -1.294  16.519  1.00  0.00    -0.550 OA
ATOM      7  O   UNL     1       5.868  -1.703  18.048  1.00  0.00    -0.550 OA
ENDBRANCH   4   5
ENDBRANCH   3   4
ENDBRANCH   2   3
ENDBRANCH   1   2
BRANCH   1   8
ATOM      8  C   UNL     1       4.013   3.186  14.021  1.00  0.00     0.000 C 
BRANCH   8   9
ATOM      9  C   UNL     1       4.837   2.402  12.985  1.00  0.00     0.006 C 
BRANCH   9  10
ATOM     10  C   UNL     1       4.485   0.909  12.974  1.00  0.00     0.053 C 
BRANCH  10  11
ATOM     11  C   UNL     1       5.639   0.059  13.409  1.00  0.00     0.041 C 
ATOM     12  O   UNL     1       6.697   0.595  13.831  1.00  0.00    -0.550 OA
ATOM     13  O   UNL     1       5.556  -1.325  13.322  1.00  0.00    -0.550 OA
ENDBRANCH  10  11
ENDBRANCH   9  10
ENDBRANCH   8   9
ENDBRANCH   1   8
TORSDOF 8
ENDMDL
