MODEL 1
REMARK VINA RESULT:    -2.583      0.000      0.000
REMARK INTER + INTRA:          -5.520
REMARK INTER:                  -4.093
REMARK INTRA:                  -1.427
REMARK UNBOUND:                -1.427
REMARK SMILES CCCCCCCCCCCC(=O)[O-]
REMARK SMILES IDX 7 1 8 2 9 3 10 4 11 5 12 6 13 7 14 8 6 9 5 10 4 11 3 12 2 13
REMARK SMILES IDX 1 14
REMARK H PARENT
REMARK Flexibility Score: inf
ROOT
ATOM      1  C   UNL     1      -9.717 -17.570  11.011  1.00  0.00     0.000 C 
ENDROOT
BRANCH   1   2
ATOM      2  C   UNL     1     -10.180 -17.355  12.462  1.00  0.00     0.000 C 
BRANCH   2   3
ATOM      3  C   UNL     1      -9.005 -17.308  13.454  1.00  0.00     0.000 C 
BRANCH   3   4
ATOM      4  C   UNL     1      -9.382 -16.640  14.790  1.00  0.00     0.006 C 
BRANCH   4   5
ATOM      5  C   UNL     1      -9.863 -17.617  15.875  1.00  0.00     0.053 C 
BRANCH   5   6
ATOM      6  C   UNL     1     -11.357 -17.713  15.921  1.00  0.00     0.041 C 
ATOM      7  O   UNL     1     -11.915 -18.825  16.119  1.00  0.00    -0.550 OA
ATOM      8  O   UNL     1     -12.134 -16.581  15.714  1.00  0.00    -0.550 OA
ENDBRANCH   5   6
ENDBRANCH   4   5
ENDBRANCH   3   4
ENDBRANCH   2   3
ENDBRANCH   1   2
BRANCH   1   9
ATOM      9  C   UNL     1      -9.846 -19.034  10.558  1.00  0.00     0.000 C 
BRANCH   9  10
ATOM     10  C   UNL     1      -8.535 -19.797  10.793  1.00  0.00    -0.000 C 
BRANCH  10  11
ATOM     11  C   UNL     1      -8.702 -20.978  11.765  1.00  0.00    -0.000 C 
BRANCH  11  12
ATOM     12  C   UNL     1     -10.149 -21.140  12.255  1.00  0.00    -0.000 C 
BRANCH  12  13
ATOM     13  C   UNL     1     -10.245 -20.896  13.765  1.00  0.00    -0.003 C 
ATOM     14  C   UNL     1      -8.864 -20.887  14.413  1.00  0.00     0.004 C 
ENDBRANCH  12  13
ENDBRANCH  11  12
ENDBRANCH  10  11
ENDBRANCH   9  10
ENDBRANCH   1   9
TORSDOF 10
ENDMDL
MODEL 2
REMARK VINA RESULT:    -2.507      2.335      4.727
REMARK INTER + INTRA:          -5.400
REMARK INTER:                  -4.339
REMARK INTRA:                  -1.061
REMARK UNBOUND:                -1.427
REMARK SMILES CCCCCCCCCCCC(=O)[O-]
REMARK SMILES IDX 7 1 8 2 9 3 10 4 11 5 12 6 13 7 14 8 6 9 5 10 4 11 3 12 2 13
REMARK SMILES IDX 1 14
REMARK H PARENT
REMARK Flexibility Score: inf
ROOT
ATOM      1  C   UNL     1     -10.984 -17.574  16.017  1.00  0.00     0.000 C 
ENDROOT
BRANCH   1   2
ATOM      2  C   UNL     1     -11.609 -18.943  15.700  1.00  0.00     0.000 C 
BRANCH   2   3
ATOM      3  C   UNL     1     -10.564 -20.071  15.650  1.00  0.00     0.000 C 
BRANCH   3   4
ATOM      4  C   UNL     1     -10.434 -20.700  14.250  1.00  0.00     0.006 C 
BRANCH   4   5
ATOM      5  C   UNL     1     -10.897 -22.163  14.166  1.00  0.00     0.053 C 
BRANCH   5   6
ATOM      6  C   UNL     1     -12.126 -22.316  13.322  1.00  0.00     0.041 C 
ATOM      7  O   UNL     1     -13.268 -22.253  13.850  1.00  0.00    -0.550 OA
ATOM      8  O   UNL     1     -12.009 -22.558  11.960  1.00  0.00    -0.550 OA
ENDBRANCH   5   6
ENDBRANCH   4   5
ENDBRANCH   3   4
ENDBRANCH   2   3
ENDBRANCH   1   2
BRANCH   1   9
ATOM      9  C   UNL     1     -10.681 -16.753  14.753  1.00  0.00     0.000 C 
BRANCH   9  10
ATOM     10  C   UNL     1      -9.177 -16.757  14.445  1.00  0.00    -0.000 C 
BRANCH  10  11
ATOM     11  C   UNL     1      -8.838 -17.522  13.155  1.00  0.00    -0.000 C 
BRANCH  11  12
ATOM     12  C   UNL     1     -10.018 -17.581  12.175  1.00  0.00    -0.000 C 
BRANCH  12  13
ATOM     13  C   UNL     1      -9.776 -18.637  11.089  1.00  0.00    -0.003 C 
ATOM     14  C   UNL     1      -9.614 -17.990   9.717  1.00  0.00     0.004 C 
ENDBRANCH  12  13
ENDBRANCH  11  12
ENDBRANCH  10  11
ENDBRANCH   9  10
ENDBRANCH   1   9
TORSDOF 10
ENDMDL
MODEL 3
REMARK VINA RESULT:    -2.486      2.184      4.389
REMARK INTER + INTRA:          -5.366
REMARK INTER:                  -4.185
REMARK INTRA:                  -1.181
REMARK UNBOUND:                -1.427
REMARK SMILES CCCCCCCCCCCC(=O)[O-]
REMARK SMILES IDX 7 1 8 2 9 3 10 4 11 5 12 6 13 7 14 8 6 9 5 10 4 11 3 12 2 13
REMARK SMILES IDX 1 14
REMARK H PARENT
REMARK Flexibility Score: inf
ROOT
ATOM      1  C   UNL     1      -9.857 -18.997  10.902  1.00  0.00     0.000 C 
ENDROOT
BRANCH   1   2
ATOM      2  C   UNL     1      -8.673 -19.926  11.215  1.00  0.00     0.000 C 
BRANCH   2   3
ATOM      3  C   UNL     1      -9.096 -21.175  12.008  1.00  0.00     0.000 C 
BRANCH   3   4
ATOM      4  C   UNL     1     -10.619 -21.249  12.231  1.00  0.00     0.006 C 
BRANCH   4   5
ATOM      5  C   UNL     1     -11.171 -22.676  12.375  1.00  0.00     0.053 C 
BRANCH   5   6
ATOM      6  C   UNL     1     -12.402 -22.718  13.228  1.00  0.00     0.041 C 
ATOM      7  O   UNL     1     -13.496 -23.110  12.742  1.00  0.00    -0.550 OA
ATOM      8  O   UNL     1     -12.347 -22.297  14.549  1.00  0.00    -0.550 OA
ENDBRANCH   5   6
ENDBRANCH   4   5
ENDBRANCH   3   4
ENDBRANCH   2   3
ENDBRANCH   1   2
BRANCH   1   9
ATOM      9  C   UNL     1      -9.649 -17.570  11.434  1.00  0.00     0.000 C 
BRANCH   9  10
ATOM     10  C   UNL     1      -8.514 -17.531  12.468  1.00  0.00    -0.000 C 
BRANCH  10  11
ATOM     11  C   UNL     1      -9.014 -17.199  13.884  1.00  0.00    -0.000 C 
BRANCH  11  12
ATOM     12  C   UNL     1     -10.509 -16.850  13.918  1.00  0.00    -0.000 C 
BRANCH  12  13
ATOM     13  C   UNL     1     -11.229 -17.630  15.024  1.00  0.00    -0.003 C 
ATOM     14  C   UNL     1     -10.612 -19.013  15.215  1.00  0.00     0.004 C 
ENDBRANCH  12  13
ENDBRANCH  11  12
ENDBRANCH  10  11
ENDBRANCH   9  10
ENDBRANCH   1   9
TORSDOF 10
ENDMDL
MODEL 4
REMARK VINA RESULT:    -2.470      2.881      4.598
REMARK INTER + INTRA:          -5.341
REMARK INTER:                  -3.963
REMARK INTRA:                  -1.378
REMARK UNBOUND:                -1.427
REMARK SMILES CCCCCCCCCCCC(=O)[O-]
REMARK SMILES IDX 7 1 8 2 9 3 10 4 11 5 12 6 13 7 14 8 6 9 5 10 4 11 3 12 2 13
REMARK SMILES IDX 1 14
REMARK H PARENT
REMARK Flexibility Score: inf
ROOT
ATOM      1  C   UNL     1     -11.403 -16.809  15.003  1.00  0.00     0.000 C 
ENDROOT
BRANCH   1   2
ATOM      2  C   UNL     1     -10.710 -16.783  13.631  1.00  0.00     0.000 C 
BRANCH   2   3
ATOM      3  C   UNL     1      -9.240 -17.230  13.704  1.00  0.00     0.000 C 
BRANCH   3   4
ATOM      4  C   UNL     1      -8.708 -17.752  12.356  1.00  0.00     0.006 C 
BRANCH   4   5
ATOM      5  C   UNL     1      -9.796 -18.281  11.407  1.00  0.00     0.053 C 
BRANCH   5   6
ATOM      6  C   UNL     1      -9.552 -17.867   9.988  1.00  0.00     0.041 C 
ATOM      7  O   UNL     1      -9.708 -16.665   9.642  1.00  0.00    -0.550 OA
ATOM      8  O   UNL     1      -9.183 -18.813   9.041  1.00  0.00    -0.550 OA
ENDBRANCH   5   6
ENDBRANCH   4   5
ENDBRANCH   3   4
ENDBRANCH   2   3
ENDBRANCH   1   2
BRANCH   1   9
ATOM      9  C   UNL     1     -10.792 -17.846  15.958  1.00  0.00     0.000 C 
BRANCH   9  10
ATOM     10  C   UNL     1     -11.623 -19.138  15.968  1.00  0.00    -0.000 C 
BRANCH  10  11
ATOM     11  C   UNL     1     -10.767 -20.396  15.746  1.00  0.00    -0.000 C 
BRANCH  11  12
ATOM     12  C   UNL     1     -10.476 -20.660  14.262  1.00  0.00    -0.000 C 
BRANCH  12  13
ATOM     13  C   UNL     1      -9.016 -21.084  14.057  1.00  0.00    -0.003 C 
ATOM     14  C   UNL     1      -8.806 -21.688  12.672  1.00  0.00     0.004 C 
ENDBRANCH  12  13
ENDBRANCH  11  12
ENDBRANCH  10  11
ENDBRANCH   9  10
ENDBRANCH   1   9
TORSDOF 10
ENDMDL
MODEL 5
REMARK VINA RESULT:    -2.419      2.899      5.181
REMARK INTER + INTRA:          -5.261
REMARK INTER:                  -3.816
REMARK INTRA:                  -1.445
REMARK UNBOUND:                -1.427
REMARK SMILES CCCCCCCCCCCC(=O)[O-]
REMARK SMILES IDX 7 1 8 2 9 3 10 4 11 5 12 6 13 7 14 8 6 9 5 10 4 11 3 12 2 13
REMARK SMILES IDX 1 14
REMARK H PARENT
REMARK Flexibility Score: inf
ROOT
ATOM      1  C   UNL     1     -11.041 -21.644  13.868  1.00  0.00     0.000 C 
ENDROOT
BRANCH   1   2
ATOM      2  C   UNL     1     -10.532 -21.607  12.417  1.00  0.00     0.000 C 
BRANCH   2   3
ATOM      3  C   UNL     1      -9.010 -21.399  12.332  1.00  0.00     0.000 C 
BRANCH   3   4
ATOM      4  C   UNL     1      -8.628 -20.118  11.566  1.00  0.00     0.006 C 
BRANCH   4   5
ATOM      5  C   UNL     1      -9.823 -19.245  11.152  1.00  0.00     0.053 C 
BRANCH   5   6
ATOM      6  C   UNL     1      -9.522 -18.421   9.938  1.00  0.00     0.041 C 
ATOM      7  O   UNL     1      -8.951 -18.942   8.943  1.00  0.00    -0.550 OA
ATOM      8  O   UNL     1      -9.844 -17.070   9.917  1.00  0.00    -0.550 OA
ENDBRANCH   5   6
ENDBRANCH   4   5
ENDBRANCH   3   4
ENDBRANCH   2   3
ENDBRANCH   1   2
BRANCH   1   9
ATOM      9  C   UNL     1      -9.925 -21.402  14.896  1.00  0.00     0.000 C 
BRANCH   9  10
ATOM     10  C   UNL     1     -10.335 -20.318  15.904  1.00  0.00    -0.000 C 
BRANCH  10  11
ATOM     11  C   UNL     1     -10.501 -18.935  15.253  1.00  0.00    -0.000 C 
BRANCH  11  12
ATOM     12  C   UNL     1      -9.167 -18.338  14.783  1.00  0.00    -0.000 C 
BRANCH  12  13
ATOM     13  C   UNL     1      -9.390 -17.010  14.049  1.00  0.00    -0.003 C 
ATOM     14  C   UNL     1     -10.869 -16.788  13.747  1.00  0.00     0.004 C 
ENDBRANCH  12  13
ENDBRANCH  11  12
ENDBRANCH  10  11
ENDBRANCH   9  10
ENDBRANCH   1   9
TORSDOF 10
ENDMDL
MODEL 6
REMARK VINA RESULT:    -2.382      2.278      3.986
REMARK INTER + INTRA:          -5.202
REMARK INTER:                  -4.519
REMARK INTRA:                  -0.683
REMARK UNBOUND:                -1.427
REMARK SMILES CCCCCCCCCCCC(=O)[O-]
REMARK SMILES IDX 7 1 8 2 9 3 10 4 11 5 12 6 13 7 14 8 6 9 5 10 4 11 3 12 2 13
REMARK SMILES IDX 1 14
REMARK H PARENT
REMARK Flexibility Score: inf
ROOT
ATOM      1  C   UNL     1      -9.680 -16.726  14.740  1.00  0.00     0.000 C 
ENDROOT
BRANCH   1   2
ATOM      2  C   UNL     1     -10.219 -17.559  15.915  1.00  0.00     0.000 C 
BRANCH   2   3
ATOM      3  C   UNL     1     -11.585 -18.197  15.607  1.00  0.00     0.000 C 
BRANCH   3   4
ATOM      4  C   UNL     1     -11.581 -19.727  15.789  1.00  0.00     0.006 C 
BRANCH   4   5
ATOM      5  C   UNL     1     -12.955 -20.331  16.119  1.00  0.00     0.053 C 
BRANCH   5   6
ATOM      6  C   UNL     1     -13.359 -21.381  15.131  1.00  0.00     0.041 C 
ATOM      7  O   UNL     1     -14.527 -21.853  15.147  1.00  0.00    -0.550 OA
ATOM      8  O   UNL     1     -12.436 -21.861  14.210  1.00  0.00    -0.550 OA
ENDBRANCH   5   6
ENDBRANCH   4   5
ENDBRANCH   3   4
ENDBRANCH   2   3
ENDBRANCH   1   2
BRANCH   1   9
ATOM      9  C   UNL     1     -10.023 -17.337  13.372  1.00  0.00     0.000 C 
BRANCH   9  10
ATOM     10  C   UNL     1      -8.961 -18.363  12.949  1.00  0.00    -0.000 C 
BRANCH  10  11
ATOM     11  C   UNL     1      -9.444 -19.282  11.813  1.00  0.00    -0.000 C 
BRANCH  11  12
ATOM     12  C   UNL     1     -10.066 -18.502  10.646  1.00  0.00    -0.000 C 
BRANCH  12  13
ATOM     13  C   UNL     1      -9.003 -18.135   9.603  1.00  0.00    -0.003 C 
ATOM     14  C   UNL     1      -8.077 -19.315   9.321  1.00  0.00     0.004 C 
ENDBRANCH  12  13
ENDBRANCH  11  12
ENDBRANCH  10  11
ENDBRANCH   9  10
ENDBRANCH   1   9
TORSDOF 10
ENDMDL
MODEL 7
REMARK VINA RESULT:    -2.347     13.769     15.792
REMARK INTER + INTRA:          -5.145
REMARK INTER:                  -4.588
REMARK INTRA:                  -0.558
REMARK UNBOUND:                -1.427
REMARK SMILES CCCCCCCCCCCC(=O)[O-]
REMARK SMILES IDX 7 1 8 2 9 3 10 4 11 5 12 6 13 7 14 8 6 9 5 10 4 11 3 12 2 13
REMARK SMILES IDX 1 14
REMARK H PARENT
REMARK Flexibility Score: inf
ROOT
ATOM      1  C   UNL     1      -9.971 -18.234  -1.603  1.00  0.00     0.000 C 
ENDROOT
BRANCH   1   2
ATOM      2  C   UNL     1      -8.467 -18.134  -1.294  1.00  0.00     0.000 C 
BRANCH   2   3
ATOM      3  C   UNL     1      -7.875 -16.768  -1.684  1.00  0.00     0.000 C 
BRANCH   3   4
ATOM      4  C   UNL     1      -8.667 -16.077  -2.810  1.00  0.00     0.006 C 
BRANCH   4   5
ATOM      5  C   UNL     1      -7.889 -14.977  -3.551  1.00  0.00     0.053 C 
BRANCH   5   6
ATOM      6  C   UNL     1      -8.171 -13.617  -2.991  1.00  0.00     0.041 C 
ATOM      7  O   UNL     1      -8.578 -12.693  -3.745  1.00  0.00    -0.550 OA
ATOM      8  O   UNL     1      -7.954 -13.360  -1.644  1.00  0.00    -0.550 OA
ENDBRANCH   5   6
ENDBRANCH   4   5
ENDBRANCH   3   4
ENDBRANCH   2   3
ENDBRANCH   1   2
BRANCH   1   9
ATOM      9  C   UNL     1     -10.444 -19.685  -1.784  1.00  0.00     0.000 C 
BRANCH   9  10
ATOM     10  C   UNL     1      -9.252 -20.654  -1.784  1.00  0.00    -0.000 C 
BRANCH  10  11
ATOM     11  C   UNL     1      -9.669 -22.108  -2.061  1.00  0.00    -0.000 C 
BRANCH  11  12
ATOM     12  C   UNL     1      -9.435 -23.030  -0.856  1.00  0.00    -0.000 C 
BRANCH  12  13
ATOM     13  C   UNL     1      -8.210 -22.579  -0.050  1.00  0.00    -0.003 C 
ATOM     14  C   UNL     1      -8.393 -22.863   1.438  1.00  0.00     0.004 C 
ENDBRANCH  12  13
ENDBRANCH  11  12
ENDBRANCH  10  11
ENDBRANCH   9  10
ENDBRANCH   1   9
TORSDOF 10
ENDMDL
MODEL 8
REMARK VINA RESULT:    -2.234      3.039      4.537
REMARK INTER + INTRA:          -4.967
REMARK INTER:                  -3.958
REMARK INTRA:                  -1.009
REMARK UNBOUND:                -1.427
REMARK SMILES CCCCCCCCCCCC(=O)[O-]
REMARK SMILES IDX 7 1 8 2 9 3 10 4 11 5 12 6 13 7 14 8 6 9 5 10 4 11 3 12 2 13
REMARK SMILES IDX 1 14
REMARK H PARENT
REMARK Flexibility Score: inf
ROOT
ATOM      1  C   UNL     1     -11.329 -17.926  15.379  1.00  0.00     0.000 C 
ENDROOT
BRANCH   1   2
ATOM      2  C   UNL     1     -10.838 -16.771  14.490  1.00  0.00     0.000 C 
BRANCH   2   3
ATOM      3  C   UNL     1      -9.321 -16.823  14.239  1.00  0.00     0.000 C 
BRANCH   3   4
ATOM      4  C   UNL     1      -8.963 -17.488  12.897  1.00  0.00     0.006 C 
BRANCH   4   5
ATOM      5  C   UNL     1     -10.127 -17.566  11.896  1.00  0.00     0.053 C 
BRANCH   5   6
ATOM      6  C   UNL     1      -9.650 -17.828  10.501  1.00  0.00     0.041 C 
ATOM      7  O   UNL     1      -9.556 -19.009  10.073  1.00  0.00    -0.550 OA
ATOM      8  O   UNL     1      -9.280 -16.769   9.682  1.00  0.00    -0.550 OA
ENDBRANCH   5   6
ENDBRANCH   4   5
ENDBRANCH   3   4
ENDBRANCH   2   3
ENDBRANCH   1   2
BRANCH   1   9
ATOM      9  C   UNL     1     -10.183 -18.629  16.125  1.00  0.00     0.000 C 
BRANCH   9  10
ATOM     10  C   UNL     1     -10.308 -20.155  16.006  1.00  0.00    -0.000 C 
BRANCH  10  11
ATOM     11  C   UNL     1     -10.602 -20.616  14.569  1.00  0.00    -0.000 C 
BRANCH  11  12
ATOM     12  C   UNL     1     -11.774 -21.605  14.492  1.00  0.00    -0.000 C 
BRANCH  12  13
ATOM     13  C   UNL     1     -12.865 -21.240  15.506  1.00  0.00    -0.003 C 
ATOM     14  C   UNL     1     -14.247 -21.638  14.997  1.00  0.00     0.004 C 
ENDBRANCH  12  13
ENDBRANCH  11  12
ENDBRANCH  10  11
ENDBRANCH   9  10
ENDBRANCH   1   9
TORSDOF 10
ENDMDL
MODEL 9
REMARK VINA RESULT:    -2.186      1.740      2.309
REMARK INTER + INTRA:          -4.890
REMARK INTER:                  -4.044
REMARK INTRA:                  -0.847
REMARK UNBOUND:                -1.427
REMARK SMILES CCCCCCCCCCCC(=O)[O-]
REMARK SMILES IDX 7 1 8 2 9 3 10 4 11 5 12 6 13 7 14 8 6 9 5 10 4 11 3 12 2 13
REMARK SMILES IDX 1 14
REMARK H PARENT
REMARK Flexibility Score: inf
ROOT
ATOM      1  C   UNL     1      -9.739 -18.186  11.463  1.00  0.00     0.000 C 
ENDROOT
BRANCH   1   2
ATOM      2  C   UNL     1      -8.472 -17.823  12.256  1.00  0.00     0.000 C 
BRANCH   2   3
ATOM      3  C   UNL     1      -8.789 -17.105  13.579  1.00  0.00     0.000 C 
BRANCH   3   4
ATOM      4  C   UNL     1     -10.300 -17.034  13.869  1.00  0.00     0.006 C 
BRANCH   4   5
ATOM      5  C   UNL     1     -10.674 -17.258  15.343  1.00  0.00     0.053 C 
BRANCH   5   6
ATOM      6  C   UNL     1     -10.884 -18.708  15.654  1.00  0.00     0.041 C 
ATOM      7  O   UNL     1     -12.051 -19.176  15.738  1.00  0.00    -0.550 OA
ATOM      8  O   UNL     1      -9.793 -19.536  15.881  1.00  0.00    -0.550 OA
ENDBRANCH   5   6
ENDBRANCH   4   5
ENDBRANCH   3   4
ENDBRANCH   2   3
ENDBRANCH   1   2
BRANCH   1   9
ATOM      9  C   UNL     1      -9.836 -19.689  11.155  1.00  0.00     0.000 C 
BRANCH   9  10
ATOM     10  C   UNL     1      -9.759 -20.518  12.446  1.00  0.00    -0.000 C 
BRANCH  10  11
ATOM     11  C   UNL     1     -10.641 -21.777  12.395  1.00  0.00    -0.000 C 
BRANCH  11  12
ATOM     12  C   UNL     1     -11.489 -21.957  13.663  1.00  0.00    -0.000 C 
BRANCH  12  13
ATOM     13  C   UNL     1     -12.808 -22.671  13.342  1.00  0.00    -0.003 C 
ATOM     14  C   UNL     1     -13.904 -22.272  14.325  1.00  0.00     0.004 C 
ENDBRANCH  12  13
ENDBRANCH  11  12
ENDBRANCH  10  11
ENDBRANCH   9  10
ENDBRANCH   1   9
TORSDOF 10
ENDMDL
