MODEL 1
REMARK VINA RESULT:    -7.248      0.000      0.000
REMARK INTER + INTRA:          -8.947
REMARK INTER:                  -8.732
REMARK INTRA:                  -0.215
REMARK UNBOUND:                -0.215
REMARK SMILES O=c1c(O)c(-c2ccc(O)c(O)c2)oc2cc(O)cc(O)c12
REMARK SMILES IDX 5 1 3 2 2 3 1 4 22 5 20 6 19 7 17 8 16 9 15 10 14 11 6 12
REMARK SMILES IDX 7 13 8 14 9 15 13 16 11 17 10 18 12 20 4 22 21 24 18 26
REMARK H PARENT 10 19 12 21 4 23 21 25 18 27
REMARK Flexibility Score: inf
ROOT
ATOM      1  C   UNL     1      54.765   5.055  79.390  1.00  0.00     0.180 A 
ATOM      2  C   UNL     1      54.200   5.205  80.668  1.00  0.00     0.208 A 
ATOM      3  C   UNL     1      52.876   4.787  80.881  1.00  0.00     0.238 A 
ATOM      4  O   UNL     1      52.393   4.874  82.041  1.00  0.00    -0.285 OA
ATOM      5  C   UNL     1      52.129   4.239  79.811  1.00  0.00     0.111 A 
ATOM      6  C   UNL     1      50.769   3.819  79.903  1.00  0.00     0.134 A 
ATOM      7  C   UNL     1      50.170   3.171  78.815  1.00  0.00     0.093 A 
ATOM      8  C   UNL     1      50.864   2.985  77.616  1.00  0.00     0.123 A 
ATOM      9  C   UNL     1      52.173   3.445  77.497  1.00  0.00     0.094 A 
ATOM     10  C   UNL     1      52.808   4.063  78.577  1.00  0.00     0.146 A 
ATOM     11  O   UNL     1      54.061   4.476  78.424  1.00  0.00    -0.452 OA
ENDROOT
BRANCH   1  12
ATOM     12  C   UNL     1      56.145   5.494  79.082  1.00  0.00     0.025 A 
ATOM     13  C   UNL     1      57.262   4.822  79.609  1.00  0.00     0.016 A 
ATOM     14  C   UNL     1      58.555   5.268  79.323  1.00  0.00     0.051 A 
ATOM     15  C   UNL     1      58.751   6.400  78.521  1.00  0.00     0.157 A 
ATOM     16  C   UNL     1      56.346   6.640  78.295  1.00  0.00     0.062 A 
ATOM     17  C   UNL     1      57.641   7.090  78.006  1.00  0.00     0.158 A 
BRANCH  15  18
ATOM     18  O   UNL     1      60.042   6.842  78.236  1.00  0.00    -0.504 OA
ATOM     19  H   UNL     1      60.474   6.674  77.335  1.00  0.00     0.293 HD
ENDBRANCH  15  18
BRANCH  17  20
ATOM     20  O   UNL     1      57.802   8.223  77.210  1.00  0.00    -0.504 OA
ATOM     21  H   UNL     1      58.716   8.603  76.994  1.00  0.00     0.293 HD
ENDBRANCH  17  20
ENDBRANCH   1  12
BRANCH   2  22
ATOM     22  O   UNL     1      54.962   5.729  81.716  1.00  0.00    -0.502 OA
ATOM     23  H   UNL     1      54.594   5.839  82.654  1.00  0.00     0.293 HD
ENDBRANCH   2  22
BRANCH   6  24
ATOM     24  O   UNL     1      49.958   4.038  81.021  1.00  0.00    -0.507 OA
ATOM     25  H   UNL     1      49.235   3.409  81.338  1.00  0.00     0.293 HD
ENDBRANCH   6  24
BRANCH   8  26
ATOM     26  O   UNL     1      50.256   2.353  76.534  1.00  0.00    -0.508 OA
ATOM     27  H   UNL     1      50.462   1.388  76.299  1.00  0.00     0.293 HD
ENDBRANCH   8  26
TORSDOF 6
ENDMDL
MODEL 2
REMARK VINA RESULT:    -6.432      1.445      6.918
REMARK INTER + INTRA:          -7.964
REMARK INTER:                  -7.673
REMARK INTRA:                  -0.291
REMARK UNBOUND:                -0.215
REMARK SMILES O=c1c(O)c(-c2ccc(O)c(O)c2)oc2cc(O)cc(O)c12
REMARK SMILES IDX 5 1 3 2 2 3 1 4 22 5 20 6 19 7 17 8 16 9 15 10 14 11 6 12
REMARK SMILES IDX 7 13 8 14 9 15 13 16 11 17 10 18 12 20 4 22 21 24 18 26
REMARK H PARENT 10 19 12 21 4 23 21 25 18 27
REMARK Flexibility Score: inf
ROOT
ATOM      1  C   UNL     1      54.166   4.918  78.650  1.00  0.00     0.180 A 
ATOM      2  C   UNL     1      55.267   4.342  79.305  1.00  0.00     0.208 A 
ATOM      3  C   UNL     1      56.523   4.961  79.200  1.00  0.00     0.238 A 
ATOM      4  O   UNL     1      57.494   4.470  79.833  1.00  0.00    -0.285 OA
ATOM      5  C   UNL     1      56.665   6.139  78.429  1.00  0.00     0.111 A 
ATOM      6  C   UNL     1      57.898   6.828  78.222  1.00  0.00     0.134 A 
ATOM      7  C   UNL     1      57.898   8.057  77.549  1.00  0.00     0.093 A 
ATOM      8  C   UNL     1      56.718   8.588  77.020  1.00  0.00     0.123 A 
ATOM      9  C   UNL     1      55.520   7.894  77.166  1.00  0.00     0.094 A 
ATOM     10  C   UNL     1      55.483   6.684  77.864  1.00  0.00     0.146 A 
ATOM     11  O   UNL     1      54.318   6.060  77.989  1.00  0.00    -0.452 OA
ENDROOT
BRANCH   1  12
ATOM     12  C   UNL     1      52.816   4.311  78.693  1.00  0.00     0.025 A 
ATOM     13  C   UNL     1      52.312   3.571  77.609  1.00  0.00     0.016 A 
ATOM     14  C   UNL     1      51.026   3.026  77.662  1.00  0.00     0.051 A 
ATOM     15  C   UNL     1      50.220   3.225  78.791  1.00  0.00     0.157 A 
ATOM     16  C   UNL     1      51.997   4.525  79.814  1.00  0.00     0.062 A 
ATOM     17  C   UNL     1      50.708   3.980  79.871  1.00  0.00     0.158 A 
BRANCH  15  18
ATOM     18  O   UNL     1      48.939   2.679  78.842  1.00  0.00    -0.504 OA
ATOM     19  H   UNL     1      48.113   3.266  78.874  1.00  0.00     0.293 HD
ENDBRANCH  15  18
BRANCH  17  20
ATOM     20  O   UNL     1      49.929   4.202  81.005  1.00  0.00    -0.504 OA
ATOM     21  H   UNL     1      50.326   4.209  81.937  1.00  0.00     0.293 HD
ENDBRANCH  17  20
ENDBRANCH   1  12
BRANCH   2  22
ATOM     22  O   UNL     1      55.100   3.190  80.079  1.00  0.00    -0.502 OA
ATOM     23  H   UNL     1      55.860   2.547  80.269  1.00  0.00     0.293 HD
ENDBRANCH   2  22
BRANCH   6  24
ATOM     24  O   UNL     1      59.143   6.340  78.628  1.00  0.00    -0.507 OA
ATOM     25  H   UNL     1      60.031   6.726  78.344  1.00  0.00     0.293 HD
ENDBRANCH   6  24
BRANCH   8  26
ATOM     26  O   UNL     1      56.729   9.803  76.339  1.00  0.00    -0.508 OA
ATOM     27  H   UNL     1      56.014  10.037  75.659  1.00  0.00     0.293 HD
ENDBRANCH   8  26
TORSDOF 6
ENDMDL
MODEL 3
REMARK VINA RESULT:    -6.430      1.508      6.917
REMARK INTER + INTRA:          -7.961
REMARK INTER:                  -7.679
REMARK INTRA:                  -0.282
REMARK UNBOUND:                -0.215
REMARK SMILES O=c1c(O)c(-c2ccc(O)c(O)c2)oc2cc(O)cc(O)c12
REMARK SMILES IDX 5 1 3 2 2 3 1 4 22 5 20 6 19 7 17 8 16 9 15 10 14 11 6 12
REMARK SMILES IDX 7 13 8 14 9 15 13 16 11 17 10 18 12 20 4 22 21 24 18 26
REMARK H PARENT 10 19 12 21 4 23 21 25 18 27
REMARK Flexibility Score: inf
ROOT
ATOM      1  C   UNL     1      54.416   5.147  78.735  1.00  0.00     0.180 A 
ATOM      2  C   UNL     1      55.510   4.514  79.348  1.00  0.00     0.208 A 
ATOM      3  C   UNL     1      56.792   5.066  79.191  1.00  0.00     0.238 A 
ATOM      4  O   UNL     1      57.760   4.525  79.787  1.00  0.00    -0.285 OA
ATOM      5  C   UNL     1      56.965   6.234  78.410  1.00  0.00     0.111 A 
ATOM      6  C   UNL     1      58.223   6.856  78.151  1.00  0.00     0.134 A 
ATOM      7  C   UNL     1      58.261   8.081  77.474  1.00  0.00     0.093 A 
ATOM      8  C   UNL     1      57.091   8.674  76.990  1.00  0.00     0.123 A 
ATOM      9  C   UNL     1      55.865   8.044  77.186  1.00  0.00     0.094 A 
ATOM     10  C   UNL     1      55.792   6.839  77.889  1.00  0.00     0.146 A 
ATOM     11  O   UNL     1      54.601   6.277  78.063  1.00  0.00    -0.452 OA
ENDROOT
BRANCH   1  12
ATOM     12  C   UNL     1      53.039   4.611  78.833  1.00  0.00     0.025 A 
ATOM     13  C   UNL     1      52.267   4.788  79.996  1.00  0.00     0.016 A 
ATOM     14  C   UNL     1      50.978   4.254  80.076  1.00  0.00     0.051 A 
ATOM     15  C   UNL     1      50.447   3.524  79.005  1.00  0.00     0.157 A 
ATOM     16  C   UNL     1      52.510   3.861  77.770  1.00  0.00     0.062 A 
ATOM     17  C   UNL     1      51.218   3.325  77.847  1.00  0.00     0.158 A 
BRANCH  15  18
ATOM     18  O   UNL     1      49.160   2.994  79.087  1.00  0.00    -0.504 OA
ATOM     19  H   UNL     1      48.464   3.385  79.711  1.00  0.00     0.293 HD
ENDBRANCH  15  18
BRANCH  17  20
ATOM     20  O   UNL     1      50.722   2.598  76.766  1.00  0.00    -0.504 OA
ATOM     21  H   UNL     1      49.782   2.734  76.413  1.00  0.00     0.293 HD
ENDBRANCH  17  20
ENDBRANCH   1  12
BRANCH   2  22
ATOM     22  O   UNL     1      55.314   3.374  80.132  1.00  0.00    -0.502 OA
ATOM     23  H   UNL     1      55.260   2.443  79.736  1.00  0.00     0.293 HD
ENDBRANCH   2  22
BRANCH   6  24
ATOM     24  O   UNL     1      59.456   6.304  78.510  1.00  0.00    -0.507 OA
ATOM     25  H   UNL     1      59.854   6.341  79.437  1.00  0.00     0.293 HD
ENDBRANCH   6  24
BRANCH   8  26
ATOM     26  O   UNL     1      57.139   9.885  76.303  1.00  0.00    -0.508 OA
ATOM     27  H   UNL     1      57.781  10.622  76.573  1.00  0.00     0.293 HD
ENDBRANCH   8  26
TORSDOF 6
ENDMDL
MODEL 4
REMARK VINA RESULT:    -6.405      1.941      7.329
REMARK INTER + INTRA:          -7.931
REMARK INTER:                  -7.602
REMARK INTRA:                  -0.328
REMARK UNBOUND:                -0.215
REMARK SMILES O=c1c(O)c(-c2ccc(O)c(O)c2)oc2cc(O)cc(O)c12
REMARK SMILES IDX 5 1 3 2 2 3 1 4 22 5 20 6 19 7 17 8 16 9 15 10 14 11 6 12
REMARK SMILES IDX 7 13 8 14 9 15 13 16 11 17 10 18 12 20 4 22 21 24 18 26
REMARK H PARENT 10 19 12 21 4 23 21 25 18 27
REMARK Flexibility Score: inf
ROOT
ATOM      1  C   UNL     1      54.384   6.488  77.923  1.00  0.00     0.180 A 
ATOM      2  C   UNL     1      54.159   7.596  77.090  1.00  0.00     0.208 A 
ATOM      3  C   UNL     1      55.245   8.409  76.728  1.00  0.00     0.238 A 
ATOM      4  O   UNL     1      55.047   9.369  75.939  1.00  0.00    -0.285 OA
ATOM      5  C   UNL     1      56.540   8.112  77.217  1.00  0.00     0.111 A 
ATOM      6  C   UNL     1      57.706   8.890  76.948  1.00  0.00     0.134 A 
ATOM      7  C   UNL     1      58.958   8.429  77.376  1.00  0.00     0.093 A 
ATOM      8  C   UNL     1      59.076   7.252  78.119  1.00  0.00     0.123 A 
ATOM      9  C   UNL     1      57.937   6.517  78.438  1.00  0.00     0.094 A 
ATOM     10  C   UNL     1      56.679   6.933  77.994  1.00  0.00     0.146 A 
ATOM     11  O   UNL     1      55.620   6.197  78.311  1.00  0.00    -0.452 OA
ENDROOT
BRANCH   1  12
ATOM     12  C   UNL     1      53.286   5.599  78.367  1.00  0.00     0.025 A 
ATOM     13  C   UNL     1      52.504   5.910  79.495  1.00  0.00     0.016 A 
ATOM     14  C   UNL     1      51.488   5.045  79.909  1.00  0.00     0.051 A 
ATOM     15  C   UNL     1      51.247   3.852  79.216  1.00  0.00     0.157 A 
ATOM     16  C   UNL     1      53.054   4.392  77.687  1.00  0.00     0.062 A 
ATOM     17  C   UNL     1      52.037   3.523  78.100  1.00  0.00     0.158 A 
BRANCH  15  18
ATOM     18  O   UNL     1      50.232   2.992  79.631  1.00  0.00    -0.504 OA
ATOM     19  H   UNL     1      49.739   3.135  80.505  1.00  0.00     0.293 HD
ENDBRANCH  15  18
BRANCH  17  20
ATOM     20  O   UNL     1      51.827   2.341  77.392  1.00  0.00    -0.504 OA
ATOM     21  H   UNL     1      51.728   1.446  77.857  1.00  0.00     0.293 HD
ENDBRANCH  17  20
ENDBRANCH   1  12
BRANCH   2  22
ATOM     22  O   UNL     1      52.876   7.859  76.601  1.00  0.00    -0.502 OA
ATOM     23  H   UNL     1      52.177   8.353  77.144  1.00  0.00     0.293 HD
ENDBRANCH   2  22
BRANCH   6  24
ATOM     24  O   UNL     1      57.687  10.125  76.294  1.00  0.00    -0.507 OA
ATOM     25  H   UNL     1      58.508  10.620  75.979  1.00  0.00     0.293 HD
ENDBRANCH   6  24
BRANCH   8  26
ATOM     26  O   UNL     1      60.323   6.809  78.555  1.00  0.00    -0.508 OA
ATOM     27  H   UNL     1      60.912   7.381  79.150  1.00  0.00     0.293 HD
ENDBRANCH   8  26
TORSDOF 6
ENDMDL
MODEL 5
REMARK VINA RESULT:    -6.359      1.634      7.125
REMARK INTER + INTRA:          -7.876
REMARK INTER:                  -7.864
REMARK INTRA:                  -0.012
REMARK UNBOUND:                -0.215
REMARK SMILES O=c1c(O)c(-c2ccc(O)c(O)c2)oc2cc(O)cc(O)c12
REMARK SMILES IDX 5 1 3 2 2 3 1 4 22 5 20 6 19 7 17 8 16 9 15 10 14 11 6 12
REMARK SMILES IDX 7 13 8 14 9 15 13 16 11 17 10 18 12 20 4 22 21 24 18 26
REMARK H PARENT 10 19 12 21 4 23 21 25 18 27
REMARK Flexibility Score: inf
ROOT
ATOM      1  C   UNL     1      54.261   4.569  79.084  1.00  0.00     0.180 A 
ATOM      2  C   UNL     1      54.841   5.382  78.096  1.00  0.00     0.208 A 
ATOM      3  C   UNL     1      56.161   5.829  78.269  1.00  0.00     0.238 A 
ATOM      4  O   UNL     1      56.694   6.512  77.356  1.00  0.00    -0.285 OA
ATOM      5  C   UNL     1      56.879   5.469  79.435  1.00  0.00     0.111 A 
ATOM      6  C   UNL     1      58.207   5.896  79.734  1.00  0.00     0.134 A 
ATOM      7  C   UNL     1      58.867   5.373  80.853  1.00  0.00     0.093 A 
ATOM      8  C   UNL     1      58.221   4.487  81.720  1.00  0.00     0.123 A 
ATOM      9  C   UNL     1      56.905   4.110  81.470  1.00  0.00     0.094 A 
ATOM     10  C   UNL     1      56.234   4.587  80.341  1.00  0.00     0.146 A 
ATOM     11  O   UNL     1      54.982   4.194  80.134  1.00  0.00    -0.452 OA
ENDROOT
BRANCH   1  12
ATOM     12  C   UNL     1      52.867   4.080  78.984  1.00  0.00     0.025 A 
ATOM     13  C   UNL     1      52.406   3.412  77.835  1.00  0.00     0.016 A 
ATOM     14  C   UNL     1      51.080   2.980  77.753  1.00  0.00     0.051 A 
ATOM     15  C   UNL     1      50.191   3.221  78.809  1.00  0.00     0.157 A 
ATOM     16  C   UNL     1      51.967   4.338  80.031  1.00  0.00     0.062 A 
ATOM     17  C   UNL     1      50.637   3.906  79.952  1.00  0.00     0.158 A 
BRANCH  15  18
ATOM     18  O   UNL     1      48.869   2.788  78.725  1.00  0.00    -0.504 OA
ATOM     19  H   UNL     1      48.480   2.137  79.398  1.00  0.00     0.293 HD
ENDBRANCH  15  18
BRANCH  17  20
ATOM     20  O   UNL     1      49.776   4.168  81.017  1.00  0.00    -0.504 OA
ATOM     21  H   UNL     1      49.003   4.817  80.936  1.00  0.00     0.293 HD
ENDBRANCH  17  20
ENDBRANCH   1  12
BRANCH   2  22
ATOM     22  O   UNL     1      54.122   5.708  76.942  1.00  0.00    -0.502 OA
ATOM     23  H   UNL     1      54.152   5.139  76.104  1.00  0.00     0.293 HD
ENDBRANCH   2  22
BRANCH   6  24
ATOM     24  O   UNL     1      58.908   6.846  78.985  1.00  0.00    -0.507 OA
ATOM     25  H   UNL     1      59.654   7.424  79.345  1.00  0.00     0.293 HD
ENDBRANCH   6  24
BRANCH   8  26
ATOM     26  O   UNL     1      58.879   3.983  82.840  1.00  0.00    -0.508 OA
ATOM     27  H   UNL     1      59.774   4.354  83.142  1.00  0.00     0.293 HD
ENDBRANCH   8  26
TORSDOF 6
ENDMDL
MODEL 6
REMARK VINA RESULT:    -6.176     11.129     12.856
REMARK INTER + INTRA:          -7.655
REMARK INTER:                  -7.813
REMARK INTRA:                   0.158
REMARK UNBOUND:                -0.215
REMARK SMILES O=c1c(O)c(-c2ccc(O)c(O)c2)oc2cc(O)cc(O)c12
REMARK SMILES IDX 5 1 3 2 2 3 1 4 22 5 20 6 19 7 17 8 16 9 15 10 14 11 6 12
REMARK SMILES IDX 7 13 8 14 9 15 13 16 11 17 10 18 12 20 4 22 21 24 18 26
REMARK H PARENT 10 19 12 21 4 23 21 25 18 27
REMARK Flexibility Score: inf
ROOT
ATOM      1  C   UNL     1      51.752  -7.013  80.810  1.00  0.00     0.180 A 
ATOM      2  C   UNL     1      51.796  -5.705  81.322  1.00  0.00     0.208 A 
ATOM      3  C   UNL     1      50.601  -4.978  81.441  1.00  0.00     0.238 A 
ATOM      4  O   UNL     1      50.640  -3.828  81.951  1.00  0.00    -0.285 OA
ATOM      5  C   UNL     1      49.378  -5.562  81.031  1.00  0.00     0.111 A 
ATOM      6  C   UNL     1      48.113  -4.904  81.069  1.00  0.00     0.134 A 
ATOM      7  C   UNL     1      46.950  -5.622  80.761  1.00  0.00     0.093 A 
ATOM      8  C   UNL     1      47.016  -6.958  80.354  1.00  0.00     0.123 A 
ATOM      9  C   UNL     1      48.251  -7.591  80.257  1.00  0.00     0.094 A 
ATOM     10  C   UNL     1      49.425  -6.911  80.592  1.00  0.00     0.146 A 
ATOM     11  O   UNL     1      50.582  -7.556  80.495  1.00  0.00    -0.452 OA
ENDROOT
BRANCH   1  12
ATOM     12  C   UNL     1      52.972  -7.832  80.631  1.00  0.00     0.025 A 
ATOM     13  C   UNL     1      54.009  -7.817  81.582  1.00  0.00     0.016 A 
ATOM     14  C   UNL     1      55.162  -8.580  81.382  1.00  0.00     0.051 A 
ATOM     15  C   UNL     1      55.304  -9.357  80.225  1.00  0.00     0.157 A 
ATOM     16  C   UNL     1      53.129  -8.596  79.463  1.00  0.00     0.062 A 
ATOM     17  C   UNL     1      54.283  -9.362  79.260  1.00  0.00     0.158 A 
BRANCH  15  18
ATOM     18  O   UNL     1      56.455 -10.118  80.029  1.00  0.00    -0.504 OA
ATOM     19  H   UNL     1      57.375  -9.758  80.255  1.00  0.00     0.293 HD
ENDBRANCH  15  18
BRANCH  17  20
ATOM     20  O   UNL     1      54.397 -10.118  78.094  1.00  0.00    -0.504 OA
ATOM     21  H   UNL     1      54.469  -9.688  77.179  1.00  0.00     0.293 HD
ENDBRANCH  17  20
ENDBRANCH   1  12
BRANCH   2  22
ATOM     22  O   UNL     1      53.012  -5.156  81.741  1.00  0.00    -0.502 OA
ATOM     23  H   UNL     1      53.777  -4.975  81.102  1.00  0.00     0.293 HD
ENDBRANCH   2  22
BRANCH   6  24
ATOM     24  O   UNL     1      47.946  -3.550  81.373  1.00  0.00    -0.507 OA
ATOM     25  H   UNL     1      47.057  -3.074  81.406  1.00  0.00     0.293 HD
ENDBRANCH   6  24
BRANCH   8  26
ATOM     26  O   UNL     1      45.856  -7.661  80.035  1.00  0.00    -0.508 OA
ATOM     27  H   UNL     1      45.464  -7.641  79.100  1.00  0.00     0.293 HD
ENDBRANCH   8  26
TORSDOF 6
ENDMDL
MODEL 7
REMARK VINA RESULT:    -6.133      9.362     12.566
REMARK INTER + INTRA:          -7.603
REMARK INTER:                  -7.381
REMARK INTRA:                  -0.222
REMARK UNBOUND:                -0.215
REMARK SMILES O=c1c(O)c(-c2ccc(O)c(O)c2)oc2cc(O)cc(O)c12
REMARK SMILES IDX 5 1 3 2 2 3 1 4 22 5 20 6 19 7 17 8 16 9 15 10 14 11 6 12
REMARK SMILES IDX 7 13 8 14 9 15 13 16 11 17 10 18 12 20 4 22 21 24 18 26
REMARK H PARENT 10 19 12 21 4 23 21 25 18 27
REMARK Flexibility Score: inf
ROOT
ATOM      1  C   UNL     1      51.411  -5.493  81.725  1.00  0.00     0.180 A 
ATOM      2  C   UNL     1      52.733  -5.955  81.844  1.00  0.00     0.208 A 
ATOM      3  C   UNL     1      53.721  -5.079  82.321  1.00  0.00     0.238 A 
ATOM      4  O   UNL     1      54.892  -5.514  82.476  1.00  0.00    -0.285 OA
ATOM      5  C   UNL     1      53.379  -3.747  82.657  1.00  0.00     0.111 A 
ATOM      6  C   UNL     1      54.305  -2.762  83.112  1.00  0.00     0.134 A 
ATOM      7  C   UNL     1      53.834  -1.515  83.540  1.00  0.00     0.093 A 
ATOM      8  C   UNL     1      52.475  -1.195  83.469  1.00  0.00     0.123 A 
ATOM      9  C   UNL     1      51.571  -2.129  82.971  1.00  0.00     0.094 A 
ATOM     10  C   UNL     1      52.007  -3.394  82.570  1.00  0.00     0.146 A 
ATOM     11  O   UNL     1      51.109  -4.259  82.111  1.00  0.00    -0.452 OA
ENDROOT
BRANCH   1  12
ATOM     12  C   UNL     1      50.320  -6.349  81.208  1.00  0.00     0.025 A 
ATOM     13  C   UNL     1      49.817  -7.428  81.958  1.00  0.00     0.016 A 
ATOM     14  C   UNL     1      48.803  -8.237  81.439  1.00  0.00     0.051 A 
ATOM     15  C   UNL     1      48.286  -7.992  80.161  1.00  0.00     0.157 A 
ATOM     16  C   UNL     1      49.813  -6.120  79.918  1.00  0.00     0.062 A 
ATOM     17  C   UNL     1      48.796  -6.929  79.396  1.00  0.00     0.158 A 
BRANCH  15  18
ATOM     18  O   UNL     1      47.273  -8.800  79.647  1.00  0.00    -0.504 OA
ATOM     19  H   UNL     1      47.315  -9.810  79.715  1.00  0.00     0.293 HD
ENDBRANCH  15  18
BRANCH  17  20
ATOM     20  O   UNL     1      48.308  -6.662  78.118  1.00  0.00    -0.504 OA
ATOM     21  H   UNL     1      47.373  -6.928  77.832  1.00  0.00     0.293 HD
ENDBRANCH  17  20
ENDBRANCH   1  12
BRANCH   2  22
ATOM     22  O   UNL     1      53.045  -7.280  81.527  1.00  0.00    -0.502 OA
ATOM     23  H   UNL     1      53.236  -7.583  80.579  1.00  0.00     0.293 HD
ENDBRANCH   2  22
BRANCH   6  24
ATOM     24  O   UNL     1      55.691  -2.946  83.136  1.00  0.00    -0.507 OA
ATOM     25  H   UNL     1      56.340  -2.356  83.635  1.00  0.00     0.293 HD
ENDBRANCH   6  24
BRANCH   8  26
ATOM     26  O   UNL     1      52.016   0.053  83.882  1.00  0.00    -0.508 OA
ATOM     27  H   UNL     1      51.852   0.261  84.861  1.00  0.00     0.293 HD
ENDBRANCH   8  26
TORSDOF 6
ENDMDL
MODEL 8
REMARK VINA RESULT:    -6.028      2.440      6.890
REMARK INTER + INTRA:          -7.476
REMARK INTER:                  -7.227
REMARK INTRA:                  -0.249
REMARK UNBOUND:                -0.215
REMARK SMILES O=c1c(O)c(-c2ccc(O)c(O)c2)oc2cc(O)cc(O)c12
REMARK SMILES IDX 5 1 3 2 2 3 1 4 22 5 20 6 19 7 17 8 16 9 15 10 14 11 6 12
REMARK SMILES IDX 7 13 8 14 9 15 13 16 11 17 10 18 12 20 4 22 21 24 18 26
REMARK H PARENT 10 19 12 21 4 23 21 25 18 27
REMARK Flexibility Score: inf
ROOT
ATOM      1  C   UNL     1      54.407   3.803  80.693  1.00  0.00     0.180 A 
ATOM      2  C   UNL     1      54.744   3.020  81.810  1.00  0.00     0.208 A 
ATOM      3  C   UNL     1      55.852   3.387  82.590  1.00  0.00     0.238 A 
ATOM      4  O   UNL     1      56.117   2.714  83.620  1.00  0.00    -0.285 OA
ATOM      5  C   UNL     1      56.618   4.523  82.235  1.00  0.00     0.111 A 
ATOM      6  C   UNL     1      57.784   4.964  82.930  1.00  0.00     0.134 A 
ATOM      7  C   UNL     1      58.387   6.176  82.568  1.00  0.00     0.093 A 
ATOM      8  C   UNL     1      57.904   6.929  81.495  1.00  0.00     0.123 A 
ATOM      9  C   UNL     1      56.803   6.477  80.773  1.00  0.00     0.094 A 
ATOM     10  C   UNL     1      56.158   5.290  81.133  1.00  0.00     0.146 A 
ATOM     11  O   UNL     1      55.105   4.900  80.424  1.00  0.00    -0.452 OA
ENDROOT
BRANCH   1  12
ATOM     12  C   UNL     1      53.268   3.466  79.808  1.00  0.00     0.025 A 
ATOM     13  C   UNL     1      53.474   2.953  78.515  1.00  0.00     0.016 A 
ATOM     14  C   UNL     1      52.384   2.664  77.689  1.00  0.00     0.051 A 
ATOM     15  C   UNL     1      51.077   2.897  78.134  1.00  0.00     0.157 A 
ATOM     16  C   UNL     1      51.956   3.718  80.243  1.00  0.00     0.062 A 
ATOM     17  C   UNL     1      50.863   3.429  79.417  1.00  0.00     0.158 A 
BRANCH  15  18
ATOM     18  O   UNL     1      49.993   2.606  77.308  1.00  0.00    -0.504 OA
ATOM     19  H   UNL     1      50.107   2.087  76.445  1.00  0.00     0.293 HD
ENDBRANCH  15  18
BRANCH  17  20
ATOM     20  O   UNL     1      49.575   3.679  79.888  1.00  0.00    -0.504 OA
ATOM     21  H   UNL     1      48.858   4.091  79.301  1.00  0.00     0.293 HD
ENDBRANCH  17  20
ENDBRANCH   1  12
BRANCH   2  22
ATOM     22  O   UNL     1      53.961   1.915  82.155  1.00  0.00    -0.502 OA
ATOM     23  H   UNL     1      53.781   1.655  83.118  1.00  0.00     0.293 HD
ENDBRANCH   2  22
BRANCH   6  24
ATOM     24  O   UNL     1      58.401   4.243  83.956  1.00  0.00    -0.507 OA
ATOM     25  H   UNL     1      58.229   4.383  84.940  1.00  0.00     0.293 HD
ENDBRANCH   6  24
BRANCH   8  26
ATOM     26  O   UNL     1      58.519   8.125  81.132  1.00  0.00    -0.508 OA
ATOM     27  H   UNL     1      57.978   8.952  80.905  1.00  0.00     0.293 HD
ENDBRANCH   8  26
TORSDOF 6
ENDMDL
MODEL 9
REMARK VINA RESULT:    -5.956      1.687      6.815
REMARK INTER + INTRA:          -7.390
REMARK INTER:                  -7.083
REMARK INTRA:                  -0.306
REMARK UNBOUND:                -0.215
REMARK SMILES O=c1c(O)c(-c2ccc(O)c(O)c2)oc2cc(O)cc(O)c12
REMARK SMILES IDX 5 1 3 2 2 3 1 4 22 5 20 6 19 7 17 8 16 9 15 10 14 11 6 12
REMARK SMILES IDX 7 13 8 14 9 15 13 16 11 17 10 18 12 20 4 22 21 24 18 26
REMARK H PARENT 10 19 12 21 4 23 21 25 18 27
REMARK Flexibility Score: inf
ROOT
ATOM      1  C   UNL     1      55.478   5.206  79.225  1.00  0.00     0.180 A 
ATOM      2  C   UNL     1      56.013   5.342  80.517  1.00  0.00     0.208 A 
ATOM      3  C   UNL     1      57.147   6.149  80.703  1.00  0.00     0.238 A 
ATOM      4  O   UNL     1      57.589   6.311  81.870  1.00  0.00    -0.285 OA
ATOM      5  C   UNL     1      57.741   6.797  79.593  1.00  0.00     0.111 A 
ATOM      6  C   UNL     1      58.914   7.606  79.659  1.00  0.00     0.134 A 
ATOM      7  C   UNL     1      59.337   8.304  78.521  1.00  0.00     0.093 A 
ATOM      8  C   UNL     1      58.666   8.170  77.302  1.00  0.00     0.123 A 
ATOM      9  C   UNL     1      57.555   7.336  77.214  1.00  0.00     0.094 A 
ATOM     10  C   UNL     1      57.087   6.655  78.341  1.00  0.00     0.146 A 
ATOM     11  O   UNL     1      56.018   5.878  78.215  1.00  0.00    -0.452 OA
ENDROOT
BRANCH   1  12
ATOM     12  C   UNL     1      54.300   4.353  78.945  1.00  0.00     0.025 A 
ATOM     13  C   UNL     1      54.445   3.048  78.440  1.00  0.00     0.016 A 
ATOM     14  C   UNL     1      53.319   2.270  78.161  1.00  0.00     0.051 A 
ATOM     15  C   UNL     1      52.033   2.786  78.367  1.00  0.00     0.157 A 
ATOM     16  C   UNL     1      53.009   4.874  79.131  1.00  0.00     0.062 A 
ATOM     17  C   UNL     1      51.878   4.096  78.852  1.00  0.00     0.158 A 
BRANCH  15  18
ATOM     18  O   UNL     1      50.911   2.007  78.090  1.00  0.00    -0.504 OA
ATOM     19  H   UNL     1      50.345   2.166  77.265  1.00  0.00     0.293 HD
ENDBRANCH  15  18
BRANCH  17  20
ATOM     20  O   UNL     1      50.613   4.642  79.062  1.00  0.00    -0.504 OA
ATOM     21  H   UNL     1      49.942   4.219  79.693  1.00  0.00     0.293 HD
ENDBRANCH  17  20
ENDBRANCH   1  12
BRANCH   2  22
ATOM     22  O   UNL     1      55.398   4.711  81.602  1.00  0.00    -0.502 OA
ATOM     23  H   UNL     1      54.479   4.976  81.936  1.00  0.00     0.293 HD
ENDBRANCH   2  22
BRANCH   6  24
ATOM     24  O   UNL     1      59.710   7.736  80.801  1.00  0.00    -0.507 OA
ATOM     25  H   UNL     1      60.514   7.163  81.008  1.00  0.00     0.293 HD
ENDBRANCH   6  24
BRANCH   8  26
ATOM     26  O   UNL     1      59.103   8.855  76.171  1.00  0.00    -0.508 OA
ATOM     27  H   UNL     1      60.039   9.242  76.113  1.00  0.00     0.293 HD
ENDBRANCH   8  26
TORSDOF 6
ENDMDL
