MODEL 1
REMARK VINA RESULT:    94.362      0.000      0.000
REMARK INTER + INTRA:         105.418
REMARK INTER:                 105.395
REMARK INTRA:                   0.023
REMARK UNBOUND:                 0.023
REMARK SMILES CC1(C)CC[C@@]2(CO)CC=C3[C@](C)(CC[C@@H]4[C@]5(C)CC[C@@H](O)C(C)(C)[C@@H]5CC[C@@]34C)[C@@H]2C1
REMARK SMILES IDX 1 1 2 2 4 3 5 4 6 5 9 6 10 7 11 8 29 9 28 10 27 11 26 12
REMARK SMILES IDX 23 13 21 14 20 15 19 16 17 17 16 18 15 19 14 20 12 21 31 22
REMARK SMILES IDX 32 23 13 24 18 25 24 26 25 27 30 28 3 29 7 30 8 31 22 33
REMARK H PARENT 8 32 22 34
REMARK Flexibility Score: inf
ROOT
ATOM      1  C   UNL     1     -29.648  26.458   4.062  1.00  0.00     0.011 C 
ATOM      2  C   UNL     1     -30.236  26.815   5.442  1.00  0.00    -0.035 C 
ATOM      3  C   UNL     1     -29.640  25.830   6.477  1.00  0.00     0.007 C 
ATOM      4  C   UNL     1     -30.357  25.867   7.838  1.00  0.00     0.010 C 
ATOM      5  C   UNL     1     -31.891  25.633   7.720  1.00  0.00     0.001 C 
ATOM      6  C   UNL     1     -32.500  25.898   9.105  1.00  0.00     0.037 C 
ATOM      7  C   UNL     1     -34.000  25.826   9.089  1.00  0.00    -0.026 C 
ATOM      8  C   UNL     1     -34.746  26.062   7.971  1.00  0.00    -0.062 C 
ATOM      9  C   UNL     1     -36.259  25.644   7.948  1.00  0.00    -0.008 C 
ATOM     10  C   UNL     1     -36.564  24.533   8.996  1.00  0.00     0.012 C 
ATOM     11  C   UNL     1     -37.961  23.927   8.877  1.00  0.00     0.006 C 
ATOM     12  C   UNL     1     -38.240  23.284   7.490  1.00  0.00     0.003 C 
ATOM     13  C   UNL     1     -39.708  22.643   7.442  1.00  0.00    -0.006 C 
ATOM     14  C   UNL     1     -40.764  23.782   7.236  1.00  0.00     0.120 C 
ATOM     15  C   UNL     1     -40.475  24.655   6.002  1.00  0.00     0.033 C 
ATOM     16  C   UNL     1     -39.073  25.268   6.064  1.00  0.00     0.010 C 
ATOM     17  C   UNL     1     -37.915  24.252   6.281  1.00  0.00    -0.025 C 
ATOM     18  C   UNL     1     -36.553  25.023   6.534  1.00  0.00     0.005 C 
ATOM     19  C   UNL     1     -36.172  26.023   5.404  1.00  0.00     0.006 C 
ATOM     20  C   UNL     1     -34.661  26.220   5.404  1.00  0.00     0.012 C 
ATOM     21  C   UNL     1     -34.097  26.781   6.746  1.00  0.00    -0.008 C 
ATOM     22  C   UNL     1     -32.495  26.703   6.756  1.00  0.00     0.008 C 
ATOM     23  C   UNL     1     -31.791  26.683   5.369  1.00  0.00     0.011 C 
ATOM     24  C   UNL     1     -34.482  28.284   6.825  1.00  0.00     0.016 C 
ATOM     25  C   UNL     1     -37.705  23.379   4.975  1.00  0.00     0.012 C 
ATOM     26  C   UNL     1     -40.034  21.878   8.757  1.00  0.00     0.014 C 
ATOM     27  C   UNL     1     -39.824  21.565   6.319  1.00  0.00     0.014 C 
ATOM     28  C   UNL     1     -37.078  26.918   8.316  1.00  0.00     0.016 C 
ATOM     29  C   UNL     1     -29.816  28.269   5.789  1.00  0.00     0.011 C 
ENDROOT
BRANCH   5  30
ATOM     30  C   UNL     1     -32.115  24.146   7.251  1.00  0.00     0.163 C 
BRANCH  30  31
ATOM     31  O   UNL     1     -32.342  23.255   8.313  1.00  0.00    -0.396 OA
ATOM     32  H   UNL     1     -33.275  22.928   8.206  1.00  0.00     0.210 HD
ENDBRANCH  30  31
ENDBRANCH   5  30
BRANCH  14  33
ATOM     33  O   UNL     1     -42.091  23.320   7.217  1.00  0.00    -0.393 OA
ATOM     34  H   UNL     1     -42.304  22.945   8.110  1.00  0.00     0.210 HD
ENDBRANCH  14  33
TORSDOF 3
ENDMDL
