MODEL 1
REMARK VINA RESULT:    -2.614      0.000      0.000
REMARK INTER + INTRA:          -6.539
REMARK INTER:                  -5.976
REMARK INTRA:                  -0.563
REMARK UNBOUND:                -0.563
REMARK SMILES CCCCCCCCCCCCCCCCCCCCCCCC(=O)[O-]
REMARK SMILES IDX 13 1 14 2 15 3 16 4 17 5 18 6 19 7 20 8 21 9 22 10 23 11
REMARK SMILES IDX 24 12 25 13 26 14 12 15 11 16 10 17 9 18 8 19 7 20 6 21 5 22
REMARK SMILES IDX 4 23 3 24 2 25 1 26
REMARK H PARENT
REMARK Flexibility Score: inf
ROOT
ATOM      1  C   UNL     1       1.580  24.086   9.845  1.00  0.00     0.000 C 
ENDROOT
BRANCH   1   2
ATOM      2  C   UNL     1       2.560  24.905   8.979  1.00  0.00     0.000 C 
BRANCH   2   3
ATOM      3  C   UNL     1       3.894  24.170   8.755  1.00  0.00     0.000 C 
BRANCH   3   4
ATOM      4  C   UNL     1       4.947  25.058   8.073  1.00  0.00     0.000 C 
BRANCH   4   5
ATOM      5  C   UNL     1       4.732  25.163   6.553  1.00  0.00     0.000 C 
BRANCH   5   6
ATOM      6  C   UNL     1       4.110  23.890   5.951  1.00  0.00     0.000 C 
BRANCH   6   7
ATOM      7  C   UNL     1       2.591  23.962   5.700  1.00  0.00     0.000 C 
BRANCH   7   8
ATOM      8  C   UNL     1       2.168  24.861   4.522  1.00  0.00     0.000 C 
BRANCH   8   9
ATOM      9  C   UNL     1       1.065  24.274   3.617  1.00  0.00     0.000 C 
BRANCH   9  10
ATOM     10  C   UNL     1      -0.319  24.146   4.280  1.00  0.00     0.006 C 
BRANCH  10  11
ATOM     11  C   UNL     1      -0.770  25.438   4.972  1.00  0.00     0.053 C 
BRANCH  11  12
ATOM     12  C   UNL     1      -0.267  25.478   6.381  1.00  0.00     0.041 C 
ATOM     13  O   UNL     1       0.407  26.462   6.786  1.00  0.00    -0.550 OA
ATOM     14  O   UNL     1      -0.586  24.453   7.263  1.00  0.00    -0.550 OA
ENDBRANCH  11  12
ENDBRANCH  10  11
ENDBRANCH   9  10
ENDBRANCH   8   9
ENDBRANCH   7   8
ENDBRANCH   6   7
ENDBRANCH   5   6
ENDBRANCH   4   5
ENDBRANCH   3   4
ENDBRANCH   2   3
ENDBRANCH   1   2
BRANCH   1  15
ATOM     15  C   UNL     1       0.609  24.948  10.669  1.00  0.00     0.000 C 
BRANCH  15  16
ATOM     16  C   UNL     1      -0.089  24.155  11.787  1.00  0.00     0.000 C 
BRANCH  16  17
ATOM     17  C   UNL     1      -1.125  24.993  12.557  1.00  0.00     0.000 C 
BRANCH  17  18
ATOM     18  C   UNL     1      -0.812  25.219  14.050  1.00  0.00    -0.000 C 
BRANCH  18  19
ATOM     19  C   UNL     1      -0.938  23.951  14.920  1.00  0.00    -0.000 C 
BRANCH  19  20
ATOM     20  C   UNL     1       0.122  23.895  16.035  1.00  0.00    -0.000 C 
BRANCH  20  21
ATOM     21  C   UNL     1       1.560  23.875  15.472  1.00  0.00    -0.000 C 
BRANCH  21  22
ATOM     22  C   UNL     1       2.094  25.269  15.102  1.00  0.00    -0.000 C 
BRANCH  22  23
ATOM     23  C   UNL     1       3.045  25.245  13.899  1.00  0.00    -0.000 C 
BRANCH  23  24
ATOM     24  C   UNL     1       3.782  23.900  13.807  1.00  0.00    -0.000 C 
BRANCH  24  25
ATOM     25  C   UNL     1       5.093  23.999  13.011  1.00  0.00    -0.003 C 
ATOM     26  C   UNL     1       4.872  24.413  11.557  1.00  0.00     0.004 C 
ENDBRANCH  24  25
ENDBRANCH  23  24
ENDBRANCH  22  23
ENDBRANCH  21  22
ENDBRANCH  20  21
ENDBRANCH  19  20
ENDBRANCH  18  19
ENDBRANCH  17  18
ENDBRANCH  16  17
ENDBRANCH  15  16
ENDBRANCH   1  15
TORSDOF 22
ENDMDL
MODEL 2
REMARK VINA RESULT:    -2.588      2.597      8.929
REMARK INTER + INTRA:          -6.480
REMARK INTER:                  -4.894
REMARK INTRA:                  -1.585
REMARK UNBOUND:                -0.563
REMARK SMILES CCCCCCCCCCCCCCCCCCCCCCCC(=O)[O-]
REMARK SMILES IDX 13 1 14 2 15 3 16 4 17 5 18 6 19 7 20 8 21 9 22 10 23 11
REMARK SMILES IDX 24 12 25 13 26 14 12 15 11 16 10 17 9 18 8 19 7 20 6 21 5 22
REMARK SMILES IDX 4 23 3 24 2 25 1 26
REMARK H PARENT
REMARK Flexibility Score: inf
ROOT
ATOM      1  C   UNL     1       3.099  25.126  10.119  1.00  0.00     0.000 C 
ENDROOT
BRANCH   1   2
ATOM      2  C   UNL     1       1.807  25.472   9.350  1.00  0.00     0.000 C 
BRANCH   2   3
ATOM      3  C   UNL     1       0.545  25.269  10.209  1.00  0.00     0.000 C 
BRANCH   3   4
ATOM      4  C   UNL     1       0.684  24.093  11.189  1.00  0.00     0.000 C 
BRANCH   4   5
ATOM      5  C   UNL     1      -0.557  23.922  12.082  1.00  0.00     0.000 C 
BRANCH   5   6
ATOM      6  C   UNL     1      -0.689  25.037  13.135  1.00  0.00     0.000 C 
BRANCH   6   7
ATOM      7  C   UNL     1      -1.125  24.563  14.535  1.00  0.00     0.000 C 
BRANCH   7   8
ATOM      8  C   UNL     1       0.014  24.443  15.567  1.00  0.00     0.000 C 
BRANCH   8   9
ATOM      9  C   UNL     1       1.371  25.018  15.109  1.00  0.00     0.000 C 
BRANCH   9  10
ATOM     10  C   UNL     1       2.530  24.004  15.082  1.00  0.00     0.006 C 
BRANCH  10  11
ATOM     11  C   UNL     1       3.178  23.878  13.698  1.00  0.00     0.053 C 
BRANCH  11  12
ATOM     12  C   UNL     1       4.486  24.604  13.666  1.00  0.00     0.041 C 
ATOM     13  O   UNL     1       5.564  23.976  13.834  1.00  0.00    -0.550 OA
ATOM     14  O   UNL     1       4.518  25.967  13.399  1.00  0.00    -0.550 OA
ENDBRANCH  11  12
ENDBRANCH  10  11
ENDBRANCH   9  10
ENDBRANCH   8   9
ENDBRANCH   7   8
ENDBRANCH   6   7
ENDBRANCH   5   6
ENDBRANCH   4   5
ENDBRANCH   3   4
ENDBRANCH   2   3
ENDBRANCH   1   2
BRANCH   1  15
ATOM     15  C   UNL     1       4.202  24.517   9.238  1.00  0.00     0.000 C 
BRANCH  15  16
ATOM     16  C   UNL     1       4.993  25.579   8.456  1.00  0.00     0.000 C 
BRANCH  16  17
ATOM     17  C   UNL     1       4.809  25.461   6.933  1.00  0.00     0.000 C 
BRANCH  17  18
ATOM     18  C   UNL     1       3.829  24.363   6.470  1.00  0.00    -0.000 C 
BRANCH  18  19
ATOM     19  C   UNL     1       3.214  24.613   5.078  1.00  0.00    -0.000 C 
BRANCH  19  20
ATOM     20  C   UNL     1       1.821  23.974   4.926  1.00  0.00    -0.000 C 
BRANCH  20  21
ATOM     21  C   UNL     1       1.062  23.907   6.268  1.00  0.00    -0.000 C 
BRANCH  21  22
ATOM     22  C   UNL     1      -0.468  23.878   6.107  1.00  0.00    -0.000 C 
BRANCH  22  23
ATOM     23  C   UNL     1      -0.925  24.219   4.683  1.00  0.00    -0.000 C 
BRANCH  23  24
ATOM     24  C   UNL     1      -0.331  25.557   4.220  1.00  0.00    -0.000 C 
BRANCH  24  25
ATOM     25  C   UNL     1      -0.976  26.072   2.923  1.00  0.00    -0.003 C 
ATOM     26  C   UNL     1      -1.125  27.593   2.901  1.00  0.00     0.004 C 
ENDBRANCH  24  25
ENDBRANCH  23  24
ENDBRANCH  22  23
ENDBRANCH  21  22
ENDBRANCH  20  21
ENDBRANCH  19  20
ENDBRANCH  18  19
ENDBRANCH  17  18
ENDBRANCH  16  17
ENDBRANCH  15  16
ENDBRANCH   1  15
TORSDOF 22
ENDMDL
MODEL 3
REMARK VINA RESULT:    -2.375      2.062      8.572
REMARK INTER + INTRA:          -5.992
REMARK INTER:                  -4.098
REMARK INTRA:                  -1.893
REMARK UNBOUND:                -0.563
REMARK SMILES CCCCCCCCCCCCCCCCCCCCCCCC(=O)[O-]
REMARK SMILES IDX 13 1 14 2 15 3 16 4 17 5 18 6 19 7 20 8 21 9 22 10 23 11
REMARK SMILES IDX 24 12 25 13 26 14 12 15 11 16 10 17 9 18 8 19 7 20 6 21 5 22
REMARK SMILES IDX 4 23 3 24 2 25 1 26
REMARK H PARENT
REMARK Flexibility Score: inf
ROOT
ATOM      1  C   UNL     1       0.659  24.779   9.023  1.00  0.00     0.000 C 
ENDROOT
BRANCH   1   2
ATOM      2  C   UNL     1       0.089  24.106  10.289  1.00  0.00     0.000 C 
BRANCH   2   3
ATOM      3  C   UNL     1      -0.494  25.130  11.280  1.00  0.00     0.000 C 
BRANCH   3   4
ATOM      4  C   UNL     1      -1.029  24.469  12.561  1.00  0.00     0.000 C 
BRANCH   4   5
ATOM      5  C   UNL     1      -0.977  25.413  13.775  1.00  0.00     0.000 C 
BRANCH   5   6
ATOM      6  C   UNL     1      -1.124  24.666  15.114  1.00  0.00     0.000 C 
BRANCH   6   7
ATOM      7  C   UNL     1       0.122  23.875  15.559  1.00  0.00     0.000 C 
BRANCH   7   8
ATOM      8  C   UNL     1       1.182  24.700  16.315  1.00  0.00     0.000 C 
BRANCH   8   9
ATOM      9  C   UNL     1       2.075  25.587  15.423  1.00  0.00     0.000 C 
BRANCH   9  10
ATOM     10  C   UNL     1       2.697  24.870  14.210  1.00  0.00     0.006 C 
BRANCH  10  11
ATOM     11  C   UNL     1       2.328  25.530  12.876  1.00  0.00     0.053 C 
BRANCH  11  12
ATOM     12  C   UNL     1       3.364  26.540  12.490  1.00  0.00     0.041 C 
ATOM     13  O   UNL     1       4.318  26.799  13.271  1.00  0.00    -0.550 OA
ATOM     14  O   UNL     1       3.305  27.157  11.247  1.00  0.00    -0.550 OA
ENDBRANCH  11  12
ENDBRANCH  10  11
ENDBRANCH   9  10
ENDBRANCH   8   9
ENDBRANCH   7   8
ENDBRANCH   6   7
ENDBRANCH   5   6
ENDBRANCH   4   5
ENDBRANCH   3   4
ENDBRANCH   2   3
ENDBRANCH   1   2
BRANCH   1  15
ATOM     15  C   UNL     1       2.164  25.084   9.106  1.00  0.00     0.000 C 
BRANCH  15  16
ATOM     16  C   UNL     1       2.969  23.941   9.746  1.00  0.00     0.000 C 
BRANCH  16  17
ATOM     17  C   UNL     1       4.486  24.200   9.737  1.00  0.00     0.000 C 
BRANCH  17  18
ATOM     18  C   UNL     1       5.152  24.165   8.346  1.00  0.00    -0.000 C 
BRANCH  18  19
ATOM     19  C   UNL     1       4.976  25.462   7.530  1.00  0.00    -0.000 C 
BRANCH  19  20
ATOM     20  C   UNL     1       4.765  25.189   6.029  1.00  0.00    -0.000 C 
BRANCH  20  21
ATOM     21  C   UNL     1       3.928  23.916   5.781  1.00  0.00    -0.000 C 
BRANCH  21  22
ATOM     22  C   UNL     1       2.423  24.112   6.032  1.00  0.00    -0.000 C 
BRANCH  22  23
ATOM     23  C   UNL     1       1.861  25.365   5.347  1.00  0.00    -0.000 C 
BRANCH  23  24
ATOM     24  C   UNL     1       0.329  25.304   5.258  1.00  0.00    -0.000 C 
BRANCH  24  25
ATOM     25  C   UNL     1      -0.202  25.778   3.896  1.00  0.00    -0.003 C 
ATOM     26  C   UNL     1      -1.065  24.726   3.199  1.00  0.00     0.004 C 
ENDBRANCH  24  25
ENDBRANCH  23  24
ENDBRANCH  22  23
ENDBRANCH  21  22
ENDBRANCH  20  21
ENDBRANCH  19  20
ENDBRANCH  18  19
ENDBRANCH  17  18
ENDBRANCH  16  17
ENDBRANCH  15  16
ENDBRANCH   1  15
TORSDOF 22
ENDMDL
MODEL 4
REMARK VINA RESULT:    -2.277      2.640      8.148
REMARK INTER + INTRA:          -5.769
REMARK INTER:                  -5.603
REMARK INTRA:                  -0.165
REMARK UNBOUND:                -0.563
REMARK SMILES CCCCCCCCCCCCCCCCCCCCCCCC(=O)[O-]
REMARK SMILES IDX 13 1 14 2 15 3 16 4 17 5 18 6 19 7 20 8 21 9 22 10 23 11
REMARK SMILES IDX 24 12 25 13 26 14 12 15 11 16 10 17 9 18 8 19 7 20 6 21 5 22
REMARK SMILES IDX 4 23 3 24 2 25 1 26
REMARK H PARENT
REMARK Flexibility Score: inf
ROOT
ATOM      1  C   UNL     1       0.847  24.713   8.123  1.00  0.00     0.000 C 
ENDROOT
BRANCH   1   2
ATOM      2  C   UNL     1       0.559  25.540   9.394  1.00  0.00     0.000 C 
BRANCH   2   3
ATOM      3  C   UNL     1      -0.826  25.228   9.991  1.00  0.00     0.000 C 
BRANCH   3   4
ATOM      4  C   UNL     1      -0.823  23.951  10.847  1.00  0.00     0.000 C 
BRANCH   4   5
ATOM      5  C   UNL     1       0.254  23.982  11.946  1.00  0.00     0.000 C 
BRANCH   5   6
ATOM      6  C   UNL     1       1.683  23.909  11.378  1.00  0.00     0.000 C 
BRANCH   6   7
ATOM      7  C   UNL     1       2.620  25.049  11.824  1.00  0.00     0.000 C 
BRANCH   7   8
ATOM      8  C   UNL     1       2.261  25.697  13.175  1.00  0.00     0.000 C 
BRANCH   8   9
ATOM      9  C   UNL     1       2.878  25.011  14.411  1.00  0.00     0.000 C 
BRANCH   9  10
ATOM     10  C   UNL     1       1.885  24.206  15.271  1.00  0.00     0.006 C 
BRANCH  10  11
ATOM     11  C   UNL     1       0.733  25.063  15.810  1.00  0.00     0.053 C 
BRANCH  11  12
ATOM     12  C   UNL     1      -0.543  24.282  15.806  1.00  0.00     0.041 C 
ATOM     13  O   UNL     1      -1.120  24.004  16.891  1.00  0.00    -0.550 OA
ATOM     14  O   UNL     1      -1.125  23.906  14.602  1.00  0.00    -0.550 OA
ENDBRANCH  11  12
ENDBRANCH  10  11
ENDBRANCH   9  10
ENDBRANCH   8   9
ENDBRANCH   7   8
ENDBRANCH   6   7
ENDBRANCH   5   6
ENDBRANCH   4   5
ENDBRANCH   3   4
ENDBRANCH   2   3
ENDBRANCH   1   2
BRANCH   1  15
ATOM     15  C   UNL     1      -0.410  24.106   7.479  1.00  0.00     0.000 C 
BRANCH  15  16
ATOM     16  C   UNL     1      -1.046  25.030   6.427  1.00  0.00     0.000 C 
BRANCH  16  17
ATOM     17  C   UNL     1      -0.856  24.517   4.989  1.00  0.00     0.000 C 
BRANCH  17  18
ATOM     18  C   UNL     1      -0.198  25.514   4.013  1.00  0.00    -0.000 C 
BRANCH  18  19
ATOM     19  C   UNL     1       0.818  24.873   3.046  1.00  0.00    -0.000 C 
BRANCH  19  20
ATOM     20  C   UNL     1       1.755  23.876   3.752  1.00  0.00    -0.000 C 
BRANCH  20  21
ATOM     21  C   UNL     1       2.179  24.367   5.153  1.00  0.00    -0.000 C 
BRANCH  21  22
ATOM     22  C   UNL     1       3.633  24.015   5.512  1.00  0.00    -0.000 C 
BRANCH  22  23
ATOM     23  C   UNL     1       4.368  25.163   6.218  1.00  0.00    -0.000 C 
BRANCH  23  24
ATOM     24  C   UNL     1       5.180  24.643   7.414  1.00  0.00    -0.000 C 
BRANCH  24  25
ATOM     25  C   UNL     1       4.300  24.339   8.637  1.00  0.00    -0.003 C 
ATOM     26  C   UNL     1       5.100  24.270   9.938  1.00  0.00     0.004 C 
ENDBRANCH  24  25
ENDBRANCH  23  24
ENDBRANCH  22  23
ENDBRANCH  21  22
ENDBRANCH  20  21
ENDBRANCH  19  20
ENDBRANCH  18  19
ENDBRANCH  17  18
ENDBRANCH  16  17
ENDBRANCH  15  16
ENDBRANCH   1  15
TORSDOF 22
ENDMDL
MODEL 5
REMARK VINA RESULT:    -2.242      2.366      8.429
REMARK INTER + INTRA:          -5.689
REMARK INTER:                  -2.707
REMARK INTRA:                  -2.982
REMARK UNBOUND:                -0.563
REMARK SMILES CCCCCCCCCCCCCCCCCCCCCCCC(=O)[O-]
REMARK SMILES IDX 13 1 14 2 15 3 16 4 17 5 18 6 19 7 20 8 21 9 22 10 23 11
REMARK SMILES IDX 24 12 25 13 26 14 12 15 11 16 10 17 9 18 8 19 7 20 6 21 5 22
REMARK SMILES IDX 4 23 3 24 2 25 1 26
REMARK H PARENT
REMARK Flexibility Score: inf
ROOT
ATOM      1  C   UNL     1       4.177  25.092   9.258  1.00  0.00     0.000 C 
ENDROOT
BRANCH   1   2
ATOM      2  C   UNL     1       2.764  25.241   9.859  1.00  0.00     0.000 C 
BRANCH   2   3
ATOM      3  C   UNL     1       2.075  23.881  10.075  1.00  0.00     0.000 C 
BRANCH   3   4
ATOM      4  C   UNL     1       1.130  23.886  11.287  1.00  0.00     0.000 C 
BRANCH   4   5
ATOM      5  C   UNL     1       0.392  25.226  11.451  1.00  0.00     0.000 C 
BRANCH   5   6
ATOM      6  C   UNL     1      -0.992  25.066  12.108  1.00  0.00     0.000 C 
BRANCH   6   7
ATOM      7  C   UNL     1      -1.104  23.905  13.115  1.00  0.00     0.000 C 
BRANCH   7   8
ATOM      8  C   UNL     1      -0.681  24.250  14.557  1.00  0.00     0.000 C 
BRANCH   8   9
ATOM      9  C   UNL     1       0.491  25.246  14.672  1.00  0.00     0.000 C 
BRANCH   9  10
ATOM     10  C   UNL     1       1.868  24.603  14.917  1.00  0.00     0.006 C 
BRANCH  10  11
ATOM     11  C   UNL     1       3.012  25.625  14.910  1.00  0.00     0.053 C 
BRANCH  11  12
ATOM     12  C   UNL     1       3.806  25.509  13.646  1.00  0.00     0.041 C 
ATOM     13  O   UNL     1       4.089  26.540  12.979  1.00  0.00    -0.550 OA
ATOM     14  O   UNL     1       4.280  24.271  13.233  1.00  0.00    -0.550 OA
ENDBRANCH  11  12
ENDBRANCH  10  11
ENDBRANCH   9  10
ENDBRANCH   8   9
ENDBRANCH   7   8
ENDBRANCH   6   7
ENDBRANCH   5   6
ENDBRANCH   4   5
ENDBRANCH   3   4
ENDBRANCH   2   3
ENDBRANCH   1   2
BRANCH   1  15
ATOM     15  C   UNL     1       4.604  26.275   8.373  1.00  0.00     0.000 C 
BRANCH  15  16
ATOM     16  C   UNL     1       5.036  25.838   6.963  1.00  0.00     0.000 C 
BRANCH  16  17
ATOM     17  C   UNL     1       4.616  24.396   6.629  1.00  0.00     0.000 C 
BRANCH  17  18
ATOM     18  C   UNL     1       3.542  24.260   5.530  1.00  0.00    -0.000 C 
BRANCH  18  19
ATOM     19  C   UNL     1       2.144  23.875   6.059  1.00  0.00    -0.000 C 
BRANCH  19  20
ATOM     20  C   UNL     1       1.075  23.875   4.950  1.00  0.00    -0.000 C 
BRANCH  20  21
ATOM     21  C   UNL     1       1.182  25.116   4.037  1.00  0.00    -0.000 C 
BRANCH  21  22
ATOM     22  C   UNL     1      -0.113  25.943   3.971  1.00  0.00    -0.000 C 
BRANCH  22  23
ATOM     23  C   UNL     1      -0.891  25.942   5.293  1.00  0.00    -0.000 C 
BRANCH  23  24
ATOM     24  C   UNL     1      -0.322  26.984   6.267  1.00  0.00    -0.000 C 
BRANCH  24  25
ATOM     25  C   UNL     1       0.237  26.349   7.550  1.00  0.00    -0.003 C 
ATOM     26  C   UNL     1      -0.758  25.407   8.226  1.00  0.00     0.004 C 
ENDBRANCH  24  25
ENDBRANCH  23  24
ENDBRANCH  22  23
ENDBRANCH  21  22
ENDBRANCH  20  21
ENDBRANCH  19  20
ENDBRANCH  18  19
ENDBRANCH  17  18
ENDBRANCH  16  17
ENDBRANCH  15  16
ENDBRANCH   1  15
TORSDOF 22
ENDMDL
MODEL 6
REMARK VINA RESULT:    -2.113      2.034      8.342
REMARK INTER + INTRA:          -5.393
REMARK INTER:                  -3.918
REMARK INTRA:                  -1.475
REMARK UNBOUND:                -0.563
REMARK SMILES CCCCCCCCCCCCCCCCCCCCCCCC(=O)[O-]
REMARK SMILES IDX 13 1 14 2 15 3 16 4 17 5 18 6 19 7 20 8 21 9 22 10 23 11
REMARK SMILES IDX 24 12 25 13 26 14 12 15 11 16 10 17 9 18 8 19 7 20 6 21 5 22
REMARK SMILES IDX 4 23 3 24 2 25 1 26
REMARK H PARENT
REMARK Flexibility Score: inf
ROOT
ATOM      1  C   UNL     1      -0.433  24.748   9.164  1.00  0.00     0.000 C 
ENDROOT
BRANCH   1   2
ATOM      2  C   UNL     1      -0.023  24.272  10.574  1.00  0.00     0.000 C 
BRANCH   2   3
ATOM      3  C   UNL     1      -1.123  24.535  11.619  1.00  0.00     0.000 C 
BRANCH   3   4
ATOM      4  C   UNL     1      -0.972  25.905  12.300  1.00  0.00     0.000 C 
BRANCH   4   5
ATOM      5  C   UNL     1      -1.118  25.821  13.829  1.00  0.00     0.000 C 
BRANCH   5   6
ATOM      6  C   UNL     1      -1.066  24.374  14.352  1.00  0.00     0.000 C 
BRANCH   6   7
ATOM      7  C   UNL     1       0.294  23.940  14.935  1.00  0.00     0.000 C 
BRANCH   7   8
ATOM      8  C   UNL     1       1.033  25.027  15.740  1.00  0.00     0.000 C 
BRANCH   8   9
ATOM      9  C   UNL     1       2.441  25.381  15.217  1.00  0.00     0.000 C 
BRANCH   9  10
ATOM     10  C   UNL     1       2.461  26.234  13.935  1.00  0.00     0.006 C 
BRANCH  10  11
ATOM     11  C   UNL     1       3.803  26.165  13.196  1.00  0.00     0.053 C 
BRANCH  11  12
ATOM     12  C   UNL     1       3.750  25.132  12.114  1.00  0.00     0.041 C 
ATOM     13  O   UNL     1       4.452  24.089  12.199  1.00  0.00    -0.550 OA
ATOM     14  O   UNL     1       2.888  25.295  11.038  1.00  0.00    -0.550 OA
ENDBRANCH  11  12
ENDBRANCH  10  11
ENDBRANCH   9  10
ENDBRANCH   8   9
ENDBRANCH   7   8
ENDBRANCH   6   7
ENDBRANCH   5   6
ENDBRANCH   4   5
ENDBRANCH   3   4
ENDBRANCH   2   3
ENDBRANCH   1   2
BRANCH   1  15
ATOM     15  C   UNL     1       0.745  25.248   8.311  1.00  0.00     0.000 C 
BRANCH  15  16
ATOM     16  C   UNL     1       0.587  26.716   7.880  1.00  0.00     0.000 C 
BRANCH  16  17
ATOM     17  C   UNL     1      -0.125  26.868   6.525  1.00  0.00     0.000 C 
BRANCH  17  18
ATOM     18  C   UNL     1      -0.009  25.655   5.579  1.00  0.00    -0.000 C 
BRANCH  18  19
ATOM     19  C   UNL     1       0.188  26.029   4.095  1.00  0.00    -0.000 C 
BRANCH  19  20
ATOM     20  C   UNL     1       0.619  24.826   3.237  1.00  0.00    -0.000 C 
BRANCH  20  21
ATOM     21  C   UNL     1       1.585  23.887   3.993  1.00  0.00    -0.000 C 
BRANCH  21  22
ATOM     22  C   UNL     1       2.561  24.629   4.922  1.00  0.00    -0.000 C 
BRANCH  22  23
ATOM     23  C   UNL     1       3.886  23.880   5.117  1.00  0.00    -0.000 C 
BRANCH  23  24
ATOM     24  C   UNL     1       4.328  23.919   6.588  1.00  0.00    -0.000 C 
BRANCH  24  25
ATOM     25  C   UNL     1       4.720  25.332   7.049  1.00  0.00    -0.003 C 
ATOM     26  C   UNL     1       5.297  25.354   8.464  1.00  0.00     0.004 C 
ENDBRANCH  24  25
ENDBRANCH  23  24
ENDBRANCH  22  23
ENDBRANCH  21  22
ENDBRANCH  20  21
ENDBRANCH  19  20
ENDBRANCH  18  19
ENDBRANCH  17  18
ENDBRANCH  16  17
ENDBRANCH  15  16
ENDBRANCH   1  15
TORSDOF 22
ENDMDL
MODEL 7
REMARK VINA RESULT:    -2.043      1.312      6.742
REMARK INTER + INTRA:          -5.234
REMARK INTER:                  -3.280
REMARK INTRA:                  -1.954
REMARK UNBOUND:                -0.563
REMARK SMILES CCCCCCCCCCCCCCCCCCCCCCCC(=O)[O-]
REMARK SMILES IDX 13 1 14 2 15 3 16 4 17 5 18 6 19 7 20 8 21 9 22 10 23 11
REMARK SMILES IDX 24 12 25 13 26 14 12 15 11 16 10 17 9 18 8 19 7 20 6 21 5 22
REMARK SMILES IDX 4 23 3 24 2 25 1 26
REMARK H PARENT
REMARK Flexibility Score: inf
ROOT
ATOM      1  C   UNL     1       4.149  24.982  14.644  1.00  0.00     0.000 C 
ENDROOT
BRANCH   1   2
ATOM      2  C   UNL     1       2.833  25.674  15.056  1.00  0.00     0.000 C 
BRANCH   2   3
ATOM      3  C   UNL     1       1.592  24.878  14.611  1.00  0.00     0.000 C 
BRANCH   3   4
ATOM      4  C   UNL     1       0.468  25.787  14.086  1.00  0.00     0.000 C 
BRANCH   4   5
ATOM      5  C   UNL     1      -0.907  25.096  14.113  1.00  0.00     0.000 C 
BRANCH   5   6
ATOM      6  C   UNL     1      -0.978  23.880  13.172  1.00  0.00     0.000 C 
BRANCH   6   7
ATOM      7  C   UNL     1      -1.125  24.221  11.676  1.00  0.00     0.000 C 
BRANCH   7   8
ATOM      8  C   UNL     1       0.203  24.376  10.910  1.00  0.00     0.000 C 
BRANCH   8   9
ATOM      9  C   UNL     1       0.160  23.928   9.434  1.00  0.00     0.000 C 
BRANCH   9  10
ATOM     10  C   UNL     1      -1.083  24.388   8.651  1.00  0.00     0.006 C 
BRANCH  10  11
ATOM     11  C   UNL     1      -0.785  24.675   7.175  1.00  0.00     0.053 C 
BRANCH  11  12
ATOM     12  C   UNL     1      -0.526  26.135   6.970  1.00  0.00     0.041 C 
ATOM     13  O   UNL     1       0.066  26.805   7.857  1.00  0.00    -0.550 OA
ATOM     14  O   UNL     1      -0.892  26.745   5.777  1.00  0.00    -0.550 OA
ENDBRANCH  11  12
ENDBRANCH  10  11
ENDBRANCH   9  10
ENDBRANCH   8   9
ENDBRANCH   7   8
ENDBRANCH   6   7
ENDBRANCH   5   6
ENDBRANCH   4   5
ENDBRANCH   3   4
ENDBRANCH   2   3
ENDBRANCH   1   2
BRANCH   1  15
ATOM     15  C   UNL     1       4.426  25.026  13.131  1.00  0.00     0.000 C 
BRANCH  15  16
ATOM     16  C   UNL     1       3.942  26.330  12.475  1.00  0.00     0.000 C 
BRANCH  16  17
ATOM     17  C   UNL     1       2.872  26.094  11.395  1.00  0.00     0.000 C 
BRANCH  17  18
ATOM     18  C   UNL     1       3.413  25.708  10.003  1.00  0.00    -0.000 C 
BRANCH  18  19
ATOM     19  C   UNL     1       3.875  24.241   9.891  1.00  0.00    -0.000 C 
BRANCH  19  20
ATOM     20  C   UNL     1       4.944  24.042   8.801  1.00  0.00    -0.000 C 
BRANCH  20  21
ATOM     21  C   UNL     1       4.821  25.083   7.667  1.00  0.00    -0.000 C 
BRANCH  21  22
ATOM     22  C   UNL     1       4.592  24.458   6.281  1.00  0.00    -0.000 C 
BRANCH  22  23
ATOM     23  C   UNL     1       3.183  23.875   6.113  1.00  0.00    -0.000 C 
BRANCH  23  24
ATOM     24  C   UNL     1       2.259  24.868   5.393  1.00  0.00    -0.000 C 
BRANCH  24  25
ATOM     25  C   UNL     1       1.829  24.372   4.003  1.00  0.00    -0.003 C 
ATOM     26  C   UNL     1       0.310  24.319   3.838  1.00  0.00     0.004 C 
ENDBRANCH  24  25
ENDBRANCH  23  24
ENDBRANCH  22  23
ENDBRANCH  21  22
ENDBRANCH  20  21
ENDBRANCH  19  20
ENDBRANCH  18  19
ENDBRANCH  17  18
ENDBRANCH  16  17
ENDBRANCH  15  16
ENDBRANCH   1  15
TORSDOF 22
ENDMDL
MODEL 8
REMARK VINA RESULT:    -2.014      1.467      7.923
REMARK INTER + INTRA:          -5.168
REMARK INTER:                  -3.726
REMARK INTRA:                  -1.442
REMARK UNBOUND:                -0.563
REMARK SMILES CCCCCCCCCCCCCCCCCCCCCCCC(=O)[O-]
REMARK SMILES IDX 13 1 14 2 15 3 16 4 17 5 18 6 19 7 20 8 21 9 22 10 23 11
REMARK SMILES IDX 24 12 25 13 26 14 12 15 11 16 10 17 9 18 8 19 7 20 6 21 5 22
REMARK SMILES IDX 4 23 3 24 2 25 1 26
REMARK H PARENT
REMARK Flexibility Score: inf
ROOT
ATOM      1  C   UNL     1       3.889  26.026  10.410  1.00  0.00     0.000 C 
ENDROOT
BRANCH   1   2
ATOM      2  C   UNL     1       3.742  25.785  11.927  1.00  0.00     0.000 C 
BRANCH   2   3
ATOM      3  C   UNL     1       4.203  24.376  12.340  1.00  0.00     0.000 C 
BRANCH   3   4
ATOM      4  C   UNL     1       3.819  24.032  13.789  1.00  0.00     0.000 C 
BRANCH   4   5
ATOM      5  C   UNL     1       3.385  25.271  14.591  1.00  0.00     0.000 C 
BRANCH   5   6
ATOM      6  C   UNL     1       1.858  25.473  14.590  1.00  0.00     0.000 C 
BRANCH   6   7
ATOM      7  C   UNL     1       1.167  25.219  15.944  1.00  0.00     0.000 C 
BRANCH   7   8
ATOM      8  C   UNL     1       0.199  24.019  15.966  1.00  0.00     0.000 C 
BRANCH   8   9
ATOM      9  C   UNL     1      -0.853  24.010  14.838  1.00  0.00     0.000 C 
BRANCH   9  10
ATOM     10  C   UNL     1      -0.277  23.897  13.414  1.00  0.00     0.006 C 
BRANCH  10  11
ATOM     11  C   UNL     1      -1.090  24.684  12.379  1.00  0.00     0.053 C 
BRANCH  11  12
ATOM     12  C   UNL     1      -0.339  24.775  11.087  1.00  0.00     0.041 C 
ATOM     13  O   UNL     1       0.734  24.135  10.931  1.00  0.00    -0.550 OA
ATOM     14  O   UNL     1      -0.852  25.524  10.036  1.00  0.00    -0.550 OA
ENDBRANCH  11  12
ENDBRANCH  10  11
ENDBRANCH   9  10
ENDBRANCH   8   9
ENDBRANCH   7   8
ENDBRANCH   6   7
ENDBRANCH   5   6
ENDBRANCH   4   5
ENDBRANCH   3   4
ENDBRANCH   2   3
ENDBRANCH   1   2
BRANCH   1  15
ATOM     15  C   UNL     1       4.482  24.830   9.645  1.00  0.00     0.000 C 
BRANCH  15  16
ATOM     16  C   UNL     1       5.090  25.232   8.291  1.00  0.00     0.000 C 
BRANCH  16  17
ATOM     17  C   UNL     1       4.156  24.938   7.105  1.00  0.00     0.000 C 
BRANCH  17  18
ATOM     18  C   UNL     1       3.059  23.888   7.374  1.00  0.00    -0.000 C 
BRANCH  18  19
ATOM     19  C   UNL     1       1.741  24.478   7.917  1.00  0.00    -0.000 C 
BRANCH  19  20
ATOM     20  C   UNL     1       1.424  25.860   7.316  1.00  0.00    -0.000 C 
BRANCH  20  21
ATOM     21  C   UNL     1      -0.000  25.925   6.723  1.00  0.00    -0.000 C 
BRANCH  21  22
ATOM     22  C   UNL     1      -0.792  24.615   6.881  1.00  0.00    -0.000 C 
BRANCH  22  23
ATOM     23  C   UNL     1      -1.114  23.945   5.539  1.00  0.00    -0.000 C 
BRANCH  23  24
ATOM     24  C   UNL     1      -0.334  24.606   4.393  1.00  0.00    -0.000 C 
BRANCH  24  25
ATOM     25  C   UNL     1       1.004  23.905   4.108  1.00  0.00    -0.003 C 
ATOM     26  C   UNL     1       1.753  24.518   2.925  1.00  0.00     0.004 C 
ENDBRANCH  24  25
ENDBRANCH  23  24
ENDBRANCH  22  23
ENDBRANCH  21  22
ENDBRANCH  20  21
ENDBRANCH  19  20
ENDBRANCH  18  19
ENDBRANCH  17  18
ENDBRANCH  16  17
ENDBRANCH  15  16
ENDBRANCH   1  15
TORSDOF 22
ENDMDL
MODEL 9
REMARK VINA RESULT:    -1.950      1.129      2.111
REMARK INTER + INTRA:          -5.022
REMARK INTER:                  -3.334
REMARK INTRA:                  -1.689
REMARK UNBOUND:                -0.563
REMARK SMILES CCCCCCCCCCCCCCCCCCCCCCCC(=O)[O-]
REMARK SMILES IDX 13 1 14 2 15 3 16 4 17 5 18 6 19 7 20 8 21 9 22 10 23 11
REMARK SMILES IDX 24 12 25 13 26 14 12 15 11 16 10 17 9 18 8 19 7 20 6 21 5 22
REMARK SMILES IDX 4 23 3 24 2 25 1 26
REMARK H PARENT
REMARK Flexibility Score: inf
ROOT
ATOM      1  C   UNL     1       2.264  25.761   9.807  1.00  0.00     0.000 C 
ENDROOT
BRANCH   1   2
ATOM      2  C   UNL     1       2.579  24.813   8.631  1.00  0.00     0.000 C 
BRANCH   2   3
ATOM      3  C   UNL     1       4.022  24.277   8.686  1.00  0.00     0.000 C 
BRANCH   3   4
ATOM      4  C   UNL     1       4.913  24.874   7.585  1.00  0.00     0.000 C 
BRANCH   4   5
ATOM      5  C   UNL     1       4.830  24.085   6.267  1.00  0.00     0.000 C 
BRANCH   5   6
ATOM      6  C   UNL     1       4.013  24.818   5.187  1.00  0.00     0.000 C 
BRANCH   6   7
ATOM      7  C   UNL     1       3.155  23.906   4.288  1.00  0.00     0.000 C 
BRANCH   7   8
ATOM      8  C   UNL     1       1.647  23.910   4.606  1.00  0.00     0.000 C 
BRANCH   8   9
ATOM      9  C   UNL     1       0.854  25.081   3.990  1.00  0.00     0.000 C 
BRANCH   9  10
ATOM     10  C   UNL     1      -0.660  25.059   4.270  1.00  0.00     0.006 C 
BRANCH  10  11
ATOM     11  C   UNL     1      -1.097  26.137   5.270  1.00  0.00     0.053 C 
BRANCH  11  12
ATOM     12  C   UNL     1      -0.489  25.878   6.613  1.00  0.00     0.041 C 
ATOM     13  O   UNL     1       0.505  26.549   6.999  1.00  0.00    -0.550 OA
ATOM     14  O   UNL     1      -1.052  24.933   7.461  1.00  0.00    -0.550 OA
ENDBRANCH  11  12
ENDBRANCH  10  11
ENDBRANCH   9  10
ENDBRANCH   8   9
ENDBRANCH   7   8
ENDBRANCH   6   7
ENDBRANCH   5   6
ENDBRANCH   4   5
ENDBRANCH   3   4
ENDBRANCH   2   3
ENDBRANCH   1   2
BRANCH   1  15
ATOM     15  C   UNL     1       2.627  25.183  11.185  1.00  0.00     0.000 C 
BRANCH  15  16
ATOM     16  C   UNL     1       1.791  23.944  11.551  1.00  0.00     0.000 C 
BRANCH  16  17
ATOM     17  C   UNL     1       0.459  23.875  10.784  1.00  0.00     0.000 C 
BRANCH  17  18
ATOM     18  C   UNL     1      -0.802  24.159  11.625  1.00  0.00    -0.000 C 
BRANCH  18  19
ATOM     19  C   UNL     1      -0.887  25.601  12.167  1.00  0.00    -0.000 C 
BRANCH  19  20
ATOM     20  C   UNL     1      -1.065  25.645  13.696  1.00  0.00    -0.000 C 
BRANCH  20  21
ATOM     21  C   UNL     1      -1.015  24.238  14.330  1.00  0.00    -0.000 C 
BRANCH  21  22
ATOM     22  C   UNL     1      -0.763  24.256  15.847  1.00  0.00    -0.000 C 
BRANCH  22  23
ATOM     23  C   UNL     1       0.652  24.723  16.212  1.00  0.00    -0.000 C 
BRANCH  23  24
ATOM     24  C   UNL     1       1.620  24.519  15.037  1.00  0.00    -0.000 C 
BRANCH  24  25
ATOM     25  C   UNL     1       2.334  25.817  14.628  1.00  0.00    -0.003 C 
ATOM     26  C   UNL     1       3.848  25.644  14.501  1.00  0.00     0.004 C 
ENDBRANCH  24  25
ENDBRANCH  23  24
ENDBRANCH  22  23
ENDBRANCH  21  22
ENDBRANCH  20  21
ENDBRANCH  19  20
ENDBRANCH  18  19
ENDBRANCH  17  18
ENDBRANCH  16  17
ENDBRANCH  15  16
ENDBRANCH   1  15
TORSDOF 22
ENDMDL
