MODEL 1
REMARK VINA RESULT:    -4.320      0.000      0.000
REMARK INTER + INTRA:          -9.440
REMARK INTER:                  -7.856
REMARK INTRA:                  -1.585
REMARK UNBOUND:                -1.585
REMARK SMILES CCCCCCCCCCCCCCCC(=O)[O-]
REMARK SMILES IDX 9 1 10 2 11 3 12 4 13 5 14 6 15 7 16 8 17 9 18 10 8 11 7 12
REMARK SMILES IDX 6 13 5 14 4 15 3 16 2 17 1 18
REMARK H PARENT
REMARK Flexibility Score: inf
ROOT
ATOM      1  C   UNL     1      -7.125  62.642 -12.211  1.00  0.00     0.000 C 
ENDROOT
BRANCH   1   2
ATOM      2  C   UNL     1      -8.014  62.956 -10.993  1.00  0.00     0.000 C 
BRANCH   2   3
ATOM      3  C   UNL     1      -7.264  63.708  -9.884  1.00  0.00     0.000 C 
BRANCH   3   4
ATOM      4  C   UNL     1      -6.965  62.782  -8.699  1.00  0.00     0.000 C 
BRANCH   4   5
ATOM      5  C   UNL     1      -5.455  62.633  -8.482  1.00  0.00     0.000 C 
BRANCH   5   6
ATOM      6  C   UNL     1      -5.109  61.234  -7.954  1.00  0.00     0.006 C 
BRANCH   6   7
ATOM      7  C   UNL     1      -5.687  60.120  -8.836  1.00  0.00     0.053 C 
BRANCH   7   8
ATOM      8  C   UNL     1      -4.747  59.741  -9.940  1.00  0.00     0.041 C 
ATOM      9  O   UNL     1      -5.152  59.700 -11.131  1.00  0.00    -0.550 OA
ATOM     10  O   UNL     1      -3.414  59.466  -9.656  1.00  0.00    -0.550 OA
ENDBRANCH   7   8
ENDBRANCH   6   7
ENDBRANCH   5   6
ENDBRANCH   4   5
ENDBRANCH   3   4
ENDBRANCH   2   3
ENDBRANCH   1   2
BRANCH   1  11
ATOM     11  C   UNL     1      -7.196  63.674 -13.355  1.00  0.00     0.000 C 
BRANCH  11  12
ATOM     12  C   UNL     1      -6.089  64.744 -13.341  1.00  0.00    -0.000 C 
BRANCH  12  13
ATOM     13  C   UNL     1      -6.497  66.093 -12.722  1.00  0.00    -0.000 C 
BRANCH  13  14
ATOM     14  C   UNL     1      -7.677  66.779 -13.444  1.00  0.00    -0.000 C 
BRANCH  14  15
ATOM     15  C   UNL     1      -9.007  66.624 -12.686  1.00  0.00    -0.000 C 
BRANCH  15  16
ATOM     16  C   UNL     1      -8.977  67.314 -11.307  1.00  0.00    -0.000 C 
BRANCH  16  17
ATOM     17  C   UNL     1      -9.508  66.433 -10.165  1.00  0.00    -0.003 C 
ATOM     18  C   UNL     1      -9.259  67.031  -8.782  1.00  0.00     0.004 C 
ENDBRANCH  16  17
ENDBRANCH  15  16
ENDBRANCH  14  15
ENDBRANCH  13  14
ENDBRANCH  12  13
ENDBRANCH  11  12
ENDBRANCH   1  11
TORSDOF 14
ENDMDL
MODEL 2
REMARK VINA RESULT:    -4.270      1.384      3.495
REMARK INTER + INTRA:          -9.349
REMARK INTER:                  -7.831
REMARK INTRA:                  -1.518
REMARK UNBOUND:                -1.585
REMARK SMILES CCCCCCCCCCCCCCCC(=O)[O-]
REMARK SMILES IDX 9 1 10 2 11 3 12 4 13 5 14 6 15 7 16 8 17 9 18 10 8 11 7 12
REMARK SMILES IDX 6 13 5 14 4 15 3 16 2 17 1 18
REMARK H PARENT
REMARK Flexibility Score: inf
ROOT
ATOM      1  C   UNL     1      -9.070  66.154  -9.493  1.00  0.00     0.000 C 
ENDROOT
BRANCH   1   2
ATOM      2  C   UNL     1      -8.641  64.811 -10.113  1.00  0.00     0.000 C 
BRANCH   2   3
ATOM      3  C   UNL     1      -8.259  63.762  -9.059  1.00  0.00     0.000 C 
BRANCH   3   4
ATOM      4  C   UNL     1      -8.305  64.360  -7.648  1.00  0.00     0.000 C 
BRANCH   4   5
ATOM      5  C   UNL     1      -7.390  63.586  -6.691  1.00  0.00     0.000 C 
BRANCH   5   6
ATOM      6  C   UNL     1      -6.079  63.188  -7.383  1.00  0.00     0.006 C 
BRANCH   6   7
ATOM      7  C   UNL     1      -5.633  61.768  -7.013  1.00  0.00     0.053 C 
BRANCH   7   8
ATOM      8  C   UNL     1      -5.503  60.893  -8.223  1.00  0.00     0.041 C 
ATOM      9  O   UNL     1      -4.507  60.134  -8.351  1.00  0.00    -0.550 OA
ATOM     10  O   UNL     1      -6.499  60.892  -9.192  1.00  0.00    -0.550 OA
ENDBRANCH   7   8
ENDBRANCH   6   7
ENDBRANCH   5   6
ENDBRANCH   4   5
ENDBRANCH   3   4
ENDBRANCH   2   3
ENDBRANCH   1   2
BRANCH   1  11
ATOM     11  C   UNL     1      -9.048  67.356 -10.459  1.00  0.00     0.000 C 
BRANCH  11  12
ATOM     12  C   UNL     1      -9.031  66.994 -11.955  1.00  0.00    -0.000 C 
BRANCH  12  13
ATOM     13  C   UNL     1      -7.870  67.609 -12.759  1.00  0.00    -0.000 C 
BRANCH  13  14
ATOM     14  C   UNL     1      -6.529  66.866 -12.583  1.00  0.00    -0.000 C 
BRANCH  14  15
ATOM     15  C   UNL     1      -6.204  65.936 -13.766  1.00  0.00    -0.000 C 
BRANCH  15  16
ATOM     16  C   UNL     1      -5.995  64.474 -13.319  1.00  0.00    -0.000 C 
BRANCH  16  17
ATOM     17  C   UNL     1      -7.303  63.676 -13.193  1.00  0.00    -0.003 C 
ATOM     18  C   UNL     1      -7.103  62.297 -12.567  1.00  0.00     0.004 C 
ENDBRANCH  16  17
ENDBRANCH  15  16
ENDBRANCH  14  15
ENDBRANCH  13  14
ENDBRANCH  12  13
ENDBRANCH  11  12
ENDBRANCH   1  11
TORSDOF 14
ENDMDL
MODEL 3
REMARK VINA RESULT:    -4.183      2.149      2.617
REMARK INTER + INTRA:          -9.192
REMARK INTER:                  -7.689
REMARK INTRA:                  -1.502
REMARK UNBOUND:                -1.585
REMARK SMILES CCCCCCCCCCCCCCCC(=O)[O-]
REMARK SMILES IDX 9 1 10 2 11 3 12 4 13 5 14 6 15 7 16 8 17 9 18 10 8 11 7 12
REMARK SMILES IDX 6 13 5 14 4 15 3 16 2 17 1 18
REMARK H PARENT
REMARK Flexibility Score: inf
ROOT
ATOM      1  C   UNL     1      -7.117  62.638 -12.312  1.00  0.00     0.000 C 
ENDROOT
BRANCH   1   2
ATOM      2  C   UNL     1      -7.892  63.066 -11.052  1.00  0.00     0.000 C 
BRANCH   2   3
ATOM      3  C   UNL     1      -6.973  63.390  -9.867  1.00  0.00     0.000 C 
BRANCH   3   4
ATOM      4  C   UNL     1      -7.223  62.430  -8.698  1.00  0.00     0.000 C 
BRANCH   4   5
ATOM      5  C   UNL     1      -6.115  61.373  -8.606  1.00  0.00     0.000 C 
BRANCH   5   6
ATOM      6  C   UNL     1      -5.384  61.459  -7.258  1.00  0.00     0.006 C 
BRANCH   6   7
ATOM      7  C   UNL     1      -5.752  62.726  -6.477  1.00  0.00     0.053 C 
BRANCH   7   8
ATOM      8  C   UNL     1      -4.577  63.643  -6.318  1.00  0.00     0.041 C 
ATOM      9  O   UNL     1      -3.704  63.716  -7.221  1.00  0.00    -0.550 OA
ATOM     10  O   UNL     1      -4.466  64.442  -5.186  1.00  0.00    -0.550 OA
ENDBRANCH   7   8
ENDBRANCH   6   7
ENDBRANCH   5   6
ENDBRANCH   4   5
ENDBRANCH   3   4
ENDBRANCH   2   3
ENDBRANCH   1   2
BRANCH   1  11
ATOM     11  C   UNL     1      -7.147  63.652 -13.474  1.00  0.00     0.000 C 
BRANCH  11  12
ATOM     12  C   UNL     1      -6.053  64.733 -13.427  1.00  0.00    -0.000 C 
BRANCH  12  13
ATOM     13  C   UNL     1      -6.476  66.058 -12.765  1.00  0.00    -0.000 C 
BRANCH  13  14
ATOM     14  C   UNL     1      -7.666  66.750 -13.463  1.00  0.00    -0.000 C 
BRANCH  14  15
ATOM     15  C   UNL     1      -8.983  66.603 -12.679  1.00  0.00    -0.000 C 
BRANCH  15  16
ATOM     16  C   UNL     1      -8.910  67.265 -11.287  1.00  0.00    -0.000 C 
BRANCH  16  17
ATOM     17  C   UNL     1      -9.208  66.299 -10.129  1.00  0.00    -0.003 C 
ATOM     18  C   UNL     1      -9.202  66.983  -8.763  1.00  0.00     0.004 C 
ENDBRANCH  16  17
ENDBRANCH  15  16
ENDBRANCH  14  15
ENDBRANCH  13  14
ENDBRANCH  12  13
ENDBRANCH  11  12
ENDBRANCH   1  11
TORSDOF 14
ENDMDL
MODEL 4
REMARK VINA RESULT:    -4.173      2.625      5.221
REMARK INTER + INTRA:          -9.173
REMARK INTER:                  -7.599
REMARK INTRA:                  -1.574
REMARK UNBOUND:                -1.585
REMARK SMILES CCCCCCCCCCCCCCCC(=O)[O-]
REMARK SMILES IDX 9 1 10 2 11 3 12 4 13 5 14 6 15 7 16 8 17 9 18 10 8 11 7 12
REMARK SMILES IDX 6 13 5 14 4 15 3 16 2 17 1 18
REMARK H PARENT
REMARK Flexibility Score: inf
ROOT
ATOM      1  C   UNL     1      -4.902  61.710  -7.969  1.00  0.00     0.000 C 
ENDROOT
BRANCH   1   2
ATOM      2  C   UNL     1      -5.408  60.438  -8.674  1.00  0.00     0.000 C 
BRANCH   2   3
ATOM      3  C   UNL     1      -6.402  60.737  -9.805  1.00  0.00     0.000 C 
BRANCH   3   4
ATOM      4  C   UNL     1      -6.471  62.241 -10.092  1.00  0.00     0.000 C 
BRANCH   4   5
ATOM      5  C   UNL     1      -7.651  62.574 -11.013  1.00  0.00     0.000 C 
BRANCH   5   6
ATOM      6  C   UNL     1      -7.170  63.264 -12.298  1.00  0.00     0.006 C 
BRANCH   6   7
ATOM      7  C   UNL     1      -6.393  64.555 -12.008  1.00  0.00     0.053 C 
BRANCH   7   8
ATOM      8  C   UNL     1      -6.045  65.289 -13.268  1.00  0.00     0.041 C 
ATOM      9  O   UNL     1      -6.743  65.136 -14.303  1.00  0.00    -0.550 OA
ATOM     10  O   UNL     1      -4.970  66.170 -13.286  1.00  0.00    -0.550 OA
ENDBRANCH   7   8
ENDBRANCH   6   7
ENDBRANCH   5   6
ENDBRANCH   4   5
ENDBRANCH   3   4
ENDBRANCH   2   3
ENDBRANCH   1   2
BRANCH   1  11
ATOM     11  C   UNL     1      -5.635  62.067  -6.660  1.00  0.00     0.000 C 
BRANCH  11  12
ATOM     12  C   UNL     1      -6.184  63.504  -6.589  1.00  0.00    -0.000 C 
BRANCH  12  13
ATOM     13  C   UNL     1      -7.720  63.614  -6.617  1.00  0.00    -0.000 C 
BRANCH  13  14
ATOM     14  C   UNL     1      -8.265  64.417  -7.818  1.00  0.00    -0.000 C 
BRANCH  14  15
ATOM     15  C   UNL     1      -8.626  65.867  -7.447  1.00  0.00    -0.000 C 
BRANCH  15  16
ATOM     16  C   UNL     1      -9.354  66.598  -8.595  1.00  0.00    -0.000 C 
BRANCH  16  17
ATOM     17  C   UNL     1      -9.069  66.003  -9.983  1.00  0.00    -0.003 C 
ATOM     18  C   UNL     1      -9.126  67.040 -11.102  1.00  0.00     0.004 C 
ENDBRANCH  16  17
ENDBRANCH  15  16
ENDBRANCH  14  15
ENDBRANCH  13  14
ENDBRANCH  12  13
ENDBRANCH  11  12
ENDBRANCH   1  11
TORSDOF 14
ENDMDL
MODEL 5
REMARK VINA RESULT:    -4.171      1.161      2.066
REMARK INTER + INTRA:          -9.170
REMARK INTER:                  -7.364
REMARK INTRA:                  -1.806
REMARK UNBOUND:                -1.585
REMARK SMILES CCCCCCCCCCCCCCCC(=O)[O-]
REMARK SMILES IDX 9 1 10 2 11 3 12 4 13 5 14 6 15 7 16 8 17 9 18 10 8 11 7 12
REMARK SMILES IDX 6 13 5 14 4 15 3 16 2 17 1 18
REMARK H PARENT
REMARK Flexibility Score: inf
ROOT
ATOM      1  C   UNL     1      -8.038  63.105  -9.194  1.00  0.00     0.000 C 
ENDROOT
BRANCH   1   2
ATOM      2  C   UNL     1      -8.244  63.961  -7.930  1.00  0.00     0.000 C 
BRANCH   2   3
ATOM      3  C   UNL     1      -6.997  64.018  -7.038  1.00  0.00     0.000 C 
BRANCH   3   4
ATOM      4  C   UNL     1      -6.613  62.620  -6.539  1.00  0.00     0.000 C 
BRANCH   4   5
ATOM      5  C   UNL     1      -5.096  62.409  -6.600  1.00  0.00     0.000 C 
BRANCH   5   6
ATOM      6  C   UNL     1      -4.671  61.860  -7.970  1.00  0.00     0.006 C 
BRANCH   6   7
ATOM      7  C   UNL     1      -5.349  60.523  -8.296  1.00  0.00     0.053 C 
BRANCH   7   8
ATOM      8  C   UNL     1      -4.709  59.847  -9.471  1.00  0.00     0.041 C 
ATOM      9  O   UNL     1      -3.549  59.370  -9.372  1.00  0.00    -0.550 OA
ATOM     10  O   UNL     1      -5.410  59.713 -10.664  1.00  0.00    -0.550 OA
ENDBRANCH   7   8
ENDBRANCH   6   7
ENDBRANCH   5   6
ENDBRANCH   4   5
ENDBRANCH   3   4
ENDBRANCH   2   3
ENDBRANCH   1   2
BRANCH   1  11
ATOM     11  C   UNL     1      -6.974  63.635 -10.176  1.00  0.00     0.000 C 
BRANCH  11  12
ATOM     12  C   UNL     1      -7.280  63.393 -11.665  1.00  0.00    -0.000 C 
BRANCH  12  13
ATOM     13  C   UNL     1      -6.392  64.181 -12.647  1.00  0.00    -0.000 C 
BRANCH  13  14
ATOM     14  C   UNL     1      -6.857  65.635 -12.878  1.00  0.00    -0.000 C 
BRANCH  14  15
ATOM     15  C   UNL     1      -8.387  65.756 -13.000  1.00  0.00    -0.000 C 
BRANCH  15  16
ATOM     16  C   UNL     1      -8.944  66.944 -12.187  1.00  0.00    -0.000 C 
BRANCH  16  17
ATOM     17  C   UNL     1      -8.370  67.040 -10.764  1.00  0.00    -0.003 C 
ATOM     18  C   UNL     1      -9.434  66.890  -9.678  1.00  0.00     0.004 C 
ENDBRANCH  16  17
ENDBRANCH  15  16
ENDBRANCH  14  15
ENDBRANCH  13  14
ENDBRANCH  12  13
ENDBRANCH  11  12
ENDBRANCH   1  11
TORSDOF 14
ENDMDL
MODEL 6
REMARK VINA RESULT:    -3.922      3.178      7.237
REMARK INTER + INTRA:          -8.716
REMARK INTER:                  -7.684
REMARK INTRA:                  -1.033
REMARK UNBOUND:                -1.585
REMARK SMILES CCCCCCCCCCCCCCCC(=O)[O-]
REMARK SMILES IDX 9 1 10 2 11 3 12 4 13 5 14 6 15 7 16 8 17 9 18 10 8 11 7 12
REMARK SMILES IDX 6 13 5 14 4 15 3 16 2 17 1 18
REMARK H PARENT
REMARK Flexibility Score: inf
ROOT
ATOM      1  C   UNL     1      -7.805  64.031  -7.382  1.00  0.00     0.000 C 
ENDROOT
BRANCH   1   2
ATOM      2  C   UNL     1      -8.202  63.884  -8.863  1.00  0.00     0.000 C 
BRANCH   2   3
ATOM      3  C   UNL     1      -7.895  62.491  -9.428  1.00  0.00     0.000 C 
BRANCH   3   4
ATOM      4  C   UNL     1      -7.053  62.590 -10.706  1.00  0.00     0.000 C 
BRANCH   4   5
ATOM      5  C   UNL     1      -7.445  63.822 -11.530  1.00  0.00     0.000 C 
BRANCH   5   6
ATOM      6  C   UNL     1      -6.986  63.677 -12.989  1.00  0.00     0.006 C 
BRANCH   6   7
ATOM      7  C   UNL     1      -6.203  64.903 -13.475  1.00  0.00     0.053 C 
BRANCH   7   8
ATOM      8  C   UNL     1      -6.878  66.184 -13.088  1.00  0.00     0.041 C 
ATOM      9  O   UNL     1      -7.985  66.497 -13.599  1.00  0.00    -0.550 OA
ATOM     10  O   UNL     1      -6.299  67.016 -12.136  1.00  0.00    -0.550 OA
ENDBRANCH   7   8
ENDBRANCH   6   7
ENDBRANCH   5   6
ENDBRANCH   4   5
ENDBRANCH   3   4
ENDBRANCH   2   3
ENDBRANCH   1   2
BRANCH   1  11
ATOM     11  C   UNL     1      -6.816  62.969  -6.862  1.00  0.00     0.000 C 
BRANCH  11  12
ATOM     12  C   UNL     1      -5.514  63.527  -6.258  1.00  0.00    -0.000 C 
BRANCH  12  13
ATOM     13  C   UNL     1      -4.220  62.928  -6.840  1.00  0.00    -0.000 C 
BRANCH  13  14
ATOM     14  C   UNL     1      -4.204  61.384  -6.864  1.00  0.00    -0.000 C 
BRANCH  14  15
ATOM     15  C   UNL     1      -4.301  60.811  -8.289  1.00  0.00    -0.000 C 
BRANCH  15  16
ATOM     16  C   UNL     1      -2.913  60.527  -8.899  1.00  0.00    -0.000 C 
BRANCH  16  17
ATOM     17  C   UNL     1      -2.838  59.195  -9.664  1.00  0.00    -0.003 C 
ATOM     18  C   UNL     1      -1.740  58.268  -9.145  1.00  0.00     0.004 C 
ENDBRANCH  16  17
ENDBRANCH  15  16
ENDBRANCH  14  15
ENDBRANCH  13  14
ENDBRANCH  12  13
ENDBRANCH  11  12
ENDBRANCH   1  11
TORSDOF 14
ENDMDL
MODEL 7
REMARK VINA RESULT:    -3.817     10.553     13.902
REMARK INTER + INTRA:          -8.526
REMARK INTER:                  -6.207
REMARK INTRA:                  -2.319
REMARK UNBOUND:                -1.585
REMARK SMILES CCCCCCCCCCCCCCCC(=O)[O-]
REMARK SMILES IDX 9 1 10 2 11 3 12 4 13 5 14 6 15 7 16 8 17 9 18 10 8 11 7 12
REMARK SMILES IDX 6 13 5 14 4 15 3 16 2 17 1 18
REMARK H PARENT
REMARK Flexibility Score: inf
ROOT
ATOM      1  C   UNL     1       2.604  56.167 -12.693  1.00  0.00     0.000 C 
ENDROOT
BRANCH   1   2
ATOM      2  C   UNL     1       3.223  55.534 -11.433  1.00  0.00     0.000 C 
BRANCH   2   3
ATOM      3  C   UNL     1       2.253  55.499 -10.244  1.00  0.00     0.000 C 
BRANCH   3   4
ATOM      4  C   UNL     1       1.807  54.064  -9.940  1.00  0.00     0.000 C 
BRANCH   4   5
ATOM      5  C   UNL     1       0.325  53.863 -10.279  1.00  0.00     0.000 C 
BRANCH   5   6
ATOM      6  C   UNL     1      -0.431  55.200 -10.259  1.00  0.00     0.006 C 
BRANCH   6   7
ATOM      7  C   UNL     1      -1.437  55.281  -9.104  1.00  0.00     0.053 C 
BRANCH   7   8
ATOM      8  C   UNL     1      -0.882  56.036  -7.934  1.00  0.00     0.041 C 
ATOM      9  O   UNL     1      -0.340  57.159  -8.105  1.00  0.00    -0.550 OA
ATOM     10  O   UNL     1      -0.994  55.514  -6.652  1.00  0.00    -0.550 OA
ENDBRANCH   7   8
ENDBRANCH   6   7
ENDBRANCH   5   6
ENDBRANCH   4   5
ENDBRANCH   3   4
ENDBRANCH   2   3
ENDBRANCH   1   2
BRANCH   1  11
ATOM     11  C   UNL     1       2.426  55.207 -13.887  1.00  0.00     0.000 C 
BRANCH  11  12
ATOM     12  C   UNL     1       1.315  54.154 -13.720  1.00  0.00    -0.000 C 
BRANCH  12  13
ATOM     13  C   UNL     1       1.800  52.692 -13.721  1.00  0.00    -0.000 C 
BRANCH  13  14
ATOM     14  C   UNL     1       3.288  52.530 -13.340  1.00  0.00    -0.000 C 
BRANCH  14  15
ATOM     15  C   UNL     1       3.500  51.537 -12.184  1.00  0.00    -0.000 C 
BRANCH  15  16
ATOM     16  C   UNL     1       2.239  50.693 -11.901  1.00  0.00    -0.000 C 
BRANCH  16  17
ATOM     17  C   UNL     1       2.347  49.830 -10.633  1.00  0.00    -0.003 C 
ATOM     18  C   UNL     1       2.942  50.584  -9.445  1.00  0.00     0.004 C 
ENDBRANCH  16  17
ENDBRANCH  15  16
ENDBRANCH  14  15
ENDBRANCH  13  14
ENDBRANCH  12  13
ENDBRANCH  11  12
ENDBRANCH   1  11
TORSDOF 14
ENDMDL
MODEL 8
REMARK VINA RESULT:    -3.773     11.542     14.334
REMARK INTER + INTRA:          -8.446
REMARK INTER:                  -5.863
REMARK INTRA:                  -2.583
REMARK UNBOUND:                -1.585
REMARK SMILES CCCCCCCCCCCCCCCC(=O)[O-]
REMARK SMILES IDX 9 1 10 2 11 3 12 4 13 5 14 6 15 7 16 8 17 9 18 10 8 11 7 12
REMARK SMILES IDX 6 13 5 14 4 15 3 16 2 17 1 18
REMARK H PARENT
REMARK Flexibility Score: inf
ROOT
ATOM      1  C   UNL     1      -1.490  66.666   3.506  1.00  0.00     0.000 C 
ENDROOT
BRANCH   1   2
ATOM      2  C   UNL     1      -2.368  66.777   2.246  1.00  0.00     0.000 C 
BRANCH   2   3
ATOM      3  C   UNL     1      -1.587  67.251   1.013  1.00  0.00     0.000 C 
BRANCH   3   4
ATOM      4  C   UNL     1      -0.394  68.125   1.420  1.00  0.00     0.000 C 
BRANCH   4   5
ATOM      5  C   UNL     1       0.870  67.726   0.650  1.00  0.00     0.000 C 
BRANCH   5   6
ATOM      6  C   UNL     1       0.530  66.806  -0.530  1.00  0.00     0.006 C 
BRANCH   6   7
ATOM      7  C   UNL     1       1.167  67.282  -1.841  1.00  0.00     0.053 C 
BRANCH   7   8
ATOM      8  C   UNL     1       0.252  67.081  -3.011  1.00  0.00     0.041 C 
ATOM      9  O   UNL     1      -0.957  67.422  -2.935  1.00  0.00    -0.550 OA
ATOM     10  O   UNL     1       0.743  66.548  -4.197  1.00  0.00    -0.550 OA
ENDBRANCH   7   8
ENDBRANCH   6   7
ENDBRANCH   5   6
ENDBRANCH   4   5
ENDBRANCH   3   4
ENDBRANCH   2   3
ENDBRANCH   1   2
BRANCH   1  11
ATOM     11  C   UNL     1      -1.322  65.237   4.062  1.00  0.00     0.000 C 
BRANCH  11  12
ATOM     12  C   UNL     1       0.063  64.604   3.833  1.00  0.00    -0.000 C 
BRANCH  12  13
ATOM     13  C   UNL     1       0.445  64.396   2.356  1.00  0.00    -0.000 C 
BRANCH  13  14
ATOM     14  C   UNL     1      -0.294  63.220   1.682  1.00  0.00    -0.000 C 
BRANCH  14  15
ATOM     15  C   UNL     1      -1.130  63.662   0.468  1.00  0.00    -0.000 C 
BRANCH  15  16
ATOM     16  C   UNL     1      -2.619  63.282   0.615  1.00  0.00    -0.000 C 
BRANCH  16  17
ATOM     17  C   UNL     1      -2.999  62.820   2.032  1.00  0.00    -0.003 C 
ATOM     18  C   UNL     1      -4.252  63.508   2.568  1.00  0.00     0.004 C 
ENDBRANCH  16  17
ENDBRANCH  15  16
ENDBRANCH  14  15
ENDBRANCH  13  14
ENDBRANCH  12  13
ENDBRANCH  11  12
ENDBRANCH   1  11
TORSDOF 14
ENDMDL
MODEL 9
REMARK VINA RESULT:    -3.720     10.317     12.477
REMARK INTER + INTRA:          -8.349
REMARK INTER:                  -5.976
REMARK INTRA:                  -2.373
REMARK UNBOUND:                -1.585
REMARK SMILES CCCCCCCCCCCCCCCC(=O)[O-]
REMARK SMILES IDX 9 1 10 2 11 3 12 4 13 5 14 6 15 7 16 8 17 9 18 10 8 11 7 12
REMARK SMILES IDX 6 13 5 14 4 15 3 16 2 17 1 18
REMARK H PARENT
REMARK Flexibility Score: inf
ROOT
ATOM      1  C   UNL     1       1.334  67.741  -2.031  1.00  0.00     0.000 C 
ENDROOT
BRANCH   1   2
ATOM      2  C   UNL     1       0.637  67.908  -0.669  1.00  0.00     0.000 C 
BRANCH   2   3
ATOM      3  C   UNL     1       1.091  66.868   0.366  1.00  0.00     0.000 C 
BRANCH   3   4
ATOM      4  C   UNL     1      -0.114  66.183   1.021  1.00  0.00     0.000 C 
BRANCH   4   5
ATOM      5  C   UNL     1      -1.017  67.205   1.721  1.00  0.00     0.000 C 
BRANCH   5   6
ATOM      6  C   UNL     1      -2.249  66.523   2.335  1.00  0.00     0.006 C 
BRANCH   6   7
ATOM      7  C   UNL     1      -2.580  65.193   1.647  1.00  0.00     0.053 C 
BRANCH   7   8
ATOM      8  C   UNL     1      -2.834  64.100   2.641  1.00  0.00     0.041 C 
ATOM      9  O   UNL     1      -1.875  63.429   3.102  1.00  0.00    -0.550 OA
ATOM     10  O   UNL     1      -4.127  63.847   3.082  1.00  0.00    -0.550 OA
ENDBRANCH   7   8
ENDBRANCH   6   7
ENDBRANCH   5   6
ENDBRANCH   4   5
ENDBRANCH   3   4
ENDBRANCH   2   3
ENDBRANCH   1   2
BRANCH   1  11
ATOM     11  C   UNL     1       0.398  67.386  -3.205  1.00  0.00     0.000 C 
BRANCH  11  12
ATOM     12  C   UNL     1       0.469  65.923  -3.680  1.00  0.00    -0.000 C 
BRANCH  12  13
ATOM     13  C   UNL     1      -0.854  65.142  -3.574  1.00  0.00    -0.000 C 
BRANCH  13  14
ATOM     14  C   UNL     1      -1.426  65.077  -2.141  1.00  0.00    -0.000 C 
BRANCH  14  15
ATOM     15  C   UNL     1      -2.856  65.638  -2.047  1.00  0.00    -0.000 C 
BRANCH  15  16
ATOM     16  C   UNL     1      -2.879  67.098  -1.550  1.00  0.00    -0.000 C 
BRANCH  16  17
ATOM     17  C   UNL     1      -3.133  68.125  -2.666  1.00  0.00    -0.003 C 
ATOM     18  C   UNL     1      -4.099  67.619  -3.736  1.00  0.00     0.004 C 
ENDBRANCH  16  17
ENDBRANCH  15  16
ENDBRANCH  14  15
ENDBRANCH  13  14
ENDBRANCH  12  13
ENDBRANCH  11  12
ENDBRANCH   1  11
TORSDOF 14
ENDMDL
