MODEL 1
REMARK VINA RESULT:    -3.575      0.000      0.000
REMARK INTER + INTRA:          -8.430
REMARK INTER:                  -6.502
REMARK INTRA:                  -1.928
REMARK UNBOUND:                -1.928
REMARK SMILES CCCCCCCCCCCCCCCC(=O)[O-]
REMARK SMILES IDX 9 1 10 2 11 3 12 4 13 5 14 6 15 7 16 8 17 9 18 10 8 11 7 12
REMARK SMILES IDX 6 13 5 14 4 15 3 16 2 17 1 18
REMARK H PARENT
REMARK Flexibility Score: inf
ROOT
ATOM      1  C   UNL     1     154.596 153.529 156.788  1.00  0.00     0.000 C 
ENDROOT
BRANCH   1   2
ATOM      2  C   UNL     1     154.202 154.918 157.338  1.00  0.00     0.000 C 
BRANCH   2   3
ATOM      3  C   UNL     1     154.883 155.270 158.672  1.00  0.00     0.000 C 
BRANCH   3   4
ATOM      4  C   UNL     1     155.483 156.683 158.677  1.00  0.00     0.000 C 
BRANCH   4   5
ATOM      5  C   UNL     1     156.982 156.650 158.348  1.00  0.00     0.000 C 
BRANCH   5   6
ATOM      6  C   UNL     1     157.846 156.169 159.528  1.00  0.00     0.006 C 
BRANCH   6   7
ATOM      7  C   UNL     1     158.908 157.186 159.980  1.00  0.00     0.053 C 
BRANCH   7   8
ATOM      8  C   UNL     1     158.561 157.837 161.286  1.00  0.00     0.041 C 
ATOM      9  O   UNL     1     159.471 158.282 162.034  1.00  0.00    -0.550 OA
ATOM     10  O   UNL     1     157.231 157.989 161.661  1.00  0.00    -0.550 OA
ENDBRANCH   7   8
ENDBRANCH   6   7
ENDBRANCH   5   6
ENDBRANCH   4   5
ENDBRANCH   3   4
ENDBRANCH   2   3
ENDBRANCH   1   2
BRANCH   1  11
ATOM     11  C   UNL     1     155.233 152.597 157.841  1.00  0.00     0.000 C 
BRANCH  11  12
ATOM     12  C   UNL     1     154.641 151.172 157.898  1.00  0.00    -0.000 C 
BRANCH  12  13
ATOM     13  C   UNL     1     153.207 151.073 158.449  1.00  0.00    -0.000 C 
BRANCH  13  14
ATOM     14  C   UNL     1     153.032 151.790 159.799  1.00  0.00    -0.000 C 
BRANCH  14  15
ATOM     15  C   UNL     1     151.935 152.875 159.746  1.00  0.00    -0.000 C 
BRANCH  15  16
ATOM     16  C   UNL     1     151.180 152.924 158.403  1.00  0.00    -0.000 C 
BRANCH  16  17
ATOM     17  C   UNL     1     150.670 154.319 158.006  1.00  0.00    -0.003 C 
ATOM     18  C   UNL     1     150.988 155.387 159.053  1.00  0.00     0.004 C 
ENDBRANCH  16  17
ENDBRANCH  15  16
ENDBRANCH  14  15
ENDBRANCH  13  14
ENDBRANCH  12  13
ENDBRANCH  11  12
ENDBRANCH   1  11
TORSDOF 14
ENDMDL
MODEL 2
REMARK VINA RESULT:    -3.564      2.350      4.089
REMARK INTER + INTRA:          -8.408
REMARK INTER:                  -6.216
REMARK INTRA:                  -2.193
REMARK UNBOUND:                -1.928
REMARK SMILES CCCCCCCCCCCCCCCC(=O)[O-]
REMARK SMILES IDX 9 1 10 2 11 3 12 4 13 5 14 6 15 7 16 8 17 9 18 10 8 11 7 12
REMARK SMILES IDX 6 13 5 14 4 15 3 16 2 17 1 18
REMARK H PARENT
REMARK Flexibility Score: inf
ROOT
ATOM      1  C   UNL     1     153.122 151.136 159.416  1.00  0.00     0.000 C 
ENDROOT
BRANCH   1   2
ATOM      2  C   UNL     1     153.379 151.190 157.893  1.00  0.00     0.000 C 
BRANCH   2   3
ATOM      3  C   UNL     1     154.856 151.418 157.525  1.00  0.00     0.000 C 
BRANCH   3   4
ATOM      4  C   UNL     1     155.307 152.868 157.755  1.00  0.00     0.000 C 
BRANCH   4   5
ATOM      5  C   UNL     1     154.616 153.825 156.774  1.00  0.00     0.000 C 
BRANCH   5   6
ATOM      6  C   UNL     1     154.972 155.301 157.023  1.00  0.00     0.006 C 
BRANCH   6   7
ATOM      7  C   UNL     1     155.034 155.687 158.511  1.00  0.00     0.053 C 
BRANCH   7   8
ATOM      8  C   UNL     1     154.610 157.104 158.756  1.00  0.00     0.041 C 
ATOM      9  O   UNL     1     154.773 157.627 159.890  1.00  0.00    -0.550 OA
ATOM     10  O   UNL     1     154.070 157.862 157.723  1.00  0.00    -0.550 OA
ENDBRANCH   7   8
ENDBRANCH   6   7
ENDBRANCH   5   6
ENDBRANCH   4   5
ENDBRANCH   3   4
ENDBRANCH   2   3
ENDBRANCH   1   2
BRANCH   1  11
ATOM     11  C   UNL     1     152.364 152.363 159.966  1.00  0.00     0.000 C 
BRANCH  11  12
ATOM     12  C   UNL     1     151.655 153.227 158.901  1.00  0.00    -0.000 C 
BRANCH  12  13
ATOM     13  C   UNL     1     151.450 154.705 159.278  1.00  0.00    -0.000 C 
BRANCH  13  14
ATOM     14  C   UNL     1     151.289 155.621 158.052  1.00  0.00    -0.000 C 
BRANCH  14  15
ATOM     15  C   UNL     1     151.024 154.823 156.758  1.00  0.00    -0.000 C 
BRANCH  15  16
ATOM     16  C   UNL     1     149.536 154.776 156.356  1.00  0.00    -0.000 C 
BRANCH  16  17
ATOM     17  C   UNL     1     149.012 153.374 156.003  1.00  0.00    -0.003 C 
ATOM     18  C   UNL     1     148.415 152.644 157.206  1.00  0.00     0.004 C 
ENDBRANCH  16  17
ENDBRANCH  15  16
ENDBRANCH  14  15
ENDBRANCH  13  14
ENDBRANCH  12  13
ENDBRANCH  11  12
ENDBRANCH   1  11
TORSDOF 14
ENDMDL
MODEL 3
REMARK VINA RESULT:    -3.493      4.102      5.322
REMARK INTER + INTRA:          -8.280
REMARK INTER:                  -5.953
REMARK INTRA:                  -2.328
REMARK UNBOUND:                -1.928
REMARK SMILES CCCCCCCCCCCCCCCC(=O)[O-]
REMARK SMILES IDX 9 1 10 2 11 3 12 4 13 5 14 6 15 7 16 8 17 9 18 10 8 11 7 12
REMARK SMILES IDX 6 13 5 14 4 15 3 16 2 17 1 18
REMARK H PARENT
REMARK Flexibility Score: inf
ROOT
ATOM      1  C   UNL     1     154.868 152.990 157.235  1.00  0.00     0.000 C 
ENDROOT
BRANCH   1   2
ATOM      2  C   UNL     1     155.412 154.037 158.232  1.00  0.00     0.000 C 
BRANCH   2   3
ATOM      3  C   UNL     1     155.240 155.490 157.757  1.00  0.00     0.000 C 
BRANCH   3   4
ATOM      4  C   UNL     1     154.880 155.587 156.267  1.00  0.00     0.000 C 
BRANCH   4   5
ATOM      5  C   UNL     1     154.581 157.038 155.863  1.00  0.00     0.000 C 
BRANCH   5   6
ATOM      6  C   UNL     1     153.112 157.260 155.459  1.00  0.00     0.006 C 
BRANCH   6   7
ATOM      7  C   UNL     1     152.416 155.998 154.918  1.00  0.00     0.053 C 
BRANCH   7   8
ATOM      8  C   UNL     1     152.302 156.002 153.423  1.00  0.00     0.041 C 
ATOM      9  O   UNL     1     151.168 156.025 152.875  1.00  0.00    -0.550 OA
ATOM     10  O   UNL     1     153.446 156.019 152.633  1.00  0.00    -0.550 OA
ENDBRANCH   7   8
ENDBRANCH   6   7
ENDBRANCH   5   6
ENDBRANCH   4   5
ENDBRANCH   3   4
ENDBRANCH   2   3
ENDBRANCH   1   2
BRANCH   1  11
ATOM     11  C   UNL     1     154.884 151.545 157.774  1.00  0.00     0.000 C 
BRANCH  11  12
ATOM     12  C   UNL     1     153.512 150.998 158.226  1.00  0.00    -0.000 C 
BRANCH  12  13
ATOM     13  C   UNL     1     153.081 151.391 159.650  1.00  0.00    -0.000 C 
BRANCH  13  14
ATOM     14  C   UNL     1     152.118 152.592 159.677  1.00  0.00    -0.000 C 
BRANCH  14  15
ATOM     15  C   UNL     1     151.311 152.722 158.368  1.00  0.00    -0.000 C 
BRANCH  15  16
ATOM     16  C   UNL     1     151.174 154.174 157.869  1.00  0.00    -0.000 C 
BRANCH  16  17
ATOM     17  C   UNL     1     151.871 155.223 158.751  1.00  0.00    -0.003 C 
ATOM     18  C   UNL     1     151.218 156.603 158.658  1.00  0.00     0.004 C 
ENDBRANCH  16  17
ENDBRANCH  15  16
ENDBRANCH  14  15
ENDBRANCH  13  14
ENDBRANCH  12  13
ENDBRANCH  11  12
ENDBRANCH   1  11
TORSDOF 14
ENDMDL
MODEL 4
REMARK VINA RESULT:    -3.422      3.630      6.902
REMARK INTER + INTRA:          -8.151
REMARK INTER:                  -6.207
REMARK INTRA:                  -1.944
REMARK UNBOUND:                -1.928
REMARK SMILES CCCCCCCCCCCCCCCC(=O)[O-]
REMARK SMILES IDX 9 1 10 2 11 3 12 4 13 5 14 6 15 7 16 8 17 9 18 10 8 11 7 12
REMARK SMILES IDX 6 13 5 14 4 15 3 16 2 17 1 18
REMARK H PARENT
REMARK Flexibility Score: inf
ROOT
ATOM      1  C   UNL     1     154.916 152.431 157.885  1.00  0.00     0.000 C 
ENDROOT
BRANCH   1   2
ATOM      2  C   UNL     1     153.994 151.191 157.852  1.00  0.00     0.000 C 
BRANCH   2   3
ATOM      3  C   UNL     1     153.289 150.910 159.190  1.00  0.00     0.000 C 
BRANCH   3   4
ATOM      4  C   UNL     1     153.166 152.163 160.069  1.00  0.00     0.000 C 
BRANCH   4   5
ATOM      5  C   UNL     1     151.716 152.667 160.116  1.00  0.00     0.000 C 
BRANCH   5   6
ATOM      6  C   UNL     1     151.394 153.677 159.001  1.00  0.00     0.006 C 
BRANCH   6   7
ATOM      7  C   UNL     1     150.711 153.054 157.771  1.00  0.00     0.053 C 
BRANCH   7   8
ATOM      8  C   UNL     1     149.924 154.056 156.982  1.00  0.00     0.041 C 
ATOM      9  O   UNL     1     149.888 155.262 157.345  1.00  0.00    -0.550 OA
ATOM     10  O   UNL     1     149.260 153.669 155.823  1.00  0.00    -0.550 OA
ENDBRANCH   7   8
ENDBRANCH   6   7
ENDBRANCH   5   6
ENDBRANCH   4   5
ENDBRANCH   3   4
ENDBRANCH   2   3
ENDBRANCH   1   2
BRANCH   1  11
ATOM     11  C   UNL     1     154.623 153.457 156.771  1.00  0.00     0.000 C 
BRANCH  11  12
ATOM     12  C   UNL     1     154.254 154.873 157.264  1.00  0.00    -0.000 C 
BRANCH  12  13
ATOM     13  C   UNL     1     154.776 155.241 158.665  1.00  0.00    -0.000 C 
BRANCH  13  14
ATOM     14  C   UNL     1     154.621 156.737 158.990  1.00  0.00    -0.000 C 
BRANCH  14  15
ATOM     15  C   UNL     1     155.958 157.384 159.411  1.00  0.00    -0.000 C 
BRANCH  15  16
ATOM     16  C   UNL     1     156.636 158.191 158.286  1.00  0.00    -0.000 C 
BRANCH  16  17
ATOM     17  C   UNL     1     157.437 157.344 157.284  1.00  0.00    -0.003 C 
ATOM     18  C   UNL     1     156.776 157.273 155.907  1.00  0.00     0.004 C 
ENDBRANCH  16  17
ENDBRANCH  15  16
ENDBRANCH  14  15
ENDBRANCH  13  14
ENDBRANCH  12  13
ENDBRANCH  11  12
ENDBRANCH   1  11
TORSDOF 14
ENDMDL
MODEL 5
REMARK VINA RESULT:    -3.396      3.169      6.453
REMARK INTER + INTRA:          -8.104
REMARK INTER:                  -6.324
REMARK INTRA:                  -1.780
REMARK UNBOUND:                -1.928
REMARK SMILES CCCCCCCCCCCCCCCC(=O)[O-]
REMARK SMILES IDX 9 1 10 2 11 3 12 4 13 5 14 6 15 7 16 8 17 9 18 10 8 11 7 12
REMARK SMILES IDX 6 13 5 14 4 15 3 16 2 17 1 18
REMARK H PARENT
REMARK Flexibility Score: inf
ROOT
ATOM      1  C   UNL     1     153.642 151.267 157.743  1.00  0.00     0.000 C 
ENDROOT
BRANCH   1   2
ATOM      2  C   UNL     1     153.397 151.004 159.246  1.00  0.00     0.000 C 
BRANCH   2   3
ATOM      3  C   UNL     1     152.645 152.143 159.957  1.00  0.00     0.000 C 
BRANCH   3   4
ATOM      4  C   UNL     1     151.492 152.708 159.116  1.00  0.00     0.000 C 
BRANCH   4   5
ATOM      5  C   UNL     1     151.578 154.237 159.013  1.00  0.00     0.000 C 
BRANCH   5   6
ATOM      6  C   UNL     1     151.013 154.784 157.690  1.00  0.00     0.006 C 
BRANCH   6   7
ATOM      7  C   UNL     1     151.862 155.904 157.064  1.00  0.00     0.053 C 
BRANCH   7   8
ATOM      8  C   UNL     1     151.955 155.789 155.572  1.00  0.00     0.041 C 
ATOM      9  O   UNL     1     150.911 155.650 154.882  1.00  0.00    -0.550 OA
ATOM     10  O   UNL     1     153.190 155.874 154.940  1.00  0.00    -0.550 OA
ENDBRANCH   7   8
ENDBRANCH   6   7
ENDBRANCH   5   6
ENDBRANCH   4   5
ENDBRANCH   3   4
ENDBRANCH   2   3
ENDBRANCH   1   2
BRANCH   1  11
ATOM     11  C   UNL     1     154.961 152.010 157.446  1.00  0.00     0.000 C 
BRANCH  11  12
ATOM     12  C   UNL     1     154.841 153.547 157.352  1.00  0.00    -0.000 C 
BRANCH  12  13
ATOM     13  C   UNL     1     155.349 154.326 158.579  1.00  0.00    -0.000 C 
BRANCH  13  14
ATOM     14  C   UNL     1     155.069 155.836 158.490  1.00  0.00    -0.000 C 
BRANCH  14  15
ATOM     15  C   UNL     1     156.367 156.668 158.426  1.00  0.00    -0.000 C 
BRANCH  15  16
ATOM     16  C   UNL     1     157.516 156.086 159.273  1.00  0.00    -0.000 C 
BRANCH  16  17
ATOM     17  C   UNL     1     158.222 157.105 160.182  1.00  0.00    -0.003 C 
ATOM     18  C   UNL     1     157.249 157.881 161.070  1.00  0.00     0.004 C 
ENDBRANCH  16  17
ENDBRANCH  15  16
ENDBRANCH  14  15
ENDBRANCH  13  14
ENDBRANCH  12  13
ENDBRANCH  11  12
ENDBRANCH   1  11
TORSDOF 14
ENDMDL
MODEL 6
REMARK VINA RESULT:    -3.368      3.047      5.435
REMARK INTER + INTRA:          -8.053
REMARK INTER:                  -6.178
REMARK INTRA:                  -1.875
REMARK UNBOUND:                -1.928
REMARK SMILES CCCCCCCCCCCCCCCC(=O)[O-]
REMARK SMILES IDX 9 1 10 2 11 3 12 4 13 5 14 6 15 7 16 8 17 9 18 10 8 11 7 12
REMARK SMILES IDX 6 13 5 14 4 15 3 16 2 17 1 18
REMARK H PARENT
REMARK Flexibility Score: inf
ROOT
ATOM      1  C   UNL     1     151.626 152.751 159.837  1.00  0.00     0.000 C 
ENDROOT
BRANCH   1   2
ATOM      2  C   UNL     1     152.996 152.048 159.960  1.00  0.00     0.000 C 
BRANCH   2   3
ATOM      3  C   UNL     1     153.515 151.472 158.631  1.00  0.00     0.000 C 
BRANCH   3   4
ATOM      4  C   UNL     1     154.766 152.199 158.118  1.00  0.00     0.000 C 
BRANCH   4   5
ATOM      5  C   UNL     1     154.852 153.622 158.687  1.00  0.00     0.000 C 
BRANCH   5   6
ATOM      6  C   UNL     1     155.297 154.662 157.643  1.00  0.00     0.006 C 
BRANCH   6   7
ATOM      7  C   UNL     1     154.573 154.539 156.291  1.00  0.00     0.053 C 
BRANCH   7   8
ATOM      8  C   UNL     1     154.871 155.686 155.374  1.00  0.00     0.041 C 
ATOM      9  O   UNL     1     155.818 156.475 155.633  1.00  0.00    -0.550 OA
ATOM     10  O   UNL     1     154.128 155.864 154.212  1.00  0.00    -0.550 OA
ENDBRANCH   7   8
ENDBRANCH   6   7
ENDBRANCH   5   6
ENDBRANCH   4   5
ENDBRANCH   3   4
ENDBRANCH   2   3
ENDBRANCH   1   2
BRANCH   1  11
ATOM     11  C   UNL     1     151.134 152.913 158.384  1.00  0.00     0.000 C 
BRANCH  11  12
ATOM     12  C   UNL     1     150.765 154.355 157.973  1.00  0.00    -0.000 C 
BRANCH  12  13
ATOM     13  C   UNL     1     151.274 155.461 158.914  1.00  0.00    -0.000 C 
BRANCH  13  14
ATOM     14  C   UNL     1     152.152 156.502 158.197  1.00  0.00    -0.000 C 
BRANCH  14  15
ATOM     15  C   UNL     1     152.571 157.656 159.134  1.00  0.00    -0.000 C 
BRANCH  15  16
ATOM     16  C   UNL     1     154.098 157.803 159.286  1.00  0.00    -0.000 C 
BRANCH  16  17
ATOM     17  C   UNL     1     154.542 158.724 160.435  1.00  0.00    -0.003 C 
ATOM     18  C   UNL     1     153.381 159.152 161.332  1.00  0.00     0.004 C 
ENDBRANCH  16  17
ENDBRANCH  15  16
ENDBRANCH  14  15
ENDBRANCH  13  14
ENDBRANCH  12  13
ENDBRANCH  11  12
ENDBRANCH   1  11
TORSDOF 14
ENDMDL
MODEL 7
REMARK VINA RESULT:    -3.346      2.618      3.296
REMARK INTER + INTRA:          -8.013
REMARK INTER:                  -5.901
REMARK INTRA:                  -2.112
REMARK UNBOUND:                -1.928
REMARK SMILES CCCCCCCCCCCCCCCC(=O)[O-]
REMARK SMILES IDX 9 1 10 2 11 3 12 4 13 5 14 6 15 7 16 8 17 9 18 10 8 11 7 12
REMARK SMILES IDX 6 13 5 14 4 15 3 16 2 17 1 18
REMARK H PARENT
REMARK Flexibility Score: inf
ROOT
ATOM      1  C   UNL     1     154.605 153.272 156.758  1.00  0.00     0.000 C 
ENDROOT
BRANCH   1   2
ATOM      2  C   UNL     1     154.910 154.754 157.068  1.00  0.00     0.000 C 
BRANCH   2   3
ATOM      3  C   UNL     1     155.359 155.001 158.519  1.00  0.00     0.000 C 
BRANCH   3   4
ATOM      4  C   UNL     1     156.440 156.086 158.628  1.00  0.00     0.000 C 
BRANCH   4   5
ATOM      5  C   UNL     1     155.983 157.236 159.536  1.00  0.00     0.000 C 
BRANCH   5   6
ATOM      6  C   UNL     1     154.590 157.776 159.166  1.00  0.00     0.006 C 
BRANCH   6   7
ATOM      7  C   UNL     1     154.610 158.857 158.071  1.00  0.00     0.053 C 
BRANCH   7   8
ATOM      8  C   UNL     1     154.241 158.316 156.722  1.00  0.00     0.041 C 
ATOM      9  O   UNL     1     153.057 157.961 156.485  1.00  0.00    -0.550 OA
ATOM     10  O   UNL     1     155.196 158.238 155.715  1.00  0.00    -0.550 OA
ENDBRANCH   7   8
ENDBRANCH   6   7
ENDBRANCH   5   6
ENDBRANCH   4   5
ENDBRANCH   3   4
ENDBRANCH   2   3
ENDBRANCH   1   2
BRANCH   1  11
ATOM     11  C   UNL     1     155.376 152.275 157.649  1.00  0.00     0.000 C 
BRANCH  11  12
ATOM     12  C   UNL     1     154.675 150.918 157.872  1.00  0.00    -0.000 C 
BRANCH  12  13
ATOM     13  C   UNL     1     153.230 150.998 158.398  1.00  0.00    -0.000 C 
BRANCH  13  14
ATOM     14  C   UNL     1     153.125 151.703 159.761  1.00  0.00    -0.000 C 
BRANCH  14  15
ATOM     15  C   UNL     1     151.992 152.752 159.791  1.00  0.00    -0.000 C 
BRANCH  15  16
ATOM     16  C   UNL     1     151.350 153.006 158.413  1.00  0.00    -0.000 C 
BRANCH  16  17
ATOM     17  C   UNL     1     150.716 154.397 158.248  1.00  0.00    -0.003 C 
ATOM     18  C   UNL     1     151.667 155.531 158.632  1.00  0.00     0.004 C 
ENDBRANCH  16  17
ENDBRANCH  15  16
ENDBRANCH  14  15
ENDBRANCH  13  14
ENDBRANCH  12  13
ENDBRANCH  11  12
ENDBRANCH   1  11
TORSDOF 14
ENDMDL
MODEL 8
REMARK VINA RESULT:    -3.340      1.810      2.460
REMARK INTER + INTRA:          -8.002
REMARK INTER:                  -6.250
REMARK INTRA:                  -1.752
REMARK UNBOUND:                -1.928
REMARK SMILES CCCCCCCCCCCCCCCC(=O)[O-]
REMARK SMILES IDX 9 1 10 2 11 3 12 4 13 5 14 6 15 7 16 8 17 9 18 10 8 11 7 12
REMARK SMILES IDX 6 13 5 14 4 15 3 16 2 17 1 18
REMARK H PARENT
REMARK Flexibility Score: inf
ROOT
ATOM      1  C   UNL     1     154.501 153.522 156.775  1.00  0.00     0.000 C 
ENDROOT
BRANCH   1   2
ATOM      2  C   UNL     1     154.893 154.982 157.095  1.00  0.00     0.000 C 
BRANCH   2   3
ATOM      3  C   UNL     1     155.276 155.209 158.568  1.00  0.00     0.000 C 
BRANCH   3   4
ATOM      4  C   UNL     1     156.579 156.005 158.726  1.00  0.00     0.000 C 
BRANCH   4   5
ATOM      5  C   UNL     1     156.361 157.262 159.579  1.00  0.00     0.000 C 
BRANCH   5   6
ATOM      6  C   UNL     1     155.220 158.153 159.057  1.00  0.00     0.006 C 
BRANCH   6   7
ATOM      7  C   UNL     1     154.089 158.379 160.075  1.00  0.00     0.053 C 
BRANCH   7   8
ATOM      8  C   UNL     1     154.358 159.539 160.985  1.00  0.00     0.041 C 
ATOM      9  O   UNL     1     154.426 160.707 160.519  1.00  0.00    -0.550 OA
ATOM     10  O   UNL     1     154.495 159.338 162.354  1.00  0.00    -0.550 OA
ENDBRANCH   7   8
ENDBRANCH   6   7
ENDBRANCH   5   6
ENDBRANCH   4   5
ENDBRANCH   3   4
ENDBRANCH   2   3
ENDBRANCH   1   2
BRANCH   1  11
ATOM     11  C   UNL     1     155.272 152.472 157.601  1.00  0.00     0.000 C 
BRANCH  11  12
ATOM     12  C   UNL     1     154.589 151.091 157.708  1.00  0.00    -0.000 C 
BRANCH  12  13
ATOM     13  C   UNL     1     153.142 151.109 158.233  1.00  0.00    -0.000 C 
BRANCH  13  14
ATOM     14  C   UNL     1     153.057 151.357 159.749  1.00  0.00    -0.000 C 
BRANCH  14  15
ATOM     15  C   UNL     1     152.051 152.475 160.102  1.00  0.00    -0.000 C 
BRANCH  15  16
ATOM     16  C   UNL     1     151.451 153.178 158.868  1.00  0.00    -0.000 C 
BRANCH  16  17
ATOM     17  C   UNL     1     151.614 154.707 158.859  1.00  0.00    -0.003 C 
ATOM     18  C   UNL     1     150.791 155.384 157.763  1.00  0.00     0.004 C 
ENDBRANCH  16  17
ENDBRANCH  15  16
ENDBRANCH  14  15
ENDBRANCH  13  14
ENDBRANCH  12  13
ENDBRANCH  11  12
ENDBRANCH   1  11
TORSDOF 14
ENDMDL
MODEL 9
REMARK VINA RESULT:    -3.335      1.225      2.494
REMARK INTER + INTRA:          -7.992
REMARK INTER:                  -6.566
REMARK INTRA:                  -1.427
REMARK UNBOUND:                -1.928
REMARK SMILES CCCCCCCCCCCCCCCC(=O)[O-]
REMARK SMILES IDX 9 1 10 2 11 3 12 4 13 5 14 6 15 7 16 8 17 9 18 10 8 11 7 12
REMARK SMILES IDX 6 13 5 14 4 15 3 16 2 17 1 18
REMARK H PARENT
REMARK Flexibility Score: inf
ROOT
ATOM      1  C   UNL     1     155.179 155.261 158.563  1.00  0.00     0.000 C 
ENDROOT
BRANCH   1   2
ATOM      2  C   UNL     1     154.568 156.602 159.024  1.00  0.00     0.000 C 
BRANCH   2   3
ATOM      3  C   UNL     1     155.605 157.594 159.581  1.00  0.00     0.000 C 
BRANCH   3   4
ATOM      4  C   UNL     1     157.050 157.114 159.381  1.00  0.00     0.000 C 
BRANCH   4   5
ATOM      5  C   UNL     1     157.845 157.188 160.692  1.00  0.00     0.000 C 
BRANCH   5   6
ATOM      6  C   UNL     1     157.404 158.352 161.598  1.00  0.00     0.006 C 
BRANCH   6   7
ATOM      7  C   UNL     1     158.536 159.332 161.951  1.00  0.00     0.053 C 
BRANCH   7   8
ATOM      8  C   UNL     1     159.508 158.757 162.937  1.00  0.00     0.041 C 
ATOM      9  O   UNL     1     160.631 158.341 162.549  1.00  0.00    -0.550 OA
ATOM     10  O   UNL     1     159.191 158.715 164.290  1.00  0.00    -0.550 OA
ENDBRANCH   7   8
ENDBRANCH   6   7
ENDBRANCH   5   6
ENDBRANCH   4   5
ENDBRANCH   3   4
ENDBRANCH   2   3
ENDBRANCH   1   2
BRANCH   1  11
ATOM     11  C   UNL     1     154.919 154.932 157.078  1.00  0.00     0.000 C 
BRANCH  11  12
ATOM     12  C   UNL     1     154.575 153.456 156.783  1.00  0.00    -0.000 C 
BRANCH  12  13
ATOM     13  C   UNL     1     155.328 152.419 157.637  1.00  0.00    -0.000 C 
BRANCH  13  14
ATOM     14  C   UNL     1     154.540 151.111 157.825  1.00  0.00    -0.000 C 
BRANCH  14  15
ATOM     15  C   UNL     1     153.100 151.363 158.322  1.00  0.00    -0.000 C 
BRANCH  15  16
ATOM     16  C   UNL     1     153.032 151.951 159.745  1.00  0.00    -0.000 C 
BRANCH  16  17
ATOM     17  C   UNL     1     151.793 152.819 160.021  1.00  0.00    -0.003 C 
ATOM     18  C   UNL     1     151.658 153.986 159.044  1.00  0.00     0.004 C 
ENDBRANCH  16  17
ENDBRANCH  15  16
ENDBRANCH  14  15
ENDBRANCH  13  14
ENDBRANCH  12  13
ENDBRANCH  11  12
ENDBRANCH   1  11
TORSDOF 14
ENDMDL
