MODEL 1
REMARK VINA RESULT:    -5.667      0.000      0.000
REMARK INTER + INTRA:         -12.199
REMARK INTER:                 -10.637
REMARK INTRA:                  -1.562
REMARK UNBOUND:                -1.562
REMARK SMILES O=C([O-])CCCCCCCCCCCCCCC(=O)[O-]
REMARK SMILES IDX 10 1 9 2 8 3 7 4 6 5 5 6 4 7 2 8 1 9 3 10 11 11 12 12 13 13
REMARK SMILES IDX 14 14 15 15 16 16 17 17 18 18 19 19 20 20
REMARK H PARENT
REMARK Flexibility Score: inf
ROOT
ATOM      1  C   UNL     1     -16.625   6.419 -20.813  1.00  0.00     0.000 C 
ENDROOT
BRANCH   1   2
ATOM      2  C   UNL     1     -15.840   6.183 -22.115  1.00  0.00     0.000 C 
BRANCH   2   3
ATOM      3  C   UNL     1     -14.366   5.827 -21.860  1.00  0.00     0.000 C 
BRANCH   3   4
ATOM      4  C   UNL     1     -13.850   6.373 -20.517  1.00  0.00     0.000 C 
BRANCH   4   5
ATOM      5  C   UNL     1     -12.649   7.317 -20.686  1.00  0.00     0.000 C 
BRANCH   5   6
ATOM      6  C   UNL     1     -12.895   8.706 -20.070  1.00  0.00     0.006 C 
BRANCH   6   7
ATOM      7  C   UNL     1     -14.254   9.289 -20.479  1.00  0.00     0.053 C 
BRANCH   7   8
ATOM      8  C   UNL     1     -14.684  10.395 -19.564  1.00  0.00     0.041 C 
ATOM      9  O   UNL     1     -15.880  10.787 -19.562  1.00  0.00    -0.550 OA
ATOM     10  O   UNL     1     -13.770  10.972 -18.692  1.00  0.00    -0.550 OA
ENDBRANCH   7   8
ENDBRANCH   6   7
ENDBRANCH   5   6
ENDBRANCH   4   5
ENDBRANCH   3   4
ENDBRANCH   2   3
ENDBRANCH   1   2
BRANCH   1  11
ATOM     11  C   UNL     1     -17.421   5.180 -20.371  1.00  0.00     0.000 C 
BRANCH  11  12
ATOM     12  C   UNL     1     -17.617   4.164 -21.507  1.00  0.00     0.000 C 
BRANCH  12  13
ATOM     13  C   UNL     1     -16.827   2.879 -21.235  1.00  0.00     0.000 C 
BRANCH  13  14
ATOM     14  C   UNL     1     -16.122   2.944 -19.871  1.00  0.00     0.000 C 
BRANCH  14  15
ATOM     15  C   UNL     1     -14.651   2.508 -19.944  1.00  0.00     0.000 C 
BRANCH  15  16
ATOM     16  C   UNL     1     -14.483   1.078 -20.487  1.00  0.00     0.006 C 
BRANCH  16  17
ATOM     17  C   UNL     1     -14.840   0.015 -19.440  1.00  0.00     0.053 C 
BRANCH  17  18
ATOM     18  C   UNL     1     -14.314  -1.335 -19.819  1.00  0.00     0.041 C 
ATOM     19  O   UNL     1     -13.592  -1.983 -19.016  1.00  0.00    -0.550 OA
ATOM     20  O   UNL     1     -14.591  -1.864 -21.074  1.00  0.00    -0.550 OA
ENDBRANCH  17  18
ENDBRANCH  16  17
ENDBRANCH  15  16
ENDBRANCH  14  15
ENDBRANCH  13  14
ENDBRANCH  12  13
ENDBRANCH  11  12
ENDBRANCH   1  11
TORSDOF 15
ENDMDL
MODEL 2
REMARK VINA RESULT:    -5.523      1.799      2.251
REMARK INTER + INTRA:         -11.929
REMARK INTER:                  -9.601
REMARK INTRA:                  -2.328
REMARK UNBOUND:                -1.562
REMARK SMILES O=C([O-])CCCCCCCCCCCCCCC(=O)[O-]
REMARK SMILES IDX 10 1 9 2 8 3 7 4 6 5 5 6 4 7 2 8 1 9 3 10 11 11 12 12 13 13
REMARK SMILES IDX 14 14 15 15 16 16 17 17 18 18 19 19 20 20
REMARK H PARENT
REMARK Flexibility Score: inf
ROOT
ATOM      1  C   UNL     1     -15.629   6.089 -23.710  1.00  0.00     0.000 C 
ENDROOT
BRANCH   1   2
ATOM      2  C   UNL     1     -14.869   4.752 -23.758  1.00  0.00     0.000 C 
BRANCH   2   3
ATOM      3  C   UNL     1     -13.852   4.608 -22.614  1.00  0.00     0.000 C 
BRANCH   3   4
ATOM      4  C   UNL     1     -13.755   5.875 -21.747  1.00  0.00     0.000 C 
BRANCH   4   5
ATOM      5  C   UNL     1     -14.207   5.633 -20.297  1.00  0.00     0.000 C 
BRANCH   5   6
ATOM      6  C   UNL     1     -15.339   6.581 -19.863  1.00  0.00     0.006 C 
BRANCH   6   7
ATOM      7  C   UNL     1     -15.001   8.053 -20.139  1.00  0.00     0.053 C 
BRANCH   7   8
ATOM      8  C   UNL     1     -15.985   8.684 -21.075  1.00  0.00     0.041 C 
ATOM      9  O   UNL     1     -17.217   8.648 -20.820  1.00  0.00    -0.550 OA
ATOM     10  O   UNL     1     -15.539   9.339 -22.216  1.00  0.00    -0.550 OA
ENDBRANCH   7   8
ENDBRANCH   6   7
ENDBRANCH   5   6
ENDBRANCH   4   5
ENDBRANCH   3   4
ENDBRANCH   2   3
ENDBRANCH   1   2
BRANCH   1  11
ATOM     11  C   UNL     1     -17.094   5.921 -23.274  1.00  0.00     0.000 C 
BRANCH  11  12
ATOM     12  C   UNL     1     -17.495   4.448 -23.099  1.00  0.00     0.000 C 
BRANCH  12  13
ATOM     13  C   UNL     1     -17.630   4.090 -21.614  1.00  0.00     0.000 C 
BRANCH  13  14
ATOM     14  C   UNL     1     -16.842   2.813 -21.283  1.00  0.00     0.000 C 
BRANCH  14  15
ATOM     15  C   UNL     1     -16.196   2.862 -19.889  1.00  0.00     0.000 C 
BRANCH  15  16
ATOM     16  C   UNL     1     -14.858   2.104 -19.830  1.00  0.00     0.006 C 
BRANCH  16  17
ATOM     17  C   UNL     1     -15.039   0.643 -19.398  1.00  0.00     0.053 C 
BRANCH  17  18
ATOM     18  C   UNL     1     -14.630  -0.310 -20.479  1.00  0.00     0.041 C 
ATOM     19  O   UNL     1     -13.478  -0.244 -20.980  1.00  0.00    -0.550 OA
ATOM     20  O   UNL     1     -15.535  -1.250 -20.958  1.00  0.00    -0.550 OA
ENDBRANCH  17  18
ENDBRANCH  16  17
ENDBRANCH  15  16
ENDBRANCH  14  15
ENDBRANCH  13  14
ENDBRANCH  12  13
ENDBRANCH  11  12
ENDBRANCH   1  11
TORSDOF 15
ENDMDL
MODEL 3
REMARK VINA RESULT:    -5.515      2.042      7.623
REMARK INTER + INTRA:         -11.913
REMARK INTER:                  -9.826
REMARK INTRA:                  -2.087
REMARK UNBOUND:                -1.562
REMARK SMILES O=C([O-])CCCCCCCCCCCCCCC(=O)[O-]
REMARK SMILES IDX 10 1 9 2 8 3 7 4 6 5 5 6 4 7 2 8 1 9 3 10 11 11 12 12 13 13
REMARK SMILES IDX 14 14 15 15 16 16 17 17 18 18 19 19 20 20
REMARK H PARENT
REMARK Flexibility Score: inf
ROOT
ATOM      1  C   UNL     1     -15.085   5.771 -22.925  1.00  0.00     0.000 C 
ENDROOT
BRANCH   1   2
ATOM      2  C   UNL     1     -15.903   4.592 -23.482  1.00  0.00     0.000 C 
BRANCH   2   3
ATOM      3  C   UNL     1     -17.265   4.437 -22.786  1.00  0.00     0.000 C 
BRANCH   3   4
ATOM      4  C   UNL     1     -17.373   5.280 -21.503  1.00  0.00     0.000 C 
BRANCH   4   5
ATOM      5  C   UNL     1     -17.192   4.441 -20.228  1.00  0.00     0.000 C 
BRANCH   5   6
ATOM      6  C   UNL     1     -16.695   3.015 -20.522  1.00  0.00     0.006 C 
BRANCH   6   7
ATOM      7  C   UNL     1     -15.383   2.697 -19.791  1.00  0.00     0.053 C 
BRANCH   7   8
ATOM      8  C   UNL     1     -14.677   1.524 -20.398  1.00  0.00     0.041 C 
ATOM      9  O   UNL     1     -14.741   0.391 -19.851  1.00  0.00    -0.550 OA
ATOM     10  O   UNL     1     -13.973   1.673 -21.586  1.00  0.00    -0.550 OA
ENDBRANCH   7   8
ENDBRANCH   6   7
ENDBRANCH   5   6
ENDBRANCH   4   5
ENDBRANCH   3   4
ENDBRANCH   2   3
ENDBRANCH   1   2
BRANCH   1  11
ATOM     11  C   UNL     1     -13.837   5.312 -22.152  1.00  0.00     0.000 C 
BRANCH  11  12
ATOM     12  C   UNL     1     -13.767   5.901 -20.735  1.00  0.00     0.000 C 
BRANCH  12  13
ATOM     13  C   UNL     1     -12.752   7.048 -20.669  1.00  0.00     0.000 C 
BRANCH  13  14
ATOM     14  C   UNL     1     -13.444   8.376 -20.325  1.00  0.00     0.000 C 
BRANCH  14  15
ATOM     15  C   UNL     1     -14.916   8.190 -19.926  1.00  0.00     0.000 C 
BRANCH  15  16
ATOM     16  C   UNL     1     -15.816   9.329 -20.436  1.00  0.00     0.006 C 
BRANCH  16  17
ATOM     17  C   UNL     1     -16.725   8.878 -21.587  1.00  0.00     0.053 C 
BRANCH  17  18
ATOM     18  C   UNL     1     -18.168   9.151 -21.294  1.00  0.00     0.041 C 
ATOM     19  O   UNL     1     -18.497  10.151 -20.605  1.00  0.00    -0.550 OA
ATOM     20  O   UNL     1     -19.149   8.279 -21.754  1.00  0.00    -0.550 OA
ENDBRANCH  17  18
ENDBRANCH  16  17
ENDBRANCH  15  16
ENDBRANCH  14  15
ENDBRANCH  13  14
ENDBRANCH  12  13
ENDBRANCH  11  12
ENDBRANCH   1  11
TORSDOF 15
ENDMDL
MODEL 4
REMARK VINA RESULT:    -5.477      2.166      8.177
REMARK INTER + INTRA:         -11.843
REMARK INTER:                  -9.847
REMARK INTRA:                  -1.996
REMARK UNBOUND:                -1.562
REMARK SMILES O=C([O-])CCCCCCCCCCCCCCC(=O)[O-]
REMARK SMILES IDX 10 1 9 2 8 3 7 4 6 5 5 6 4 7 2 8 1 9 3 10 11 11 12 12 13 13
REMARK SMILES IDX 14 14 15 15 16 16 17 17 18 18 19 19 20 20
REMARK H PARENT
REMARK Flexibility Score: inf
ROOT
ATOM      1  C   UNL     1     -16.492   5.133 -22.104  1.00  0.00     0.000 C 
ENDROOT
BRANCH   1   2
ATOM      2  C   UNL     1     -17.164   3.802 -22.484  1.00  0.00     0.000 C 
BRANCH   2   3
ATOM      3  C   UNL     1     -16.728   2.639 -21.578  1.00  0.00     0.000 C 
BRANCH   3   4
ATOM      4  C   UNL     1     -16.449   3.089 -20.132  1.00  0.00     0.000 C 
BRANCH   4   5
ATOM      5  C   UNL     1     -15.287   2.317 -19.488  1.00  0.00     0.000 C 
BRANCH   5   6
ATOM      6  C   UNL     1     -14.623   1.324 -20.458  1.00  0.00     0.006 C 
BRANCH   6   7
ATOM      7  C   UNL     1     -14.574  -0.100 -19.886  1.00  0.00     0.053 C 
BRANCH   7   8
ATOM      8  C   UNL     1     -14.975  -1.123 -20.904  1.00  0.00     0.041 C 
ATOM      9  O   UNL     1     -14.475  -2.279 -20.873  1.00  0.00    -0.550 OA
ATOM     10  O   UNL     1     -15.923  -0.811 -21.870  1.00  0.00    -0.550 OA
ENDBRANCH   7   8
ENDBRANCH   6   7
ENDBRANCH   5   6
ENDBRANCH   4   5
ENDBRANCH   3   4
ENDBRANCH   2   3
ENDBRANCH   1   2
BRANCH   1  11
ATOM     11  C   UNL     1     -15.219   5.407 -22.923  1.00  0.00     0.000 C 
BRANCH  11  12
ATOM     12  C   UNL     1     -13.934   5.225 -22.101  1.00  0.00     0.000 C 
BRANCH  12  13
ATOM     13  C   UNL     1     -14.122   5.738 -20.669  1.00  0.00     0.000 C 
BRANCH  13  14
ATOM     14  C   UNL     1     -14.045   7.272 -20.619  1.00  0.00     0.000 C 
BRANCH  14  15
ATOM     15  C   UNL     1     -15.232   7.901 -19.873  1.00  0.00     0.000 C 
BRANCH  15  16
ATOM     16  C   UNL     1     -16.043   8.865 -20.756  1.00  0.00     0.006 C 
BRANCH  16  17
ATOM     17  C   UNL     1     -15.443   9.008 -22.161  1.00  0.00     0.053 C 
BRANCH  17  18
ATOM     18  C   UNL     1     -16.492   8.910 -23.225  1.00  0.00     0.041 C 
ATOM     19  O   UNL     1     -16.249   9.309 -24.394  1.00  0.00    -0.550 OA
ATOM     20  O   UNL     1     -17.752   8.410 -22.918  1.00  0.00    -0.550 OA
ENDBRANCH  17  18
ENDBRANCH  16  17
ENDBRANCH  15  16
ENDBRANCH  14  15
ENDBRANCH  13  14
ENDBRANCH  12  13
ENDBRANCH  11  12
ENDBRANCH   1  11
TORSDOF 15
ENDMDL
MODEL 5
REMARK VINA RESULT:    -5.472      3.310      8.161
REMARK INTER + INTRA:         -11.833
REMARK INTER:                  -9.568
REMARK INTRA:                  -2.265
REMARK UNBOUND:                -1.562
REMARK SMILES O=C([O-])CCCCCCCCCCCCCCC(=O)[O-]
REMARK SMILES IDX 10 1 9 2 8 3 7 4 6 5 5 6 4 7 2 8 1 9 3 10 11 11 12 12 13 13
REMARK SMILES IDX 14 14 15 15 16 16 17 17 18 18 19 19 20 20
REMARK H PARENT
REMARK Flexibility Score: inf
ROOT
ATOM      1  C   UNL     1     -14.557   5.620 -20.343  1.00  0.00     0.000 C 
ENDROOT
BRANCH   1   2
ATOM      2  C   UNL     1     -15.701   6.587 -19.992  1.00  0.00     0.000 C 
BRANCH   2   3
ATOM      3  C   UNL     1     -17.081   6.044 -20.398  1.00  0.00     0.000 C 
BRANCH   3   4
ATOM      4  C   UNL     1     -17.192   4.520 -20.218  1.00  0.00     0.000 C 
BRANCH   4   5
ATOM      5  C   UNL     1     -17.722   3.814 -21.476  1.00  0.00     0.000 C 
BRANCH   5   6
ATOM      6  C   UNL     1     -16.999   2.486 -21.761  1.00  0.00     0.006 C 
BRANCH   6   7
ATOM      7  C   UNL     1     -17.425   1.870 -23.100  1.00  0.00     0.053 C 
BRANCH   7   8
ATOM      8  C   UNL     1     -16.984   0.443 -23.223  1.00  0.00     0.041 C 
ATOM      9  O   UNL     1     -17.723  -0.487 -22.806  1.00  0.00    -0.550 OA
ATOM     10  O   UNL     1     -15.770   0.139 -23.824  1.00  0.00    -0.550 OA
ENDBRANCH   7   8
ENDBRANCH   6   7
ENDBRANCH   5   6
ENDBRANCH   4   5
ENDBRANCH   3   4
ENDBRANCH   2   3
ENDBRANCH   1   2
BRANCH   1  11
ATOM     11  C   UNL     1     -14.012   5.840 -21.764  1.00  0.00     0.000 C 
BRANCH  11  12
ATOM     12  C   UNL     1     -14.015   4.555 -22.607  1.00  0.00     0.000 C 
BRANCH  12  13
ATOM     13  C   UNL     1     -14.886   4.722 -23.857  1.00  0.00     0.000 C 
BRANCH  13  14
ATOM     14  C   UNL     1     -15.776   5.970 -23.745  1.00  0.00     0.000 C 
BRANCH  14  15
ATOM     15  C   UNL     1     -15.734   6.843 -25.009  1.00  0.00     0.000 C 
BRANCH  15  16
ATOM     16  C   UNL     1     -16.299   8.254 -24.773  1.00  0.00     0.006 C 
BRANCH  16  17
ATOM     17  C   UNL     1     -16.578   8.526 -23.289  1.00  0.00     0.053 C 
BRANCH  17  18
ATOM     18  C   UNL     1     -17.955   9.076 -23.075  1.00  0.00     0.041 C 
ATOM     19  O   UNL     1     -18.753   8.499 -22.292  1.00  0.00    -0.550 OA
ATOM     20  O   UNL     1     -18.369  10.207 -23.769  1.00  0.00    -0.550 OA
ENDBRANCH  17  18
ENDBRANCH  16  17
ENDBRANCH  15  16
ENDBRANCH  14  15
ENDBRANCH  13  14
ENDBRANCH  12  13
ENDBRANCH  11  12
ENDBRANCH   1  11
TORSDOF 15
ENDMDL
MODEL 6
REMARK VINA RESULT:    -5.468      1.861      8.098
REMARK INTER + INTRA:         -11.825
REMARK INTER:                  -9.749
REMARK INTRA:                  -2.077
REMARK UNBOUND:                -1.562
REMARK SMILES O=C([O-])CCCCCCCCCCCCCCC(=O)[O-]
REMARK SMILES IDX 10 1 9 2 8 3 7 4 6 5 5 6 4 7 2 8 1 9 3 10 11 11 12 12 13 13
REMARK SMILES IDX 14 14 15 15 16 16 17 17 18 18 19 19 20 20
REMARK H PARENT
REMARK Flexibility Score: inf
ROOT
ATOM      1  C   UNL     1     -17.852   3.670 -21.843  1.00  0.00     0.000 C 
ENDROOT
BRANCH   1   2
ATOM      2  C   UNL     1     -17.233   4.197 -20.537  1.00  0.00     0.000 C 
BRANCH   2   3
ATOM      3  C   UNL     1     -16.276   3.185 -19.886  1.00  0.00     0.000 C 
BRANCH   3   4
ATOM      4  C   UNL     1     -15.899   2.033 -20.835  1.00  0.00     0.000 C 
BRANCH   4   5
ATOM      5  C   UNL     1     -14.411   1.657 -20.745  1.00  0.00     0.000 C 
BRANCH   5   6
ATOM      6  C   UNL     1     -14.151   0.178 -21.079  1.00  0.00     0.006 C 
BRANCH   6   7
ATOM      7  C   UNL     1     -14.312  -0.730 -19.853  1.00  0.00     0.053 C 
BRANCH   7   8
ATOM      8  C   UNL     1     -13.717  -2.086 -20.081  1.00  0.00     0.041 C 
ATOM      9  O   UNL     1     -13.256  -2.748 -19.114  1.00  0.00    -0.550 OA
ATOM     10  O   UNL     1     -13.698  -2.632 -21.358  1.00  0.00    -0.550 OA
ENDBRANCH   7   8
ENDBRANCH   6   7
ENDBRANCH   5   6
ENDBRANCH   4   5
ENDBRANCH   3   4
ENDBRANCH   2   3
ENDBRANCH   1   2
BRANCH   1  11
ATOM     11  C   UNL     1     -17.471   4.525 -23.064  1.00  0.00     0.000 C 
BRANCH  11  12
ATOM     12  C   UNL     1     -16.159   4.068 -23.721  1.00  0.00     0.000 C 
BRANCH  12  13
ATOM     13  C   UNL     1     -15.104   5.179 -23.666  1.00  0.00     0.000 C 
BRANCH  13  14
ATOM     14  C   UNL     1     -14.091   4.921 -22.540  1.00  0.00     0.000 C 
BRANCH  14  15
ATOM     15  C   UNL     1     -14.124   6.006 -21.453  1.00  0.00     0.000 C 
BRANCH  15  16
ATOM     16  C   UNL     1     -15.154   7.110 -21.749  1.00  0.00     0.006 C 
BRANCH  16  17
ATOM     17  C   UNL     1     -15.918   7.544 -20.491  1.00  0.00     0.053 C 
BRANCH  17  18
ATOM     18  C   UNL     1     -17.220   8.200 -20.831  1.00  0.00     0.041 C 
ATOM     19  O   UNL     1     -17.339   9.451 -20.754  1.00  0.00    -0.550 OA
ATOM     20  O   UNL     1     -18.314   7.427 -21.202  1.00  0.00    -0.550 OA
ENDBRANCH  17  18
ENDBRANCH  16  17
ENDBRANCH  15  16
ENDBRANCH  14  15
ENDBRANCH  13  14
ENDBRANCH  12  13
ENDBRANCH  11  12
ENDBRANCH   1  11
TORSDOF 15
ENDMDL
MODEL 7
REMARK VINA RESULT:    -5.434      3.403      4.734
REMARK INTER + INTRA:         -11.762
REMARK INTER:                  -9.495
REMARK INTRA:                  -2.266
REMARK UNBOUND:                -1.562
REMARK SMILES O=C([O-])CCCCCCCCCCCCCCC(=O)[O-]
REMARK SMILES IDX 10 1 9 2 8 3 7 4 6 5 5 6 4 7 2 8 1 9 3 10 11 11 12 12 13 13
REMARK SMILES IDX 14 14 15 15 16 16 17 17 18 18 19 19 20 20
REMARK H PARENT
REMARK Flexibility Score: inf
ROOT
ATOM      1  C   UNL     1     -16.618   3.536 -20.402  1.00  0.00     0.000 C 
ENDROOT
BRANCH   1   2
ATOM      2  C   UNL     1     -16.084   4.979 -20.382  1.00  0.00     0.000 C 
BRANCH   2   3
ATOM      3  C   UNL     1     -14.551   5.041 -20.276  1.00  0.00     0.000 C 
BRANCH   3   4
ATOM      4  C   UNL     1     -13.929   6.032 -21.275  1.00  0.00     0.000 C 
BRANCH   4   5
ATOM      5  C   UNL     1     -12.924   6.987 -20.611  1.00  0.00     0.000 C 
BRANCH   5   6
ATOM      6  C   UNL     1     -13.540   8.356 -20.272  1.00  0.00     0.006 C 
BRANCH   6   7
ATOM      7  C   UNL     1     -14.651   8.750 -21.254  1.00  0.00     0.053 C 
BRANCH   7   8
ATOM      8  C   UNL     1     -15.877   9.235 -20.542  1.00  0.00     0.041 C 
ATOM      9  O   UNL     1     -16.957   8.592 -20.629  1.00  0.00    -0.550 OA
ATOM     10  O   UNL     1     -15.821  10.380 -19.757  1.00  0.00    -0.550 OA
ENDBRANCH   7   8
ENDBRANCH   6   7
ENDBRANCH   5   6
ENDBRANCH   4   5
ENDBRANCH   3   4
ENDBRANCH   2   3
ENDBRANCH   1   2
BRANCH   1  11
ATOM     11  C   UNL     1     -15.533   2.501 -20.062  1.00  0.00     0.000 C 
BRANCH  11  12
ATOM     12  C   UNL     1     -15.322   1.472 -21.184  1.00  0.00     0.000 C 
BRANCH  12  13
ATOM     13  C   UNL     1     -13.959   1.667 -21.857  1.00  0.00     0.000 C 
BRANCH  13  14
ATOM     14  C   UNL     1     -14.088   2.537 -23.118  1.00  0.00     0.000 C 
BRANCH  14  15
ATOM     15  C   UNL     1     -15.432   2.342 -23.836  1.00  0.00     0.000 C 
BRANCH  15  16
ATOM     16  C   UNL     1     -16.138   3.675 -24.143  1.00  0.00     0.006 C 
BRANCH  16  17
ATOM     17  C   UNL     1     -15.169   4.864 -24.111  1.00  0.00     0.053 C 
BRANCH  17  18
ATOM     18  C   UNL     1     -15.870   6.158 -24.390  1.00  0.00     0.041 C 
ATOM     19  O   UNL     1     -16.611   6.679 -23.516  1.00  0.00    -0.550 OA
ATOM     20  O   UNL     1     -15.733   6.772 -25.629  1.00  0.00    -0.550 OA
ENDBRANCH  17  18
ENDBRANCH  16  17
ENDBRANCH  15  16
ENDBRANCH  14  15
ENDBRANCH  13  14
ENDBRANCH  12  13
ENDBRANCH  11  12
ENDBRANCH   1  11
TORSDOF 15
ENDMDL
MODEL 8
REMARK VINA RESULT:    -5.398      1.773      2.429
REMARK INTER + INTRA:         -11.694
REMARK INTER:                  -9.793
REMARK INTRA:                  -1.900
REMARK UNBOUND:                -1.562
REMARK SMILES O=C([O-])CCCCCCCCCCCCCCC(=O)[O-]
REMARK SMILES IDX 10 1 9 2 8 3 7 4 6 5 5 6 4 7 2 8 1 9 3 10 11 11 12 12 13 13
REMARK SMILES IDX 14 14 15 15 16 16 17 17 18 18 19 19 20 20
REMARK H PARENT
REMARK Flexibility Score: inf
ROOT
ATOM      1  C   UNL     1     -17.486   4.727 -23.207  1.00  0.00     0.000 C 
ENDROOT
BRANCH   1   2
ATOM      2  C   UNL     1     -16.014   4.763 -23.653  1.00  0.00     0.000 C 
BRANCH   2   3
ATOM      3  C   UNL     1     -15.192   5.818 -22.894  1.00  0.00     0.000 C 
BRANCH   3   4
ATOM      4  C   UNL     1     -13.978   5.212 -22.168  1.00  0.00     0.000 C 
BRANCH   4   5
ATOM      5  C   UNL     1     -13.677   5.915 -20.835  1.00  0.00     0.000 C 
BRANCH   5   6
ATOM      6  C   UNL     1     -14.638   7.082 -20.549  1.00  0.00     0.006 C 
BRANCH   6   7
ATOM      7  C   UNL     1     -13.896   8.414 -20.376  1.00  0.00     0.053 C 
BRANCH   7   8
ATOM      8  C   UNL     1     -14.816   9.512 -19.937  1.00  0.00     0.041 C 
ATOM      9  O   UNL     1     -14.421  10.379 -19.114  1.00  0.00    -0.550 OA
ATOM     10  O   UNL     1     -16.100   9.595 -20.459  1.00  0.00    -0.550 OA
ENDBRANCH   7   8
ENDBRANCH   6   7
ENDBRANCH   5   6
ENDBRANCH   4   5
ENDBRANCH   3   4
ENDBRANCH   2   3
ENDBRANCH   1   2
BRANCH   1  11
ATOM     11  C   UNL     1     -17.642   4.440 -21.705  1.00  0.00     0.000 C 
BRANCH  11  12
ATOM     12  C   UNL     1     -16.962   3.129 -21.277  1.00  0.00     0.000 C 
BRANCH  12  13
ATOM     13  C   UNL     1     -16.399   3.242 -19.856  1.00  0.00     0.000 C 
BRANCH  13  14
ATOM     14  C   UNL     1     -15.077   2.469 -19.724  1.00  0.00     0.000 C 
BRANCH  14  15
ATOM     15  C   UNL     1     -14.787   1.581 -20.944  1.00  0.00     0.000 C 
BRANCH  15  16
ATOM     16  C   UNL     1     -14.889   0.080 -20.622  1.00  0.00     0.006 C 
BRANCH  16  17
ATOM     17  C   UNL     1     -14.910  -0.784 -21.889  1.00  0.00     0.053 C 
BRANCH  17  18
ATOM     18  C   UNL     1     -15.986  -0.354 -22.837  1.00  0.00     0.041 C 
ATOM     19  O   UNL     1     -15.686   0.161 -23.946  1.00  0.00    -0.550 OA
ATOM     20  O   UNL     1     -17.323  -0.489 -22.481  1.00  0.00    -0.550 OA
ENDBRANCH  17  18
ENDBRANCH  16  17
ENDBRANCH  15  16
ENDBRANCH  14  15
ENDBRANCH  13  14
ENDBRANCH  12  13
ENDBRANCH  11  12
ENDBRANCH   1  11
TORSDOF 15
ENDMDL
MODEL 9
REMARK VINA RESULT:    -5.393      2.733      7.059
REMARK INTER + INTRA:         -11.684
REMARK INTER:                  -9.254
REMARK INTRA:                  -2.431
REMARK UNBOUND:                -1.562
REMARK SMILES O=C([O-])CCCCCCCCCCCCCCC(=O)[O-]
REMARK SMILES IDX 10 1 9 2 8 3 7 4 6 5 5 6 4 7 2 8 1 9 3 10 11 11 12 12 13 13
REMARK SMILES IDX 14 14 15 15 16 16 17 17 18 18 19 19 20 20
REMARK H PARENT
REMARK Flexibility Score: inf
ROOT
ATOM      1  C   UNL     1     -17.155   9.147 -24.492  1.00  0.00     0.000 C 
ENDROOT
BRANCH   1   2
ATOM      2  C   UNL     1     -16.051   8.081 -24.594  1.00  0.00     0.000 C 
BRANCH   2   3
ATOM      3  C   UNL     1     -16.468   6.877 -25.456  1.00  0.00     0.000 C 
BRANCH   3   4
ATOM      4  C   UNL     1     -15.994   5.537 -24.867  1.00  0.00     0.000 C 
BRANCH   4   5
ATOM      5  C   UNL     1     -15.226   5.710 -23.547  1.00  0.00     0.000 C 
BRANCH   5   6
ATOM      6  C   UNL     1     -14.823   4.367 -22.913  1.00  0.00     0.006 C 
BRANCH   6   7
ATOM      7  C   UNL     1     -16.014   3.657 -22.255  1.00  0.00     0.053 C 
BRANCH   7   8
ATOM      8  C   UNL     1     -15.693   3.205 -20.863  1.00  0.00     0.041 C 
ATOM      9  O   UNL     1     -14.556   2.733 -20.596  1.00  0.00    -0.550 OA
ATOM     10  O   UNL     1     -16.638   3.331 -19.854  1.00  0.00    -0.550 OA
ENDBRANCH   7   8
ENDBRANCH   6   7
ENDBRANCH   5   6
ENDBRANCH   4   5
ENDBRANCH   3   4
ENDBRANCH   2   3
ENDBRANCH   1   2
BRANCH   1  11
ATOM     11  C   UNL     1     -17.798   9.199 -23.096  1.00  0.00     0.000 C 
BRANCH  11  12
ATOM     12  C   UNL     1     -18.756   8.026 -22.839  1.00  0.00     0.000 C 
BRANCH  12  13
ATOM     13  C   UNL     1     -18.204   7.096 -21.751  1.00  0.00     0.000 C 
BRANCH  13  14
ATOM     14  C   UNL     1     -17.137   7.810 -20.907  1.00  0.00     0.000 C 
BRANCH  14  15
ATOM     15  C   UNL     1     -16.145   6.833 -20.257  1.00  0.00     0.000 C 
BRANCH  15  16
ATOM     16  C   UNL     1     -14.703   7.369 -20.253  1.00  0.00     0.006 C 
BRANCH  16  17
ATOM     17  C   UNL     1     -14.613   8.797 -20.807  1.00  0.00     0.053 C 
BRANCH  17  18
ATOM     18  C   UNL     1     -13.965   9.731 -19.832  1.00  0.00     0.041 C 
ATOM     19  O   UNL     1     -12.755   9.583 -19.520  1.00  0.00    -0.550 OA
ATOM     20  O   UNL     1     -14.709  10.745 -19.240  1.00  0.00    -0.550 OA
ENDBRANCH  17  18
ENDBRANCH  16  17
ENDBRANCH  15  16
ENDBRANCH  14  15
ENDBRANCH  13  14
ENDBRANCH  12  13
ENDBRANCH  11  12
ENDBRANCH   1  11
TORSDOF 15
ENDMDL
