MODEL 1
REMARK VINA RESULT:    -4.157      0.000      0.000
REMARK INTER + INTRA:          -5.006
REMARK INTER:                  -4.886
REMARK INTRA:                  -0.121
REMARK UNBOUND:                -0.121
REMARK SMILES O=C([O-])CCC(=O)[O-]
REMARK SMILES IDX 4 1 2 2 1 3 3 4 5 5 6 6 7 7 8 8
REMARK H PARENT
REMARK Flexibility Score: inf
ROOT
ATOM      1  C   UNL     1      10.761 -14.466 -22.021  1.00  0.00     0.059 C 
ENDROOT
BRANCH   1   2
ATOM      2  C   UNL     1      10.264 -13.309 -22.833  1.00  0.00     0.042 C 
ATOM      3  O   UNL     1      10.236 -13.383 -24.089  1.00  0.00    -0.550 OA
ATOM      4  O   UNL     1       9.792 -12.166 -22.200  1.00  0.00    -0.550 OA
ENDBRANCH   1   2
BRANCH   1   5
ATOM      5  C   UNL     1       9.886 -14.709 -20.787  1.00  0.00     0.059 C 
BRANCH   5   6
ATOM      6  C   UNL     1      10.622 -14.401 -19.520  1.00  0.00     0.042 C 
ATOM      7  O   UNL     1      10.795 -13.206 -19.160  1.00  0.00    -0.550 OA
ATOM      8  O   UNL     1      11.154 -15.433 -18.756  1.00  0.00    -0.550 OA
ENDBRANCH   5   6
ENDBRANCH   1   5
TORSDOF 3
ENDMDL
MODEL 2
REMARK VINA RESULT:    -4.150      0.079      3.988
REMARK INTER + INTRA:          -4.998
REMARK INTER:                  -4.882
REMARK INTRA:                  -0.116
REMARK UNBOUND:                -0.121
REMARK SMILES O=C([O-])CCC(=O)[O-]
REMARK SMILES IDX 4 1 2 2 1 3 3 4 5 5 6 6 7 7 8 8
REMARK H PARENT
REMARK Flexibility Score: inf
ROOT
ATOM      1  C   UNL     1       9.900 -14.717 -20.781  1.00  0.00     0.059 C 
ENDROOT
BRANCH   1   2
ATOM      2  C   UNL     1      10.665 -14.412 -19.530  1.00  0.00     0.042 C 
ATOM      3  O   UNL     1      10.801 -13.221 -19.145  1.00  0.00    -0.550 OA
ATOM      4  O   UNL     1      11.192 -15.446 -18.766  1.00  0.00    -0.550 OA
ENDBRANCH   1   2
BRANCH   1   5
ATOM      5  C   UNL     1      10.746 -14.474 -22.035  1.00  0.00     0.059 C 
BRANCH   5   6
ATOM      6  C   UNL     1      10.248 -13.296 -22.816  1.00  0.00     0.042 C 
ATOM      7  O   UNL     1      10.127 -13.370 -24.067  1.00  0.00    -0.550 OA
ATOM      8  O   UNL     1       9.955 -12.104 -22.165  1.00  0.00    -0.550 OA
ENDBRANCH   5   6
ENDBRANCH   1   5
TORSDOF 3
ENDMDL
MODEL 3
REMARK VINA RESULT:    -4.058      0.476      1.240
REMARK INTER + INTRA:          -4.891
REMARK INTER:                  -4.775
REMARK INTRA:                  -0.116
REMARK UNBOUND:                -0.121
REMARK SMILES O=C([O-])CCC(=O)[O-]
REMARK SMILES IDX 4 1 2 2 1 3 3 4 5 5 6 6 7 7 8 8
REMARK H PARENT
REMARK Flexibility Score: inf
ROOT
ATOM      1  C   UNL     1      10.670 -14.517 -22.008  1.00  0.00     0.059 C 
ENDROOT
BRANCH   1   2
ATOM      2  C   UNL     1       9.874 -13.439 -22.678  1.00  0.00     0.042 C 
ATOM      3  O   UNL     1       9.163 -13.709 -23.681  1.00  0.00    -0.550 OA
ATOM      4  O   UNL     1       9.886 -12.146 -22.170  1.00  0.00    -0.550 OA
ENDBRANCH   1   2
BRANCH   1   5
ATOM      5  C   UNL     1       9.972 -15.033 -20.746  1.00  0.00     0.059 C 
BRANCH   5   6
ATOM      6  C   UNL     1      10.696 -14.612 -19.503  1.00  0.00     0.042 C 
ATOM      7  O   UNL     1      11.198 -15.476 -18.737  1.00  0.00    -0.550 OA
ATOM      8  O   UNL     1      10.780 -13.265 -19.172  1.00  0.00    -0.550 OA
ENDBRANCH   5   6
ENDBRANCH   1   5
TORSDOF 3
ENDMDL
MODEL 4
REMARK VINA RESULT:    -3.948      2.268      3.006
REMARK INTER + INTRA:          -4.761
REMARK INTER:                  -4.661
REMARK INTRA:                  -0.100
REMARK UNBOUND:                -0.121
REMARK SMILES O=C([O-])CCC(=O)[O-]
REMARK SMILES IDX 4 1 2 2 1 3 3 4 5 5 6 6 7 7 8 8
REMARK H PARENT
REMARK Flexibility Score: inf
ROOT
ATOM      1  C   UNL     1      10.618 -15.436 -21.832  1.00  0.00     0.059 C 
ENDROOT
BRANCH   1   2
ATOM      2  C   UNL     1      10.377 -16.913 -21.904  1.00  0.00     0.042 C 
ATOM      3  O   UNL     1       9.297 -17.400 -21.478  1.00  0.00    -0.550 OA
ATOM      4  O   UNL     1      11.328 -17.746 -22.479  1.00  0.00    -0.550 OA
ENDBRANCH   1   2
BRANCH   1   5
ATOM      5  C   UNL     1       9.766 -14.777 -20.742  1.00  0.00     0.059 C 
BRANCH   5   6
ATOM      6  C   UNL     1      10.583 -14.438 -19.533  1.00  0.00     0.042 C 
ATOM      7  O   UNL     1      10.779 -13.235 -19.216  1.00  0.00    -0.550 OA
ATOM      8  O   UNL     1      11.162 -15.451 -18.779  1.00  0.00    -0.550 OA
ENDBRANCH   5   6
ENDBRANCH   1   5
TORSDOF 3
ENDMDL
MODEL 5
REMARK VINA RESULT:    -3.795      2.069      3.972
REMARK INTER + INTRA:          -4.582
REMARK INTER:                  -4.482
REMARK INTRA:                  -0.100
REMARK UNBOUND:                -0.121
REMARK SMILES O=C([O-])CCC(=O)[O-]
REMARK SMILES IDX 4 1 2 2 1 3 3 4 5 5 6 6 7 7 8 8
REMARK H PARENT
REMARK Flexibility Score: inf
ROOT
ATOM      1  C   UNL     1       9.823 -14.663 -20.789  1.00  0.00     0.059 C 
ENDROOT
BRANCH   1   2
ATOM      2  C   UNL     1      10.615 -14.378 -19.550  1.00  0.00     0.042 C 
ATOM      3  O   UNL     1      10.791 -13.190 -19.170  1.00  0.00    -0.550 OA
ATOM      4  O   UNL     1      11.123 -15.425 -18.791  1.00  0.00    -0.550 OA
ENDBRANCH   1   2
BRANCH   1   5
ATOM      5  C   UNL     1      10.688 -15.308 -21.877  1.00  0.00     0.059 C 
BRANCH   5   6
ATOM      6  C   UNL     1      10.132 -16.630 -22.311  1.00  0.00     0.042 C 
ATOM      7  O   UNL     1      10.368 -17.070 -23.467  1.00  0.00    -0.550 OA
ATOM      8  O   UNL     1       9.319 -17.358 -21.450  1.00  0.00    -0.550 OA
ENDBRANCH   5   6
ENDBRANCH   1   5
TORSDOF 3
ENDMDL
MODEL 6
REMARK VINA RESULT:    -3.732      1.397      4.082
REMARK INTER + INTRA:          -4.508
REMARK INTER:                  -4.455
REMARK INTRA:                  -0.053
REMARK UNBOUND:                -0.121
REMARK SMILES O=C([O-])CCC(=O)[O-]
REMARK SMILES IDX 4 1 2 2 1 3 3 4 5 5 6 6 7 7 8 8
REMARK H PARENT
REMARK Flexibility Score: inf
ROOT
ATOM      1  C   UNL     1       9.980 -14.984 -20.738  1.00  0.00     0.059 C 
ENDROOT
BRANCH   1   2
ATOM      2  C   UNL     1      10.676 -14.598 -19.469  1.00  0.00     0.042 C 
ATOM      3  O   UNL     1      11.197 -15.481 -18.738  1.00  0.00    -0.550 OA
ATOM      4  O   UNL     1      10.786 -13.259 -19.115  1.00  0.00    -0.550 OA
ENDBRANCH   1   2
BRANCH   1   5
ATOM      5  C   UNL     1      10.544 -14.227 -21.945  1.00  0.00     0.059 C 
BRANCH   5   6
ATOM      6  C   UNL     1      10.793 -15.144 -23.104  1.00  0.00     0.042 C 
ATOM      7  O   UNL     1      11.289 -16.286 -22.915  1.00  0.00    -0.550 OA
ATOM      8  O   UNL     1      10.512 -14.721 -24.398  1.00  0.00    -0.550 OA
ENDBRANCH   5   6
ENDBRANCH   1   5
TORSDOF 3
ENDMDL
MODEL 7
REMARK VINA RESULT:    -3.704      2.140      2.382
REMARK INTER + INTRA:          -4.475
REMARK INTER:                  -4.435
REMARK INTRA:                  -0.040
REMARK UNBOUND:                -0.121
REMARK SMILES O=C([O-])CCC(=O)[O-]
REMARK SMILES IDX 4 1 2 2 1 3 3 4 5 5 6 6 7 7 8 8
REMARK H PARENT
REMARK Flexibility Score: inf
ROOT
ATOM      1  C   UNL     1      10.199 -16.131 -21.309  1.00  0.00     0.059 C 
ENDROOT
BRANCH   1   2
ATOM      2  C   UNL     1       9.252 -16.354 -22.449  1.00  0.00     0.042 C 
ATOM      3  O   UNL     1       9.464 -17.281 -23.275  1.00  0.00    -0.550 OA
ATOM      4  O   UNL     1       8.115 -15.567 -22.574  1.00  0.00    -0.550 OA
ENDBRANCH   1   2
BRANCH   1   5
ATOM      5  C   UNL     1      10.411 -14.639 -21.035  1.00  0.00     0.059 C 
BRANCH   5   6
ATOM      6  C   UNL     1      10.741 -14.385 -19.596  1.00  0.00     0.042 C 
ATOM      7  O   UNL     1      10.709 -13.214 -19.134  1.00  0.00    -0.550 OA
ATOM      8  O   UNL     1      11.124 -15.438 -18.774  1.00  0.00    -0.550 OA
ENDBRANCH   5   6
ENDBRANCH   1   5
TORSDOF 3
ENDMDL
MODEL 8
REMARK VINA RESULT:    -3.642      1.563      2.351
REMARK INTER + INTRA:          -4.402
REMARK INTER:                  -4.288
REMARK INTRA:                  -0.115
REMARK UNBOUND:                -0.121
REMARK SMILES O=C([O-])CCC(=O)[O-]
REMARK SMILES IDX 4 1 2 2 1 3 3 4 5 5 6 6 7 7 8 8
REMARK H PARENT
REMARK Flexibility Score: inf
ROOT
ATOM      1  C   UNL     1       9.385 -14.987 -21.957  1.00  0.00     0.059 C 
ENDROOT
BRANCH   1   2
ATOM      2  C   UNL     1      10.499 -15.243 -22.926  1.00  0.00     0.042 C 
ATOM      3  O   UNL     1      10.853 -14.345 -23.735  1.00  0.00    -0.550 OA
ATOM      4  O   UNL     1      11.173 -16.457 -22.907  1.00  0.00    -0.550 OA
ENDBRANCH   1   2
BRANCH   1   5
ATOM      5  C   UNL     1       9.889 -14.961 -20.511  1.00  0.00     0.059 C 
BRANCH   5   6
ATOM      6  C   UNL     1      10.269 -13.576 -20.084  1.00  0.00     0.042 C 
ATOM      7  O   UNL     1      10.869 -13.390 -18.993  1.00  0.00    -0.550 OA
ATOM      8  O   UNL     1       9.924 -12.486 -20.874  1.00  0.00    -0.550 OA
ENDBRANCH   5   6
ENDBRANCH   1   5
TORSDOF 3
ENDMDL
MODEL 9
REMARK VINA RESULT:    -3.557      1.679      2.300
REMARK INTER + INTRA:          -4.301
REMARK INTER:                  -4.261
REMARK INTRA:                  -0.040
REMARK UNBOUND:                -0.121
REMARK SMILES O=C([O-])CCC(=O)[O-]
REMARK SMILES IDX 4 1 2 2 1 3 3 4 5 5 6 6 7 7 8 8
REMARK H PARENT
REMARK Flexibility Score: inf
ROOT
ATOM      1  C   UNL     1      10.681 -13.748 -23.018  1.00  0.00     0.059 C 
ENDROOT
BRANCH   1   2
ATOM      2  C   UNL     1      10.039 -12.518 -22.452  1.00  0.00     0.042 C 
ATOM      3  O   UNL     1       9.311 -11.792 -23.179  1.00  0.00    -0.550 OA
ATOM      4  O   UNL     1      10.212 -12.197 -21.111  1.00  0.00    -0.550 OA
ENDBRANCH   1   2
BRANCH   1   5
ATOM      5  C   UNL     1      10.917 -14.810 -21.940  1.00  0.00     0.059 C 
BRANCH   5   6
ATOM      6  C   UNL     1       9.626 -15.350 -21.406  1.00  0.00     0.042 C 
ATOM      7  O   UNL     1       9.426 -15.406 -20.164  1.00  0.00    -0.550 OA
ATOM      8  O   UNL     1       8.658 -15.830 -22.281  1.00  0.00    -0.550 OA
ENDBRANCH   5   6
ENDBRANCH   1   5
TORSDOF 3
ENDMDL
