MODEL 1
REMARK VINA RESULT:    -3.922      0.000      0.000
REMARK INTER + INTRA:          -3.922
REMARK INTER:                  -3.922
REMARK INTRA:                   0.000
REMARK UNBOUND:                 0.000
REMARK SMILES CC1(C)C(=O)[C@]2(C)CC[C@H]1C2
REMARK SMILES IDX 1 1 2 2 10 3 9 4 8 5 6 6 11 7 4 8 5 9 7 10 3 11
REMARK H PARENT
REMARK Flexibility Score: inf
ROOT
ATOM      1  C   UNL     1     166.743 166.677 167.875  1.00  0.00     0.020 C 
ATOM      2  C   UNL     1     166.613 167.551 169.142  1.00  0.00     0.027 C 
ATOM      3  C   UNL     1     167.984 168.047 169.728  1.00  0.00     0.003 C 
ATOM      4  C   UNL     1     168.882 168.648 168.617  1.00  0.00     0.005 C 
ATOM      5  C   UNL     1     168.134 169.942 168.224  1.00  0.00     0.015 C 
ATOM      6  C   UNL     1     166.963 169.970 169.226  1.00  0.00     0.027 C 
ATOM      7  C   UNL     1     167.593 169.336 170.450  1.00  0.00     0.019 C 
ATOM      8  C   UNL     1     166.000 168.886 168.830  1.00  0.00     0.144 C 
ATOM      9  O   UNL     1     164.925 169.058 168.273  1.00  0.00    -0.298 OA
ATOM     10  C   UNL     1     166.338 171.346 169.466  1.00  0.00     0.020 C 
ATOM     11  C   UNL     1     165.785 166.789 170.198  1.00  0.00     0.020 C 
ENDROOT
TORSDOF 0
ENDMDL
MODEL 2
REMARK VINA RESULT:    -3.892      1.936      3.037
REMARK INTER + INTRA:          -3.892
REMARK INTER:                  -3.892
REMARK INTRA:                   0.000
REMARK UNBOUND:                 0.000
REMARK SMILES CC1(C)C(=O)[C@]2(C)CC[C@H]1C2
REMARK SMILES IDX 1 1 2 2 10 3 9 4 8 5 6 6 11 7 4 8 5 9 7 10 3 11
REMARK H PARENT
REMARK Flexibility Score: inf
ROOT
ATOM      1  C   UNL     1     168.797 166.627 167.886  1.00  0.00     0.020 C 
ATOM      2  C   UNL     1     167.892 166.509 169.132  1.00  0.00     0.027 C 
ATOM      3  C   UNL     1     167.479 167.887 169.764  1.00  0.00     0.003 C 
ATOM      4  C   UNL     1     166.963 168.867 168.679  1.00  0.00     0.005 C 
ATOM      5  C   UNL     1     165.629 168.226 168.235  1.00  0.00     0.015 C 
ATOM      6  C   UNL     1     165.500 167.022 169.188  1.00  0.00     0.027 C 
ATOM      7  C   UNL     1     166.152 167.558 170.447  1.00  0.00     0.019 C 
ATOM      8  C   UNL     1     166.524 166.002 168.772  1.00  0.00     0.144 C 
ATOM      9  O   UNL     1     166.290 164.964 168.170  1.00  0.00    -0.298 OA
ATOM     10  C   UNL     1     164.081 166.485 169.380  1.00  0.00     0.020 C 
ATOM     11  C   UNL     1     168.574 165.590 170.167  1.00  0.00     0.020 C 
ENDROOT
TORSDOF 0
ENDMDL
MODEL 3
REMARK VINA RESULT:    -3.866      2.569      4.369
REMARK INTER + INTRA:          -3.866
REMARK INTER:                  -3.866
REMARK INTRA:                   0.000
REMARK UNBOUND:                 0.000
REMARK SMILES CC1(C)C(=O)[C@]2(C)CC[C@H]1C2
REMARK SMILES IDX 1 1 2 2 10 3 9 4 8 5 6 6 11 7 4 8 5 9 7 10 3 11
REMARK H PARENT
REMARK Flexibility Score: inf
ROOT
ATOM      1  C   UNL     1     169.141 169.143 167.967  1.00  0.00     0.020 C 
ATOM      2  C   UNL     1     169.391 168.175 169.144  1.00  0.00     0.027 C 
ATOM      3  C   UNL     1     168.110 167.846 169.993  1.00  0.00     0.003 C 
ATOM      4  C   UNL     1     166.918 167.461 169.079  1.00  0.00     0.005 C 
ATOM      5  C   UNL     1     167.355 166.102 168.488  1.00  0.00     0.015 C 
ATOM      6  C   UNL     1     168.689 165.833 169.213  1.00  0.00     0.027 C 
ATOM      7  C   UNL     1     168.433 166.467 170.566  1.00  0.00     0.019 C 
ATOM      8  C   UNL     1     169.708 166.789 168.659  1.00  0.00     0.144 C 
ATOM      9  O   UNL     1     170.603 166.501 167.879  1.00  0.00    -0.298 OA
ATOM     10  C   UNL     1     169.124 164.367 169.264  1.00  0.00     0.020 C 
ATOM     11  C   UNL     1     170.528 168.733 170.025  1.00  0.00     0.020 C 
ENDROOT
TORSDOF 0
ENDMDL
MODEL 4
REMARK VINA RESULT:    -3.865      1.672      2.996
REMARK INTER + INTRA:          -3.865
REMARK INTER:                  -3.865
REMARK INTRA:                   0.000
REMARK UNBOUND:                 0.000
REMARK SMILES CC1(C)C(=O)[C@]2(C)CC[C@H]1C2
REMARK SMILES IDX 1 1 2 2 10 3 9 4 8 5 6 6 11 7 4 8 5 9 7 10 3 11
REMARK H PARENT
REMARK Flexibility Score: inf
ROOT
ATOM      1  C   UNL     1     166.063 169.119 168.080  1.00  0.00     0.020 C 
ATOM      2  C   UNL     1     167.031 169.413 169.247  1.00  0.00     0.027 C 
ATOM      3  C   UNL     1     167.280 168.192 170.204  1.00  0.00     0.003 C 
ATOM      4  C   UNL     1     167.608 166.909 169.398  1.00  0.00     0.005 C 
ATOM      5  C   UNL     1     168.995 167.220 168.794  1.00  0.00     0.015 C 
ATOM      6  C   UNL     1     169.330 168.592 169.409  1.00  0.00     0.027 C 
ATOM      7  C   UNL     1     168.669 168.486 170.769  1.00  0.00     0.019 C 
ATOM      8  C   UNL     1     168.438 169.612 168.758  1.00  0.00     0.144 C 
ATOM      9  O   UNL     1     168.784 170.422 167.911  1.00  0.00    -0.298 OA
ATOM     10  C   UNL     1     170.817 168.950 169.446  1.00  0.00     0.020 C 
ATOM     11  C   UNL     1     166.529 170.649 170.022  1.00  0.00     0.020 C 
ENDROOT
TORSDOF 0
ENDMDL
MODEL 5
REMARK VINA RESULT:    -3.815      1.906      3.417
REMARK INTER + INTRA:          -3.815
REMARK INTER:                  -3.815
REMARK INTRA:                   0.000
REMARK UNBOUND:                 0.000
REMARK SMILES CC1(C)C(=O)[C@]2(C)CC[C@H]1C2
REMARK SMILES IDX 1 1 2 2 10 3 9 4 8 5 6 6 11 7 4 8 5 9 7 10 3 11
REMARK H PARENT
REMARK Flexibility Score: inf
ROOT
ATOM      1  C   UNL     1     171.085 169.121 170.020  1.00  0.00     0.020 C 
ATOM      2  C   UNL     1     169.993 168.464 169.148  1.00  0.00     0.027 C 
ATOM      3  C   UNL     1     169.126 167.390 169.898  1.00  0.00     0.003 C 
ATOM      4  C   UNL     1     168.629 167.927 171.265  1.00  0.00     0.005 C 
ATOM      5  C   UNL     1     167.622 169.028 170.862  1.00  0.00     0.015 C 
ATOM      6  C   UNL     1     167.594 168.912 169.325  1.00  0.00     0.027 C 
ATOM      7  C   UNL     1     167.807 167.424 169.128  1.00  0.00     0.019 C 
ATOM      8  C   UNL     1     168.902 169.440 168.806  1.00  0.00     0.144 C 
ATOM      9  O   UNL     1     169.067 170.522 168.262  1.00  0.00    -0.298 OA
ATOM     10  C   UNL     1     166.344 169.476 168.647  1.00  0.00     0.020 C 
ATOM     11  C   UNL     1     170.642 167.883 167.875  1.00  0.00     0.020 C 
ENDROOT
TORSDOF 0
ENDMDL
MODEL 6
REMARK VINA RESULT:    -3.753      0.841      3.228
REMARK INTER + INTRA:          -3.753
REMARK INTER:                  -3.753
REMARK INTRA:                   0.000
REMARK UNBOUND:                 0.000
REMARK SMILES CC1(C)C(=O)[C@]2(C)CC[C@H]1C2
REMARK SMILES IDX 1 1 2 2 10 3 9 4 8 5 6 6 11 7 4 8 5 9 7 10 3 11
REMARK H PARENT
REMARK Flexibility Score: inf
ROOT
ATOM      1  C   UNL     1     166.475 170.905 170.091  1.00  0.00     0.020 C 
ATOM      2  C   UNL     1     167.027 169.812 169.149  1.00  0.00     0.027 C 
ATOM      3  C   UNL     1     168.082 168.857 169.815  1.00  0.00     0.003 C 
ATOM      4  C   UNL     1     167.578 168.337 171.185  1.00  0.00     0.005 C 
ATOM      5  C   UNL     1     166.404 167.410 170.797  1.00  0.00     0.015 C 
ATOM      6  C   UNL     1     166.449 167.438 169.257  1.00  0.00     0.027 C 
ATOM      7  C   UNL     1     167.936 167.575 168.998  1.00  0.00     0.019 C 
ATOM      8  C   UNL     1     165.975 168.794 168.813  1.00  0.00     0.144 C 
ATOM      9  O   UNL     1     164.881 169.041 168.327  1.00  0.00    -0.298 OA
ATOM     10  C   UNL     1     165.783 166.250 168.560  1.00  0.00     0.020 C 
ATOM     11  C   UNL     1     167.587 170.479 167.875  1.00  0.00     0.020 C 
ENDROOT
TORSDOF 0
ENDMDL
MODEL 7
REMARK VINA RESULT:    -3.745      1.968      2.857
REMARK INTER + INTRA:          -3.745
REMARK INTER:                  -3.745
REMARK INTRA:                   0.000
REMARK UNBOUND:                 0.000
REMARK SMILES CC1(C)C(=O)[C@]2(C)CC[C@H]1C2
REMARK SMILES IDX 1 1 2 2 10 3 9 4 8 5 6 6 11 7 4 8 5 9 7 10 3 11
REMARK H PARENT
REMARK Flexibility Score: inf
ROOT
ATOM      1  C   UNL     1     165.782 166.624 167.876  1.00  0.00     0.020 C 
ATOM      2  C   UNL     1     166.667 166.834 169.125  1.00  0.00     0.027 C 
ATOM      3  C   UNL     1     167.641 165.641 169.435  1.00  0.00     0.003 C 
ATOM      4  C   UNL     1     168.410 165.202 168.163  1.00  0.00     0.005 C 
ATOM      5  C   UNL     1     169.341 166.404 167.885  1.00  0.00     0.015 C 
ATOM      6  C   UNL     1     169.062 167.330 169.085  1.00  0.00     0.027 C 
ATOM      7  C   UNL     1     168.782 166.327 170.185  1.00  0.00     0.019 C 
ATOM      8  C   UNL     1     167.688 167.913 168.899  1.00  0.00     0.144 C 
ATOM      9  O   UNL     1     167.442 169.057 168.547  1.00  0.00    -0.298 OA
ATOM     10  C   UNL     1     170.165 168.341 169.404  1.00  0.00     0.020 C 
ATOM     11  C   UNL     1     165.766 167.162 170.333  1.00  0.00     0.020 C 
ENDROOT
TORSDOF 0
ENDMDL
MODEL 8
REMARK VINA RESULT:    -3.693      1.528      2.706
REMARK INTER + INTRA:          -3.693
REMARK INTER:                  -3.693
REMARK INTRA:                   0.000
REMARK UNBOUND:                 0.000
REMARK SMILES CC1(C)C(=O)[C@]2(C)CC[C@H]1C2
REMARK SMILES IDX 1 1 2 2 10 3 9 4 8 5 6 6 11 7 4 8 5 9 7 10 3 11
REMARK H PARENT
REMARK Flexibility Score: inf
ROOT
ATOM      1  C   UNL     1     165.578 167.051 170.254  1.00  0.00     0.020 C 
ATOM      2  C   UNL     1     166.059 167.892 169.052  1.00  0.00     0.027 C 
ATOM      3  C   UNL     1     166.325 169.404 169.385  1.00  0.00     0.003 C 
ATOM      4  C   UNL     1     167.187 169.551 170.665  1.00  0.00     0.005 C 
ATOM      5  C   UNL     1     168.562 169.002 170.225  1.00  0.00     0.015 C 
ATOM      6  C   UNL     1     168.343 168.706 168.728  1.00  0.00     0.027 C 
ATOM      7  C   UNL     1     167.367 169.800 168.341  1.00  0.00     0.019 C 
ATOM      8  C   UNL     1     167.447 167.503 168.629  1.00  0.00     0.144 C 
ATOM      9  O   UNL     1     167.804 166.373 168.328  1.00  0.00    -0.298 OA
ATOM     10  C   UNL     1     169.613 168.650 167.877  1.00  0.00     0.020 C 
ATOM     11  C   UNL     1     165.056 167.733 167.890  1.00  0.00     0.020 C 
ENDROOT
TORSDOF 0
ENDMDL
MODEL 9
REMARK VINA RESULT:    -3.692      1.631      3.245
REMARK INTER + INTRA:          -3.692
REMARK INTER:                  -3.692
REMARK INTRA:                   0.000
REMARK UNBOUND:                 0.000
REMARK SMILES CC1(C)C(=O)[C@]2(C)CC[C@H]1C2
REMARK SMILES IDX 1 1 2 2 10 3 9 4 8 5 6 6 11 7 4 8 5 9 7 10 3 11
REMARK H PARENT
REMARK Flexibility Score: inf
ROOT
ATOM      1  C   UNL     1     169.106 169.737 168.282  1.00  0.00     0.020 C 
ATOM      2  C   UNL     1     168.474 168.770 169.307  1.00  0.00     0.027 C 
ATOM      3  C   UNL     1     167.184 169.325 170.011  1.00  0.00     0.003 C 
ATOM      4  C   UNL     1     166.191 169.911 168.975  1.00  0.00     0.005 C 
ATOM      5  C   UNL     1     165.708 168.659 168.208  1.00  0.00     0.015 C 
ATOM      6  C   UNL     1     166.404 167.511 168.965  1.00  0.00     0.027 C 
ATOM      7  C   UNL     1     166.428 168.051 170.381  1.00  0.00     0.019 C 
ATOM      8  C   UNL     1     167.869 167.571 168.632  1.00  0.00     0.144 C 
ATOM      9  O   UNL     1     168.458 166.814 167.875  1.00  0.00    -0.298 OA
ATOM     10  C   UNL     1     165.753 166.135 168.814  1.00  0.00     0.020 C 
ATOM     11  C   UNL     1     169.546 168.351 170.334  1.00  0.00     0.020 C 
ENDROOT
TORSDOF 0
ENDMDL
