MODEL 1
REMARK VINA RESULT:    -3.613      0.000      0.000
REMARK INTER + INTRA:          -5.943
REMARK INTER:                  -5.514
REMARK INTRA:                  -0.428
REMARK UNBOUND:                -0.428
REMARK SMILES CC1=CCC[C@H](C)C(=O)C[C@H](C(C)C)C(=O)C1
REMARK SMILES IDX 8 1 9 2 6 3 7 4 5 5 4 6 3 7 2 8 1 9 10 11 11 12 15 13 16 14
REMARK SMILES IDX 17 15 12 17 13 18 14 19
REMARK H PARENT
REMARK Flexibility Score: 70.00
ROOT
ATOM      1  C   UNL     1     -13.642  11.524  30.162  1.00  0.00     0.136 C 
ATOM      2  O   UNL     1     -13.144  12.502  30.703  1.00  0.00    -0.299 OA
ENDROOT
BRANCH   1   3
ATOM      3  C   UNL     1     -15.117  11.570  29.752  1.00  0.00     0.053 C 
ATOM      4  C   UNL     1     -15.443  10.537  28.658  1.00  0.00     0.016 C 
BRANCH   3   5
ATOM      5  C   UNL     1     -16.075  11.376  30.961  1.00  0.00     0.015 C 
BRANCH   5   6
ATOM      6  C   UNL     1     -16.748   9.992  31.080  1.00  0.00     0.028 C 
BRANCH   6   7
ATOM      7  C   UNL     1     -16.313   9.071  32.202  1.00  0.00    -0.028 C 
ATOM      8  C   UNL     1     -15.403   8.066  32.145  1.00  0.00    -0.070 CG0
ATOM      9  C   UNL     1     -15.274   7.174  33.357  1.00  0.00     0.039 C 
ATOM     10  G   UNL     1     -14.435   7.844  30.994  1.00  0.00     0.000 G0
ENDBRANCH   6   7
ENDBRANCH   5   6
ENDBRANCH   3   5
ENDBRANCH   1   3
BRANCH   1  11
ATOM     11  C   UNL     1     -12.773  10.278  30.020  1.00  0.00     0.087 C 
BRANCH  11  12
ATOM     12  C   UNL     1     -12.447   9.556  31.354  1.00  0.00     0.066 C 
BRANCH  12  13
ATOM     13  C   UNL     1     -12.999   8.139  31.394  1.00  0.00     0.140 C 
ATOM     14  O   UNL     1     -12.227   7.231  31.671  1.00  0.00    -0.299 OA
BRANCH  13  15
ATOM     15  C   UNL     1     -14.430   7.806  31.004  1.00  0.00     0.106 CG0
ATOM     16  G   UNL     1     -15.392   8.077  32.150  1.00  0.00     0.000 G0
ENDBRANCH  13  15
ENDBRANCH  12  13
BRANCH  12  17
ATOM     17  C   UNL     1     -10.917   9.550  31.672  1.00  0.00    -0.006 C 
ATOM     18  C   UNL     1     -10.653   9.833  33.163  1.00  0.00     0.008 C 
ATOM     19  C   UNL     1     -10.137  10.576  30.828  1.00  0.00     0.008 C 
ENDBRANCH  12  17
ENDBRANCH  11  12
ENDBRANCH   1  11
TORSDOF 1
ENDMDL
MODEL 2
REMARK VINA RESULT:    -3.502      4.526      7.251
REMARK INTER + INTRA:          -5.773
REMARK INTER:                  -5.370
REMARK INTRA:                  -0.403
REMARK UNBOUND:                -0.428
REMARK SMILES CC1=CCC[C@H](C)C(=O)C[C@H](C(C)C)C(=O)C1
REMARK SMILES IDX 8 1 9 2 6 3 7 4 5 5 4 6 3 7 2 8 1 9 10 11 11 12 15 13 16 14
REMARK SMILES IDX 17 15 12 17 13 18 14 19
REMARK H PARENT
REMARK Flexibility Score: 70.00
ROOT
ATOM      1  C   UNL     1     -12.451   2.823  31.067  1.00  0.00     0.136 C 
ATOM      2  O   UNL     1     -11.234   2.699  31.097  1.00  0.00    -0.299 OA
ENDROOT
BRANCH   1   3
ATOM      3  C   UNL     1     -13.301   2.068  32.093  1.00  0.00     0.053 C 
ATOM      4  C   UNL     1     -12.740   0.666  32.386  1.00  0.00     0.016 C 
BRANCH   3   5
ATOM      5  C   UNL     1     -13.466   2.857  33.423  1.00  0.00     0.015 C 
BRANCH   5   6
ATOM      6  C   UNL     1     -14.830   3.546  33.641  1.00  0.00     0.028 C 
BRANCH   6   7
ATOM      7  C   UNL     1     -14.930   5.040  33.411  1.00  0.00    -0.028 C 
ATOM      8  C   UNL     1     -15.416   5.679  32.317  1.00  0.00    -0.070 CG0
ATOM      9  C   UNL     1     -15.245   7.178  32.254  1.00  0.00     0.039 C 
ATOM     10  G   UNL     1     -16.212   5.009  31.209  1.00  0.00     0.000 G0
ENDBRANCH   6   7
ENDBRANCH   5   6
ENDBRANCH   3   5
ENDBRANCH   1   3
BRANCH   1  11
ATOM     11  C   UNL     1     -13.047   3.654  29.936  1.00  0.00     0.087 C 
BRANCH  11  12
ATOM     12  C   UNL     1     -14.576   3.487  29.740  1.00  0.00     0.066 C 
BRANCH  12  13
ATOM     13  C   UNL     1     -15.334   4.787  29.960  1.00  0.00     0.140 C 
ATOM     14  O   UNL     1     -15.153   5.698  29.165  1.00  0.00    -0.299 OA
BRANCH  13  15
ATOM     15  C   UNL     1     -16.214   5.026  31.178  1.00  0.00     0.106 CG0
ATOM     16  G   UNL     1     -15.428   5.671  32.308  1.00  0.00     0.000 G0
ENDBRANCH  13  15
ENDBRANCH  12  13
BRANCH  12  17
ATOM     17  C   UNL     1     -14.937   2.880  28.345  1.00  0.00    -0.006 C 
ATOM     18  C   UNL     1     -16.463   2.765  28.163  1.00  0.00     0.008 C 
ATOM     19  C   UNL     1     -14.307   1.492  28.127  1.00  0.00     0.008 C 
ENDBRANCH  12  17
ENDBRANCH  11  12
ENDBRANCH   1  11
TORSDOF 1
ENDMDL
MODEL 3
REMARK VINA RESULT:    -3.438      5.179      7.697
REMARK INTER + INTRA:          -5.676
REMARK INTER:                  -5.187
REMARK INTRA:                  -0.489
REMARK UNBOUND:                -0.428
REMARK SMILES CC1=CCC[C@H](C)C(=O)C[C@H](C(C)C)C(=O)C1
REMARK SMILES IDX 8 1 9 2 6 3 7 4 5 5 4 6 3 7 2 8 1 9 10 11 11 12 15 13 16 14
REMARK SMILES IDX 17 15 12 17 13 18 14 19
REMARK H PARENT
REMARK Flexibility Score: 70.00
ROOT
ATOM      1  C   UNL     1     -13.785   1.721  29.278  1.00  0.00     0.136 C 
ATOM      2  O   UNL     1     -14.505   0.851  28.805  1.00  0.00    -0.299 OA
ENDROOT
BRANCH   1   3
ATOM      3  C   UNL     1     -12.717   1.328  30.302  1.00  0.00     0.053 C 
ATOM      4  C   UNL     1     -11.510   2.281  30.271  1.00  0.00     0.016 C 
BRANCH   3   5
ATOM      5  C   UNL     1     -13.284   1.246  31.749  1.00  0.00     0.015 C 
BRANCH   5   6
ATOM      6  C   UNL     1     -12.999   2.458  32.660  1.00  0.00     0.028 C 
BRANCH   6   7
ATOM      7  C   UNL     1     -14.172   3.281  33.155  1.00  0.00    -0.028 C 
ATOM      8  C   UNL     1     -14.634   4.453  32.651  1.00  0.00    -0.070 CG0
ATOM      9  C   UNL     1     -15.709   5.171  33.431  1.00  0.00     0.039 C 
ATOM     10  G   UNL     1     -14.224   5.035  31.308  1.00  0.00     0.000 G0
ENDBRANCH   6   7
ENDBRANCH   5   6
ENDBRANCH   3   5
ENDBRANCH   1   3
BRANCH   1  11
ATOM     11  C   UNL     1     -14.071   3.165  28.880  1.00  0.00     0.087 C 
BRANCH  11  12
ATOM     12  C   UNL     1     -15.453   3.704  29.332  1.00  0.00     0.066 C 
BRANCH  12  13
ATOM     13  C   UNL     1     -15.331   4.911  30.250  1.00  0.00     0.140 C 
ATOM     14  O   UNL     1     -16.103   5.843  30.078  1.00  0.00    -0.299 OA
BRANCH  13  15
ATOM     15  C   UNL     1     -14.228   5.041  31.290  1.00  0.00     0.106 CG0
ATOM     16  G   UNL     1     -14.654   4.446  32.623  1.00  0.00     0.000 G0
ENDBRANCH  13  15
ENDBRANCH  12  13
BRANCH  12  17
ATOM     17  C   UNL     1     -16.390   4.036  28.126  1.00  0.00    -0.006 C 
ATOM     18  C   UNL     1     -17.500   2.979  27.972  1.00  0.00     0.008 C 
ATOM     19  C   UNL     1     -15.620   4.141  26.796  1.00  0.00     0.008 C 
ENDBRANCH  12  17
ENDBRANCH  11  12
ENDBRANCH   1  11
TORSDOF 1
ENDMDL
MODEL 4
REMARK VINA RESULT:    -3.344      2.031      4.570
REMARK INTER + INTRA:          -5.531
REMARK INTER:                  -5.204
REMARK INTRA:                  -0.327
REMARK UNBOUND:                -0.428
REMARK SMILES CC1=CCC[C@H](C)C(=O)C[C@H](C(C)C)C(=O)C1
REMARK SMILES IDX 8 1 9 2 6 3 7 4 5 5 4 6 3 7 2 8 1 9 10 11 11 12 15 13 16 14
REMARK SMILES IDX 17 15 12 17 13 18 14 19
REMARK H PARENT
REMARK Flexibility Score: 70.00
ROOT
ATOM      1  C   UNL     1     -15.220   8.279  31.978  1.00  0.00     0.136 C 
ATOM      2  O   UNL     1     -16.369   8.674  32.126  1.00  0.00    -0.299 OA
ENDROOT
BRANCH   1   3
ATOM      3  C   UNL     1     -14.562   7.466  33.097  1.00  0.00     0.053 C 
ATOM      4  C   UNL     1     -15.570   7.071  34.190  1.00  0.00     0.016 C 
BRANCH   3   5
ATOM      5  C   UNL     1     -13.841   6.196  32.563  1.00  0.00     0.015 C 
BRANCH   5   6
ATOM      6  C   UNL     1     -12.350   6.053  32.935  1.00  0.00     0.028 C 
BRANCH   6   7
ATOM      7  C   UNL     1     -11.561   7.306  33.255  1.00  0.00    -0.028 C 
ATOM      8  C   UNL     1     -11.078   8.227  32.382  1.00  0.00    -0.070 CG0
ATOM      9  C   UNL     1     -10.168   9.297  32.934  1.00  0.00     0.039 C 
ATOM     10  G   UNL     1     -11.474   8.318  30.917  1.00  0.00     0.000 G0
ENDBRANCH   6   7
ENDBRANCH   5   6
ENDBRANCH   3   5
ENDBRANCH   1   3
BRANCH   1  11
ATOM     11  C   UNL     1     -14.483   8.712  30.714  1.00  0.00     0.087 C 
BRANCH  11  12
ATOM     12  C   UNL     1     -13.593   9.972  30.878  1.00  0.00     0.066 C 
BRANCH  12  13
ATOM     13  C   UNL     1     -12.124   9.681  30.613  1.00  0.00     0.140 C 
ATOM     14  O   UNL     1     -11.459  10.545  30.061  1.00  0.00    -0.299 OA
BRANCH  13  15
ATOM     15  C   UNL     1     -11.490   8.330  30.910  1.00  0.00     0.106 CG0
ATOM     16  G   UNL     1     -11.062   8.230  32.365  1.00  0.00     0.000 G0
ENDBRANCH  13  15
ENDBRANCH  12  13
BRANCH  12  17
ATOM     17  C   UNL     1     -14.077  11.165  29.992  1.00  0.00    -0.006 C 
ATOM     18  C   UNL     1     -14.504  12.366  30.856  1.00  0.00     0.008 C 
ATOM     19  C   UNL     1     -15.248  10.776  29.071  1.00  0.00     0.008 C 
ENDBRANCH  12  17
ENDBRANCH  11  12
ENDBRANCH   1  11
TORSDOF 1
ENDMDL
MODEL 5
REMARK VINA RESULT:    -3.310      5.409      7.089
REMARK INTER + INTRA:          -5.479
REMARK INTER:                  -5.013
REMARK INTRA:                  -0.466
REMARK UNBOUND:                -0.428
REMARK SMILES CC1=CCC[C@H](C)C(=O)C[C@H](C(C)C)C(=O)C1
REMARK SMILES IDX 8 1 9 2 6 3 7 4 5 5 4 6 3 7 2 8 1 9 10 11 11 12 15 13 16 14
REMARK SMILES IDX 17 15 12 17 13 18 14 19
REMARK H PARENT
REMARK Flexibility Score: 70.00
ROOT
ATOM      1  C   UNL     1     -15.877   2.667  28.145  1.00  0.00     0.136 C 
ATOM      2  O   UNL     1     -17.074   2.435  28.249  1.00  0.00    -0.299 OA
ENDROOT
BRANCH   1   3
ATOM      3  C   UNL     1     -15.413   3.791  27.214  1.00  0.00     0.053 C 
ATOM      4  C   UNL     1     -15.988   3.636  25.795  1.00  0.00     0.016 C 
BRANCH   3   5
ATOM      5  C   UNL     1     -15.758   5.202  27.769  1.00  0.00     0.015 C 
BRANCH   5   6
ATOM      6  C   UNL     1     -14.797   5.766  28.837  1.00  0.00     0.028 C 
BRANCH   6   7
ATOM      7  C   UNL     1     -15.201   5.672  30.295  1.00  0.00    -0.028 C 
ATOM      8  C   UNL     1     -14.627   4.918  31.267  1.00  0.00    -0.070 CG0
ATOM      9  C   UNL     1     -15.325   4.860  32.605  1.00  0.00     0.039 C 
ATOM     10  G   UNL     1     -13.284   4.219  31.137  1.00  0.00     0.000 G0
ENDBRANCH   6   7
ENDBRANCH   5   6
ENDBRANCH   3   5
ENDBRANCH   1   3
BRANCH   1  11
ATOM     11  C   UNL     1     -14.914   1.745  28.887  1.00  0.00     0.087 C 
BRANCH  11  12
ATOM     12  C   UNL     1     -13.535   2.373  29.217  1.00  0.00     0.066 C 
BRANCH  12  13
ATOM     13  C   UNL     1     -13.414   2.769  30.680  1.00  0.00     0.140 C 
ATOM     14  O   UNL     1     -13.531   1.891  31.523  1.00  0.00    -0.299 OA
BRANCH  13  15
ATOM     15  C   UNL     1     -13.263   4.215  31.128  1.00  0.00     0.106 CG0
ATOM     16  G   UNL     1     -14.615   4.897  31.255  1.00  0.00     0.000 G0
ENDBRANCH  13  15
ENDBRANCH  12  13
BRANCH  12  17
ATOM     17  C   UNL     1     -12.343   1.447  28.807  1.00  0.00    -0.006 C 
ATOM     18  C   UNL     1     -11.148   2.269  28.291  1.00  0.00     0.008 C 
ATOM     19  C   UNL     1     -12.740   0.420  27.730  1.00  0.00     0.008 C 
ENDBRANCH  12  17
ENDBRANCH  11  12
ENDBRANCH   1  11
TORSDOF 1
ENDMDL
MODEL 6
REMARK VINA RESULT:    -3.258      5.441      7.422
REMARK INTER + INTRA:          -5.400
REMARK INTER:                  -5.159
REMARK INTRA:                  -0.241
REMARK UNBOUND:                -0.428
REMARK SMILES CC1=CCC[C@H](C)C(=O)C[C@H](C(C)C)C(=O)C1
REMARK SMILES IDX 8 1 9 2 6 3 7 4 5 5 4 6 3 7 2 8 1 9 10 11 11 12 15 13 16 14
REMARK SMILES IDX 17 15 12 17 13 18 14 19
REMARK H PARENT
REMARK Flexibility Score: 70.00
ROOT
ATOM      1  C   UNL     1     -13.087   4.476  31.913  1.00  0.00     0.136 C 
ATOM      2  O   UNL     1     -12.440   5.207  32.652  1.00  0.00    -0.299 OA
ENDROOT
BRANCH   1   3
ATOM      3  C   UNL     1     -14.596   4.701  31.780  1.00  0.00     0.053 C 
ATOM      4  C   UNL     1     -15.176   5.451  32.992  1.00  0.00     0.016 C 
BRANCH   3   5
ATOM      5  C   UNL     1     -14.971   5.449  30.469  1.00  0.00     0.015 C 
BRANCH   5   6
ATOM      6  C   UNL     1     -15.749   4.631  29.417  1.00  0.00     0.028 C 
BRANCH   6   7
ATOM      7  C   UNL     1     -15.030   4.213  28.150  1.00  0.00    -0.028 C 
ATOM      8  C   UNL     1     -14.396   3.038  27.906  1.00  0.00    -0.070 CG0
ATOM      9  C   UNL     1     -13.600   2.930  26.628  1.00  0.00     0.039 C 
ATOM     10  G   UNL     1     -14.519   1.795  28.772  1.00  0.00     0.000 G0
ENDBRANCH   6   7
ENDBRANCH   5   6
ENDBRANCH   3   5
ENDBRANCH   1   3
BRANCH   1  11
ATOM     11  C   UNL     1     -12.351   3.320  31.244  1.00  0.00     0.087 C 
BRANCH  11  12
ATOM     12  C   UNL     1     -13.190   2.027  31.071  1.00  0.00     0.066 C 
BRANCH  12  13
ATOM     13  C   UNL     1     -13.273   1.582  29.619  1.00  0.00     0.140 C 
ATOM     14  O   UNL     1     -12.265   1.119  29.103  1.00  0.00    -0.299 OA
BRANCH  13  15
ATOM     15  C   UNL     1     -14.517   1.788  28.768  1.00  0.00     0.106 CG0
ATOM     16  G   UNL     1     -14.394   3.034  27.905  1.00  0.00     0.000 G0
ENDBRANCH  13  15
ENDBRANCH  12  13
BRANCH  12  17
ATOM     17  C   UNL     1     -12.674   0.855  31.967  1.00  0.00    -0.006 C 
ATOM     18  C   UNL     1     -13.554  -0.399  31.810  1.00  0.00     0.008 C 
ATOM     19  C   UNL     1     -12.619   1.236  33.458  1.00  0.00     0.008 C 
ENDBRANCH  12  17
ENDBRANCH  11  12
ENDBRANCH   1  11
TORSDOF 1
ENDMDL
MODEL 7
REMARK VINA RESULT:    -3.228      3.971      6.098
REMARK INTER + INTRA:          -5.354
REMARK INTER:                  -4.788
REMARK INTRA:                  -0.566
REMARK UNBOUND:                -0.428
REMARK SMILES CC1=CCC[C@H](C)C(=O)C[C@H](C(C)C)C(=O)C1
REMARK SMILES IDX 8 1 9 2 6 3 7 4 5 5 4 6 3 7 2 8 1 9 10 11 11 12 15 13 16 14
REMARK SMILES IDX 17 15 12 17 13 18 14 19
REMARK H PARENT
REMARK Flexibility Score: 70.00
ROOT
ATOM      1  C   UNL     1     -15.916   6.070  33.013  1.00  0.00     0.136 C 
ATOM      2  O   UNL     1     -16.472   6.097  34.103  1.00  0.00    -0.299 OA
ENDROOT
BRANCH   1   3
ATOM      3  C   UNL     1     -15.067   7.268  32.579  1.00  0.00     0.053 C 
ATOM      4  C   UNL     1     -15.879   8.575  32.568  1.00  0.00     0.016 C 
BRANCH   3   5
ATOM      5  C   UNL     1     -13.798   7.446  33.460  1.00  0.00     0.015 C 
BRANCH   5   6
ATOM      6  C   UNL     1     -12.879   6.212  33.586  1.00  0.00     0.028 C 
BRANCH   6   7
ATOM      7  C   UNL     1     -12.064   5.791  32.379  1.00  0.00    -0.028 C 
ATOM      8  C   UNL     1     -12.174   4.643  31.664  1.00  0.00    -0.070 CG0
ATOM      9  C   UNL     1     -11.125   4.376  30.611  1.00  0.00     0.039 C 
ATOM     10  G   UNL     1     -13.333   3.666  31.774  1.00  0.00     0.000 G0
ENDBRANCH   6   7
ENDBRANCH   5   6
ENDBRANCH   3   5
ENDBRANCH   1   3
BRANCH   1  11
ATOM     11  C   UNL     1     -16.191   4.870  32.112  1.00  0.00     0.087 C 
BRANCH  11  12
ATOM     12  C   UNL     1     -15.467   4.905  30.741  1.00  0.00     0.066 C 
BRANCH  12  13
ATOM     13  C   UNL     1     -14.346   3.881  30.652  1.00  0.00     0.140 C 
ATOM     14  O   UNL     1     -14.312   3.152  29.671  1.00  0.00    -0.299 OA
BRANCH  13  15
ATOM     15  C   UNL     1     -13.345   3.662  31.777  1.00  0.00     0.106 CG0
ATOM     16  G   UNL     1     -12.176   4.627  31.668  1.00  0.00     0.000 G0
ENDBRANCH  13  15
ENDBRANCH  12  13
BRANCH  12  17
ATOM     17  C   UNL     1     -16.453   4.733  29.540  1.00  0.00    -0.006 C 
ATOM     18  C   UNL     1     -16.406   5.952  28.599  1.00  0.00     0.008 C 
ATOM     19  C   UNL     1     -17.907   4.519  29.999  1.00  0.00     0.008 C 
ENDBRANCH  12  17
ENDBRANCH  11  12
ENDBRANCH   1  11
TORSDOF 1
ENDMDL
MODEL 8
REMARK VINA RESULT:    -3.180      1.751      2.344
REMARK INTER + INTRA:          -5.281
REMARK INTER:                  -4.985
REMARK INTRA:                  -0.296
REMARK UNBOUND:                -0.428
REMARK SMILES CC1=CCC[C@H](C)C(=O)C[C@H](C(C)C)C(=O)C1
REMARK SMILES IDX 8 1 9 2 6 3 7 4 5 5 4 6 3 7 2 8 1 9 10 11 11 12 15 13 16 14
REMARK SMILES IDX 17 15 12 17 13 18 14 19
REMARK H PARENT
REMARK Flexibility Score: 70.00
ROOT
ATOM      1  C   UNL     1     -14.529  10.042  30.070  1.00  0.00     0.136 C 
ATOM      2  O   UNL     1     -14.581  10.947  29.248  1.00  0.00    -0.299 OA
ENDROOT
BRANCH   1   3
ATOM      3  C   UNL     1     -15.616   9.947  31.144  1.00  0.00     0.053 C 
ATOM      4  C   UNL     1     -16.910  10.663  30.718  1.00  0.00     0.016 C 
BRANCH   3   5
ATOM      5  C   UNL     1     -15.935   8.477  31.539  1.00  0.00     0.015 C 
BRANCH   5   6
ATOM      6  C   UNL     1     -15.446   8.025  32.931  1.00  0.00     0.028 C 
BRANCH   6   7
ATOM      7  C   UNL     1     -14.805   6.658  33.063  1.00  0.00    -0.028 C 
ATOM      8  C   UNL     1     -13.482   6.357  33.041  1.00  0.00    -0.070 CG0
ATOM      9  C   UNL     1     -13.102   4.896  33.014  1.00  0.00     0.039 C 
ATOM     10  G   UNL     1     -12.363   7.380  33.150  1.00  0.00     0.000 G0
ENDBRANCH   6   7
ENDBRANCH   5   6
ENDBRANCH   3   5
ENDBRANCH   1   3
BRANCH   1  11
ATOM     11  C   UNL     1     -13.316   9.117  30.025  1.00  0.00     0.087 C 
BRANCH  11  12
ATOM     12  C   UNL     1     -12.353   9.246  31.233  1.00  0.00     0.066 C 
BRANCH  12  13
ATOM     13  C   UNL     1     -11.925   7.893  31.779  1.00  0.00     0.140 C 
ATOM     14  O   UNL     1     -11.273   7.160  31.048  1.00  0.00    -0.299 OA
BRANCH  13  15
ATOM     15  C   UNL     1     -12.364   7.383  33.143  1.00  0.00     0.106 CG0
ATOM     16  G   UNL     1     -13.492   6.373  33.018  1.00  0.00     0.000 G0
ENDBRANCH  13  15
ENDBRANCH  12  13
BRANCH  12  17
ATOM     17  C   UNL     1     -11.098  10.119  30.907  1.00  0.00    -0.006 C 
ATOM     18  C   UNL     1     -11.237  11.539  31.488  1.00  0.00     0.008 C 
ATOM     19  C   UNL     1     -10.834  10.228  29.394  1.00  0.00     0.008 C 
ENDBRANCH  12  17
ENDBRANCH  11  12
ENDBRANCH   1  11
TORSDOF 1
ENDMDL
MODEL 9
REMARK VINA RESULT:    -3.156      4.793      6.461
REMARK INTER + INTRA:          -5.245
REMARK INTER:                  -4.664
REMARK INTRA:                  -0.581
REMARK UNBOUND:                -0.428
REMARK SMILES CC1=CCC[C@H](C)C(=O)C[C@H](C(C)C)C(=O)C1
REMARK SMILES IDX 8 1 9 2 6 3 7 4 5 5 4 6 3 7 2 8 1 9 10 11 11 12 15 13 16 14
REMARK SMILES IDX 17 15 12 17 13 18 14 19
REMARK H PARENT
REMARK Flexibility Score: 70.00
ROOT
ATOM      1  C   UNL     1     -14.926   5.561  28.928  1.00  0.00     0.136 C 
ATOM      2  O   UNL     1     -14.817   6.450  28.094  1.00  0.00    -0.299 OA
ENDROOT
BRANCH   1   3
ATOM      3  C   UNL     1     -16.078   4.559  28.802  1.00  0.00     0.053 C 
ATOM      4  C   UNL     1     -17.419   5.257  28.514  1.00  0.00     0.016 C 
BRANCH   3   5
ATOM      5  C   UNL     1     -15.806   3.476  27.720  1.00  0.00     0.015 C 
BRANCH   5   6
ATOM      6  C   UNL     1     -14.459   2.731  27.826  1.00  0.00     0.028 C 
BRANCH   6   7
ATOM      7  C   UNL     1     -14.313   1.647  28.875  1.00  0.00    -0.028 C 
ATOM      8  C   UNL     1     -13.457   1.621  29.928  1.00  0.00    -0.070 CG0
ATOM      9  C   UNL     1     -13.379   0.345  30.730  1.00  0.00     0.039 C 
ATOM     10  G   UNL     1     -12.655   2.817  30.417  1.00  0.00     0.000 G0
ENDBRANCH   6   7
ENDBRANCH   5   6
ENDBRANCH   3   5
ENDBRANCH   1   3
BRANCH   1  11
ATOM     11  C   UNL     1     -13.952   5.572  30.102  1.00  0.00     0.087 C 
BRANCH  11  12
ATOM     12  C   UNL     1     -14.363   4.674  31.298  1.00  0.00     0.066 C 
BRANCH  12  13
ATOM     13  C   UNL     1     -13.368   3.551  31.546  1.00  0.00     0.140 C 
ATOM     14  O   UNL     1     -13.079   3.286  32.705  1.00  0.00    -0.299 OA
BRANCH  13  15
ATOM     15  C   UNL     1     -12.649   2.828  30.417  1.00  0.00     0.106 CG0
ATOM     16  G   UNL     1     -13.452   1.633  29.928  1.00  0.00     0.000 G0
ENDBRANCH  13  15
ENDBRANCH  12  13
BRANCH  12  17
ATOM     17  C   UNL     1     -14.593   5.492  32.609  1.00  0.00    -0.006 C 
ATOM     18  C   UNL     1     -16.094   5.634  32.925  1.00  0.00     0.008 C 
ATOM     19  C   UNL     1     -13.966   6.897  32.543  1.00  0.00     0.008 C 
ENDBRANCH  12  17
ENDBRANCH  11  12
ENDBRANCH   1  11
TORSDOF 1
ENDMDL
