MODEL 1
REMARK VINA RESULT:    -3.778      0.000      0.000
REMARK INTER + INTRA:          -4.418
REMARK INTER:                  -4.219
REMARK INTRA:                  -0.199
REMARK UNBOUND:                -0.199
REMARK SMILES O=C([O-])c1ccccc1C(=O)[O-]
REMARK SMILES IDX 4 1 9 2 5 3 8 4 6 5 7 6 2 7 1 8 3 9 10 10 11 11 12 12
REMARK H PARENT
REMARK Flexibility Score: inf
ROOT
ATOM      1  C   UNL     1      40.588 183.544 172.863  1.00  0.00     0.006 A 
ATOM      2  C   UNL     1      40.203 182.701 171.785  1.00  0.00     0.006 A 
ATOM      3  C   UNL     1      41.622 183.127 173.723  1.00  0.00     0.010 A 
ATOM      4  C   UNL     1      40.908 181.502 171.568  1.00  0.00     0.010 A 
ATOM      5  C   UNL     1      42.292 181.924 173.501  1.00  0.00     0.001 A 
ATOM      6  C   UNL     1      41.944 181.118 172.420  1.00  0.00     0.001 A 
ENDROOT
BRANCH   1   7
ATOM      7  C   UNL     1      39.997 184.885 173.079  1.00  0.00     0.072 C 
ATOM      8  O   UNL     1      40.453 185.885 172.463  1.00  0.00    -0.545 OA
ATOM      9  O   UNL     1      38.897 185.049 173.913  1.00  0.00    -0.545 OA
ENDBRANCH   1   7
BRANCH   2  10
ATOM     10  C   UNL     1      39.038 182.994 170.919  1.00  0.00     0.072 C 
ATOM     11  O   UNL     1      39.207 183.282 169.704  1.00  0.00    -0.545 OA
ATOM     12  O   UNL     1      37.743 182.895 171.415  1.00  0.00    -0.545 OA
ENDBRANCH   2  10
TORSDOF 2
ENDMDL
MODEL 2
REMARK VINA RESULT:    -3.763      0.190      2.864
REMARK INTER + INTRA:          -4.402
REMARK INTER:                  -4.212
REMARK INTRA:                  -0.190
REMARK UNBOUND:                -0.199
REMARK SMILES O=C([O-])c1ccccc1C(=O)[O-]
REMARK SMILES IDX 4 1 9 2 5 3 8 4 6 5 7 6 2 7 1 8 3 9 10 10 11 11 12 12
REMARK H PARENT
REMARK Flexibility Score: inf
ROOT
ATOM      1  C   UNL     1      40.111 182.776 171.769  1.00  0.00     0.006 A 
ATOM      2  C   UNL     1      40.420 183.624 172.867  1.00  0.00     0.006 A 
ATOM      3  C   UNL     1      40.860 181.598 171.581  1.00  0.00     0.010 A 
ATOM      4  C   UNL     1      41.423 183.234 173.773  1.00  0.00     0.010 A 
ATOM      5  C   UNL     1      41.865 181.242 172.481  1.00  0.00     0.001 A 
ATOM      6  C   UNL     1      42.139 182.052 173.580  1.00  0.00     0.001 A 
ENDROOT
BRANCH   1   7
ATOM      7  C   UNL     1      38.979 183.038 170.849  1.00  0.00     0.072 C 
ATOM      8  O   UNL     1      39.196 183.316 169.640  1.00  0.00    -0.545 OA
ATOM      9  O   UNL     1      37.666 182.920 171.290  1.00  0.00    -0.545 OA
ENDBRANCH   1   7
BRANCH   2  10
ATOM     10  C   UNL     1      39.779 184.946 173.059  1.00  0.00     0.072 C 
ATOM     11  O   UNL     1      40.278 185.975 172.532  1.00  0.00    -0.545 OA
ATOM     12  O   UNL     1      38.589 185.061 173.769  1.00  0.00    -0.545 OA
ENDBRANCH   2  10
TORSDOF 2
ENDMDL
MODEL 3
REMARK VINA RESULT:    -3.653      2.190      3.982
REMARK INTER + INTRA:          -4.279
REMARK INTER:                  -4.056
REMARK INTRA:                  -0.223
REMARK UNBOUND:                -0.199
REMARK SMILES O=C([O-])c1ccccc1C(=O)[O-]
REMARK SMILES IDX 4 1 9 2 5 3 8 4 6 5 7 6 2 7 1 8 3 9 10 10 11 11 12 12
REMARK H PARENT
REMARK Flexibility Score: inf
ROOT
ATOM      1  C   UNL     1      38.611 184.034 171.396  1.00  0.00     0.006 A 
ATOM      2  C   UNL     1      38.645 185.216 172.186  1.00  0.00     0.006 A 
ATOM      3  C   UNL     1      39.814 183.350 171.135  1.00  0.00     0.010 A 
ATOM      4  C   UNL     1      39.870 185.634 172.739  1.00  0.00     0.010 A 
ATOM      5  C   UNL     1      41.020 183.795 171.676  1.00  0.00     0.001 A 
ATOM      6  C   UNL     1      41.047 184.929 172.485  1.00  0.00     0.001 A 
ENDROOT
BRANCH   1   7
ATOM      7  C   UNL     1      37.348 183.445 170.893  1.00  0.00     0.072 C 
ATOM      8  O   UNL     1      36.721 182.603 171.589  1.00  0.00    -0.545 OA
ATOM      9  O   UNL     1      36.807 183.857 169.681  1.00  0.00    -0.545 OA
ENDBRANCH   1   7
BRANCH   2  10
ATOM     10  C   UNL     1      37.455 186.073 172.393  1.00  0.00     0.072 C 
ATOM     11  O   UNL     1      36.846 186.057 173.495  1.00  0.00    -0.545 OA
ATOM     12  O   UNL     1      37.032 186.950 171.401  1.00  0.00    -0.545 OA
ENDBRANCH   2  10
TORSDOF 2
ENDMDL
MODEL 4
REMARK VINA RESULT:    -3.652      2.174      2.871
REMARK INTER + INTRA:          -4.278
REMARK INTER:                  -4.057
REMARK INTRA:                  -0.221
REMARK UNBOUND:                -0.199
REMARK SMILES O=C([O-])c1ccccc1C(=O)[O-]
REMARK SMILES IDX 4 1 9 2 5 3 8 4 6 5 7 6 2 7 1 8 3 9 10 10 11 11 12 12
REMARK H PARENT
REMARK Flexibility Score: inf
ROOT
ATOM      1  C   UNL     1      38.646 185.171 172.195  1.00  0.00     0.006 A 
ATOM      2  C   UNL     1      38.618 184.031 171.346  1.00  0.00     0.006 A 
ATOM      3  C   UNL     1      39.865 185.553 172.788  1.00  0.00     0.010 A 
ATOM      4  C   UNL     1      39.820 183.353 171.070  1.00  0.00     0.010 A 
ATOM      5  C   UNL     1      41.040 184.853 172.516  1.00  0.00     0.001 A 
ATOM      6  C   UNL     1      41.021 183.762 171.651  1.00  0.00     0.001 A 
ENDROOT
BRANCH   1   7
ATOM      7  C   UNL     1      37.457 186.024 172.427  1.00  0.00     0.072 C 
ATOM      8  O   UNL     1      36.846 185.975 173.527  1.00  0.00    -0.545 OA
ATOM      9  O   UNL     1      37.039 186.933 171.462  1.00  0.00    -0.545 OA
ENDBRANCH   1   7
BRANCH   2  10
ATOM     10  C   UNL     1      37.360 183.476 170.795  1.00  0.00     0.072 C 
ATOM     11  O   UNL     1      36.713 182.610 171.440  1.00  0.00    -0.545 OA
ATOM     12  O   UNL     1      36.844 183.947 169.593  1.00  0.00    -0.545 OA
ENDBRANCH   2  10
TORSDOF 2
ENDMDL
MODEL 5
REMARK VINA RESULT:    -3.640      2.867      4.188
REMARK INTER + INTRA:          -4.264
REMARK INTER:                  -4.037
REMARK INTRA:                  -0.227
REMARK UNBOUND:                -0.199
REMARK SMILES O=C([O-])c1ccccc1C(=O)[O-]
REMARK SMILES IDX 4 1 9 2 5 3 8 4 6 5 7 6 2 7 1 8 3 9 10 10 11 11 12 12
REMARK H PARENT
REMARK Flexibility Score: inf
ROOT
ATOM      1  C   UNL     1      37.836 183.745 170.292  1.00  0.00     0.006 A 
ATOM      2  C   UNL     1      37.151 183.456 171.504  1.00  0.00     0.006 A 
ATOM      3  C   UNL     1      39.189 183.375 170.165  1.00  0.00     0.010 A 
ATOM      4  C   UNL     1      37.824 182.752 172.520  1.00  0.00     0.010 A 
ATOM      5  C   UNL     1      39.842 182.697 171.194  1.00  0.00     0.001 A 
ATOM      6  C   UNL     1      39.158 182.376 172.365  1.00  0.00     0.001 A 
ENDROOT
BRANCH   1   7
ATOM      7  C   UNL     1      37.165 184.354 169.120  1.00  0.00     0.072 C 
ATOM      8  O   UNL     1      36.642 183.623 168.238  1.00  0.00    -0.545 OA
ATOM      9  O   UNL     1      37.047 185.735 169.010  1.00  0.00    -0.545 OA
ENDBRANCH   1   7
BRANCH   2  10
ATOM     10  C   UNL     1      35.774 183.931 171.776  1.00  0.00     0.072 C 
ATOM     11  O   UNL     1      35.587 185.037 172.349  1.00  0.00    -0.545 OA
ATOM     12  O   UNL     1      34.674 183.197 171.350  1.00  0.00    -0.545 OA
ENDBRANCH   2  10
TORSDOF 2
ENDMDL
MODEL 6
REMARK VINA RESULT:    -3.538     21.904     23.347
REMARK INTER + INTRA:          -4.151
REMARK INTER:                  -3.937
REMARK INTRA:                  -0.213
REMARK UNBOUND:                -0.199
REMARK SMILES O=C([O-])c1ccccc1C(=O)[O-]
REMARK SMILES IDX 4 1 9 2 5 3 8 4 6 5 7 6 2 7 1 8 3 9 10 10 11 11 12 12
REMARK H PARENT
REMARK Flexibility Score: inf
ROOT
ATOM      1  C   UNL     1      32.122 168.710 156.741  1.00  0.00     0.006 A 
ATOM      2  C   UNL     1      31.200 168.939 155.683  1.00  0.00     0.006 A 
ATOM      3  C   UNL     1      33.503 168.775 156.472  1.00  0.00     0.010 A 
ATOM      4  C   UNL     1      31.690 169.285 154.410  1.00  0.00     0.010 A 
ATOM      5  C   UNL     1      33.966 169.100 155.197  1.00  0.00     0.001 A 
ATOM      6  C   UNL     1      33.063 169.365 154.170  1.00  0.00     0.001 A 
ENDROOT
BRANCH   1   7
ATOM      7  C   UNL     1      31.692 168.480 158.140  1.00  0.00     0.072 C 
ATOM      8  O   UNL     1      31.713 167.318 158.626  1.00  0.00    -0.545 OA
ATOM      9  O   UNL     1      31.321 169.545 158.951  1.00  0.00    -0.545 OA
ENDBRANCH   1   7
BRANCH   2  10
ATOM     10  C   UNL     1      29.739 168.754 155.843  1.00  0.00     0.072 C 
ATOM     11  O   UNL     1      28.975 169.754 155.898  1.00  0.00    -0.545 OA
ATOM     12  O   UNL     1      29.185 167.479 155.871  1.00  0.00    -0.545 OA
ENDBRANCH   2  10
TORSDOF 2
ENDMDL
MODEL 7
REMARK VINA RESULT:    -3.528     21.873     23.404
REMARK INTER + INTRA:          -4.140
REMARK INTER:                  -3.954
REMARK INTRA:                  -0.186
REMARK UNBOUND:                -0.199
REMARK SMILES O=C([O-])c1ccccc1C(=O)[O-]
REMARK SMILES IDX 4 1 9 2 5 3 8 4 6 5 7 6 2 7 1 8 3 9 10 10 11 11 12 12
REMARK H PARENT
REMARK Flexibility Score: inf
ROOT
ATOM      1  C   UNL     1      31.230 169.020 155.691  1.00  0.00     0.006 A 
ATOM      2  C   UNL     1      32.126 168.752 156.762  1.00  0.00     0.006 A 
ATOM      3  C   UNL     1      31.754 169.349 154.426  1.00  0.00     0.010 A 
ATOM      4  C   UNL     1      33.512 168.760 156.514  1.00  0.00     0.010 A 
ATOM      5  C   UNL     1      33.132 169.372 154.208  1.00  0.00     0.001 A 
ATOM      6  C   UNL     1      34.009 169.068 155.247  1.00  0.00     0.001 A 
ENDROOT
BRANCH   1   7
ATOM      7  C   UNL     1      29.761 168.894 155.828  1.00  0.00     0.072 C 
ATOM      8  O   UNL     1      29.027 169.915 155.744  1.00  0.00    -0.545 OA
ATOM      9  O   UNL     1      29.168 167.648 155.988  1.00  0.00    -0.545 OA
ENDBRANCH   1   7
BRANCH   2  10
ATOM     10  C   UNL     1      31.666 168.536 158.153  1.00  0.00     0.072 C 
ATOM     11  O   UNL     1      31.675 167.380 158.652  1.00  0.00    -0.545 OA
ATOM     12  O   UNL     1      31.279 169.610 158.946  1.00  0.00    -0.545 OA
ENDBRANCH   2  10
TORSDOF 2
ENDMDL
MODEL 8
REMARK VINA RESULT:    -3.524      2.553      4.553
REMARK INTER + INTRA:          -4.135
REMARK INTER:                  -3.936
REMARK INTRA:                  -0.199
REMARK UNBOUND:                -0.199
REMARK SMILES O=C([O-])c1ccccc1C(=O)[O-]
REMARK SMILES IDX 4 1 9 2 5 3 8 4 6 5 7 6 2 7 1 8 3 9 10 10 11 11 12 12
REMARK H PARENT
REMARK Flexibility Score: inf
ROOT
ATOM      1  C   UNL     1      37.458 184.927 171.209  1.00  0.00     0.006 A 
ATOM      2  C   UNL     1      38.645 184.449 171.829  1.00  0.00     0.006 A 
ATOM      3  C   UNL     1      37.002 186.225 171.512  1.00  0.00     0.010 A 
ATOM      4  C   UNL     1      39.366 185.307 172.681  1.00  0.00     0.010 A 
ATOM      5  C   UNL     1      37.722 187.050 172.376  1.00  0.00     0.001 A 
ATOM      6  C   UNL     1      38.907 186.597 172.950  1.00  0.00     0.001 A 
ENDROOT
BRANCH   1   7
ATOM      7  C   UNL     1      36.716 184.145 170.193  1.00  0.00     0.072 C 
ATOM      8  O   UNL     1      35.739 183.427 170.536  1.00  0.00    -0.545 OA
ATOM      9  O   UNL     1      37.046 184.239 168.846  1.00  0.00    -0.545 OA
ENDBRANCH   1   7
BRANCH   2  10
ATOM     10  C   UNL     1      39.119 183.054 171.678  1.00  0.00     0.072 C 
ATOM     11  O   UNL     1      39.846 182.734 170.701  1.00  0.00    -0.545 OA
ATOM     12  O   UNL     1      38.822 182.096 172.640  1.00  0.00    -0.545 OA
ENDBRANCH   2  10
TORSDOF 2
ENDMDL
MODEL 9
REMARK VINA RESULT:    -3.521     22.451     23.574
REMARK INTER + INTRA:          -4.131
REMARK INTER:                  -3.903
REMARK INTRA:                  -0.228
REMARK UNBOUND:                -0.199
REMARK SMILES O=C([O-])c1ccccc1C(=O)[O-]
REMARK SMILES IDX 4 1 9 2 5 3 8 4 6 5 7 6 2 7 1 8 3 9 10 10 11 11 12 12
REMARK H PARENT
REMARK Flexibility Score: inf
ROOT
ATOM      1  C   UNL     1      31.801 168.409 156.678  1.00  0.00     0.006 A 
ATOM      2  C   UNL     1      31.764 168.977 155.375  1.00  0.00     0.006 A 
ATOM      3  C   UNL     1      33.047 168.084 157.248  1.00  0.00     0.010 A 
ATOM      4  C   UNL     1      32.975 169.259 154.715  1.00  0.00     0.010 A 
ATOM      5  C   UNL     1      34.235 168.352 156.566  1.00  0.00     0.001 A 
ATOM      6  C   UNL     1      34.200 168.948 155.308  1.00  0.00     0.001 A 
ENDROOT
BRANCH   1   7
ATOM      7  C   UNL     1      30.584 168.211 157.498  1.00  0.00     0.072 C 
ATOM      8  O   UNL     1      30.168 169.135 158.247  1.00  0.00    -0.545 OA
ATOM      9  O   UNL     1      29.851 167.034 157.407  1.00  0.00    -0.545 OA
ENDBRANCH   1   7
BRANCH   2  10
ATOM     10  C   UNL     1      30.498 169.219 154.645  1.00  0.00     0.072 C 
ATOM     11  O   UNL     1      30.003 170.377 154.601  1.00  0.00    -0.545 OA
ATOM     12  O   UNL     1      29.874 168.191 153.948  1.00  0.00    -0.545 OA
ENDBRANCH   2  10
TORSDOF 2
ENDMDL
