MODEL 1
REMARK VINA RESULT:    -4.525      0.000      0.000
REMARK INTER + INTRA:         -10.543
REMARK INTER:                  -8.493
REMARK INTRA:                  -2.050
REMARK UNBOUND:                -2.050
REMARK SMILES CCCCCCCCC=CCCCCCCCC(=O)[O-]
REMARK SMILES IDX 10 1 9 2 11 3 12 4 13 5 14 6 15 7 16 8 17 9 18 10 19 11
REMARK SMILES IDX 20 12 8 13 7 14 6 15 5 16 4 17 3 18 2 19 1 20
REMARK H PARENT
REMARK Flexibility Score: inf
ROOT
ATOM      1  C   UNL     1      20.235 -23.896  16.375  1.00  0.00    -0.031 C 
ATOM      2  C   UNL     1      21.412 -23.877  17.029  1.00  0.00    -0.031 C 
ENDROOT
BRANCH   1   3
ATOM      3  C   UNL     1      19.278 -22.734  16.279  1.00  0.00     0.027 C 
BRANCH   3   4
ATOM      4  C   UNL     1      18.017 -23.053  15.452  1.00  0.00     0.004 C 
BRANCH   4   5
ATOM      5  C   UNL     1      17.904 -24.529  15.027  1.00  0.00     0.000 C 
BRANCH   5   6
ATOM      6  C   UNL     1      16.689 -25.243  15.648  1.00  0.00     0.000 C 
BRANCH   6   7
ATOM      7  C   UNL     1      16.916 -25.634  17.116  1.00  0.00     0.000 C 
BRANCH   7   8
ATOM      8  C   UNL     1      15.823 -26.570  17.654  1.00  0.00     0.006 C 
BRANCH   8   9
ATOM      9  C   UNL     1      14.427 -26.025  17.335  1.00  0.00     0.053 C 
BRANCH   9  10
ATOM     10  C   UNL     1      13.839 -25.341  18.530  1.00  0.00     0.041 C 
ATOM     11  O   UNL     1      12.944 -25.912  19.211  1.00  0.00    -0.550 OA
ATOM     12  O   UNL     1      14.259 -24.062  18.875  1.00  0.00    -0.550 OA
ENDBRANCH   9  10
ENDBRANCH   8   9
ENDBRANCH   7   8
ENDBRANCH   6   7
ENDBRANCH   5   6
ENDBRANCH   4   5
ENDBRANCH   3   4
ENDBRANCH   1   3
BRANCH   2  13
ATOM     13  C   UNL     1      21.964 -22.690  17.786  1.00  0.00     0.027 C 
BRANCH  13  14
ATOM     14  C   UNL     1      23.493 -22.777  17.953  1.00  0.00     0.004 C 
BRANCH  14  15
ATOM     15  C   UNL     1      24.257 -23.001  16.630  1.00  0.00     0.000 C 
BRANCH  15  16
ATOM     16  C   UNL     1      24.904 -21.745  16.021  1.00  0.00     0.000 C 
BRANCH  16  17
ATOM     17  C   UNL     1      24.059 -21.117  14.902  1.00  0.00    -0.000 C 
BRANCH  17  18
ATOM     18  C   UNL     1      23.150 -22.167  14.249  1.00  0.00    -0.000 C 
BRANCH  18  19
ATOM     19  C   UNL     1      21.784 -21.595  13.841  1.00  0.00    -0.003 C 
ATOM     20  C   UNL     1      20.991 -22.539  12.935  1.00  0.00     0.004 C 
ENDBRANCH  18  19
ENDBRANCH  17  18
ENDBRANCH  16  17
ENDBRANCH  15  16
ENDBRANCH  14  15
ENDBRANCH  13  14
ENDBRANCH   2  13
TORSDOF 15
ENDMDL
MODEL 2
REMARK VINA RESULT:    -4.515      3.903      8.721
REMARK INTER + INTRA:         -10.524
REMARK INTER:                  -9.079
REMARK INTRA:                  -1.445
REMARK UNBOUND:                -2.050
REMARK SMILES CCCCCCCCC=CCCCCCCCC(=O)[O-]
REMARK SMILES IDX 10 1 9 2 11 3 12 4 13 5 14 6 15 7 16 8 17 9 18 10 19 11
REMARK SMILES IDX 20 12 8 13 7 14 6 15 5 16 4 17 3 18 2 19 1 20
REMARK H PARENT
REMARK Flexibility Score: inf
ROOT
ATOM      1  C   UNL     1      21.260 -23.641  17.201  1.00  0.00    -0.031 C 
ATOM      2  C   UNL     1      20.053 -23.524  16.613  1.00  0.00    -0.031 C 
ENDROOT
BRANCH   1   3
ATOM      3  C   UNL     1      22.466 -24.300  16.579  1.00  0.00     0.027 C 
BRANCH   3   4
ATOM      4  C   UNL     1      23.796 -23.643  16.993  1.00  0.00     0.004 C 
BRANCH   4   5
ATOM      5  C   UNL     1      23.825 -22.114  16.805  1.00  0.00     0.000 C 
BRANCH   5   6
ATOM      6  C   UNL     1      24.946 -21.644  15.860  1.00  0.00     0.000 C 
BRANCH   6   7
ATOM      7  C   UNL     1      24.413 -21.156  14.504  1.00  0.00     0.000 C 
BRANCH   7   8
ATOM      8  C   UNL     1      22.887 -21.287  14.387  1.00  0.00     0.006 C 
BRANCH   8   9
ATOM      9  C   UNL     1      22.505 -22.411  13.420  1.00  0.00     0.053 C 
BRANCH   9  10
ATOM     10  C   UNL     1      22.697 -21.977  11.999  1.00  0.00     0.041 C 
ATOM     11  O   UNL     1      21.909 -21.141  11.480  1.00  0.00    -0.550 OA
ATOM     12  O   UNL     1      23.729 -22.517  11.242  1.00  0.00    -0.550 OA
ENDBRANCH   9  10
ENDBRANCH   8   9
ENDBRANCH   7   8
ENDBRANCH   6   7
ENDBRANCH   5   6
ENDBRANCH   4   5
ENDBRANCH   3   4
ENDBRANCH   1   3
BRANCH   2  13
ATOM     13  C   UNL     1      19.705 -24.044  15.237  1.00  0.00     0.027 C 
BRANCH  13  14
ATOM     14  C   UNL     1      18.270 -24.602  15.180  1.00  0.00     0.004 C 
BRANCH  14  15
ATOM     15  C   UNL     1      17.558 -24.643  16.550  1.00  0.00     0.000 C 
BRANCH  15  16
ATOM     16  C   UNL     1      17.031 -26.024  16.978  1.00  0.00     0.000 C 
BRANCH  16  17
ATOM     17  C   UNL     1      15.507 -26.156  16.835  1.00  0.00    -0.000 C 
BRANCH  17  18
ATOM     18  C   UNL     1      14.850 -26.398  18.201  1.00  0.00    -0.000 C 
BRANCH  18  19
ATOM     19  C   UNL     1      13.489 -27.100  18.085  1.00  0.00    -0.003 C 
ATOM     20  C   UNL     1      13.267 -28.150  19.176  1.00  0.00     0.004 C 
ENDBRANCH  18  19
ENDBRANCH  17  18
ENDBRANCH  16  17
ENDBRANCH  15  16
ENDBRANCH  14  15
ENDBRANCH  13  14
ENDBRANCH   2  13
TORSDOF 15
ENDMDL
MODEL 3
REMARK VINA RESULT:    -4.369     16.835     19.268
REMARK INTER + INTRA:         -10.250
REMARK INTER:                  -7.404
REMARK INTRA:                  -2.846
REMARK UNBOUND:                -2.050
REMARK SMILES CCCCCCCCC=CCCCCCCCC(=O)[O-]
REMARK SMILES IDX 10 1 9 2 11 3 12 4 13 5 14 6 15 7 16 8 17 9 18 10 19 11
REMARK SMILES IDX 20 12 8 13 7 14 6 15 5 16 4 17 3 18 2 19 1 20
REMARK H PARENT
REMARK Flexibility Score: inf
ROOT
ATOM      1  C   UNL     1      28.813 -36.106  25.840  1.00  0.00    -0.031 C 
ATOM      2  C   UNL     1      27.675 -36.617  26.349  1.00  0.00    -0.031 C 
ENDROOT
BRANCH   1   3
ATOM      3  C   UNL     1      28.999 -34.674  25.401  1.00  0.00     0.027 C 
BRANCH   3   4
ATOM      4  C   UNL     1      30.115 -33.944  26.172  1.00  0.00     0.004 C 
BRANCH   4   5
ATOM      5  C   UNL     1      31.527 -34.499  25.905  1.00  0.00     0.000 C 
BRANCH   5   6
ATOM      6  C   UNL     1      31.967 -34.347  24.438  1.00  0.00     0.000 C 
BRANCH   6   7
ATOM      7  C   UNL     1      32.161 -35.698  23.733  1.00  0.00     0.000 C 
BRANCH   7   8
ATOM      8  C   UNL     1      31.563 -35.717  22.318  1.00  0.00     0.006 C 
BRANCH   8   9
ATOM      9  C   UNL     1      30.196 -36.410  22.308  1.00  0.00     0.053 C 
BRANCH   9  10
ATOM     10  C   UNL     1      29.164 -35.538  21.663  1.00  0.00     0.041 C 
ATOM     11  O   UNL     1      29.189 -34.290  21.839  1.00  0.00    -0.550 OA
ATOM     12  O   UNL     1      28.160 -36.107  20.889  1.00  0.00    -0.550 OA
ENDBRANCH   9  10
ENDBRANCH   8   9
ENDBRANCH   7   8
ENDBRANCH   6   7
ENDBRANCH   5   6
ENDBRANCH   4   5
ENDBRANCH   3   4
ENDBRANCH   1   3
BRANCH   2  13
ATOM     13  C   UNL     1      26.392 -35.844  26.554  1.00  0.00     0.027 C 
BRANCH  13  14
ATOM     14  C   UNL     1      26.047 -35.688  28.047  1.00  0.00     0.004 C 
BRANCH  14  15
ATOM     15  C   UNL     1      26.616 -34.404  28.691  1.00  0.00     0.000 C 
BRANCH  15  16
ATOM     16  C   UNL     1      27.592 -34.630  29.859  1.00  0.00     0.000 C 
BRANCH  16  17
ATOM     17  C   UNL     1      29.053 -34.761  29.404  1.00  0.00    -0.000 C 
BRANCH  17  18
ATOM     18  C   UNL     1      29.552 -36.202  29.576  1.00  0.00    -0.000 C 
BRANCH  18  19
ATOM     19  C   UNL     1      30.984 -36.398  29.056  1.00  0.00    -0.003 C 
ATOM     20  C   UNL     1      31.132 -37.642  28.176  1.00  0.00     0.004 C 
ENDBRANCH  18  19
ENDBRANCH  17  18
ENDBRANCH  16  17
ENDBRANCH  15  16
ENDBRANCH  14  15
ENDBRANCH  13  14
ENDBRANCH   2  13
TORSDOF 15
ENDMDL
MODEL 4
REMARK VINA RESULT:    -4.347     17.013     19.304
REMARK INTER + INTRA:         -10.210
REMARK INTER:                  -7.217
REMARK INTRA:                  -2.993
REMARK UNBOUND:                -2.050
REMARK SMILES CCCCCCCCC=CCCCCCCCC(=O)[O-]
REMARK SMILES IDX 10 1 9 2 11 3 12 4 13 5 14 6 15 7 16 8 17 9 18 10 19 11
REMARK SMILES IDX 20 12 8 13 7 14 6 15 5 16 4 17 3 18 2 19 1 20
REMARK H PARENT
REMARK Flexibility Score: inf
ROOT
ATOM      1  C   UNL     1      26.628 -36.179  26.683  1.00  0.00    -0.031 C 
ATOM      2  C   UNL     1      26.122 -35.989  27.917  1.00  0.00    -0.031 C 
ENDROOT
BRANCH   1   3
ATOM      3  C   UNL     1      27.171 -35.090  25.792  1.00  0.00     0.027 C 
BRANCH   3   4
ATOM      4  C   UNL     1      28.698 -35.171  25.598  1.00  0.00     0.004 C 
BRANCH   4   5
ATOM      5  C   UNL     1      29.480 -34.044  26.300  1.00  0.00     0.000 C 
BRANCH   5   6
ATOM      6  C   UNL     1      30.961 -33.989  25.883  1.00  0.00     0.000 C 
BRANCH   6   7
ATOM      7  C   UNL     1      31.368 -35.160  24.977  1.00  0.00     0.000 C 
BRANCH   7   8
ATOM      8  C   UNL     1      31.601 -34.727  23.521  1.00  0.00     0.006 C 
BRANCH   8   9
ATOM      9  C   UNL     1      30.875 -35.660  22.547  1.00  0.00     0.053 C 
BRANCH   9  10
ATOM     10  C   UNL     1      29.701 -34.969  21.926  1.00  0.00     0.041 C 
ATOM     11  O   UNL     1      29.140 -35.461  20.909  1.00  0.00    -0.550 OA
ATOM     12  O   UNL     1      29.244 -33.767  22.455  1.00  0.00    -0.550 OA
ENDBRANCH   9  10
ENDBRANCH   8   9
ENDBRANCH   7   8
ENDBRANCH   6   7
ENDBRANCH   5   6
ENDBRANCH   4   5
ENDBRANCH   3   4
ENDBRANCH   1   3
BRANCH   2  13
ATOM     13  C   UNL     1      26.004 -34.651  28.609  1.00  0.00     0.027 C 
BRANCH  13  14
ATOM     14  C   UNL     1      27.283 -34.294  29.391  1.00  0.00     0.004 C 
BRANCH  14  15
ATOM     15  C   UNL     1      28.011 -35.516  29.994  1.00  0.00     0.000 C 
BRANCH  15  16
ATOM     16  C   UNL     1      29.476 -35.690  29.558  1.00  0.00     0.000 C 
BRANCH  16  17
ATOM     17  C   UNL     1      29.711 -36.968  28.738  1.00  0.00    -0.000 C 
BRANCH  17  18
ATOM     18  C   UNL     1      31.157 -37.033  28.229  1.00  0.00    -0.000 C 
BRANCH  18  19
ATOM     19  C   UNL     1      31.363 -38.126  27.170  1.00  0.00    -0.003 C 
ATOM     20  C   UNL     1      30.092 -38.424  26.370  1.00  0.00     0.004 C 
ENDBRANCH  18  19
ENDBRANCH  17  18
ENDBRANCH  16  17
ENDBRANCH  15  16
ENDBRANCH  14  15
ENDBRANCH  13  14
ENDBRANCH   2  13
TORSDOF 15
ENDMDL
MODEL 5
REMARK VINA RESULT:    -4.346      3.103      7.659
REMARK INTER + INTRA:         -10.207
REMARK INTER:                  -8.517
REMARK INTRA:                  -1.690
REMARK UNBOUND:                -2.050
REMARK SMILES CCCCCCCCC=CCCCCCCCC(=O)[O-]
REMARK SMILES IDX 10 1 9 2 11 3 12 4 13 5 14 6 15 7 16 8 17 9 18 10 19 11
REMARK SMILES IDX 20 12 8 13 7 14 6 15 5 16 4 17 3 18 2 19 1 20
REMARK H PARENT
REMARK Flexibility Score: inf
ROOT
ATOM      1  C   UNL     1      20.081 -23.836  15.974  1.00  0.00    -0.031 C 
ATOM      2  C   UNL     1      19.272 -22.994  16.645  1.00  0.00    -0.031 C 
ENDROOT
BRANCH   1   3
ATOM      3  C   UNL     1      20.120 -23.988  14.474  1.00  0.00     0.027 C 
BRANCH   3   4
ATOM      4  C   UNL     1      20.588 -22.712  13.748  1.00  0.00     0.004 C 
BRANCH   4   5
ATOM      5  C   UNL     1      22.118 -22.537  13.712  1.00  0.00     0.000 C 
BRANCH   5   6
ATOM      6  C   UNL     1      22.654 -21.667  14.863  1.00  0.00     0.000 C 
BRANCH   6   7
ATOM      7  C   UNL     1      24.182 -21.523  14.838  1.00  0.00     0.000 C 
BRANCH   7   8
ATOM      8  C   UNL     1      24.848 -22.068  16.112  1.00  0.00     0.006 C 
BRANCH   8   9
ATOM      9  C   UNL     1      23.920 -23.045  16.841  1.00  0.00     0.053 C 
BRANCH   9  10
ATOM     10  C   UNL     1      23.420 -22.448  18.120  1.00  0.00     0.041 C 
ATOM     11  O   UNL     1      22.257 -22.711  18.530  1.00  0.00    -0.550 OA
ATOM     12  O   UNL     1      24.228 -21.579  18.843  1.00  0.00    -0.550 OA
ENDBRANCH   9  10
ENDBRANCH   8   9
ENDBRANCH   7   8
ENDBRANCH   6   7
ENDBRANCH   5   6
ENDBRANCH   4   5
ENDBRANCH   3   4
ENDBRANCH   1   3
BRANCH   2  13
ATOM     13  C   UNL     1      18.261 -22.068  16.008  1.00  0.00     0.027 C 
BRANCH  13  14
ATOM     14  C   UNL     1      16.835 -22.327  16.529  1.00  0.00     0.004 C 
BRANCH  14  15
ATOM     15  C   UNL     1      15.850 -22.819  15.445  1.00  0.00     0.000 C 
BRANCH  15  16
ATOM     16  C   UNL     1      16.333 -24.018  14.610  1.00  0.00     0.000 C 
BRANCH  16  17
ATOM     17  C   UNL     1      15.942 -25.371  15.222  1.00  0.00    -0.000 C 
BRANCH  17  18
ATOM     18  C   UNL     1      16.930 -25.780  16.322  1.00  0.00    -0.000 C 
BRANCH  18  19
ATOM     19  C   UNL     1      16.227 -26.319  17.577  1.00  0.00    -0.003 C 
ATOM     20  C   UNL     1      14.714 -26.458  17.396  1.00  0.00     0.004 C 
ENDBRANCH  18  19
ENDBRANCH  17  18
ENDBRANCH  16  17
ENDBRANCH  15  16
ENDBRANCH  14  15
ENDBRANCH  13  14
ENDBRANCH   2  13
TORSDOF 15
ENDMDL
MODEL 6
REMARK VINA RESULT:    -4.309      2.594      7.370
REMARK INTER + INTRA:         -10.138
REMARK INTER:                  -8.456
REMARK INTRA:                  -1.682
REMARK UNBOUND:                -2.050
REMARK SMILES CCCCCCCCC=CCCCCCCCC(=O)[O-]
REMARK SMILES IDX 10 1 9 2 11 3 12 4 13 5 14 6 15 7 16 8 17 9 18 10 19 11
REMARK SMILES IDX 20 12 8 13 7 14 6 15 5 16 4 17 3 18 2 19 1 20
REMARK H PARENT
REMARK Flexibility Score: inf
ROOT
ATOM      1  C   UNL     1      20.593 -23.009  13.708  1.00  0.00    -0.031 C 
ATOM      2  C   UNL     1      19.346 -23.119  14.203  1.00  0.00    -0.031 C 
ENDROOT
BRANCH   1   3
ATOM      3  C   UNL     1      21.400 -21.734  13.669  1.00  0.00     0.027 C 
BRANCH   3   4
ATOM      4  C   UNL     1      22.830 -21.939  13.132  1.00  0.00     0.004 C 
BRANCH   4   5
ATOM      5  C   UNL     1      23.932 -21.400  14.064  1.00  0.00     0.000 C 
BRANCH   5   6
ATOM      6  C   UNL     1      23.617 -21.612  15.556  1.00  0.00     0.000 C 
BRANCH   6   7
ATOM      7  C   UNL     1      24.694 -22.434  16.280  1.00  0.00     0.000 C 
BRANCH   7   8
ATOM      8  C   UNL     1      24.119 -23.678  16.975  1.00  0.00     0.006 C 
BRANCH   8   9
ATOM      9  C   UNL     1      22.692 -23.964  16.497  1.00  0.00     0.053 C 
BRANCH   9  10
ATOM     10  C   UNL     1      21.695 -23.585  17.548  1.00  0.00     0.041 C 
ATOM     11  O   UNL     1      22.044 -22.869  18.525  1.00  0.00    -0.550 OA
ATOM     12  O   UNL     1      20.386 -24.046  17.461  1.00  0.00    -0.550 OA
ENDBRANCH   9  10
ENDBRANCH   8   9
ENDBRANCH   7   8
ENDBRANCH   6   7
ENDBRANCH   5   6
ENDBRANCH   4   5
ENDBRANCH   3   4
ENDBRANCH   1   3
BRANCH   2  13
ATOM     13  C   UNL     1      18.542 -21.982  14.791  1.00  0.00     0.027 C 
BRANCH  13  14
ATOM     14  C   UNL     1      17.095 -21.966  14.262  1.00  0.00     0.004 C 
BRANCH  14  15
ATOM     15  C   UNL     1      16.216 -23.114  14.806  1.00  0.00     0.000 C 
BRANCH  15  16
ATOM     16  C   UNL     1      15.512 -22.827  16.144  1.00  0.00     0.000 C 
BRANCH  16  17
ATOM     17  C   UNL     1      15.908 -23.813  17.254  1.00  0.00    -0.000 C 
BRANCH  17  18
ATOM     18  C   UNL     1      16.958 -24.812  16.748  1.00  0.00    -0.000 C 
BRANCH  18  19
ATOM     19  C   UNL     1      16.642 -26.258  17.157  1.00  0.00    -0.003 C 
ATOM     20  C   UNL     1      15.239 -26.415  17.748  1.00  0.00     0.004 C 
ENDBRANCH  18  19
ENDBRANCH  17  18
ENDBRANCH  16  17
ENDBRANCH  15  16
ENDBRANCH  14  15
ENDBRANCH  13  14
ENDBRANCH   2  13
TORSDOF 15
ENDMDL
MODEL 7
REMARK VINA RESULT:    -4.270     17.012     19.368
REMARK INTER + INTRA:         -10.065
REMARK INTER:                  -7.017
REMARK INTRA:                  -3.049
REMARK UNBOUND:                -2.050
REMARK SMILES CCCCCCCCC=CCCCCCCCC(=O)[O-]
REMARK SMILES IDX 10 1 9 2 11 3 12 4 13 5 14 6 15 7 16 8 17 9 18 10 19 11
REMARK SMILES IDX 20 12 8 13 7 14 6 15 5 16 4 17 3 18 2 19 1 20
REMARK H PARENT
REMARK Flexibility Score: inf
ROOT
ATOM      1  C   UNL     1      28.861 -34.982  25.940  1.00  0.00    -0.031 C 
ATOM      2  C   UNL     1      28.799 -36.268  26.334  1.00  0.00    -0.031 C 
ENDROOT
BRANCH   1   3
ATOM      3  C   UNL     1      29.945 -34.007  26.330  1.00  0.00     0.027 C 
BRANCH   3   4
ATOM      4  C   UNL     1      31.124 -33.984  25.338  1.00  0.00     0.004 C 
BRANCH   4   5
ATOM      5  C   UNL     1      32.318 -34.859  25.764  1.00  0.00     0.000 C 
BRANCH   5   6
ATOM      6  C   UNL     1      32.473 -36.128  24.906  1.00  0.00     0.000 C 
BRANCH   6   7
ATOM      7  C   UNL     1      31.997 -35.929  23.460  1.00  0.00     0.000 C 
BRANCH   7   8
ATOM      8  C   UNL     1      30.993 -37.004  23.015  1.00  0.00     0.006 C 
BRANCH   8   9
ATOM      9  C   UNL     1      29.634 -36.381  22.680  1.00  0.00     0.053 C 
BRANCH   9  10
ATOM     10  C   UNL     1      29.800 -35.200  21.775  1.00  0.00     0.041 C 
ATOM     11  O   UNL     1      29.311 -34.083  22.094  1.00  0.00    -0.550 OA
ATOM     12  O   UNL     1      30.472 -35.341  20.566  1.00  0.00    -0.550 OA
ENDBRANCH   9  10
ENDBRANCH   8   9
ENDBRANCH   7   8
ENDBRANCH   6   7
ENDBRANCH   5   6
ENDBRANCH   4   5
ENDBRANCH   3   4
ENDBRANCH   1   3
BRANCH   2  13
ATOM     13  C   UNL     1      29.799 -36.946  27.243  1.00  0.00     0.027 C 
BRANCH  13  14
ATOM     14  C   UNL     1      29.419 -36.799  28.728  1.00  0.00     0.004 C 
BRANCH  14  15
ATOM     15  C   UNL     1      30.189 -35.681  29.466  1.00  0.00     0.000 C 
BRANCH  15  16
ATOM     16  C   UNL     1      29.320 -34.543  30.028  1.00  0.00     0.000 C 
BRANCH  16  17
ATOM     17  C   UNL     1      27.819 -34.868  30.012  1.00  0.00    -0.000 C 
BRANCH  17  18
ATOM     18  C   UNL     1      27.094 -34.050  28.935  1.00  0.00    -0.000 C 
BRANCH  18  19
ATOM     19  C   UNL     1      25.744 -34.664  28.536  1.00  0.00    -0.003 C 
ATOM     20  C   UNL     1      25.795 -36.190  28.423  1.00  0.00     0.004 C 
ENDBRANCH  18  19
ENDBRANCH  17  18
ENDBRANCH  16  17
ENDBRANCH  15  16
ENDBRANCH  14  15
ENDBRANCH  13  14
ENDBRANCH   2  13
TORSDOF 15
ENDMDL
MODEL 8
REMARK VINA RESULT:    -4.261      1.662      2.220
REMARK INTER + INTRA:         -10.049
REMARK INTER:                  -8.214
REMARK INTRA:                  -1.835
REMARK UNBOUND:                -2.050
REMARK SMILES CCCCCCCCC=CCCCCCCCC(=O)[O-]
REMARK SMILES IDX 10 1 9 2 11 3 12 4 13 5 14 6 15 7 16 8 17 9 18 10 19 11
REMARK SMILES IDX 20 12 8 13 7 14 6 15 5 16 4 17 3 18 2 19 1 20
REMARK H PARENT
REMARK Flexibility Score: inf
ROOT
ATOM      1  C   UNL     1      20.084 -23.833  16.390  1.00  0.00    -0.031 C 
ATOM      2  C   UNL     1      21.087 -23.883  17.286  1.00  0.00    -0.031 C 
ENDROOT
BRANCH   1   3
ATOM      3  C   UNL     1      19.945 -22.797  15.302  1.00  0.00     0.027 C 
BRANCH   3   4
ATOM      4  C   UNL     1      19.460 -23.386  13.963  1.00  0.00     0.004 C 
BRANCH   4   5
ATOM      5  C   UNL     1      18.947 -24.835  14.065  1.00  0.00     0.000 C 
BRANCH   5   6
ATOM      6  C   UNL     1      17.511 -25.005  13.536  1.00  0.00     0.000 C 
BRANCH   6   7
ATOM      7  C   UNL     1      16.542 -23.956  14.101  1.00  0.00     0.000 C 
BRANCH   7   8
ATOM      8  C   UNL     1      16.163 -24.229  15.564  1.00  0.00     0.006 C 
BRANCH   8   9
ATOM      9  C   UNL     1      15.686 -25.673  15.748  1.00  0.00     0.053 C 
BRANCH   9  10
ATOM     10  C   UNL     1      16.090 -26.198  17.091  1.00  0.00     0.041 C 
ATOM     11  O   UNL     1      17.308 -26.241  17.415  1.00  0.00    -0.550 OA
ATOM     12  O   UNL     1      15.123 -26.666  17.973  1.00  0.00    -0.550 OA
ENDBRANCH   9  10
ENDBRANCH   8   9
ENDBRANCH   7   8
ENDBRANCH   6   7
ENDBRANCH   5   6
ENDBRANCH   4   5
ENDBRANCH   3   4
ENDBRANCH   1   3
BRANCH   2  13
ATOM     13  C   UNL     1      22.236 -22.903  17.358  1.00  0.00     0.027 C 
BRANCH  13  14
ATOM     14  C   UNL     1      23.582 -23.569  17.018  1.00  0.00     0.004 C 
BRANCH  14  15
ATOM     15  C   UNL     1      24.604 -22.618  16.356  1.00  0.00     0.000 C 
BRANCH  15  16
ATOM     16  C   UNL     1      24.034 -21.273  15.871  1.00  0.00     0.000 C 
BRANCH  16  17
ATOM     17  C   UNL     1      23.982 -21.160  14.340  1.00  0.00    -0.000 C 
BRANCH  17  18
ATOM     18  C   UNL     1      22.961 -22.144  13.754  1.00  0.00    -0.000 C 
BRANCH  18  19
ATOM     19  C   UNL     1      22.857 -22.046  12.225  1.00  0.00    -0.003 C 
ATOM     20  C   UNL     1      24.098 -21.419  11.584  1.00  0.00     0.004 C 
ENDBRANCH  18  19
ENDBRANCH  17  18
ENDBRANCH  16  17
ENDBRANCH  15  16
ENDBRANCH  14  15
ENDBRANCH  13  14
ENDBRANCH   2  13
TORSDOF 15
ENDMDL
MODEL 9
REMARK VINA RESULT:    -4.231     16.410     18.762
REMARK INTER + INTRA:          -9.992
REMARK INTER:                  -7.623
REMARK INTRA:                  -2.369
REMARK UNBOUND:                -2.050
REMARK SMILES CCCCCCCCC=CCCCCCCCC(=O)[O-]
REMARK SMILES IDX 10 1 9 2 11 3 12 4 13 5 14 6 15 7 16 8 17 9 18 10 19 11
REMARK SMILES IDX 20 12 8 13 7 14 6 15 5 16 4 17 3 18 2 19 1 20
REMARK H PARENT
REMARK Flexibility Score: inf
ROOT
ATOM      1  C   UNL     1      28.742 -35.253  25.966  1.00  0.00    -0.031 C 
ATOM      2  C   UNL     1      27.405 -35.157  26.093  1.00  0.00    -0.031 C 
ENDROOT
BRANCH   1   3
ATOM      3  C   UNL     1      29.729 -34.187  26.371  1.00  0.00     0.027 C 
BRANCH   3   4
ATOM      4  C   UNL     1      30.894 -34.030  25.374  1.00  0.00     0.004 C 
BRANCH   4   5
ATOM      5  C   UNL     1      31.220 -35.311  24.584  1.00  0.00     0.000 C 
BRANCH   5   6
ATOM      6  C   UNL     1      31.012 -35.153  23.067  1.00  0.00     0.000 C 
BRANCH   6   7
ATOM      7  C   UNL     1      29.819 -34.250  22.721  1.00  0.00     0.000 C 
BRANCH   7   8
ATOM      8  C   UNL     1      28.601 -35.046  22.224  1.00  0.00     0.006 C 
BRANCH   8   9
ATOM      9  C   UNL     1      29.026 -36.409  21.668  1.00  0.00     0.053 C 
BRANCH   9  10
ATOM     10  C   UNL     1      28.634 -36.540  20.228  1.00  0.00     0.041 C 
ATOM     11  O   UNL     1      27.459 -36.263  19.863  1.00  0.00    -0.550 OA
ATOM     12  O   UNL     1      29.559 -36.994  19.296  1.00  0.00    -0.550 OA
ENDBRANCH   9  10
ENDBRANCH   8   9
ENDBRANCH   7   8
ENDBRANCH   6   7
ENDBRANCH   5   6
ENDBRANCH   4   5
ENDBRANCH   3   4
ENDBRANCH   1   3
BRANCH   2  13
ATOM     13  C   UNL     1      26.670 -33.960  26.652  1.00  0.00     0.027 C 
BRANCH  13  14
ATOM     14  C   UNL     1      26.290 -34.158  28.131  1.00  0.00     0.004 C 
BRANCH  14  15
ATOM     15  C   UNL     1      25.717 -35.556  28.450  1.00  0.00     0.000 C 
BRANCH  15  16
ATOM     16  C   UNL     1      26.409 -36.306  29.602  1.00  0.00     0.000 C 
BRANCH  16  17
ATOM     17  C   UNL     1      27.658 -35.580  30.125  1.00  0.00    -0.000 C 
BRANCH  17  18
ATOM     18  C   UNL     1      28.936 -36.224  29.571  1.00  0.00    -0.000 C 
BRANCH  18  19
ATOM     19  C   UNL     1      30.174 -35.334  29.755  1.00  0.00    -0.003 C 
ATOM     20  C   UNL     1      29.819 -33.865  29.997  1.00  0.00     0.004 C 
ENDBRANCH  18  19
ENDBRANCH  17  18
ENDBRANCH  16  17
ENDBRANCH  15  16
ENDBRANCH  14  15
ENDBRANCH  13  14
ENDBRANCH   2  13
TORSDOF 15
ENDMDL
