MODEL 1
REMARK VINA RESULT:    -3.641      0.000      0.000
REMARK INTER + INTRA:          -5.045
REMARK INTER:                  -4.706
REMARK INTRA:                  -0.340
REMARK UNBOUND:                -0.340
REMARK SMILES CCCCCCC(=O)[O-]
REMARK SMILES IDX 5 1 6 2 7 3 8 4 9 5 4 6 3 7 2 8 1 9
REMARK H PARENT
REMARK Flexibility Score: inf
ROOT
ATOM      1  C   UNL     1      -8.439  27.443  24.987  1.00  0.00     0.006 C 
ENDROOT
BRANCH   1   2
ATOM      2  C   UNL     1      -9.662  28.072  24.313  1.00  0.00     0.053 C 
BRANCH   2   3
ATOM      3  C   UNL     1      -9.261  29.271  23.513  1.00  0.00     0.041 C 
ATOM      4  O   UNL     1      -8.525  30.157  24.023  1.00  0.00    -0.550 OA
ATOM      5  O   UNL     1      -9.657  29.385  22.186  1.00  0.00    -0.550 OA
ENDBRANCH   2   3
ENDBRANCH   1   2
BRANCH   1   6
ATOM      6  C   UNL     1      -8.194  26.022  24.466  1.00  0.00     0.000 C 
BRANCH   6   7
ATOM      7  C   UNL     1      -7.082  26.011  23.406  1.00  0.00    -0.000 C 
BRANCH   7   8
ATOM      8  C   UNL     1      -7.507  25.297  22.113  1.00  0.00    -0.003 C 
ATOM      9  C   UNL     1      -8.527  26.098  21.303  1.00  0.00     0.004 C 
ENDBRANCH   7   8
ENDBRANCH   6   7
ENDBRANCH   1   6
TORSDOF 5
ENDMDL
MODEL 2
REMARK VINA RESULT:    -3.610      1.474      3.203
REMARK INTER + INTRA:          -5.005
REMARK INTER:                  -4.643
REMARK INTRA:                  -0.361
REMARK UNBOUND:                -0.340
REMARK SMILES CCCCCCC(=O)[O-]
REMARK SMILES IDX 5 1 6 2 7 3 8 4 9 5 4 6 3 7 2 8 1 9
REMARK H PARENT
REMARK Flexibility Score: inf
ROOT
ATOM      1  C   UNL     1      -7.268  25.718  22.601  1.00  0.00     0.006 C 
ENDROOT
BRANCH   1   2
ATOM      2  C   UNL     1      -8.705  25.879  22.097  1.00  0.00     0.053 C 
BRANCH   2   3
ATOM      3  C   UNL     1      -8.862  27.173  21.364  1.00  0.00     0.041 C 
ATOM      4  O   UNL     1      -8.911  28.260  21.999  1.00  0.00    -0.550 OA
ATOM      5  O   UNL     1      -8.902  27.185  19.975  1.00  0.00    -0.550 OA
ENDBRANCH   2   3
ENDBRANCH   1   2
BRANCH   1   6
ATOM      6  C   UNL     1      -7.169  26.048  24.096  1.00  0.00     0.000 C 
BRANCH   6   7
ATOM      7  C   UNL     1      -8.517  25.824  24.797  1.00  0.00    -0.000 C 
BRANCH   7   8
ATOM      8  C   UNL     1      -8.867  26.954  25.778  1.00  0.00    -0.003 C 
ATOM      9  C   UNL     1     -10.016  27.832  25.283  1.00  0.00     0.004 C 
ENDBRANCH   7   8
ENDBRANCH   6   7
ENDBRANCH   1   6
TORSDOF 5
ENDMDL
MODEL 3
REMARK VINA RESULT:    -3.607      1.748      3.751
REMARK INTER + INTRA:          -5.001
REMARK INTER:                  -4.684
REMARK INTRA:                  -0.318
REMARK UNBOUND:                -0.340
REMARK SMILES CCCCCCC(=O)[O-]
REMARK SMILES IDX 5 1 6 2 7 3 8 4 9 5 4 6 3 7 2 8 1 9
REMARK H PARENT
REMARK Flexibility Score: inf
ROOT
ATOM      1  C   UNL     1      -7.307  25.985  23.137  1.00  0.00     0.006 C 
ENDROOT
BRANCH   1   2
ATOM      2  C   UNL     1      -8.052  25.199  22.055  1.00  0.00     0.053 C 
BRANCH   2   3
ATOM      3  C   UNL     1      -8.471  26.107  20.942  1.00  0.00     0.041 C 
ATOM      4  O   UNL     1      -8.849  25.627  19.840  1.00  0.00    -0.550 OA
ATOM      5  O   UNL     1      -8.493  27.482  21.138  1.00  0.00    -0.550 OA
ENDBRANCH   2   3
ENDBRANCH   1   2
BRANCH   1   6
ATOM      6  C   UNL     1      -8.063  25.939  24.470  1.00  0.00     0.000 C 
BRANCH   6   7
ATOM      7  C   UNL     1      -8.219  27.348  25.063  1.00  0.00    -0.000 C 
BRANCH   7   8
ATOM      8  C   UNL     1      -9.389  28.124  24.439  1.00  0.00    -0.003 C 
ATOM      9  C   UNL     1      -9.008  29.548  24.037  1.00  0.00     0.004 C 
ENDBRANCH   7   8
ENDBRANCH   6   7
ENDBRANCH   1   6
TORSDOF 5
ENDMDL
MODEL 4
REMARK VINA RESULT:    -3.574      2.097      3.063
REMARK INTER + INTRA:          -4.958
REMARK INTER:                  -4.740
REMARK INTRA:                  -0.219
REMARK UNBOUND:                -0.340
REMARK SMILES CCCCCCC(=O)[O-]
REMARK SMILES IDX 5 1 6 2 7 3 8 4 9 5 4 6 3 7 2 8 1 9
REMARK H PARENT
REMARK Flexibility Score: inf
ROOT
ATOM      1  C   UNL     1      -8.073  26.366  22.934  1.00  0.00     0.006 C 
ENDROOT
BRANCH   1   2
ATOM      2  C   UNL     1      -7.847  26.158  24.434  1.00  0.00     0.053 C 
BRANCH   2   3
ATOM      3  C   UNL     1      -8.490  27.258  25.219  1.00  0.00     0.041 C 
ATOM      4  O   UNL     1      -8.590  28.413  24.727  1.00  0.00    -0.550 OA
ATOM      5  O   UNL     1      -9.027  26.994  26.473  1.00  0.00    -0.550 OA
ENDBRANCH   2   3
ENDBRANCH   1   2
BRANCH   1   6
ATOM      6  C   UNL     1      -7.342  25.297  22.114  1.00  0.00     0.000 C 
BRANCH   6   7
ATOM      7  C   UNL     1      -8.311  24.570  21.170  1.00  0.00    -0.000 C 
BRANCH   7   8
ATOM      8  C   UNL     1      -9.343  23.718  21.926  1.00  0.00    -0.003 C 
ATOM      9  C   UNL     1      -8.775  22.377  22.392  1.00  0.00     0.004 C 
ENDBRANCH   7   8
ENDBRANCH   6   7
ENDBRANCH   1   6
TORSDOF 5
ENDMDL
MODEL 5
REMARK VINA RESULT:    -3.476      1.617      2.162
REMARK INTER + INTRA:          -4.831
REMARK INTER:                  -4.501
REMARK INTRA:                  -0.330
REMARK UNBOUND:                -0.340
REMARK SMILES CCCCCCC(=O)[O-]
REMARK SMILES IDX 5 1 6 2 7 3 8 4 9 5 4 6 3 7 2 8 1 9
REMARK H PARENT
REMARK Flexibility Score: inf
ROOT
ATOM      1  C   UNL     1      -8.397  25.951  23.913  1.00  0.00     0.006 C 
ENDROOT
BRANCH   1   2
ATOM      2  C   UNL     1      -8.673  27.429  24.205  1.00  0.00     0.053 C 
BRANCH   2   3
ATOM      3  C   UNL     1      -9.441  28.051  23.082  1.00  0.00     0.041 C 
ATOM      4  O   UNL     1      -9.095  29.171  22.620  1.00  0.00    -0.550 OA
ATOM      5  O   UNL     1     -10.508  27.370  22.509  1.00  0.00    -0.550 OA
ENDBRANCH   2   3
ENDBRANCH   1   2
BRANCH   1   6
ATOM      6  C   UNL     1      -7.380  25.795  22.776  1.00  0.00     0.000 C 
BRANCH   6   7
ATOM      7  C   UNL     1      -7.818  24.697  21.794  1.00  0.00    -0.000 C 
BRANCH   7   8
ATOM      8  C   UNL     1      -9.057  23.930  22.282  1.00  0.00    -0.003 C 
ATOM      9  C   UNL     1      -8.839  22.418  22.321  1.00  0.00     0.004 C 
ENDBRANCH   7   8
ENDBRANCH   6   7
ENDBRANCH   1   6
TORSDOF 5
ENDMDL
MODEL 6
REMARK VINA RESULT:    -3.475      2.364      4.115
REMARK INTER + INTRA:          -4.831
REMARK INTER:                  -4.614
REMARK INTRA:                  -0.217
REMARK UNBOUND:                -0.340
REMARK SMILES CCCCCCC(=O)[O-]
REMARK SMILES IDX 5 1 6 2 7 3 8 4 9 5 4 6 3 7 2 8 1 9
REMARK H PARENT
REMARK Flexibility Score: inf
ROOT
ATOM      1  C   UNL     1      -7.790  24.894  22.139  1.00  0.00     0.006 C 
ENDROOT
BRANCH   1   2
ATOM      2  C   UNL     1      -9.115  25.415  21.575  1.00  0.00     0.053 C 
BRANCH   2   3
ATOM      3  C   UNL     1      -8.949  25.835  20.149  1.00  0.00     0.041 C 
ATOM      4  O   UNL     1      -8.867  24.970  19.237  1.00  0.00    -0.550 OA
ATOM      5  O   UNL     1      -8.936  27.185  19.819  1.00  0.00    -0.550 OA
ENDBRANCH   2   3
ENDBRANCH   1   2
BRANCH   1   6
ATOM      6  C   UNL     1      -7.033  26.005  22.877  1.00  0.00     0.000 C 
BRANCH   6   7
ATOM      7  C   UNL     1      -7.347  25.978  24.380  1.00  0.00    -0.000 C 
BRANCH   7   8
ATOM      8  C   UNL     1      -8.237  27.153  24.818  1.00  0.00    -0.003 C 
ATOM      9  C   UNL     1      -9.230  26.767  25.913  1.00  0.00     0.004 C 
ENDBRANCH   7   8
ENDBRANCH   6   7
ENDBRANCH   1   6
TORSDOF 5
ENDMDL
MODEL 7
REMARK VINA RESULT:    -3.379      3.701      5.055
REMARK INTER + INTRA:          -4.706
REMARK INTER:                  -4.422
REMARK INTRA:                  -0.284
REMARK UNBOUND:                -0.340
REMARK SMILES CCCCCCC(=O)[O-]
REMARK SMILES IDX 5 1 6 2 7 3 8 4 9 5 4 6 3 7 2 8 1 9
REMARK H PARENT
REMARK Flexibility Score: inf
ROOT
ATOM      1  C   UNL     1      -8.115  24.950  21.731  1.00  0.00     0.006 C 
ENDROOT
BRANCH   1   2
ATOM      2  C   UNL     1      -9.256  24.286  22.508  1.00  0.00     0.053 C 
BRANCH   2   3
ATOM      3  C   UNL     1      -9.424  22.863  22.078  1.00  0.00     0.041 C 
ATOM      4  O   UNL     1     -10.343  22.547  21.276  1.00  0.00    -0.550 OA
ATOM      5  O   UNL     1      -8.535  21.892  22.523  1.00  0.00    -0.550 OA
ENDBRANCH   2   3
ENDBRANCH   1   2
BRANCH   1   6
ATOM      6  C   UNL     1      -7.413  26.012  22.585  1.00  0.00     0.000 C 
BRANCH   6   7
ATOM      7  C   UNL     1      -7.674  25.775  24.080  1.00  0.00    -0.000 C 
BRANCH   7   8
ATOM      8  C   UNL     1      -8.201  27.030  24.794  1.00  0.00    -0.003 C 
ATOM      9  C   UNL     1      -9.047  27.918  23.881  1.00  0.00     0.004 C 
ENDBRANCH   7   8
ENDBRANCH   6   7
ENDBRANCH   1   6
TORSDOF 5
ENDMDL
MODEL 8
REMARK VINA RESULT:    -3.353      1.822      2.421
REMARK INTER + INTRA:          -4.673
REMARK INTER:                  -4.269
REMARK INTRA:                  -0.404
REMARK UNBOUND:                -0.340
REMARK SMILES CCCCCCC(=O)[O-]
REMARK SMILES IDX 5 1 6 2 7 3 8 4 9 5 4 6 3 7 2 8 1 9
REMARK H PARENT
REMARK Flexibility Score: inf
ROOT
ATOM      1  C   UNL     1      -7.375  25.924  24.269  1.00  0.00     0.006 C 
ENDROOT
BRANCH   1   2
ATOM      2  C   UNL     1      -8.208  27.110  24.765  1.00  0.00     0.053 C 
BRANCH   2   3
ATOM      3  C   UNL     1      -9.644  26.939  24.383  1.00  0.00     0.041 C 
ATOM      4  O   UNL     1     -10.282  27.896  23.869  1.00  0.00    -0.550 OA
ATOM      5  O   UNL     1     -10.265  25.707  24.548  1.00  0.00    -0.550 OA
ENDBRANCH   2   3
ENDBRANCH   1   2
BRANCH   1   6
ATOM      6  C   UNL     1      -7.156  26.001  22.753  1.00  0.00     0.000 C 
BRANCH   6   7
ATOM      7  C   UNL     1      -7.771  24.783  22.047  1.00  0.00    -0.000 C 
BRANCH   7   8
ATOM      8  C   UNL     1      -8.498  25.160  20.747  1.00  0.00    -0.003 C 
ATOM      9  C   UNL     1      -8.898  26.634  20.698  1.00  0.00     0.004 C 
ENDBRANCH   7   8
ENDBRANCH   6   7
ENDBRANCH   1   6
TORSDOF 5
ENDMDL
MODEL 9
REMARK VINA RESULT:    -3.264      1.847      2.988
REMARK INTER + INTRA:          -4.558
REMARK INTER:                  -4.241
REMARK INTRA:                  -0.317
REMARK UNBOUND:                -0.340
REMARK SMILES CCCCCCC(=O)[O-]
REMARK SMILES IDX 5 1 6 2 7 3 8 4 9 5 4 6 3 7 2 8 1 9
REMARK H PARENT
REMARK Flexibility Score: inf
ROOT
ATOM      1  C   UNL     1     -10.036  29.187  24.393  1.00  0.00     0.006 C 
ENDROOT
BRANCH   1   2
ATOM      2  C   UNL     1     -11.015  29.379  23.232  1.00  0.00     0.053 C 
BRANCH   2   3
ATOM      3  C   UNL     1     -10.361  29.030  21.932  1.00  0.00     0.041 C 
ATOM      4  O   UNL     1     -10.858  29.430  20.845  1.00  0.00    -0.550 OA
ATOM      5  O   UNL     1      -9.175  28.308  21.922  1.00  0.00    -0.550 OA
ENDBRANCH   2   3
ENDBRANCH   1   2
BRANCH   1   6
ATOM      6  C   UNL     1     -10.590  28.196  25.424  1.00  0.00     0.000 C 
BRANCH   6   7
ATOM      7  C   UNL     1      -9.575  27.080  25.714  1.00  0.00    -0.000 C 
BRANCH   7   8
ATOM      8  C   UNL     1      -8.186  27.380  25.129  1.00  0.00    -0.003 C 
ATOM      9  C   UNL     1      -7.583  26.182  24.395  1.00  0.00     0.004 C 
ENDBRANCH   7   8
ENDBRANCH   6   7
ENDBRANCH   1   6
TORSDOF 5
ENDMDL
