MODEL 1
REMARK VINA RESULT:   139.741      0.000      0.000
REMARK INTER + INTRA:         161.531
REMARK INTER:                 160.164
REMARK INTRA:                   1.367
REMARK UNBOUND:                 1.367
REMARK SMILES C=C(C)[C@@H]1CC[C@]2(C(=O)[O-])CC[C@]3(C)[C@H](CC[C@@H]4[C@@]5(C)CC[C@@H](O)C(C)(C)[C@H]5CC[C@@]43C)[C@H]12
REMARK SMILES IDX 7 1 6 2 33 3 11 4 5 5 15 6 4 7 12 8 16 9 13 10 17 11 31 12
REMARK SMILES IDX 14 13 18 14 30 15 32 16 19 17 29 18 21 19 20 20 28 21 22 22
REMARK SMILES IDX 25 23 23 24 26 25 27 26 8 27 9 28 10 29 2 30 3 31 1 32 24 33
REMARK H PARENT 24 34
REMARK Flexibility Score: inf
ROOT
ATOM      1  C   UNL     1     -37.145  29.011 -22.715  1.00  0.00     0.014 C 
ATOM      2  C   UNL     1     -36.283  28.515 -21.519  1.00  0.00     0.014 C 
ATOM      3  C   UNL     1     -38.346  28.025 -22.825  1.00  0.00     0.012 C 
ATOM      4  C   UNL     1     -37.605  30.481 -22.508  1.00  0.00     0.014 C 
ATOM      5  C   UNL     1     -36.723  27.096 -21.166  1.00  0.00     0.009 C 
ATOM      6  C   UNL     1     -39.736  28.698 -22.468  1.00  0.00     0.000 C 
ATOM      7  C   UNL     1     -37.823  26.714 -22.161  1.00  0.00     0.018 C 
ATOM      8  C   UNL     1     -38.555  30.679 -21.317  1.00  0.00     0.008 C 
ATOM      9  C   UNL     1     -40.930  27.748 -22.476  1.00  0.00     0.005 C 
ATOM     10  C   UNL     1     -39.806  29.712 -21.269  1.00  0.00    -0.024 C 
ATOM     11  C   UNL     1     -42.239  28.518 -22.556  1.00  0.00     0.005 C 
ATOM     12  C   UNL     1     -41.211  30.540 -21.288  1.00  0.00    -0.024 C 
ATOM     13  C   UNL     1     -39.696  28.911 -19.933  1.00  0.00     0.012 C 
ATOM     14  C   UNL     1     -42.469  29.560 -21.399  1.00  0.00     0.002 C 
ATOM     15  C   UNL     1     -41.307  31.513 -22.510  1.00  0.00     0.008 C 
ATOM     16  C   UNL     1     -41.252  31.386 -19.966  1.00  0.00     0.012 C 
ATOM     17  C   UNL     1     -43.921  30.255 -21.558  1.00  0.00    -0.026 C 
ATOM     18  C   UNL     1     -42.652  32.241 -22.641  1.00  0.00     0.005 C 
ATOM     19  C   UNL     1     -44.408  30.934 -20.236  1.00  0.00     0.010 C 
ATOM     20  C   UNL     1     -44.946  29.103 -21.846  1.00  0.00     0.012 C 
ATOM     21  C   UNL     1     -43.910  31.324 -22.726  1.00  0.00     0.003 C 
ATOM     22  C   UNL     1     -45.744  31.689 -20.359  1.00  0.00     0.033 C 
ATOM     23  C   UNL     1     -45.253  32.184 -22.857  1.00  0.00    -0.006 C 
ATOM     24  C   UNL     1     -45.720  32.751 -21.473  1.00  0.00     0.120 C 
ATOM     25  C   UNL     1     -45.064  33.380 -23.840  1.00  0.00     0.014 C 
ATOM     26  C   UNL     1     -46.403  31.341 -23.489  1.00  0.00     0.014 C 
ENDROOT
BRANCH   1  27
ATOM     27  C   UNL     1     -36.305  28.928 -23.990  1.00  0.00     0.048 C 
ATOM     28  O   UNL     1     -36.105  27.816 -24.547  1.00  0.00    -0.550 OA
ATOM     29  O   UNL     1     -35.773  30.072 -24.578  1.00  0.00    -0.550 OA
ENDBRANCH   1  27
BRANCH   7  30
ATOM     30  C   UNL     1     -38.823  25.653 -21.706  1.00  0.00    -0.077 C 
ATOM     31  C   UNL     1     -38.468  24.601 -20.680  1.00  0.00     0.039 C 
ATOM     32  C   UNL     1     -39.979  25.525 -22.382  1.00  0.00     0.008 C 
ENDBRANCH   7  30
BRANCH  24  33
ATOM     33  O   UNL     1     -44.904  33.822 -21.068  1.00  0.00    -0.393 OA
ATOM     34  H   UNL     1     -44.941  34.509 -21.785  1.00  0.00     0.210 HD
ENDBRANCH  24  33
TORSDOF 3
ENDMDL
