MODEL 1
REMARK VINA RESULT:    -4.499      0.000      0.000
REMARK INTER + INTRA:          -9.423
REMARK INTER:                  -8.443
REMARK INTRA:                  -0.980
REMARK UNBOUND:                -0.980
REMARK SMILES O=C([O-])CCCCCCCCCCCCCCC(=O)[O-]
REMARK SMILES IDX 10 1 9 2 8 3 7 4 6 5 5 6 4 7 2 8 1 9 3 10 11 11 12 12 13 13
REMARK SMILES IDX 14 14 15 15 16 16 17 17 18 18 19 19 20 20
REMARK H PARENT
REMARK Flexibility Score: inf
ROOT
ATOM      1  C   UNL     1      14.498  11.627  15.462  1.00  0.00     0.000 C 
ENDROOT
BRANCH   1   2
ATOM      2  C   UNL     1      14.178  11.118  14.048  1.00  0.00     0.000 C 
BRANCH   2   3
ATOM      3  C   UNL     1      12.807  11.598  13.543  1.00  0.00     0.000 C 
BRANCH   3   4
ATOM      4  C   UNL     1      12.208  10.671  12.471  1.00  0.00     0.000 C 
BRANCH   4   5
ATOM      5  C   UNL     1      12.284  11.251  11.043  1.00  0.00     0.000 C 
BRANCH   5   6
ATOM      6  C   UNL     1      12.710  12.729  11.038  1.00  0.00     0.006 C 
BRANCH   6   7
ATOM      7  C   UNL     1      11.964  13.543   9.973  1.00  0.00     0.053 C 
BRANCH   7   8
ATOM      8  C   UNL     1      11.578  14.898  10.484  1.00  0.00     0.041 C 
ATOM      9  O   UNL     1      11.630  15.901   9.725  1.00  0.00    -0.550 OA
ATOM     10  O   UNL     1      11.134  15.047  11.793  1.00  0.00    -0.550 OA
ENDBRANCH   7   8
ENDBRANCH   6   7
ENDBRANCH   5   6
ENDBRANCH   4   5
ENDBRANCH   3   4
ENDBRANCH   2   3
ENDBRANCH   1   2
BRANCH   1  11
ATOM     11  C   UNL     1      15.988  11.946  15.651  1.00  0.00     0.000 C 
BRANCH  11  12
ATOM     12  C   UNL     1      16.732  11.907  14.309  1.00  0.00     0.000 C 
BRANCH  12  13
ATOM     13  C   UNL     1      18.262  11.857  14.473  1.00  0.00     0.000 C 
BRANCH  13  14
ATOM     14  C   UNL     1      18.807  12.536  15.747  1.00  0.00     0.000 C 
BRANCH  14  15
ATOM     15  C   UNL     1      19.726  11.657  16.613  1.00  0.00     0.000 C 
BRANCH  15  16
ATOM     16  C   UNL     1      19.221  11.511  18.059  1.00  0.00     0.006 C 
BRANCH  16  17
ATOM     17  C   UNL     1      18.164  12.568  18.411  1.00  0.00     0.053 C 
BRANCH  17  18
ATOM     18  C   UNL     1      17.133  12.027  19.355  1.00  0.00     0.041 C 
ATOM     19  O   UNL     1      17.466  11.649  20.508  1.00  0.00    -0.550 OA
ATOM     20  O   UNL     1      15.811  11.908  18.947  1.00  0.00    -0.550 OA
ENDBRANCH  17  18
ENDBRANCH  16  17
ENDBRANCH  15  16
ENDBRANCH  14  15
ENDBRANCH  13  14
ENDBRANCH  12  13
ENDBRANCH  11  12
ENDBRANCH   1  11
TORSDOF 15
ENDMDL
MODEL 2
REMARK VINA RESULT:    -4.491      0.736      8.794
REMARK INTER + INTRA:          -9.408
REMARK INTER:                  -8.378
REMARK INTRA:                  -1.031
REMARK UNBOUND:                -0.980
REMARK SMILES O=C([O-])CCCCCCCCCCCCCCC(=O)[O-]
REMARK SMILES IDX 10 1 9 2 8 3 7 4 6 5 5 6 4 7 2 8 1 9 3 10 11 11 12 12 13 13
REMARK SMILES IDX 14 14 15 15 16 16 17 17 18 18 19 19 20 20
REMARK H PARENT
REMARK Flexibility Score: inf
ROOT
ATOM      1  C   UNL     1      16.263  12.021  15.265  1.00  0.00     0.000 C 
ENDROOT
BRANCH   1   2
ATOM      2  C   UNL     1      17.321  11.588  14.238  1.00  0.00     0.000 C 
BRANCH   2   3
ATOM      3  C   UNL     1      18.630  12.383  14.367  1.00  0.00     0.000 C 
BRANCH   3   4
ATOM      4  C   UNL     1      18.908  12.847  15.807  1.00  0.00     0.000 C 
BRANCH   4   5
ATOM      5  C   UNL     1      19.717  11.829  16.638  1.00  0.00     0.000 C 
BRANCH   5   6
ATOM      6  C   UNL     1      19.040  11.508  17.983  1.00  0.00     0.006 C 
BRANCH   6   7
ATOM      7  C   UNL     1      18.148  12.656  18.470  1.00  0.00     0.053 C 
BRANCH   7   8
ATOM      8  C   UNL     1      16.929  12.146  19.177  1.00  0.00     0.041 C 
ATOM      9  O   UNL     1      15.842  12.019  18.556  1.00  0.00    -0.550 OA
ATOM     10  O   UNL     1      17.003  11.784  20.517  1.00  0.00    -0.550 OA
ENDBRANCH   7   8
ENDBRANCH   6   7
ENDBRANCH   5   6
ENDBRANCH   4   5
ENDBRANCH   3   4
ENDBRANCH   2   3
ENDBRANCH   1   2
BRANCH   1  11
ATOM     11  C   UNL     1      14.939  11.259  15.106  1.00  0.00     0.000 C 
BRANCH  11  12
ATOM     12  C   UNL     1      14.030  11.947  14.077  1.00  0.00     0.000 C 
BRANCH  12  13
ATOM     13  C   UNL     1      12.957  11.005  13.502  1.00  0.00     0.000 C 
BRANCH  13  14
ATOM     14  C   UNL     1      12.000  11.650  12.478  1.00  0.00     0.000 C 
BRANCH  14  15
ATOM     15  C   UNL     1      12.345  11.382  11.003  1.00  0.00     0.000 C 
BRANCH  15  16
ATOM     16  C   UNL     1      13.089  12.555  10.343  1.00  0.00     0.006 C 
BRANCH  16  17
ATOM     17  C   UNL     1      12.245  13.234   9.254  1.00  0.00     0.053 C 
BRANCH  17  18
ATOM     18  C   UNL     1      11.408  14.344   9.815  1.00  0.00     0.041 C 
ATOM     19  O   UNL     1      10.236  14.115  10.210  1.00  0.00    -0.550 OA
ATOM     20  O   UNL     1      11.912  15.637   9.866  1.00  0.00    -0.550 OA
ENDBRANCH  17  18
ENDBRANCH  16  17
ENDBRANCH  15  16
ENDBRANCH  14  15
ENDBRANCH  13  14
ENDBRANCH  12  13
ENDBRANCH  11  12
ENDBRANCH   1  11
TORSDOF 15
ENDMDL
MODEL 3
REMARK VINA RESULT:    -4.475      2.178      8.129
REMARK INTER + INTRA:          -9.378
REMARK INTER:                  -8.316
REMARK INTRA:                  -1.062
REMARK UNBOUND:                -0.980
REMARK SMILES O=C([O-])CCCCCCCCCCCCCCC(=O)[O-]
REMARK SMILES IDX 10 1 9 2 8 3 7 4 6 5 5 6 4 7 2 8 1 9 3 10 11 11 12 12 13 13
REMARK SMILES IDX 14 14 15 15 16 16 17 17 18 18 19 19 20 20
REMARK H PARENT
REMARK Flexibility Score: inf
ROOT
ATOM      1  C   UNL     1      15.767  12.316  17.217  1.00  0.00     0.000 C 
ENDROOT
BRANCH   1   2
ATOM      2  C   UNL     1      15.831  11.970  18.713  1.00  0.00     0.000 C 
BRANCH   2   3
ATOM      3  C   UNL     1      17.200  12.290  19.336  1.00  0.00     0.000 C 
BRANCH   3   4
ATOM      4  C   UNL     1      18.263  12.657  18.286  1.00  0.00     0.000 C 
BRANCH   4   5
ATOM      5  C   UNL     1      19.241  11.505  17.972  1.00  0.00     0.000 C 
BRANCH   5   6
ATOM      6  C   UNL     1      19.652  11.481  16.489  1.00  0.00     0.006 C 
BRANCH   6   7
ATOM      7  C   UNL     1      19.107  12.690  15.718  1.00  0.00     0.053 C 
BRANCH   7   8
ATOM      8  C   UNL     1      18.683  12.313  14.331  1.00  0.00     0.041 C 
ATOM      9  O   UNL     1      17.965  11.297  14.141  1.00  0.00    -0.550 OA
ATOM     10  O   UNL     1      19.057  13.104  13.250  1.00  0.00    -0.550 OA
ENDBRANCH   7   8
ENDBRANCH   6   7
ENDBRANCH   5   6
ENDBRANCH   4   5
ENDBRANCH   3   4
ENDBRANCH   2   3
ENDBRANCH   1   2
BRANCH   1  11
ATOM     11  C   UNL     1      14.412  11.965  16.587  1.00  0.00     0.000 C 
BRANCH  11  12
ATOM     12  C   UNL     1      14.578  11.573  15.112  1.00  0.00     0.000 C 
BRANCH  12  13
ATOM     13  C   UNL     1      13.294  11.782  14.288  1.00  0.00     0.000 C 
BRANCH  13  14
ATOM     14  C   UNL     1      12.990  10.675  13.256  1.00  0.00     0.000 C 
BRANCH  14  15
ATOM     15  C   UNL     1      12.029  11.083  12.127  1.00  0.00     0.000 C 
BRANCH  15  16
ATOM     16  C   UNL     1      11.478  12.509  12.299  1.00  0.00     0.006 C 
BRANCH  16  17
ATOM     17  C   UNL     1      11.204  13.189  10.950  1.00  0.00     0.053 C 
BRANCH  17  18
ATOM     18  C   UNL     1      12.209  14.261  10.655  1.00  0.00     0.041 C 
ATOM     19  O   UNL     1      13.437  14.042  10.825  1.00  0.00    -0.550 OA
ATOM     20  O   UNL     1      11.786  15.513  10.228  1.00  0.00    -0.550 OA
ENDBRANCH  17  18
ENDBRANCH  16  17
ENDBRANCH  15  16
ENDBRANCH  14  15
ENDBRANCH  13  14
ENDBRANCH  12  13
ENDBRANCH  11  12
ENDBRANCH   1  11
TORSDOF 15
ENDMDL
MODEL 4
REMARK VINA RESULT:    -4.455      1.428      2.825
REMARK INTER + INTRA:          -9.342
REMARK INTER:                  -8.077
REMARK INTRA:                  -1.265
REMARK UNBOUND:                -0.980
REMARK SMILES O=C([O-])CCCCCCCCCCCCCCC(=O)[O-]
REMARK SMILES IDX 10 1 9 2 8 3 7 4 6 5 5 6 4 7 2 8 1 9 3 10 11 11 12 12 13 13
REMARK SMILES IDX 14 14 15 15 16 16 17 17 18 18 19 19 20 20
REMARK H PARENT
REMARK Flexibility Score: inf
ROOT
ATOM      1  C   UNL     1      11.585  11.555  13.383  1.00  0.00     0.000 C 
ENDROOT
BRANCH   1   2
ATOM      2  C   UNL     1      10.563  10.725  12.591  1.00  0.00     0.000 C 
BRANCH   2   3
ATOM      3  C   UNL     1      11.194   9.991  11.397  1.00  0.00     0.000 C 
BRANCH   3   4
ATOM      4  C   UNL     1      11.185  10.830  10.107  1.00  0.00     0.000 C 
BRANCH   4   5
ATOM      5  C   UNL     1      12.591  11.271   9.649  1.00  0.00     0.000 C 
BRANCH   5   6
ATOM      6  C   UNL     1      12.640  12.764   9.280  1.00  0.00     0.006 C 
BRANCH   6   7
ATOM      7  C   UNL     1      12.732  13.665  10.518  1.00  0.00     0.053 C 
BRANCH   7   8
ATOM      8  C   UNL     1      11.579  14.619  10.594  1.00  0.00     0.041 C 
ATOM      9  O   UNL     1      11.005  15.005   9.543  1.00  0.00    -0.550 OA
ATOM     10  O   UNL     1      11.120  15.058  11.831  1.00  0.00    -0.550 OA
ENDBRANCH   7   8
ENDBRANCH   6   7
ENDBRANCH   5   6
ENDBRANCH   4   5
ENDBRANCH   3   4
ENDBRANCH   2   3
ENDBRANCH   1   2
BRANCH   1  11
ATOM     11  C   UNL     1      12.981  10.916  13.396  1.00  0.00     0.000 C 
BRANCH  11  12
ATOM     12  C   UNL     1      14.026  11.891  13.957  1.00  0.00     0.000 C 
BRANCH  12  13
ATOM     13  C   UNL     1      14.815  11.307  15.143  1.00  0.00     0.000 C 
BRANCH  13  14
ATOM     14  C   UNL     1      16.126  12.045  15.486  1.00  0.00     0.000 C 
BRANCH  14  15
ATOM     15  C   UNL     1      17.206  11.999  14.391  1.00  0.00     0.000 C 
BRANCH  15  16
ATOM     16  C   UNL     1      18.605  11.688  14.948  1.00  0.00     0.006 C 
BRANCH  16  17
ATOM     17  C   UNL     1      19.001  12.644  16.082  1.00  0.00     0.053 C 
BRANCH  17  18
ATOM     18  C   UNL     1      19.203  11.914  17.376  1.00  0.00     0.041 C 
ATOM     19  O   UNL     1      18.317  11.953  18.269  1.00  0.00    -0.550 OA
ATOM     20  O   UNL     1      20.384  11.221  17.606  1.00  0.00    -0.550 OA
ENDBRANCH  17  18
ENDBRANCH  16  17
ENDBRANCH  15  16
ENDBRANCH  14  15
ENDBRANCH  13  14
ENDBRANCH  12  13
ENDBRANCH  11  12
ENDBRANCH   1  11
TORSDOF 15
ENDMDL
MODEL 5
REMARK VINA RESULT:    -4.438      2.752      8.203
REMARK INTER + INTRA:          -9.311
REMARK INTER:                  -8.270
REMARK INTRA:                  -1.040
REMARK UNBOUND:                -0.980
REMARK SMILES O=C([O-])CCCCCCCCCCCCCCC(=O)[O-]
REMARK SMILES IDX 10 1 9 2 8 3 7 4 6 5 5 6 4 7 2 8 1 9 3 10 11 11 12 12 13 13
REMARK SMILES IDX 14 14 15 15 16 16 17 17 18 18 19 19 20 20
REMARK H PARENT
REMARK Flexibility Score: inf
ROOT
ATOM      1  C   UNL     1      15.792  12.008  16.952  1.00  0.00     0.000 C 
ENDROOT
BRANCH   1   2
ATOM      2  C   UNL     1      15.663  12.116  18.480  1.00  0.00     0.000 C 
BRANCH   2   3
ATOM      3  C   UNL     1      17.015  11.982  19.199  1.00  0.00     0.000 C 
BRANCH   3   4
ATOM      4  C   UNL     1      18.190  12.523  18.367  1.00  0.00     0.000 C 
BRANCH   4   5
ATOM      5  C   UNL     1      19.253  11.454  18.035  1.00  0.00     0.000 C 
BRANCH   5   6
ATOM      6  C   UNL     1      19.695  11.512  16.562  1.00  0.00     0.006 C 
BRANCH   6   7
ATOM      7  C   UNL     1      19.081  12.705  15.820  1.00  0.00     0.053 C 
BRANCH   7   8
ATOM      8  C   UNL     1      18.724  12.353  14.408  1.00  0.00     0.041 C 
ATOM      9  O   UNL     1      19.154  13.050  13.452  1.00  0.00    -0.550 OA
ATOM     10  O   UNL     1      17.939  11.236  14.147  1.00  0.00    -0.550 OA
ENDBRANCH   7   8
ENDBRANCH   6   7
ENDBRANCH   5   6
ENDBRANCH   4   5
ENDBRANCH   3   4
ENDBRANCH   2   3
ENDBRANCH   1   2
BRANCH   1  11
ATOM     11  C   UNL     1      14.431  12.007  16.243  1.00  0.00     0.000 C 
BRANCH  11  12
ATOM     12  C   UNL     1      14.559  11.467  14.811  1.00  0.00     0.000 C 
BRANCH  12  13
ATOM     13  C   UNL     1      13.285  11.680  13.974  1.00  0.00     0.000 C 
BRANCH  13  14
ATOM     14  C   UNL     1      13.492  12.438  12.647  1.00  0.00     0.000 C 
BRANCH  14  15
ATOM     15  C   UNL     1      12.251  12.519  11.740  1.00  0.00     0.000 C 
BRANCH  15  16
ATOM     16  C   UNL     1      12.343  11.587  10.520  1.00  0.00     0.006 C 
BRANCH  16  17
ATOM     17  C   UNL     1      11.945  10.145  10.864  1.00  0.00     0.053 C 
BRANCH  17  18
ATOM     18  C   UNL     1      10.503  10.047  11.260  1.00  0.00     0.041 C 
ATOM     19  O   UNL     1       9.607  10.512  10.509  1.00  0.00    -0.550 OA
ATOM     20  O   UNL     1      10.153   9.473  12.475  1.00  0.00    -0.550 OA
ENDBRANCH  17  18
ENDBRANCH  16  17
ENDBRANCH  15  16
ENDBRANCH  14  15
ENDBRANCH  13  14
ENDBRANCH  12  13
ENDBRANCH  11  12
ENDBRANCH   1  11
TORSDOF 15
ENDMDL
MODEL 6
REMARK VINA RESULT:    -4.438      0.930      8.578
REMARK INTER + INTRA:          -9.310
REMARK INTER:                  -8.206
REMARK INTRA:                  -1.104
REMARK UNBOUND:                -0.980
REMARK SMILES O=C([O-])CCCCCCCCCCCCCCC(=O)[O-]
REMARK SMILES IDX 10 1 9 2 8 3 7 4 6 5 5 6 4 7 2 8 1 9 3 10 11 11 12 12 13 13
REMARK SMILES IDX 14 14 15 15 16 16 17 17 18 18 19 19 20 20
REMARK H PARENT
REMARK Flexibility Score: inf
ROOT
ATOM      1  C   UNL     1      15.879  11.680  15.584  1.00  0.00     0.000 C 
ENDROOT
BRANCH   1   2
ATOM      2  C   UNL     1      16.678  12.001  14.311  1.00  0.00     0.000 C 
BRANCH   2   3
ATOM      3  C   UNL     1      18.195  11.854  14.513  1.00  0.00     0.000 C 
BRANCH   3   4
ATOM      4  C   UNL     1      18.744  12.780  15.612  1.00  0.00     0.000 C 
BRANCH   4   5
ATOM      5  C   UNL     1      19.751  12.088  16.555  1.00  0.00     0.000 C 
BRANCH   5   6
ATOM      6  C   UNL     1      19.090  11.604  17.857  1.00  0.00     0.006 C 
BRANCH   6   7
ATOM      7  C   UNL     1      18.124  12.645  18.437  1.00  0.00     0.053 C 
BRANCH   7   8
ATOM      8  C   UNL     1      17.118  12.015  19.352  1.00  0.00     0.041 C 
ATOM      9  O   UNL     1      17.466  11.604  20.490  1.00  0.00    -0.550 OA
ATOM     10  O   UNL     1      15.790  11.908  18.958  1.00  0.00    -0.550 OA
ENDBRANCH   7   8
ENDBRANCH   6   7
ENDBRANCH   5   6
ENDBRANCH   4   5
ENDBRANCH   3   4
ENDBRANCH   2   3
ENDBRANCH   1   2
BRANCH   1  11
ATOM     11  C   UNL     1      14.361  11.736  15.358  1.00  0.00     0.000 C 
BRANCH  11  12
ATOM     12  C   UNL     1      13.973  11.008  14.063  1.00  0.00     0.000 C 
BRANCH  12  13
ATOM     13  C   UNL     1      12.588  11.425  13.534  1.00  0.00     0.000 C 
BRANCH  13  14
ATOM     14  C   UNL     1      11.918  10.411  12.583  1.00  0.00     0.000 C 
BRANCH  14  15
ATOM     15  C   UNL     1      12.378  10.490  11.116  1.00  0.00     0.000 C 
BRANCH  15  16
ATOM     16  C   UNL     1      11.652  11.589  10.322  1.00  0.00     0.006 C 
BRANCH  16  17
ATOM     17  C   UNL     1      12.633  12.531   9.611  1.00  0.00     0.053 C 
BRANCH  17  18
ATOM     18  C   UNL     1      12.963  13.726  10.453  1.00  0.00     0.041 C 
ATOM     19  O   UNL     1      12.377  14.822  10.253  1.00  0.00    -0.550 OA
ATOM     20  O   UNL     1      13.942  13.637  11.433  1.00  0.00    -0.550 OA
ENDBRANCH  17  18
ENDBRANCH  16  17
ENDBRANCH  15  16
ENDBRANCH  14  15
ENDBRANCH  13  14
ENDBRANCH  12  13
ENDBRANCH  11  12
ENDBRANCH   1  11
TORSDOF 15
ENDMDL
MODEL 7
REMARK VINA RESULT:    -4.369      1.878      8.503
REMARK INTER + INTRA:          -9.180
REMARK INTER:                  -7.797
REMARK INTRA:                  -1.383
REMARK UNBOUND:                -0.980
REMARK SMILES O=C([O-])CCCCCCCCCCCCCCC(=O)[O-]
REMARK SMILES IDX 10 1 9 2 8 3 7 4 6 5 5 6 4 7 2 8 1 9 3 10 11 11 12 12 13 13
REMARK SMILES IDX 14 14 15 15 16 16 17 17 18 18 19 19 20 20
REMARK H PARENT
REMARK Flexibility Score: inf
ROOT
ATOM      1  C   UNL     1      12.682  11.708  13.082  1.00  0.00     0.000 C 
ENDROOT
BRANCH   1   2
ATOM      2  C   UNL     1      13.783  11.004  13.890  1.00  0.00     0.000 C 
BRANCH   2   3
ATOM      3  C   UNL     1      14.407  11.917  14.959  1.00  0.00     0.000 C 
BRANCH   3   4
ATOM      4  C   UNL     1      15.852  11.523  15.310  1.00  0.00     0.000 C 
BRANCH   4   5
ATOM      5  C   UNL     1      16.914  12.275  14.480  1.00  0.00     0.000 C 
BRANCH   5   6
ATOM      6  C   UNL     1      18.324  11.689  14.672  1.00  0.00     0.006 C 
BRANCH   6   7
ATOM      7  C   UNL     1      19.148  12.489  15.690  1.00  0.00     0.053 C 
BRANCH   7   8
ATOM      8  C   UNL     1      19.208  11.796  17.018  1.00  0.00     0.041 C 
ATOM      9  O   UNL     1      18.403  12.110  17.933  1.00  0.00    -0.550 OA
ATOM     10  O   UNL     1      20.135  10.784  17.233  1.00  0.00    -0.550 OA
ENDBRANCH   7   8
ENDBRANCH   6   7
ENDBRANCH   5   6
ENDBRANCH   4   5
ENDBRANCH   3   4
ENDBRANCH   2   3
ENDBRANCH   1   2
BRANCH   1  11
ATOM     11  C   UNL     1      11.966  10.760  12.108  1.00  0.00     0.000 C 
BRANCH  11  12
ATOM     12  C   UNL     1      12.283  11.129  10.652  1.00  0.00     0.000 C 
BRANCH  12  13
ATOM     13  C   UNL     1      12.825  12.562  10.501  1.00  0.00     0.000 C 
BRANCH  13  14
ATOM     14  C   UNL     1      11.912  13.530   9.720  1.00  0.00     0.000 C 
BRANCH  14  15
ATOM     15  C   UNL     1      11.730  14.916  10.362  1.00  0.00     0.000 C 
BRANCH  15  16
ATOM     16  C   UNL     1      11.213  14.840  11.808  1.00  0.00     0.006 C 
BRANCH  16  17
ATOM     17  C   UNL     1       9.691  14.654  11.869  1.00  0.00     0.053 C 
BRANCH  17  18
ATOM     18  C   UNL     1       9.320  13.280  12.342  1.00  0.00     0.041 C 
ATOM     19  O   UNL     1       8.943  12.407  11.518  1.00  0.00    -0.550 OA
ATOM     20  O   UNL     1       9.356  12.978  13.696  1.00  0.00    -0.550 OA
ENDBRANCH  17  18
ENDBRANCH  16  17
ENDBRANCH  15  16
ENDBRANCH  14  15
ENDBRANCH  13  14
ENDBRANCH  12  13
ENDBRANCH  11  12
ENDBRANCH   1  11
TORSDOF 15
ENDMDL
MODEL 8
REMARK VINA RESULT:    -4.346      1.923      8.628
REMARK INTER + INTRA:          -9.136
REMARK INTER:                  -8.120
REMARK INTRA:                  -1.016
REMARK UNBOUND:                -0.980
REMARK SMILES O=C([O-])CCCCCCCCCCCCCCC(=O)[O-]
REMARK SMILES IDX 10 1 9 2 8 3 7 4 6 5 5 6 4 7 2 8 1 9 3 10 11 11 12 12 13 13
REMARK SMILES IDX 14 14 15 15 16 16 17 17 18 18 19 19 20 20
REMARK H PARENT
REMARK Flexibility Score: inf
ROOT
ATOM      1  C   UNL     1      12.979  11.161  13.604  1.00  0.00     0.000 C 
ENDROOT
BRANCH   1   2
ATOM      2  C   UNL     1      13.909  11.704  14.701  1.00  0.00     0.000 C 
BRANCH   2   3
ATOM      3  C   UNL     1      15.315  11.084  14.646  1.00  0.00     0.000 C 
BRANCH   3   4
ATOM      4  C   UNL     1      16.401  12.018  15.206  1.00  0.00     0.000 C 
BRANCH   4   5
ATOM      5  C   UNL     1      17.705  12.012  14.379  1.00  0.00     0.000 C 
BRANCH   5   6
ATOM      6  C   UNL     1      18.951  12.220  15.257  1.00  0.00     0.006 C 
BRANCH   6   7
ATOM      7  C   UNL     1      18.598  12.791  16.637  1.00  0.00     0.053 C 
BRANCH   7   8
ATOM      8  C   UNL     1      18.995  11.857  17.739  1.00  0.00     0.041 C 
ATOM      9  O   UNL     1      18.287  11.761  18.775  1.00  0.00    -0.550 OA
ATOM     10  O   UNL     1      20.133  11.070  17.607  1.00  0.00    -0.550 OA
ENDBRANCH   7   8
ENDBRANCH   6   7
ENDBRANCH   5   6
ENDBRANCH   4   5
ENDBRANCH   3   4
ENDBRANCH   2   3
ENDBRANCH   1   2
BRANCH   1  11
ATOM     11  C   UNL     1      11.508  11.530  13.841  1.00  0.00     0.000 C 
BRANCH  11  12
ATOM     12  C   UNL     1      10.596  10.823  12.829  1.00  0.00     0.000 C 
BRANCH  12  13
ATOM     13  C   UNL     1       9.996  11.786  11.788  1.00  0.00     0.000 C 
BRANCH  13  14
ATOM     14  C   UNL     1       9.821  13.242  12.267  1.00  0.00     0.000 C 
BRANCH  14  15
ATOM     15  C   UNL     1       9.953  14.311  11.168  1.00  0.00     0.000 C 
BRANCH  15  16
ATOM     16  C   UNL     1      11.268  15.103  11.262  1.00  0.00     0.006 C 
BRANCH  16  17
ATOM     17  C   UNL     1      12.286  14.659  10.203  1.00  0.00     0.053 C 
BRANCH  17  18
ATOM     18  C   UNL     1      13.133  13.523  10.691  1.00  0.00     0.041 C 
ATOM     19  O   UNL     1      13.864  13.667  11.705  1.00  0.00    -0.550 OA
ATOM     20  O   UNL     1      13.140  12.316  10.003  1.00  0.00    -0.550 OA
ENDBRANCH  17  18
ENDBRANCH  16  17
ENDBRANCH  15  16
ENDBRANCH  14  15
ENDBRANCH  13  14
ENDBRANCH  12  13
ENDBRANCH  11  12
ENDBRANCH   1  11
TORSDOF 15
ENDMDL
MODEL 9
REMARK VINA RESULT:    -4.230      2.122      3.503
REMARK INTER + INTRA:          -8.919
REMARK INTER:                  -7.860
REMARK INTRA:                  -1.060
REMARK UNBOUND:                -0.980
REMARK SMILES O=C([O-])CCCCCCCCCCCCCCC(=O)[O-]
REMARK SMILES IDX 10 1 9 2 8 3 7 4 6 5 5 6 4 7 2 8 1 9 3 10 11 11 12 12 13 13
REMARK SMILES IDX 14 14 15 15 16 16 17 17 18 18 19 19 20 20
REMARK H PARENT
REMARK Flexibility Score: inf
ROOT
ATOM      1  C   UNL     1      12.260  10.517  11.935  1.00  0.00     0.000 C 
ENDROOT
BRANCH   1   2
ATOM      2  C   UNL     1      10.863   9.985  11.580  1.00  0.00     0.000 C 
BRANCH   2   3
ATOM      3  C   UNL     1      10.112  10.903  10.601  1.00  0.00     0.000 C 
BRANCH   3   4
ATOM      4  C   UNL     1       9.214  11.929  11.315  1.00  0.00     0.000 C 
BRANCH   4   5
ATOM      5  C   UNL     1       9.957  13.218  11.725  1.00  0.00     0.000 C 
BRANCH   5   6
ATOM      6  C   UNL     1       9.913  14.290  10.622  1.00  0.00     0.006 C 
BRANCH   6   7
ATOM      7  C   UNL     1      11.281  14.945  10.398  1.00  0.00     0.053 C 
BRANCH   7   8
ATOM      8  C   UNL     1      12.337  13.928  10.088  1.00  0.00     0.041 C 
ATOM      9  O   UNL     1      12.245  13.211   9.057  1.00  0.00    -0.550 OA
ATOM     10  O   UNL     1      13.438  13.792  10.925  1.00  0.00    -0.550 OA
ENDBRANCH   7   8
ENDBRANCH   6   7
ENDBRANCH   5   6
ENDBRANCH   4   5
ENDBRANCH   3   4
ENDBRANCH   2   3
ENDBRANCH   1   2
BRANCH   1  11
ATOM     11  C   UNL     1      12.372  10.949  13.405  1.00  0.00     0.000 C 
BRANCH  11  12
ATOM     12  C   UNL     1      13.667  11.737  13.648  1.00  0.00     0.000 C 
BRANCH  12  13
ATOM     13  C   UNL     1      14.516  11.154  14.793  1.00  0.00     0.000 C 
BRANCH  13  14
ATOM     14  C   UNL     1      15.745  11.998  15.192  1.00  0.00     0.000 C 
BRANCH  14  15
ATOM     15  C   UNL     1      17.010  11.745  14.353  1.00  0.00     0.000 C 
BRANCH  15  16
ATOM     16  C   UNL     1      18.250  12.460  14.915  1.00  0.00     0.006 C 
BRANCH  16  17
ATOM     17  C   UNL     1      18.288  12.427  16.450  1.00  0.00     0.053 C 
BRANCH  17  18
ATOM     18  C   UNL     1      19.686  12.265  16.966  1.00  0.00     0.041 C 
ATOM     19  O   UNL     1      20.482  13.240  16.955  1.00  0.00    -0.550 OA
ATOM     20  O   UNL     1      20.119  11.028  17.424  1.00  0.00    -0.550 OA
ENDBRANCH  17  18
ENDBRANCH  16  17
ENDBRANCH  15  16
ENDBRANCH  14  15
ENDBRANCH  13  14
ENDBRANCH  12  13
ENDBRANCH  11  12
ENDBRANCH   1  11
TORSDOF 15
ENDMDL
