MODEL 1
REMARK VINA RESULT:    -4.166      0.000      0.000
REMARK INTER + INTRA:          -5.503
REMARK INTER:                  -5.384
REMARK INTRA:                  -0.120
REMARK UNBOUND:                -0.120
REMARK SMILES CCCCCCC(C)=O
REMARK SMILES IDX 4 1 3 2 2 3 1 4 5 5 6 6 7 7 9 8 8 9
REMARK H PARENT
REMARK Flexibility Score: inf
ROOT
ATOM      1  C   UNL     1      25.891  57.071  -8.771  1.00  0.00     0.000 C 
ENDROOT
BRANCH   1   2
ATOM      2  C   UNL     1      24.433  56.580  -8.717  1.00  0.00    -0.000 C 
BRANCH   2   3
ATOM      3  C   UNL     1      24.292  55.242  -7.975  1.00  0.00    -0.003 C 
ATOM      4  C   UNL     1      22.905  55.053  -7.360  1.00  0.00     0.004 C 
ENDBRANCH   2   3
ENDBRANCH   1   2
BRANCH   1   5
ATOM      5  C   UNL     1      26.001  58.553  -9.165  1.00  0.00     0.008 C 
BRANCH   5   6
ATOM      6  C   UNL     1      27.111  58.812 -10.192  1.00  0.00     0.075 C 
BRANCH   6   7
ATOM      7  C   UNL     1      27.745  60.159  -9.962  1.00  0.00     0.129 C 
ATOM      8  O   UNL     1      28.541  60.596 -10.780  1.00  0.00    -0.300 OA
ATOM      9  C   UNL     1      27.428  60.975  -8.743  1.00  0.00     0.087 C 
ENDBRANCH   6   7
ENDBRANCH   5   6
ENDBRANCH   1   5
TORSDOF 5
ENDMDL
MODEL 2
REMARK VINA RESULT:    -4.010      2.488      5.371
REMARK INTER + INTRA:          -5.302
REMARK INTER:                  -5.091
REMARK INTRA:                  -0.211
REMARK UNBOUND:                -0.120
REMARK SMILES CCCCCCC(C)=O
REMARK SMILES IDX 4 1 3 2 2 3 1 4 5 5 6 6 7 7 9 8 8 9
REMARK H PARENT
REMARK Flexibility Score: inf
ROOT
ATOM      1  C   UNL     1      26.075  59.156  -9.161  1.00  0.00     0.000 C 
ENDROOT
BRANCH   1   2
ATOM      2  C   UNL     1      27.063  58.726 -10.259  1.00  0.00    -0.000 C 
BRANCH   2   3
ATOM      3  C   UNL     1      28.307  59.625 -10.316  1.00  0.00    -0.003 C 
ATOM      4  C   UNL     1      28.150  60.901  -9.488  1.00  0.00     0.004 C 
ENDBRANCH   2   3
ENDBRANCH   1   2
BRANCH   1   5
ATOM      5  C   UNL     1      25.118  58.025  -8.750  1.00  0.00     0.008 C 
BRANCH   5   6
ATOM      6  C   UNL     1      25.637  56.637  -9.151  1.00  0.00     0.075 C 
BRANCH   6   7
ATOM      7  C   UNL     1      25.159  55.590  -8.179  1.00  0.00     0.129 C 
ATOM      8  O   UNL     1      25.947  54.756  -7.759  1.00  0.00    -0.300 OA
ATOM      9  C   UNL     1      23.731  55.541  -7.720  1.00  0.00     0.087 C 
ENDBRANCH   6   7
ENDBRANCH   5   6
ENDBRANCH   1   5
TORSDOF 5
ENDMDL
MODEL 3
REMARK VINA RESULT:    -3.830     17.702     19.466
REMARK INTER + INTRA:          -5.070
REMARK INTER:                  -4.595
REMARK INTRA:                  -0.475
REMARK UNBOUND:                -0.120
REMARK SMILES CCCCCCC(C)=O
REMARK SMILES IDX 4 1 3 2 2 3 1 4 5 5 6 6 7 7 9 8 8 9
REMARK H PARENT
REMARK Flexibility Score: inf
ROOT
ATOM      1  C   UNL     1      15.911  43.146   1.416  1.00  0.00     0.000 C 
ENDROOT
BRANCH   1   2
ATOM      2  C   UNL     1      15.744  44.624   1.812  1.00  0.00    -0.000 C 
BRANCH   2   3
ATOM      3  C   UNL     1      15.009  45.441   0.738  1.00  0.00    -0.003 C 
ATOM      4  C   UNL     1      15.809  45.563  -0.559  1.00  0.00     0.004 C 
ENDBRANCH   2   3
ENDBRANCH   1   2
BRANCH   1   5
ATOM      5  C   UNL     1      17.386  42.718   1.340  1.00  0.00     0.008 C 
BRANCH   5   6
ATOM      6  C   UNL     1      18.330  43.730   2.003  1.00  0.00     0.075 C 
BRANCH   6   7
ATOM      7  C   UNL     1      19.511  44.017   1.113  1.00  0.00     0.129 C 
ATOM      8  O   UNL     1      20.573  43.449   1.321  1.00  0.00    -0.300 OA
ATOM      9  C   UNL     1      19.417  44.996  -0.021  1.00  0.00     0.087 C 
ENDBRANCH   6   7
ENDBRANCH   5   6
ENDBRANCH   1   5
TORSDOF 5
ENDMDL
MODEL 4
REMARK VINA RESULT:    -3.814      2.508      5.527
REMARK INTER + INTRA:          -5.049
REMARK INTER:                  -4.905
REMARK INTRA:                  -0.143
REMARK UNBOUND:                -0.120
REMARK SMILES CCCCCCC(C)=O
REMARK SMILES IDX 4 1 3 2 2 3 1 4 5 5 6 6 7 7 9 8 8 9
REMARK H PARENT
REMARK Flexibility Score: inf
ROOT
ATOM      1  C   UNL     1      26.701  59.747  -9.311  1.00  0.00     0.000 C 
ENDROOT
BRANCH   1   2
ATOM      2  C   UNL     1      27.719  59.152 -10.301  1.00  0.00    -0.000 C 
BRANCH   2   3
ATOM      3  C   UNL     1      29.037  59.939 -10.333  1.00  0.00    -0.003 C 
ATOM      4  C   UNL     1      30.037  59.374 -11.342  1.00  0.00     0.004 C 
ENDBRANCH   2   3
ENDBRANCH   1   2
BRANCH   1   5
ATOM      5  C   UNL     1      25.595  58.751  -8.929  1.00  0.00     0.008 C 
BRANCH   5   6
ATOM      6  C   UNL     1      26.021  57.289  -9.127  1.00  0.00     0.075 C 
BRANCH   6   7
ATOM      7  C   UNL     1      24.993  56.353  -8.550  1.00  0.00     0.129 C 
ATOM      8  O   UNL     1      23.807  56.635  -8.635  1.00  0.00    -0.300 OA
ATOM      9  C   UNL     1      25.392  55.081  -7.860  1.00  0.00     0.087 C 
ENDBRANCH   6   7
ENDBRANCH   5   6
ENDBRANCH   1   5
TORSDOF 5
ENDMDL
MODEL 5
REMARK VINA RESULT:    -3.771     17.852     19.651
REMARK INTER + INTRA:          -4.992
REMARK INTER:                  -4.508
REMARK INTRA:                  -0.484
REMARK UNBOUND:                -0.120
REMARK SMILES CCCCCCC(C)=O
REMARK SMILES IDX 4 1 3 2 2 3 1 4 5 5 6 6 7 7 9 8 8 9
REMARK H PARENT
REMARK Flexibility Score: inf
ROOT
ATOM      1  C   UNL     1      17.705  42.780   1.391  1.00  0.00     0.000 C 
ENDROOT
BRANCH   1   2
ATOM      2  C   UNL     1      18.576  43.842   2.085  1.00  0.00    -0.000 C 
BRANCH   2   3
ATOM      3  C   UNL     1      19.780  44.265   1.231  1.00  0.00    -0.003 C 
ATOM      4  C   UNL     1      19.371  45.041  -0.021  1.00  0.00     0.004 C 
ENDBRANCH   2   3
ENDBRANCH   1   2
BRANCH   1   5
ATOM      5  C   UNL     1      16.220  43.176   1.336  1.00  0.00     0.008 C 
BRANCH   5   6
ATOM      6  C   UNL     1      15.976  44.619   1.798  1.00  0.00     0.075 C 
BRANCH   6   7
ATOM      7  C   UNL     1      15.272  45.409   0.726  1.00  0.00     0.129 C 
ATOM      8  O   UNL     1      14.234  45.996   0.995  1.00  0.00    -0.300 OA
ATOM      9  C   UNL     1      15.811  45.483  -0.672  1.00  0.00     0.087 C 
ENDBRANCH   6   7
ENDBRANCH   5   6
ENDBRANCH   1   5
TORSDOF 5
ENDMDL
MODEL 6
REMARK VINA RESULT:    -3.752     17.393     19.427
REMARK INTER + INTRA:          -4.968
REMARK INTER:                  -4.454
REMARK INTRA:                  -0.514
REMARK UNBOUND:                -0.120
REMARK SMILES CCCCCCC(C)=O
REMARK SMILES IDX 4 1 3 2 2 3 1 4 5 5 6 6 7 7 9 8 8 9
REMARK H PARENT
REMARK Flexibility Score: inf
ROOT
ATOM      1  C   UNL     1      17.159  42.335   1.423  1.00  0.00     0.000 C 
ENDROOT
BRANCH   1   2
ATOM      2  C   UNL     1      15.770  42.995   1.358  1.00  0.00    -0.000 C 
BRANCH   2   3
ATOM      3  C   UNL     1      15.819  44.497   1.677  1.00  0.00    -0.003 C 
ATOM      4  C   UNL     1      15.417  45.366   0.485  1.00  0.00     0.004 C 
ENDBRANCH   2   3
ENDBRANCH   1   2
BRANCH   1   5
ATOM      5  C   UNL     1      17.927  42.442   0.095  1.00  0.00     0.008 C 
BRANCH   5   6
ATOM      6  C   UNL     1      19.406  42.801   0.295  1.00  0.00     0.075 C 
BRANCH   6   7
ATOM      7  C   UNL     1      19.552  44.241   0.711  1.00  0.00     0.129 C 
ATOM      8  O   UNL     1      19.923  44.505   1.845  1.00  0.00    -0.300 OA
ATOM      9  C   UNL     1      19.240  45.364  -0.235  1.00  0.00     0.087 C 
ENDBRANCH   6   7
ENDBRANCH   5   6
ENDBRANCH   1   5
TORSDOF 5
ENDMDL
MODEL 7
REMARK VINA RESULT:    -3.725      1.460      2.154
REMARK INTER + INTRA:          -4.933
REMARK INTER:                  -4.777
REMARK INTRA:                  -0.156
REMARK UNBOUND:                -0.120
REMARK SMILES CCCCCCC(C)=O
REMARK SMILES IDX 4 1 3 2 2 3 1 4 5 5 6 6 7 7 9 8 8 9
REMARK H PARENT
REMARK Flexibility Score: inf
ROOT
ATOM      1  C   UNL     1      26.145  59.177  -9.105  1.00  0.00     0.000 C 
ENDROOT
BRANCH   1   2
ATOM      2  C   UNL     1      25.132  58.037  -8.902  1.00  0.00    -0.000 C 
BRANCH   2   3
ATOM      3  C   UNL     1      25.811  56.697  -8.580  1.00  0.00    -0.003 C 
ATOM      4  C   UNL     1      24.825  55.643  -8.075  1.00  0.00     0.004 C 
ENDBRANCH   2   3
ENDBRANCH   1   2
BRANCH   1   5
ATOM      5  C   UNL     1      27.210  58.841 -10.162  1.00  0.00     0.008 C 
BRANCH   5   6
ATOM      6  C   UNL     1      28.097  60.044 -10.511  1.00  0.00     0.075 C 
BRANCH   6   7
ATOM      7  C   UNL     1      29.540  59.627 -10.618  1.00  0.00     0.129 C 
ATOM      8  O   UNL     1      29.969  59.212 -11.685  1.00  0.00    -0.300 OA
ATOM      9  C   UNL     1      30.465  59.697  -9.438  1.00  0.00     0.087 C 
ENDBRANCH   6   7
ENDBRANCH   5   6
ENDBRANCH   1   5
TORSDOF 5
ENDMDL
MODEL 8
REMARK VINA RESULT:    -3.705     15.836     17.607
REMARK INTER + INTRA:          -4.907
REMARK INTER:                  -4.737
REMARK INTRA:                  -0.170
REMARK UNBOUND:                -0.120
REMARK SMILES CCCCCCC(C)=O
REMARK SMILES IDX 4 1 3 2 2 3 1 4 5 5 6 6 7 7 9 8 8 9
REMARK H PARENT
REMARK Flexibility Score: inf
ROOT
ATOM      1  C   UNL     1      32.575  45.373   2.391  1.00  0.00     0.000 C 
ENDROOT
BRANCH   1   2
ATOM      2  C   UNL     1      33.049  46.800   2.720  1.00  0.00    -0.000 C 
BRANCH   2   3
ATOM      3  C   UNL     1      32.706  47.217   4.158  1.00  0.00    -0.003 C 
ATOM      4  C   UNL     1      31.943  48.540   4.222  1.00  0.00     0.004 C 
ENDBRANCH   2   3
ENDBRANCH   1   2
BRANCH   1   5
ATOM      5  C   UNL     1      31.818  45.294   1.055  1.00  0.00     0.008 C 
BRANCH   5   6
ATOM      6  C   UNL     1      30.297  45.407   1.229  1.00  0.00     0.075 C 
BRANCH   6   7
ATOM      7  C   UNL     1      29.587  45.018  -0.040  1.00  0.00     0.129 C 
ATOM      8  O   UNL     1      30.109  44.215  -0.799  1.00  0.00    -0.300 OA
ATOM      9  C   UNL     1      28.252  45.603  -0.401  1.00  0.00     0.087 C 
ENDBRANCH   6   7
ENDBRANCH   5   6
ENDBRANCH   1   5
TORSDOF 5
ENDMDL
MODEL 9
REMARK VINA RESULT:    -3.651     15.959     17.263
REMARK INTER + INTRA:          -4.838
REMARK INTER:                  -4.669
REMARK INTRA:                  -0.169
REMARK UNBOUND:                -0.120
REMARK SMILES CCCCCCC(C)=O
REMARK SMILES IDX 4 1 3 2 2 3 1 4 5 5 6 6 7 7 9 8 8 9
REMARK H PARENT
REMARK Flexibility Score: inf
ROOT
ATOM      1  C   UNL     1      31.829  44.962   1.606  1.00  0.00     0.000 C 
ENDROOT
BRANCH   1   2
ATOM      2  C   UNL     1      30.371  45.388   1.355  1.00  0.00    -0.000 C 
BRANCH   2   3
ATOM      3  C   UNL     1      29.888  45.026  -0.057  1.00  0.00    -0.003 C 
ATOM      4  C   UNL     1      28.482  45.551  -0.351  1.00  0.00     0.004 C 
ENDBRANCH   2   3
ENDBRANCH   1   2
BRANCH   1   5
ATOM      5  C   UNL     1      32.768  46.161   1.818  1.00  0.00     0.008 C 
BRANCH   5   6
ATOM      6  C   UNL     1      33.008  46.468   3.303  1.00  0.00     0.075 C 
BRANCH   6   7
ATOM      7  C   UNL     1      32.547  47.862   3.638  1.00  0.00     0.129 C 
ATOM      8  O   UNL     1      31.465  48.024   4.183  1.00  0.00    -0.300 OA
ATOM      9  C   UNL     1      33.384  49.064   3.308  1.00  0.00     0.087 C 
ENDBRANCH   6   7
ENDBRANCH   5   6
ENDBRANCH   1   5
TORSDOF 5
ENDMDL
