MODEL 1
REMARK VINA RESULT:    -6.733      0.000      0.000
REMARK INTER + INTRA:         -11.508
REMARK INTER:                  -9.882
REMARK INTRA:                  -1.627
REMARK UNBOUND:                -1.627
REMARK SMILES Cc1cc2c(C(C)C)c(O)c(O)c(C=O)c2c(O)c1-c1c(C)cc2c(C(C)C)c(O)c(O)c(C=O)c2c1O
REMARK SMILES IDX 1 1 2 2 3 3 4 4 16 5 13 6 11 7 9 8 5 9 17 10 19 11 20 12
REMARK SMILES IDX 37 13 21 14 36 15 23 16 22 17 24 18 33 19 25 20 31 21 29 22
REMARK SMILES IDX 38 23 34 25 35 26 26 27 27 28 28 29 32 30 30 32 18 34 6 36
REMARK SMILES IDX 7 37 8 38 14 39 15 40 10 41 12 43
REMARK H PARENT 38 24 32 31 30 33 18 35 10 42 12 44
REMARK Flexibility Score: inf
ROOT
ATOM      1  C   UNL     1      18.489 -31.715  25.512  1.00  0.00     0.045 C 
ATOM      2  C   UNL     1      17.854 -32.166  24.218  1.00  0.00    -0.039 A 
ATOM      3  C   UNL     1      16.575 -31.711  23.885  1.00  0.00     0.013 A 
ATOM      4  C   UNL     1      15.929 -32.121  22.698  1.00  0.00    -0.006 A 
ATOM      5  C   UNL     1      16.531 -33.147  21.918  1.00  0.00     0.039 A 
ATOM      6  C   UNL     1      15.771 -33.761  20.885  1.00  0.00     0.072 A 
ATOM      7  C   UNL     1      14.493 -33.276  20.562  1.00  0.00     0.169 A 
ATOM      8  C   UNL     1      13.938 -32.199  21.279  1.00  0.00     0.162 A 
ATOM      9  C   UNL     1      14.683 -31.555  22.294  1.00  0.00     0.008 A 
ATOM     10  C   UNL     1      17.886 -33.498  22.177  1.00  0.00     0.132 A 
ATOM     11  C   UNL     1      18.539 -33.014  23.330  1.00  0.00     0.031 A 
ENDROOT
BRANCH  11  12
ATOM     12  C   UNL     1      19.948 -33.396  23.608  1.00  0.00     0.031 A 
ATOM     13  C   UNL     1      20.235 -34.554  24.359  1.00  0.00     0.132 A 
ATOM     14  C   UNL     1      20.996 -32.582  23.146  1.00  0.00    -0.039 A 
ATOM     15  C   UNL     1      21.584 -34.945  24.593  1.00  0.00     0.039 A 
ATOM     16  C   UNL     1      22.311 -32.898  23.487  1.00  0.00     0.013 A 
ATOM     17  C   UNL     1      20.720 -31.328  22.351  1.00  0.00     0.045 C 
ATOM     18  C   UNL     1      22.643 -34.078  24.182  1.00  0.00    -0.006 A 
ATOM     19  C   UNL     1      21.910 -36.149  25.278  1.00  0.00     0.072 A 
ATOM     20  C   UNL     1      24.001 -34.400  24.507  1.00  0.00     0.008 A 
ATOM     21  C   UNL     1      23.210 -36.345  25.759  1.00  0.00     0.169 A 
ATOM     22  C   UNL     1      24.233 -35.451  25.430  1.00  0.00     0.162 A 
BRANCH  13  23
ATOM     23  O   UNL     1      19.183 -35.286  24.921  1.00  0.00    -0.507 OA
ATOM     24  H   UNL     1      19.304 -35.980  25.647  1.00  0.00     0.293 HD
ENDBRANCH  13  23
BRANCH  19  25
ATOM     25  C   UNL     1      20.952 -37.263  25.465  1.00  0.00     0.264 C 
ATOM     26  O   UNL     1      20.382 -37.443  26.575  1.00  0.00    -0.298 OA
ENDBRANCH  19  25
BRANCH  20  27
ATOM     27  C   UNL     1      25.221 -33.715  23.865  1.00  0.00     0.017 C 
ATOM     28  C   UNL     1      25.174 -33.635  22.326  1.00  0.00     0.012 C 
ATOM     29  C   UNL     1      25.559 -32.370  24.524  1.00  0.00     0.012 C 
ENDBRANCH  20  27
BRANCH  21  30
ATOM     30  O   UNL     1      23.485 -37.460  26.558  1.00  0.00    -0.504 OA
ATOM     31  H   UNL     1      22.943 -38.314  26.512  1.00  0.00     0.293 HD
ENDBRANCH  21  30
BRANCH  22  32
ATOM     32  O   UNL     1      25.480 -35.644  26.037  1.00  0.00    -0.504 OA
ATOM     33  H   UNL     1      26.340 -35.232  25.701  1.00  0.00     0.293 HD
ENDBRANCH  22  32
ENDBRANCH  11  12
BRANCH  10  34
ATOM     34  O   UNL     1      18.596 -34.285  21.262  1.00  0.00    -0.507 OA
ATOM     35  H   UNL     1      18.169 -34.749  20.469  1.00  0.00     0.293 HD
ENDBRANCH  10  34
BRANCH   9  36
ATOM     36  C   UNL     1      14.143 -30.263  22.937  1.00  0.00     0.017 C 
ATOM     37  C   UNL     1      15.240 -29.197  23.037  1.00  0.00     0.012 C 
ATOM     38  C   UNL     1      13.453 -30.492  24.294  1.00  0.00     0.012 C 
ENDBRANCH   9  36
BRANCH   6  39
ATOM     39  C   UNL     1      16.207 -34.995  20.193  1.00  0.00     0.264 C 
ATOM     40  O   UNL     1      16.740 -34.942  19.052  1.00  0.00    -0.298 OA
ENDBRANCH   6  39
BRANCH   8  41
ATOM     41  O   UNL     1      12.629 -31.773  21.032  1.00  0.00    -0.504 OA
ATOM     42  H   UNL     1      12.042 -31.293  21.699  1.00  0.00     0.293 HD
ENDBRANCH   8  41
BRANCH   7  43
ATOM     43  O   UNL     1      13.796 -33.898  19.518  1.00  0.00    -0.504 OA
ATOM     44  H   UNL     1      14.153 -34.026  18.583  1.00  0.00     0.293 HD
ENDBRANCH   7  43
TORSDOF 11
ENDMDL
MODEL 2
REMARK VINA RESULT:    -6.679      0.727      8.890
REMARK INTER + INTRA:         -11.429
REMARK INTER:                  -9.709
REMARK INTRA:                  -1.720
REMARK UNBOUND:                -1.627
REMARK SMILES Cc1cc2c(C(C)C)c(O)c(O)c(C=O)c2c(O)c1-c1c(C)cc2c(C(C)C)c(O)c(O)c(C=O)c2c1O
REMARK SMILES IDX 1 1 2 2 3 3 4 4 16 5 13 6 11 7 9 8 5 9 17 10 19 11 20 12
REMARK SMILES IDX 37 13 21 14 36 15 23 16 22 17 24 18 33 19 25 20 31 21 29 22
REMARK SMILES IDX 38 23 34 25 35 26 26 27 27 28 28 29 32 30 30 32 18 34 6 36
REMARK SMILES IDX 7 37 8 38 14 39 15 40 10 41 12 43
REMARK H PARENT 38 24 32 31 30 33 18 35 10 42 12 44
REMARK Flexibility Score: inf
ROOT
ATOM      1  C   UNL     1      20.559 -31.074  21.978  1.00  0.00     0.045 C 
ATOM      2  C   UNL     1      20.991 -32.231  22.847  1.00  0.00    -0.039 A 
ATOM      3  C   UNL     1      22.344 -32.387  23.162  1.00  0.00     0.013 A 
ATOM      4  C   UNL     1      22.801 -33.465  23.952  1.00  0.00    -0.006 A 
ATOM      5  C   UNL     1      21.882 -34.496  24.288  1.00  0.00     0.039 A 
ATOM      6  C   UNL     1      22.381 -35.710  24.837  1.00  0.00     0.072 A 
ATOM      7  C   UNL     1      23.743 -35.835  25.155  1.00  0.00     0.169 A 
ATOM      8  C   UNL     1      24.635 -34.775  24.904  1.00  0.00     0.162 A 
ATOM      9  C   UNL     1      24.160 -33.549  24.382  1.00  0.00     0.008 A 
ATOM     10  C   UNL     1      20.491 -34.264  24.096  1.00  0.00     0.132 A 
ATOM     11  C   UNL     1      20.052 -33.138  23.368  1.00  0.00     0.031 A 
ENDROOT
BRANCH  11  12
ATOM     12  C   UNL     1      18.599 -32.906  23.153  1.00  0.00     0.031 A 
ATOM     13  C   UNL     1      17.956 -33.441  22.019  1.00  0.00     0.132 A 
ATOM     14  C   UNL     1      17.874 -32.127  24.069  1.00  0.00    -0.039 A 
ATOM     15  C   UNL     1      16.556 -33.255  21.829  1.00  0.00     0.039 A 
ATOM     16  C   UNL     1      16.532 -31.839  23.814  1.00  0.00     0.013 A 
ATOM     17  C   UNL     1      18.538 -31.529  25.287  1.00  0.00     0.045 C 
ATOM     18  C   UNL     1      15.838 -32.404  22.725  1.00  0.00    -0.006 A 
ATOM     19  C   UNL     1      15.859 -33.846  20.738  1.00  0.00     0.072 A 
ATOM     20  C   UNL     1      14.455 -32.116  22.488  1.00  0.00     0.008 A 
ATOM     21  C   UNL     1      14.575 -33.398  20.410  1.00  0.00     0.169 A 
ATOM     22  C   UNL     1      13.901 -32.497  21.240  1.00  0.00     0.162 A 
BRANCH  13  23
ATOM     23  O   UNL     1      18.714 -34.108  21.049  1.00  0.00    -0.507 OA
ATOM     24  H   UNL     1      19.613 -33.784  20.716  1.00  0.00     0.293 HD
ENDBRANCH  13  23
BRANCH  19  25
ATOM     25  C   UNL     1      16.398 -34.977  19.947  1.00  0.00     0.264 C 
ATOM     26  O   UNL     1      16.951 -34.777  18.833  1.00  0.00    -0.298 OA
ENDBRANCH  19  25
BRANCH  20  27
ATOM     27  C   UNL     1      13.521 -31.475  23.531  1.00  0.00     0.017 C 
ATOM     28  C   UNL     1      13.458 -32.224  24.878  1.00  0.00     0.012 C 
ATOM     29  C   UNL     1      13.764 -29.968  23.695  1.00  0.00     0.012 C 
ENDBRANCH  20  27
BRANCH  21  30
ATOM     30  O   UNL     1      13.957 -33.878  19.250  1.00  0.00    -0.504 OA
ATOM     31  H   UNL     1      14.266 -34.714  18.770  1.00  0.00     0.293 HD
ENDBRANCH  21  30
BRANCH  22  32
ATOM     32  O   UNL     1      12.669 -32.005  20.793  1.00  0.00    -0.504 OA
ATOM     33  H   UNL     1      11.781 -32.451  20.983  1.00  0.00     0.293 HD
ENDBRANCH  22  32
ENDBRANCH  11  12
BRANCH  10  34
ATOM     34  O   UNL     1      19.548 -35.124  24.671  1.00  0.00    -0.507 OA
ATOM     35  H   UNL     1      19.543 -35.378  25.652  1.00  0.00     0.293 HD
ENDBRANCH  10  34
BRANCH   9  36
ATOM     36  C   UNL     1      25.107 -32.338  24.291  1.00  0.00     0.017 C 
ATOM     37  C   UNL     1      26.155 -32.539  23.190  1.00  0.00     0.012 C 
ATOM     38  C   UNL     1      25.762 -31.967  25.633  1.00  0.00     0.012 C 
ENDBRANCH   9  36
BRANCH   6  39
ATOM     39  C   UNL     1      21.550 -36.926  24.982  1.00  0.00     0.264 C 
ATOM     40  O   UNL     1      21.097 -37.268  26.108  1.00  0.00    -0.298 OA
ENDBRANCH   6  39
BRANCH   8  41
ATOM     41  O   UNL     1      26.007 -34.925  25.124  1.00  0.00    -0.504 OA
ATOM     42  H   UNL     1      26.461 -34.831  26.021  1.00  0.00     0.293 HD
ENDBRANCH   8  41
BRANCH   7  43
ATOM     43  O   UNL     1      24.180 -37.041  25.720  1.00  0.00    -0.504 OA
ATOM     44  H   UNL     1      24.949 -37.594  25.374  1.00  0.00     0.293 HD
ENDBRANCH   7  43
TORSDOF 11
ENDMDL
MODEL 3
REMARK VINA RESULT:    -6.671      2.408      9.006
REMARK INTER + INTRA:         -11.418
REMARK INTER:                  -9.707
REMARK INTRA:                  -1.710
REMARK UNBOUND:                -1.627
REMARK SMILES Cc1cc2c(C(C)C)c(O)c(O)c(C=O)c2c(O)c1-c1c(C)cc2c(C(C)C)c(O)c(O)c(C=O)c2c1O
REMARK SMILES IDX 1 1 2 2 3 3 4 4 16 5 13 6 11 7 9 8 5 9 17 10 19 11 20 12
REMARK SMILES IDX 37 13 21 14 36 15 23 16 22 17 24 18 33 19 25 20 31 21 29 22
REMARK SMILES IDX 38 23 34 25 35 26 26 27 27 28 28 29 32 30 30 32 18 34 6 36
REMARK SMILES IDX 7 37 8 38 14 39 15 40 10 41 12 43
REMARK H PARENT 38 24 32 31 30 33 18 35 10 42 12 44
REMARK Flexibility Score: inf
ROOT
ATOM      1  C   UNL     1      20.380 -34.691  24.952  1.00  0.00     0.045 C 
ATOM      2  C   UNL     1      21.187 -33.541  24.400  1.00  0.00    -0.039 A 
ATOM      3  C   UNL     1      22.578 -33.552  24.529  1.00  0.00     0.013 A 
ATOM      4  C   UNL     1      23.376 -32.490  24.050  1.00  0.00    -0.006 A 
ATOM      5  C   UNL     1      22.728 -31.315  23.579  1.00  0.00     0.039 A 
ATOM      6  C   UNL     1      23.504 -30.144  23.356  1.00  0.00     0.072 A 
ATOM      7  C   UNL     1      24.902 -30.187  23.482  1.00  0.00     0.169 A 
ATOM      8  C   UNL     1      25.548 -31.379  23.861  1.00  0.00     0.162 A 
ATOM      9  C   UNL     1      24.801 -32.564  24.064  1.00  0.00     0.008 A 
ATOM     10  C   UNL     1      21.330 -31.363  23.313  1.00  0.00     0.132 A 
ATOM     11  C   UNL     1      20.565 -32.472  23.732  1.00  0.00     0.031 A 
ENDROOT
BRANCH  11  12
ATOM     12  C   UNL     1      19.102 -32.512  23.470  1.00  0.00     0.031 A 
ATOM     13  C   UNL     1      18.608 -33.126  22.300  1.00  0.00     0.132 A 
ATOM     14  C   UNL     1      18.213 -31.912  24.376  1.00  0.00    -0.039 A 
ATOM     15  C   UNL     1      17.205 -33.202  22.065  1.00  0.00     0.039 A 
ATOM     16  C   UNL     1      16.850 -31.876  24.079  1.00  0.00     0.013 A 
ATOM     17  C   UNL     1      18.713 -31.236  25.630  1.00  0.00     0.045 C 
ATOM     18  C   UNL     1      16.310 -32.529  22.953  1.00  0.00    -0.006 A 
ATOM     19  C   UNL     1      16.668 -33.882  20.935  1.00  0.00     0.072 A 
ATOM     20  C   UNL     1      14.906 -32.500  22.672  1.00  0.00     0.008 A 
ATOM     21  C   UNL     1      15.332 -33.676  20.571  1.00  0.00     0.169 A 
ATOM     22  C   UNL     1      14.474 -32.943  21.396  1.00  0.00     0.162 A 
BRANCH  13  23
ATOM     23  O   UNL     1      19.509 -33.608  21.344  1.00  0.00    -0.507 OA
ATOM     24  H   UNL     1      20.245 -33.050  20.932  1.00  0.00     0.293 HD
ENDBRANCH  13  23
BRANCH  19  25
ATOM     25  C   UNL     1      17.436 -34.867  20.139  1.00  0.00     0.264 C 
ATOM     26  O   UNL     1      17.875 -34.567  18.997  1.00  0.00    -0.298 OA
ENDBRANCH  19  25
BRANCH  20  27
ATOM     27  C   UNL     1      13.835 -32.079  23.695  1.00  0.00     0.017 C 
ATOM     28  C   UNL     1      13.854 -32.885  25.009  1.00  0.00     0.012 C 
ATOM     29  C   UNL     1      13.801 -30.561  23.923  1.00  0.00     0.012 C 
ENDBRANCH  20  27
BRANCH  21  30
ATOM     30  O   UNL     1      14.854 -34.229  19.378  1.00  0.00    -0.504 OA
ATOM     31  H   UNL     1      15.124 -35.149  19.054  1.00  0.00     0.293 HD
ENDBRANCH  21  30
BRANCH  22  32
ATOM     32  O   UNL     1      13.185 -32.679  20.916  1.00  0.00    -0.504 OA
ATOM     33  H   UNL     1      12.361 -33.191  21.202  1.00  0.00     0.293 HD
ENDBRANCH  22  32
ENDBRANCH  11  12
BRANCH  10  34
ATOM     34  O   UNL     1      20.716 -30.335  22.588  1.00  0.00    -0.507 OA
ATOM     35  H   UNL     1      21.148 -29.436  22.411  1.00  0.00     0.293 HD
ENDBRANCH  10  34
BRANCH   9  36
ATOM     36  C   UNL     1      25.534 -33.900  24.290  1.00  0.00     0.017 C 
ATOM     37  C   UNL     1      26.224 -33.926  25.658  1.00  0.00     0.012 C 
ATOM     38  C   UNL     1      26.511 -34.266  23.157  1.00  0.00     0.012 C 
ENDBRANCH   9  36
BRANCH   6  39
ATOM     39  C   UNL     1      22.899 -28.815  23.115  1.00  0.00     0.264 C 
ATOM     40  O   UNL     1      22.959 -28.275  21.978  1.00  0.00    -0.298 OA
ENDBRANCH   6  39
BRANCH   8  41
ATOM     41  O   UNL     1      26.928 -31.407  24.085  1.00  0.00    -0.504 OA
ATOM     42  H   UNL     1      27.581 -30.718  23.744  1.00  0.00     0.293 HD
ENDBRANCH   8  41
BRANCH   7  43
ATOM     43  O   UNL     1      25.623 -29.013  23.225  1.00  0.00    -0.504 OA
ATOM     44  H   UNL     1      25.264 -28.214  22.726  1.00  0.00     0.293 HD
ENDBRANCH   7  43
TORSDOF 11
ENDMDL
MODEL 4
REMARK VINA RESULT:    -6.664      2.322      3.650
REMARK INTER + INTRA:         -11.408
REMARK INTER:                  -9.808
REMARK INTRA:                  -1.600
REMARK UNBOUND:                -1.627
REMARK SMILES Cc1cc2c(C(C)C)c(O)c(O)c(C=O)c2c(O)c1-c1c(C)cc2c(C(C)C)c(O)c(O)c(C=O)c2c1O
REMARK SMILES IDX 1 1 2 2 3 3 4 4 16 5 13 6 11 7 9 8 5 9 17 10 19 11 20 12
REMARK SMILES IDX 37 13 21 14 36 15 23 16 22 17 24 18 33 19 25 20 31 21 29 22
REMARK SMILES IDX 38 23 34 25 35 26 26 27 27 28 28 29 32 30 30 32 18 34 6 36
REMARK SMILES IDX 7 37 8 38 14 39 15 40 10 41 12 43
REMARK H PARENT 38 24 32 31 30 33 18 35 10 42 12 44
REMARK Flexibility Score: inf
ROOT
ATOM      1  C   UNL     1      18.744 -31.242  25.780  1.00  0.00     0.045 C 
ATOM      2  C   UNL     1      18.234 -31.754  24.454  1.00  0.00    -0.039 A 
ATOM      3  C   UNL     1      16.888 -31.581  24.121  1.00  0.00     0.013 A 
ATOM      4  C   UNL     1      16.357 -32.062  22.904  1.00  0.00    -0.006 A 
ATOM      5  C   UNL     1      17.180 -32.882  22.083  1.00  0.00     0.039 A 
ATOM      6  C   UNL     1      16.583 -33.595  21.006  1.00  0.00     0.072 A 
ATOM      7  C   UNL     1      15.231 -33.392  20.686  1.00  0.00     0.169 A 
ATOM      8  C   UNL     1      14.442 -32.508  21.448  1.00  0.00     0.162 A 
ATOM      9  C   UNL     1      15.018 -31.769  22.507  1.00  0.00     0.008 A 
ATOM     10  C   UNL     1      18.577 -32.933  22.347  1.00  0.00     0.132 A 
ATOM     11  C   UNL     1      19.097 -32.377  23.535  1.00  0.00     0.031 A 
ENDROOT
BRANCH  11  12
ATOM     12  C   UNL     1      20.555 -32.447  23.818  1.00  0.00     0.031 A 
ATOM     13  C   UNL     1      21.398 -31.372  23.470  1.00  0.00     0.132 A 
ATOM     14  C   UNL     1      21.097 -33.601  24.407  1.00  0.00    -0.039 A 
ATOM     15  C   UNL     1      22.788 -31.418  23.776  1.00  0.00     0.039 A 
ATOM     16  C   UNL     1      22.477 -33.695  24.588  1.00  0.00     0.013 A 
ATOM     17  C   UNL     1      20.222 -34.774  24.780  1.00  0.00     0.045 C 
ATOM     18  C   UNL     1      23.345 -32.621  24.310  1.00  0.00    -0.006 A 
ATOM     19  C   UNL     1      23.654 -30.320  23.510  1.00  0.00     0.072 A 
ATOM     20  C   UNL     1      24.758 -32.725  24.520  1.00  0.00     0.008 A 
ATOM     21  C   UNL     1      25.041 -30.507  23.531  1.00  0.00     0.169 A 
ATOM     22  C   UNL     1      25.589 -31.715  23.972  1.00  0.00     0.162 A 
BRANCH  13  23
ATOM     23  O   UNL     1      20.868 -30.282  22.770  1.00  0.00    -0.507 OA
ATOM     24  H   UNL     1      20.269 -30.371  21.959  1.00  0.00     0.293 HD
ENDBRANCH  13  23
BRANCH  19  25
ATOM     25  C   UNL     1      23.167 -28.942  23.269  1.00  0.00     0.264 C 
ATOM     26  O   UNL     1      23.170 -28.453  22.107  1.00  0.00    -0.298 OA
ENDBRANCH  19  25
BRANCH  20  27
ATOM     27  C   UNL     1      25.421 -33.834  25.359  1.00  0.00     0.017 C 
ATOM     28  C   UNL     1      26.246 -34.848  24.541  1.00  0.00     0.012 C 
ATOM     29  C   UNL     1      26.184 -33.281  26.572  1.00  0.00     0.012 C 
ENDBRANCH  20  27
BRANCH  21  30
ATOM     30  O   UNL     1      25.879 -29.464  23.125  1.00  0.00    -0.504 OA
ATOM     31  H   UNL     1      26.617 -29.588  22.443  1.00  0.00     0.293 HD
ENDBRANCH  21  30
BRANCH  22  32
ATOM     32  O   UNL     1      26.975 -31.875  23.859  1.00  0.00    -0.504 OA
ATOM     33  H   UNL     1      27.505 -31.638  23.031  1.00  0.00     0.293 HD
ENDBRANCH  22  32
ENDBRANCH  11  12
BRANCH  10  34
ATOM     34  O   UNL     1      19.451 -33.489  21.406  1.00  0.00    -0.507 OA
ATOM     35  H   UNL     1      20.202 -34.127  21.642  1.00  0.00     0.293 HD
ENDBRANCH  10  34
BRANCH   9  36
ATOM     36  C   UNL     1      14.197 -30.668  23.206  1.00  0.00     0.017 C 
ATOM     37  C   UNL     1      15.027 -29.393  23.388  1.00  0.00     0.012 C 
ATOM     38  C   UNL     1      13.562 -31.122  24.533  1.00  0.00     0.012 C 
ENDBRANCH   9  36
BRANCH   6  39
ATOM     39  C   UNL     1      17.291 -34.659  20.260  1.00  0.00     0.264 C 
ATOM     40  O   UNL     1      17.688 -34.466  19.080  1.00  0.00    -0.298 OA
ENDBRANCH   6  39
BRANCH   8  41
ATOM     41  O   UNL     1      13.073 -32.375  21.200  1.00  0.00    -0.504 OA
ATOM     42  H   UNL     1      12.435 -33.143  21.056  1.00  0.00     0.293 HD
ENDBRANCH   8  41
BRANCH   7  43
ATOM     43  O   UNL     1      14.698 -34.098  19.599  1.00  0.00    -0.504 OA
ATOM     44  H   UNL     1      15.242 -34.503  18.853  1.00  0.00     0.293 HD
ENDBRANCH   7  43
TORSDOF 11
ENDMDL
MODEL 5
REMARK VINA RESULT:    -6.639     10.648     13.025
REMARK INTER + INTRA:         -11.371
REMARK INTER:                  -9.821
REMARK INTRA:                  -1.550
REMARK UNBOUND:                -1.627
REMARK SMILES Cc1cc2c(C(C)C)c(O)c(O)c(C=O)c2c(O)c1-c1c(C)cc2c(C(C)C)c(O)c(O)c(C=O)c2c1O
REMARK SMILES IDX 1 1 2 2 3 3 4 4 16 5 13 6 11 7 9 8 5 9 17 10 19 11 20 12
REMARK SMILES IDX 37 13 21 14 36 15 23 16 22 17 24 18 33 19 25 20 31 21 29 22
REMARK SMILES IDX 38 23 34 25 35 26 26 27 27 28 28 29 32 30 30 32 18 34 6 36
REMARK SMILES IDX 7 37 8 38 14 39 15 40 10 41 12 43
REMARK H PARENT 38 24 32 31 30 33 18 35 10 42 12 44
REMARK Flexibility Score: inf
ROOT
ATOM      1  C   UNL     1      22.639 -21.298  28.119  1.00  0.00     0.045 C 
ATOM      2  C   UNL     1      22.795 -22.638  27.441  1.00  0.00    -0.039 A 
ATOM      3  C   UNL     1      22.724 -22.716  26.047  1.00  0.00     0.013 A 
ATOM      4  C   UNL     1      22.841 -23.948  25.367  1.00  0.00    -0.006 A 
ATOM      5  C   UNL     1      22.863 -25.145  26.133  1.00  0.00     0.039 A 
ATOM      6  C   UNL     1      22.701 -26.391  25.466  1.00  0.00     0.072 A 
ATOM      7  C   UNL     1      22.645 -26.442  24.065  1.00  0.00     0.169 A 
ATOM      8  C   UNL     1      22.715 -25.258  23.305  1.00  0.00     0.162 A 
ATOM      9  C   UNL     1      22.901 -24.009  23.942  1.00  0.00     0.008 A 
ATOM     10  C   UNL     1      23.083 -25.057  27.537  1.00  0.00     0.132 A 
ATOM     11  C   UNL     1      23.039 -23.805  28.186  1.00  0.00     0.031 A 
ENDROOT
BRANCH  11  12
ATOM     12  C   UNL     1      23.250 -23.716  29.654  1.00  0.00     0.031 A 
ATOM     13  C   UNL     1      24.555 -23.623  30.179  1.00  0.00     0.132 A 
ATOM     14  C   UNL     1      22.147 -23.754  30.522  1.00  0.00    -0.039 A 
ATOM     15  C   UNL     1      24.761 -23.497  31.583  1.00  0.00     0.039 A 
ATOM     16  C   UNL     1      22.358 -23.760  31.902  1.00  0.00     0.013 A 
ATOM     17  C   UNL     1      20.737 -23.866  29.991  1.00  0.00     0.045 C 
ATOM     18  C   UNL     1      23.641 -23.608  32.464  1.00  0.00    -0.006 A 
ATOM     19  C   UNL     1      26.058 -23.323  32.141  1.00  0.00     0.072 A 
ATOM     20  C   UNL     1      23.840 -23.595  33.883  1.00  0.00     0.008 A 
ATOM     21  C   UNL     1      26.256 -23.513  33.514  1.00  0.00     0.169 A 
ATOM     22  C   UNL     1      25.167 -23.708  34.370  1.00  0.00     0.162 A 
BRANCH  13  23
ATOM     23  O   UNL     1      25.652 -23.713  29.314  1.00  0.00    -0.507 OA
ATOM     24  H   UNL     1      26.285 -24.502  29.288  1.00  0.00     0.293 HD
ENDBRANCH  13  23
BRANCH  19  25
ATOM     25  C   UNL     1      27.230 -22.880  31.351  1.00  0.00     0.264 C 
ATOM     26  O   UNL     1      28.131 -23.697  31.024  1.00  0.00    -0.298 OA
ENDBRANCH  19  25
BRANCH  20  27
ATOM     27  C   UNL     1      22.706 -23.402  34.906  1.00  0.00     0.017 C 
ATOM     28  C   UNL     1      22.496 -24.594  35.861  1.00  0.00     0.012 C 
ATOM     29  C   UNL     1      22.796 -22.056  35.641  1.00  0.00     0.012 C 
ENDBRANCH  20  27
BRANCH  21  30
ATOM     30  O   UNL     1      27.555 -23.486  34.030  1.00  0.00    -0.504 OA
ATOM     31  H   UNL     1      28.074 -22.627  34.164  1.00  0.00     0.293 HD
ENDBRANCH  21  30
BRANCH  22  32
ATOM     32  O   UNL     1      25.443 -24.006  35.709  1.00  0.00    -0.504 OA
ATOM     33  H   UNL     1      25.700 -24.926  36.041  1.00  0.00     0.293 HD
ENDBRANCH  22  32
ENDBRANCH  11  12
BRANCH  10  34
ATOM     34  O   UNL     1      23.395 -26.205  28.274  1.00  0.00    -0.507 OA
ATOM     35  H   UNL     1      22.704 -26.780  28.741  1.00  0.00     0.293 HD
ENDBRANCH  10  34
BRANCH   9  36
ATOM     36  C   UNL     1      23.166 -22.750  23.095  1.00  0.00     0.017 C 
ATOM     37  C   UNL     1      24.595 -22.237  23.304  1.00  0.00     0.012 C 
ATOM     38  C   UNL     1      22.128 -21.633  23.310  1.00  0.00     0.012 C 
ENDBRANCH   9  36
BRANCH   6  39
ATOM     39  C   UNL     1      22.457 -27.661  26.188  1.00  0.00     0.264 C 
ATOM     40  O   UNL     1      23.366 -28.527  26.297  1.00  0.00    -0.298 OA
ENDBRANCH   6  39
BRANCH   8  41
ATOM     41  O   UNL     1      22.560 -25.288  21.916  1.00  0.00    -0.504 OA
ATOM     42  H   UNL     1      22.067 -26.006  21.405  1.00  0.00     0.293 HD
ENDBRANCH   8  41
BRANCH   7  43
ATOM     43  O   UNL     1      22.513 -27.696  23.455  1.00  0.00    -0.504 OA
ATOM     44  H   UNL     1      21.652 -28.069  23.084  1.00  0.00     0.293 HD
ENDBRANCH   7  43
TORSDOF 11
ENDMDL
MODEL 6
REMARK VINA RESULT:    -6.605      9.773     12.233
REMARK INTER + INTRA:         -11.321
REMARK INTER:                  -9.960
REMARK INTRA:                  -1.361
REMARK UNBOUND:                -1.627
REMARK SMILES Cc1cc2c(C(C)C)c(O)c(O)c(C=O)c2c(O)c1-c1c(C)cc2c(C(C)C)c(O)c(O)c(C=O)c2c1O
REMARK SMILES IDX 1 1 2 2 3 3 4 4 16 5 13 6 11 7 9 8 5 9 17 10 19 11 20 12
REMARK SMILES IDX 37 13 21 14 36 15 23 16 22 17 24 18 33 19 25 20 31 21 29 22
REMARK SMILES IDX 38 23 34 25 35 26 26 27 27 28 28 29 32 30 30 32 18 34 6 36
REMARK SMILES IDX 7 37 8 38 14 39 15 40 10 41 12 43
REMARK H PARENT 38 24 32 31 30 33 18 35 10 42 12 44
REMARK Flexibility Score: inf
ROOT
ATOM      1  C   UNL     1      22.092 -26.887  26.628  1.00  0.00     0.045 C 
ATOM      2  C   UNL     1      22.380 -25.904  25.518  1.00  0.00    -0.039 A 
ATOM      3  C   UNL     1      22.256 -26.313  24.187  1.00  0.00     0.013 A 
ATOM      4  C   UNL     1      22.536 -25.439  23.114  1.00  0.00    -0.006 A 
ATOM      5  C   UNL     1      23.116 -24.174  23.404  1.00  0.00     0.039 A 
ATOM      6  C   UNL     1      23.656 -23.404  22.337  1.00  0.00     0.072 A 
ATOM      7  C   UNL     1      23.506 -23.832  21.009  1.00  0.00     0.169 A 
ATOM      8  C   UNL     1      22.849 -25.045  20.720  1.00  0.00     0.162 A 
ATOM      9  C   UNL     1      22.282 -25.816  21.761  1.00  0.00     0.008 A 
ATOM     10  C   UNL     1      23.104 -23.707  24.749  1.00  0.00     0.132 A 
ATOM     11  C   UNL     1      22.745 -24.576  25.800  1.00  0.00     0.031 A 
ENDROOT
BRANCH  11  12
ATOM     12  C   UNL     1      22.750 -24.092  27.206  1.00  0.00     0.031 A 
ATOM     13  C   UNL     1      23.890 -24.274  28.015  1.00  0.00     0.132 A 
ATOM     14  C   UNL     1      21.604 -23.478  27.736  1.00  0.00    -0.039 A 
ATOM     15  C   UNL     1      23.913 -23.776  29.350  1.00  0.00     0.039 A 
ATOM     16  C   UNL     1      21.584 -23.107  29.081  1.00  0.00     0.013 A 
ATOM     17  C   UNL     1      20.363 -23.280  26.898  1.00  0.00     0.045 C 
ATOM     18  C   UNL     1      22.722 -23.216  29.906  1.00  0.00    -0.006 A 
ATOM     19  C   UNL     1      25.073 -23.872  30.168  1.00  0.00     0.072 A 
ATOM     20  C   UNL     1      22.693 -22.812  31.280  1.00  0.00     0.008 A 
ATOM     21  C   UNL     1      24.969 -23.662  31.548  1.00  0.00     0.169 A 
ATOM     22  C   UNL     1      23.776 -23.195  32.110  1.00  0.00     0.162 A 
BRANCH  13  23
ATOM     23  O   UNL     1      24.978 -24.999  27.516  1.00  0.00    -0.507 OA
ATOM     24  H   UNL     1      25.270 -25.897  27.879  1.00  0.00     0.293 HD
ENDBRANCH  13  23
BRANCH  19  25
ATOM     25  C   UNL     1      26.429 -24.126  29.630  1.00  0.00     0.264 C 
ATOM     26  O   UNL     1      26.974 -25.254  29.763  1.00  0.00    -0.298 OA
ENDBRANCH  19  25
BRANCH  20  27
ATOM     27  C   UNL     1      21.587 -21.932  31.892  1.00  0.00     0.017 C 
ATOM     28  C   UNL     1      21.412 -20.559  31.210  1.00  0.00     0.012 C 
ATOM     29  C   UNL     1      20.261 -22.686  32.068  1.00  0.00     0.012 C 
ENDBRANCH  20  27
BRANCH  21  30
ATOM     30  O   UNL     1      26.079 -23.903  32.364  1.00  0.00    -0.504 OA
ATOM     31  H   UNL     1      26.058 -24.552  33.141  1.00  0.00     0.293 HD
ENDBRANCH  21  30
BRANCH  22  32
ATOM     32  O   UNL     1      23.706 -23.117  33.505  1.00  0.00    -0.504 OA
ATOM     33  H   UNL     1      22.994 -22.602  34.007  1.00  0.00     0.293 HD
ENDBRANCH  22  32
ENDBRANCH  11  12
BRANCH  10  34
ATOM     34  O   UNL     1      23.398 -22.368  25.031  1.00  0.00    -0.507 OA
ATOM     35  H   UNL     1      23.800 -22.051  25.906  1.00  0.00     0.293 HD
ENDBRANCH  10  34
BRANCH   9  36
ATOM     36  C   UNL     1      21.404 -27.035  21.419  1.00  0.00     0.017 C 
ATOM     37  C   UNL     1      22.242 -28.161  20.801  1.00  0.00     0.012 C 
ATOM     38  C   UNL     1      20.187 -26.691  20.541  1.00  0.00     0.012 C 
ENDBRANCH   9  36
BRANCH   6  39
ATOM     39  C   UNL     1      24.499 -22.207  22.558  1.00  0.00     0.264 C 
ATOM     40  O   UNL     1      25.542 -22.273  23.262  1.00  0.00    -0.298 OA
ENDBRANCH   6  39
BRANCH   8  41
ATOM     41  O   UNL     1      22.782 -25.529  19.410  1.00  0.00    -0.504 OA
ATOM     42  H   UNL     1      22.028 -25.344  18.765  1.00  0.00     0.293 HD
ENDBRANCH   8  41
BRANCH   7  43
ATOM     43  O   UNL     1      24.032 -23.024  19.992  1.00  0.00    -0.504 OA
ATOM     44  H   UNL     1      24.893 -22.504  20.057  1.00  0.00     0.293 HD
ENDBRANCH   7  43
TORSDOF 11
ENDMDL
MODEL 7
REMARK VINA RESULT:    -6.526     10.741     14.197
REMARK INTER + INTRA:         -11.204
REMARK INTER:                  -9.712
REMARK INTRA:                  -1.492
REMARK UNBOUND:                -1.627
REMARK SMILES Cc1cc2c(C(C)C)c(O)c(O)c(C=O)c2c(O)c1-c1c(C)cc2c(C(C)C)c(O)c(O)c(C=O)c2c1O
REMARK SMILES IDX 1 1 2 2 3 3 4 4 16 5 13 6 11 7 9 8 5 9 17 10 19 11 20 12
REMARK SMILES IDX 37 13 21 14 36 15 23 16 22 17 24 18 33 19 25 20 31 21 29 22
REMARK SMILES IDX 38 23 34 25 35 26 26 27 27 28 28 29 32 30 30 32 18 34 6 36
REMARK SMILES IDX 7 37 8 38 14 39 15 40 10 41 12 43
REMARK H PARENT 38 24 32 31 30 33 18 35 10 42 12 44
REMARK Flexibility Score: inf
ROOT
ATOM      1  C   UNL     1      21.051 -22.259  28.937  1.00  0.00     0.045 C 
ATOM      2  C   UNL     1      22.157 -22.927  29.718  1.00  0.00    -0.039 A 
ATOM      3  C   UNL     1      22.215 -22.764  31.105  1.00  0.00     0.013 A 
ATOM      4  C   UNL     1      23.242 -23.349  31.878  1.00  0.00    -0.006 A 
ATOM      5  C   UNL     1      24.326 -23.974  31.202  1.00  0.00     0.039 A 
ATOM      6  C   UNL     1      25.491 -24.318  31.942  1.00  0.00     0.072 A 
ATOM      7  C   UNL     1      25.518 -24.155  33.336  1.00  0.00     0.169 A 
ATOM      8  C   UNL     1      24.405 -23.619  34.013  1.00  0.00     0.162 A 
ATOM      9  C   UNL     1      23.226 -23.292  33.304  1.00  0.00     0.008 A 
ATOM     10  C   UNL     1      24.192 -24.266  29.815  1.00  0.00     0.132 A 
ATOM     11  C   UNL     1      23.114 -23.734  29.077  1.00  0.00     0.031 A 
ENDROOT
BRANCH  11  12
ATOM     12  C   UNL     1      22.985 -24.025  27.626  1.00  0.00     0.031 A 
ATOM     13  C   UNL     1      23.667 -23.233  26.680  1.00  0.00     0.132 A 
ATOM     14  C   UNL     1      22.158 -25.075  27.195  1.00  0.00    -0.039 A 
ATOM     15  C   UNL     1      23.579 -23.533  25.290  1.00  0.00     0.039 A 
ATOM     16  C   UNL     1      21.972 -25.285  25.828  1.00  0.00     0.013 A 
ATOM     17  C   UNL     1      21.404 -25.933  28.183  1.00  0.00     0.045 C 
ATOM     18  C   UNL     1      22.681 -24.556  24.853  1.00  0.00    -0.006 A 
ATOM     19  C   UNL     1      24.315 -22.804  24.314  1.00  0.00     0.072 A 
ATOM     20  C   UNL     1      22.495 -24.797  23.454  1.00  0.00     0.008 A 
ATOM     21  C   UNL     1      23.974 -22.913  22.961  1.00  0.00     0.169 A 
ATOM     22  C   UNL     1      23.031 -23.856  22.538  1.00  0.00     0.162 A 
BRANCH  13  23
ATOM     23  O   UNL     1      24.386 -22.112  27.112  1.00  0.00    -0.507 OA
ATOM     24  H   UNL     1      24.545 -21.886  28.086  1.00  0.00     0.293 HD
ENDBRANCH  13  23
BRANCH  19  25
ATOM     25  C   UNL     1      25.489 -21.963  24.643  1.00  0.00     0.264 C 
ATOM     26  O   UNL     1      25.371 -20.715  24.772  1.00  0.00    -0.298 OA
ENDBRANCH  19  25
BRANCH  20  27
ATOM     27  C   UNL     1      21.804 -26.050  22.884  1.00  0.00     0.017 C 
ATOM     28  C   UNL     1      20.467 -25.772  22.166  1.00  0.00     0.012 C 
ATOM     29  C   UNL     1      22.756 -26.926  22.057  1.00  0.00     0.012 C 
ENDBRANCH  20  27
BRANCH  21  30
ATOM     30  O   UNL     1      24.602 -22.084  22.026  1.00  0.00    -0.504 OA
ATOM     31  H   UNL     1      25.180 -21.297  22.293  1.00  0.00     0.293 HD
ENDBRANCH  21  30
BRANCH  22  32
ATOM     32  O   UNL     1      22.655 -23.834  21.191  1.00  0.00    -0.504 OA
ATOM     33  H   UNL     1      22.998 -24.487  20.498  1.00  0.00     0.293 HD
ENDBRANCH  22  32
ENDBRANCH  11  12
BRANCH  10  34
ATOM     34  O   UNL     1      25.101 -25.125  29.186  1.00  0.00    -0.507 OA
ATOM     35  H   UNL     1      25.858 -25.596  29.669  1.00  0.00     0.293 HD
ENDBRANCH  10  34
BRANCH   9  36
ATOM     36  C   UNL     1      21.955 -22.888  34.076  1.00  0.00     0.017 C 
ATOM     37  C   UNL     1      22.096 -21.484  34.673  1.00  0.00     0.012 C 
ATOM     38  C   UNL     1      21.531 -23.915  35.142  1.00  0.00     0.012 C 
ENDBRANCH   9  36
BRANCH   6  39
ATOM     39  C   UNL     1      26.757 -24.733  31.297  1.00  0.00     0.264 C 
ATOM     40  O   UNL     1      27.729 -23.935  31.209  1.00  0.00    -0.298 OA
ENDBRANCH   6  39
BRANCH   8  41
ATOM     41  O   UNL     1      24.458 -23.360  35.386  1.00  0.00    -0.504 OA
ATOM     42  H   UNL     1      24.264 -24.037  36.109  1.00  0.00     0.293 HD
ENDBRANCH   8  41
BRANCH   7  43
ATOM     43  O   UNL     1      26.679 -24.535  34.022  1.00  0.00    -0.504 OA
ATOM     44  H   UNL     1      27.064 -24.048  34.817  1.00  0.00     0.293 HD
ENDBRANCH   7  43
TORSDOF 11
ENDMDL
MODEL 8
REMARK VINA RESULT:    -6.476      4.461     10.949
REMARK INTER + INTRA:         -11.132
REMARK INTER:                  -9.461
REMARK INTRA:                  -1.671
REMARK UNBOUND:                -1.627
REMARK SMILES Cc1cc2c(C(C)C)c(O)c(O)c(C=O)c2c(O)c1-c1c(C)cc2c(C(C)C)c(O)c(O)c(C=O)c2c1O
REMARK SMILES IDX 1 1 2 2 3 3 4 4 16 5 13 6 11 7 9 8 5 9 17 10 19 11 20 12
REMARK SMILES IDX 37 13 21 14 36 15 23 16 22 17 24 18 33 19 25 20 31 21 29 22
REMARK SMILES IDX 38 23 34 25 35 26 26 27 27 28 28 29 32 30 30 32 18 34 6 36
REMARK SMILES IDX 7 37 8 38 14 39 15 40 10 41 12 43
REMARK H PARENT 38 24 32 31 30 33 18 35 10 42 12 44
REMARK Flexibility Score: inf
ROOT
ATOM      1  C   UNL     1      23.296 -29.827  27.096  1.00  0.00     0.045 C 
ATOM      2  C   UNL     1      24.640 -30.291  26.588  1.00  0.00    -0.039 A 
ATOM      3  C   UNL     1      25.701 -30.437  27.485  1.00  0.00     0.013 A 
ATOM      4  C   UNL     1      26.983 -30.846  27.057  1.00  0.00    -0.006 A 
ATOM      5  C   UNL     1      27.230 -30.947  25.660  1.00  0.00     0.039 A 
ATOM      6  C   UNL     1      28.572 -31.084  25.207  1.00  0.00     0.072 A 
ATOM      7  C   UNL     1      29.618 -31.241  26.130  1.00  0.00     0.169 A 
ATOM      8  C   UNL     1      29.355 -31.231  27.514  1.00  0.00     0.162 A 
ATOM      9  C   UNL     1      28.028 -31.122  27.990  1.00  0.00     0.008 A 
ATOM     10  C   UNL     1      26.123 -30.943  24.766  1.00  0.00     0.132 A 
ATOM     11  C   UNL     1      24.834 -30.606  25.232  1.00  0.00     0.031 A 
ENDROOT
BRANCH  11  12
ATOM     12  C   UNL     1      23.682 -30.585  24.294  1.00  0.00     0.031 A 
ATOM     13  C   UNL     1      23.368 -29.409  23.581  1.00  0.00     0.132 A 
ATOM     14  C   UNL     1      22.886 -31.732  24.140  1.00  0.00    -0.039 A 
ATOM     15  C   UNL     1      22.289 -29.397  22.651  1.00  0.00     0.039 A 
ATOM     16  C   UNL     1      21.754 -31.678  23.326  1.00  0.00     0.013 A 
ATOM     17  C   UNL     1      23.189 -33.002  24.899  1.00  0.00     0.045 C 
ATOM     18  C   UNL     1      21.440 -30.543  22.551  1.00  0.00    -0.006 A 
ATOM     19  C   UNL     1      21.993 -28.253  21.858  1.00  0.00     0.072 A 
ATOM     20  C   UNL     1      20.286 -30.509  21.704  1.00  0.00     0.008 A 
ATOM     21  C   UNL     1      20.762 -28.165  21.197  1.00  0.00     0.169 A 
ATOM     22  C   UNL     1      19.889 -29.257  21.169  1.00  0.00     0.162 A 
BRANCH  13  23
ATOM     23  O   UNL     1      24.089 -28.237  23.837  1.00  0.00    -0.507 OA
ATOM     24  H   UNL     1      25.092 -28.210  23.965  1.00  0.00     0.293 HD
ENDBRANCH  13  23
BRANCH  19  25
ATOM     25  C   UNL     1      22.955 -27.150  21.632  1.00  0.00     0.264 C 
ATOM     26  O   UNL     1      22.821 -26.047  22.226  1.00  0.00    -0.298 OA
ENDBRANCH  19  25
BRANCH  20  27
ATOM     27  C   UNL     1      19.490 -31.760  21.289  1.00  0.00     0.017 C 
ATOM     28  C   UNL     1      20.317 -32.827  20.544  1.00  0.00     0.012 C 
ATOM     29  C   UNL     1      18.662 -32.344  22.444  1.00  0.00     0.012 C 
ENDBRANCH  20  27
BRANCH  21  30
ATOM     30  O   UNL     1      20.418 -26.978  20.543  1.00  0.00    -0.504 OA
ATOM     31  H   UNL     1      19.530 -26.846  20.076  1.00  0.00     0.293 HD
ENDBRANCH  21  30
BRANCH  22  32
ATOM     32  O   UNL     1      18.630 -29.063  20.590  1.00  0.00    -0.504 OA
ATOM     33  H   UNL     1      18.212 -29.698  19.922  1.00  0.00     0.293 HD
ENDBRANCH  22  32
ENDBRANCH  11  12
BRANCH  10  34
ATOM     34  O   UNL     1      26.296 -31.323  23.430  1.00  0.00    -0.507 OA
ATOM     35  H   UNL     1      27.201 -31.417  22.984  1.00  0.00     0.293 HD
ENDBRANCH  10  34
BRANCH   9  36
ATOM     36  C   UNL     1      27.735 -31.304  29.491  1.00  0.00     0.017 C 
ATOM     37  C   UNL     1      28.037 -30.020  30.271  1.00  0.00     0.012 C 
ATOM     38  C   UNL     1      28.444 -32.522  30.113  1.00  0.00     0.012 C 
ENDBRANCH   9  36
BRANCH   6  39
ATOM     39  C   UNL     1      28.957 -30.942  23.785  1.00  0.00     0.264 C 
ATOM     40  O   UNL     1      29.293 -31.948  23.103  1.00  0.00    -0.298 OA
ENDBRANCH   6  39
BRANCH   8  41
ATOM     41  O   UNL     1      30.400 -31.287  28.442  1.00  0.00    -0.504 OA
ATOM     42  H   UNL     1      31.380 -31.327  28.206  1.00  0.00     0.293 HD
ENDBRANCH   8  41
BRANCH   7  43
ATOM     43  O   UNL     1      30.918 -31.400  25.633  1.00  0.00    -0.504 OA
ATOM     44  H   UNL     1      31.472 -30.663  25.223  1.00  0.00     0.293 HD
ENDBRANCH   7  43
TORSDOF 11
ENDMDL
MODEL 9
REMARK VINA RESULT:    -6.476      4.383      8.102
REMARK INTER + INTRA:         -11.131
REMARK INTER:                  -9.446
REMARK INTRA:                  -1.685
REMARK UNBOUND:                -1.627
REMARK SMILES Cc1cc2c(C(C)C)c(O)c(O)c(C=O)c2c(O)c1-c1c(C)cc2c(C(C)C)c(O)c(O)c(C=O)c2c1O
REMARK SMILES IDX 1 1 2 2 3 3 4 4 16 5 13 6 11 7 9 8 5 9 17 10 19 11 20 12
REMARK SMILES IDX 37 13 21 14 36 15 23 16 22 17 24 18 33 19 25 20 31 21 29 22
REMARK SMILES IDX 38 23 34 25 35 26 26 27 27 28 28 29 32 30 30 32 18 34 6 36
REMARK SMILES IDX 7 37 8 38 14 39 15 40 10 41 12 43
REMARK H PARENT 38 24 32 31 30 33 18 35 10 42 12 44
REMARK Flexibility Score: inf
ROOT
ATOM      1  C   UNL     1      19.384 -32.378  24.068  1.00  0.00     0.045 C 
ATOM      2  C   UNL     1      20.539 -33.258  23.655  1.00  0.00    -0.039 A 
ATOM      3  C   UNL     1      20.453 -34.640  23.845  1.00  0.00     0.013 A 
ATOM      4  C   UNL     1      21.515 -35.503  23.496  1.00  0.00    -0.006 A 
ATOM      5  C   UNL     1      22.754 -34.928  23.101  1.00  0.00     0.039 A 
ATOM      6  C   UNL     1      23.903 -35.763  23.016  1.00  0.00     0.072 A 
ATOM      7  C   UNL     1      23.785 -37.150  23.199  1.00  0.00     0.169 A 
ATOM      8  C   UNL     1      22.537 -37.726  23.501  1.00  0.00     0.162 A 
ATOM      9  C   UNL     1      21.375 -36.922  23.567  1.00  0.00     0.008 A 
ATOM     10  C   UNL     1      22.792 -33.544  22.769  1.00  0.00     0.132 A 
ATOM     11  C   UNL     1      21.688 -32.714  23.056  1.00  0.00     0.031 A 
ENDROOT
BRANCH  11  12
ATOM     12  C   UNL     1      21.737 -31.265  22.726  1.00  0.00     0.031 A 
ATOM     13  C   UNL     1      22.268 -30.344  23.651  1.00  0.00     0.132 A 
ATOM     14  C   UNL     1      21.225 -30.812  21.499  1.00  0.00    -0.039 A 
ATOM     15  C   UNL     1      22.353 -28.960  23.322  1.00  0.00     0.039 A 
ATOM     16  C   UNL     1      21.192 -29.442  21.234  1.00  0.00     0.013 A 
ATOM     17  C   UNL     1      20.638 -31.772  20.493  1.00  0.00     0.045 C 
ATOM     18  C   UNL     1      21.767 -28.495  22.105  1.00  0.00    -0.006 A 
ATOM     19  C   UNL     1      22.954 -28.014  24.200  1.00  0.00     0.072 A 
ATOM     20  C   UNL     1      21.744 -27.094  21.809  1.00  0.00     0.008 A 
ATOM     21  C   UNL     1      22.746 -26.645  23.994  1.00  0.00     0.169 A 
ATOM     22  C   UNL     1      22.095 -26.189  22.843  1.00  0.00     0.162 A 
BRANCH  13  23
ATOM     23  O   UNL     1      22.658 -30.790  24.919  1.00  0.00    -0.507 OA
ATOM     24  H   UNL     1      22.019 -31.179  25.600  1.00  0.00     0.293 HD
ENDBRANCH  13  23
BRANCH  19  25
ATOM     25  C   UNL     1      23.860 -28.395  25.308  1.00  0.00     0.264 C 
ATOM     26  O   UNL     1      23.471 -28.339  26.505  1.00  0.00    -0.298 OA
ENDBRANCH  19  25
BRANCH  20  27
ATOM     27  C   UNL     1      21.423 -26.516  20.418  1.00  0.00     0.017 C 
ATOM     28  C   UNL     1      20.147 -25.651  20.364  1.00  0.00     0.012 C 
ATOM     29  C   UNL     1      22.636 -25.836  19.766  1.00  0.00     0.012 C 
ENDBRANCH  20  27
BRANCH  21  30
ATOM     30  O   UNL     1      23.215 -25.730  24.942  1.00  0.00    -0.504 OA
ATOM     31  H   UNL     1      23.105 -25.869  25.938  1.00  0.00     0.293 HD
ENDBRANCH  21  30
BRANCH  22  32
ATOM     32  O   UNL     1      21.820 -24.820  22.756  1.00  0.00    -0.504 OA
ATOM     33  H   UNL     1      21.082 -24.428  22.187  1.00  0.00     0.293 HD
ENDBRANCH  22  32
ENDBRANCH  11  12
BRANCH  10  34
ATOM     34  O   UNL     1      23.905 -33.010  22.110  1.00  0.00    -0.507 OA
ATOM     35  H   UNL     1      24.550 -33.561  21.556  1.00  0.00     0.293 HD
ENDBRANCH  10  34
BRANCH   9  36
ATOM     36  C   UNL     1      19.992 -37.586  23.708  1.00  0.00     0.017 C 
ATOM     37  C   UNL     1      19.079 -37.213  22.535  1.00  0.00     0.012 C 
ATOM     38  C   UNL     1      19.312 -37.311  25.062  1.00  0.00     0.012 C 
ENDBRANCH   9  36
BRANCH   6  39
ATOM     39  C   UNL     1      25.274 -35.225  22.864  1.00  0.00     0.264 C 
ATOM     40  O   UNL     1      25.878 -35.299  21.761  1.00  0.00    -0.298 OA
ENDBRANCH   6  39
BRANCH   8  41
ATOM     41  O   UNL     1      22.427 -39.091  23.783  1.00  0.00    -0.504 OA
ATOM     42  H   UNL     1      23.095 -39.794  23.503  1.00  0.00     0.293 HD
ENDBRANCH   8  41
BRANCH   7  43
ATOM     43  O   UNL     1      24.942 -37.931  23.078  1.00  0.00    -0.504 OA
ATOM     44  H   UNL     1      25.497 -38.263  23.852  1.00  0.00     0.293 HD
ENDBRANCH   7  43
TORSDOF 11
ENDMDL
