MODEL 1
REMARK VINA RESULT:    -4.809      0.000      0.000
REMARK INTER + INTRA:         -14.331
REMARK INTER:                 -10.432
REMARK INTRA:                  -3.899
REMARK UNBOUND:                -3.899
REMARK SMILES CCCCCCCCCCCCCCCCCCCCCC(=O)[O-]
REMARK SMILES IDX 12 1 11 2 10 3 9 4 8 5 7 6 6 7 5 8 4 9 3 10 2 11 1 12 13 13
REMARK SMILES IDX 14 14 15 15 16 16 17 17 18 18 19 19 20 20 21 21 22 22 23 23
REMARK SMILES IDX 24 24
REMARK H PARENT
REMARK Flexibility Score: inf
ROOT
ATOM      1  C   UNL     1      20.257  22.472   6.427  1.00  0.00     0.000 C 
ENDROOT
BRANCH   1   2
ATOM      2  C   UNL     1      18.822  22.973   6.164  1.00  0.00     0.000 C 
BRANCH   2   3
ATOM      3  C   UNL     1      17.700  22.054   6.685  1.00  0.00     0.000 C 
BRANCH   3   4
ATOM      4  C   UNL     1      18.123  20.597   6.944  1.00  0.00    -0.000 C 
BRANCH   4   5
ATOM      5  C   UNL     1      18.184  20.251   8.442  1.00  0.00    -0.000 C 
BRANCH   5   6
ATOM      6  C   UNL     1      17.559  21.342   9.324  1.00  0.00    -0.000 C 
BRANCH   6   7
ATOM      7  C   UNL     1      18.577  21.973  10.291  1.00  0.00    -0.000 C 
BRANCH   7   8
ATOM      8  C   UNL     1      18.568  23.509  10.242  1.00  0.00    -0.000 C 
BRANCH   8   9
ATOM      9  C   UNL     1      17.221  24.078   9.774  1.00  0.00    -0.000 C 
BRANCH   9  10
ATOM     10  C   UNL     1      17.428  25.225   8.773  1.00  0.00    -0.000 C 
BRANCH  10  11
ATOM     11  C   UNL     1      18.870  25.757   8.775  1.00  0.00    -0.003 C 
ATOM     12  C   UNL     1      18.940  27.273   8.951  1.00  0.00     0.004 C 
ENDBRANCH  10  11
ENDBRANCH   9  10
ENDBRANCH   8   9
ENDBRANCH   7   8
ENDBRANCH   6   7
ENDBRANCH   5   6
ENDBRANCH   4   5
ENDBRANCH   3   4
ENDBRANCH   2   3
ENDBRANCH   1   2
BRANCH   1  13
ATOM     13  C   UNL     1      20.976  23.159   7.602  1.00  0.00     0.000 C 
BRANCH  13  14
ATOM     14  C   UNL     1      21.825  22.185   8.432  1.00  0.00     0.000 C 
BRANCH  14  15
ATOM     15  C   UNL     1      21.780  20.772   7.832  1.00  0.00     0.000 C 
BRANCH  15  16
ATOM     16  C   UNL     1      23.174  20.145   7.677  1.00  0.00     0.000 C 
BRANCH  16  17
ATOM     17  C   UNL     1      23.264  19.180   6.484  1.00  0.00     0.000 C 
BRANCH  17  18
ATOM     18  C   UNL     1      22.489  19.728   5.277  1.00  0.00     0.000 C 
BRANCH  18  19
ATOM     19  C   UNL     1      21.381  18.774   4.803  1.00  0.00     0.000 C 
BRANCH  19  20
ATOM     20  C   UNL     1      21.102  17.646   5.811  1.00  0.00     0.006 C 
BRANCH  20  21
ATOM     21  C   UNL     1      19.601  17.370   5.971  1.00  0.00     0.053 C 
BRANCH  21  22
ATOM     22  C   UNL     1      19.336  16.288   6.973  1.00  0.00     0.041 C 
ATOM     23  O   UNL     1      18.158  16.036   7.339  1.00  0.00    -0.550 OA
ATOM     24  O   UNL     1      20.389  15.540   7.484  1.00  0.00    -0.550 OA
ENDBRANCH  21  22
ENDBRANCH  20  21
ENDBRANCH  19  20
ENDBRANCH  18  19
ENDBRANCH  17  18
ENDBRANCH  16  17
ENDBRANCH  15  16
ENDBRANCH  14  15
ENDBRANCH  13  14
ENDBRANCH   1  13
TORSDOF 20
ENDMDL
MODEL 2
REMARK VINA RESULT:    -4.730      1.880      3.877
REMARK INTER + INTRA:         -14.161
REMARK INTER:                 -11.275
REMARK INTRA:                  -2.885
REMARK UNBOUND:                -3.899
REMARK SMILES CCCCCCCCCCCCCCCCCCCCCC(=O)[O-]
REMARK SMILES IDX 12 1 11 2 10 3 9 4 8 5 7 6 6 7 5 8 4 9 3 10 2 11 1 12 13 13
REMARK SMILES IDX 14 14 15 15 16 16 17 17 18 18 19 19 20 20 21 21 22 22 23 23
REMARK SMILES IDX 24 24
REMARK H PARENT
REMARK Flexibility Score: inf
ROOT
ATOM      1  C   UNL     1      20.456  23.095  10.424  1.00  0.00     0.000 C 
ENDROOT
BRANCH   1   2
ATOM      2  C   UNL     1      21.640  23.019   9.439  1.00  0.00     0.000 C 
BRANCH   2   3
ATOM      3  C   UNL     1      21.312  23.418   7.987  1.00  0.00     0.000 C 
BRANCH   3   4
ATOM      4  C   UNL     1      21.251  22.246   6.991  1.00  0.00    -0.000 C 
BRANCH   4   5
ATOM      5  C   UNL     1      19.817  21.918   6.543  1.00  0.00    -0.000 C 
BRANCH   5   6
ATOM      6  C   UNL     1      19.014  23.174   6.171  1.00  0.00    -0.000 C 
BRANCH   6   7
ATOM      7  C   UNL     1      17.527  23.056   6.548  1.00  0.00    -0.000 C 
BRANCH   7   8
ATOM      8  C   UNL     1      16.985  24.325   7.225  1.00  0.00    -0.000 C 
BRANCH   8   9
ATOM      9  C   UNL     1      17.659  24.611   8.574  1.00  0.00    -0.000 C 
BRANCH   9  10
ATOM     10  C   UNL     1      17.006  25.815   9.270  1.00  0.00    -0.000 C 
BRANCH  10  11
ATOM     11  C   UNL     1      17.660  27.149   8.877  1.00  0.00    -0.003 C 
ATOM     12  C   UNL     1      19.184  27.061   8.802  1.00  0.00     0.004 C 
ENDBRANCH  10  11
ENDBRANCH   9  10
ENDBRANCH   8   9
ENDBRANCH   7   8
ENDBRANCH   6   7
ENDBRANCH   5   6
ENDBRANCH   4   5
ENDBRANCH   3   4
ENDBRANCH   2   3
ENDBRANCH   1   2
BRANCH   1  13
ATOM     13  C   UNL     1      19.394  21.996  10.245  1.00  0.00     0.000 C 
BRANCH  13  14
ATOM     14  C   UNL     1      18.355  21.980  11.376  1.00  0.00     0.000 C 
BRANCH  14  15
ATOM     15  C   UNL     1      17.056  21.302  10.916  1.00  0.00     0.000 C 
BRANCH  15  16
ATOM     16  C   UNL     1      17.010  21.069   9.398  1.00  0.00     0.000 C 
BRANCH  16  17
ATOM     17  C   UNL     1      16.969  19.578   9.025  1.00  0.00     0.000 C 
BRANCH  17  18
ATOM     18  C   UNL     1      17.388  19.367   7.563  1.00  0.00     0.000 C 
BRANCH  18  19
ATOM     19  C   UNL     1      17.802  17.917   7.269  1.00  0.00     0.000 C 
BRANCH  19  20
ATOM     20  C   UNL     1      19.157  17.824   6.547  1.00  0.00     0.006 C 
BRANCH  20  21
ATOM     21  C   UNL     1      19.740  16.404   6.588  1.00  0.00     0.053 C 
BRANCH  21  22
ATOM     22  C   UNL     1      21.089  16.336   5.941  1.00  0.00     0.041 C 
ATOM     23  O   UNL     1      22.050  17.003   6.406  1.00  0.00    -0.550 OA
ATOM     24  O   UNL     1      21.291  15.516   4.838  1.00  0.00    -0.550 OA
ENDBRANCH  21  22
ENDBRANCH  20  21
ENDBRANCH  19  20
ENDBRANCH  18  19
ENDBRANCH  17  18
ENDBRANCH  16  17
ENDBRANCH  15  16
ENDBRANCH  14  15
ENDBRANCH  13  14
ENDBRANCH   1  13
TORSDOF 20
ENDMDL
MODEL 3
REMARK VINA RESULT:    -4.608      3.436      6.973
REMARK INTER + INTRA:         -13.895
REMARK INTER:                 -10.955
REMARK INTRA:                  -2.940
REMARK UNBOUND:                -3.899
REMARK SMILES CCCCCCCCCCCCCCCCCCCCCC(=O)[O-]
REMARK SMILES IDX 12 1 11 2 10 3 9 4 8 5 7 6 6 7 5 8 4 9 3 10 2 11 1 12 13 13
REMARK SMILES IDX 14 14 15 15 16 16 17 17 18 18 19 19 20 20 21 21 22 22 23 23
REMARK SMILES IDX 24 24
REMARK H PARENT
REMARK Flexibility Score: inf
ROOT
ATOM      1  C   UNL     1      21.380  23.123   9.867  1.00  0.00     0.000 C 
ENDROOT
BRANCH   1   2
ATOM      2  C   UNL     1      20.033  22.862  10.571  1.00  0.00     0.000 C 
BRANCH   2   3
ATOM      3  C   UNL     1      19.170  21.748   9.947  1.00  0.00     0.000 C 
BRANCH   3   4
ATOM      4  C   UNL     1      17.999  21.267  10.821  1.00  0.00    -0.000 C 
BRANCH   4   5
ATOM      5  C   UNL     1      17.144  20.190  10.133  1.00  0.00    -0.000 C 
BRANCH   5   6
ATOM      6  C   UNL     1      17.305  20.197   8.605  1.00  0.00    -0.000 C 
BRANCH   6   7
ATOM      7  C   UNL     1      17.318  18.778   8.007  1.00  0.00    -0.000 C 
BRANCH   7   8
ATOM      8  C   UNL     1      18.022  18.717   6.643  1.00  0.00    -0.000 C 
BRANCH   8   9
ATOM      9  C   UNL     1      18.242  17.277   6.155  1.00  0.00    -0.000 C 
BRANCH   9  10
ATOM     10  C   UNL     1      19.312  16.569   7.000  1.00  0.00    -0.000 C 
BRANCH  10  11
ATOM     11  C   UNL     1      20.430  15.956   6.143  1.00  0.00    -0.003 C 
ATOM     12  C   UNL     1      21.774  16.658   6.336  1.00  0.00     0.004 C 
ENDBRANCH  10  11
ENDBRANCH   9  10
ENDBRANCH   8   9
ENDBRANCH   7   8
ENDBRANCH   6   7
ENDBRANCH   5   6
ENDBRANCH   4   5
ENDBRANCH   3   4
ENDBRANCH   2   3
ENDBRANCH   1   2
BRANCH   1  13
ATOM     13  C   UNL     1      21.306  23.183   8.331  1.00  0.00     0.000 C 
BRANCH  13  14
ATOM     14  C   UNL     1      21.689  21.855   7.663  1.00  0.00     0.000 C 
BRANCH  14  15
ATOM     15  C   UNL     1      20.656  21.462   6.596  1.00  0.00     0.000 C 
BRANCH  15  16
ATOM     16  C   UNL     1      19.832  22.658   6.094  1.00  0.00     0.000 C 
BRANCH  16  17
ATOM     17  C   UNL     1      18.373  22.289   5.784  1.00  0.00     0.000 C 
BRANCH  17  18
ATOM     18  C   UNL     1      17.406  23.305   6.408  1.00  0.00     0.000 C 
BRANCH  18  19
ATOM     19  C   UNL     1      18.087  24.210   7.446  1.00  0.00     0.000 C 
BRANCH  19  20
ATOM     20  C   UNL     1      17.154  24.580   8.612  1.00  0.00     0.006 C 
BRANCH  20  21
ATOM     21  C   UNL     1      17.204  26.077   8.943  1.00  0.00     0.053 C 
BRANCH  21  22
ATOM     22  C   UNL     1      18.593  26.528   9.277  1.00  0.00     0.041 C 
ATOM     23  O   UNL     1      19.197  27.335   8.523  1.00  0.00    -0.550 OA
ATOM     24  O   UNL     1      19.210  26.078  10.437  1.00  0.00    -0.550 OA
ENDBRANCH  21  22
ENDBRANCH  20  21
ENDBRANCH  19  20
ENDBRANCH  18  19
ENDBRANCH  17  18
ENDBRANCH  16  17
ENDBRANCH  15  16
ENDBRANCH  14  15
ENDBRANCH  13  14
ENDBRANCH   1  13
TORSDOF 20
ENDMDL
MODEL 4
REMARK VINA RESULT:    -4.576      1.213      2.544
REMARK INTER + INTRA:         -13.825
REMARK INTER:                 -10.426
REMARK INTRA:                  -3.399
REMARK UNBOUND:                -3.899
REMARK SMILES CCCCCCCCCCCCCCCCCCCCCC(=O)[O-]
REMARK SMILES IDX 12 1 11 2 10 3 9 4 8 5 7 6 6 7 5 8 4 9 3 10 2 11 1 12 13 13
REMARK SMILES IDX 14 14 15 15 16 16 17 17 18 18 19 19 20 20 21 21 22 22 23 23
REMARK SMILES IDX 24 24
REMARK H PARENT
REMARK Flexibility Score: inf
ROOT
ATOM      1  C   UNL     1      20.873  21.149   7.242  1.00  0.00     0.000 C 
ENDROOT
BRANCH   1   2
ATOM      2  C   UNL     1      20.676  22.021   5.985  1.00  0.00     0.000 C 
BRANCH   2   3
ATOM      3  C   UNL     1      19.210  22.251   5.570  1.00  0.00     0.000 C 
BRANCH   3   4
ATOM      4  C   UNL     1      18.174  21.445   6.374  1.00  0.00    -0.000 C 
BRANCH   4   5
ATOM      5  C   UNL     1      17.015  22.314   6.893  1.00  0.00    -0.000 C 
BRANCH   5   6
ATOM      6  C   UNL     1      17.232  23.810   6.617  1.00  0.00    -0.000 C 
BRANCH   6   7
ATOM      7  C   UNL     1      17.120  24.666   7.892  1.00  0.00    -0.000 C 
BRANCH   7   8
ATOM      8  C   UNL     1      18.428  25.397   8.230  1.00  0.00    -0.000 C 
BRANCH   8   9
ATOM      9  C   UNL     1      19.566  24.435   8.599  1.00  0.00    -0.000 C 
BRANCH   9  10
ATOM     10  C   UNL     1      19.538  24.102  10.099  1.00  0.00    -0.000 C 
BRANCH  10  11
ATOM     11  C   UNL     1      19.640  22.592  10.370  1.00  0.00    -0.003 C 
ATOM     12  C   UNL     1      18.275  21.909  10.426  1.00  0.00     0.004 C 
ENDBRANCH  10  11
ENDBRANCH   9  10
ENDBRANCH   8   9
ENDBRANCH   7   8
ENDBRANCH   6   7
ENDBRANCH   5   6
ENDBRANCH   4   5
ENDBRANCH   3   4
ENDBRANCH   2   3
ENDBRANCH   1   2
BRANCH   1  13
ATOM     13  C   UNL     1      22.113  21.499   8.085  1.00  0.00     0.000 C 
BRANCH  13  14
ATOM     14  C   UNL     1      23.206  20.424   8.011  1.00  0.00     0.000 C 
BRANCH  14  15
ATOM     15  C   UNL     1      22.852  19.354   6.967  1.00  0.00     0.000 C 
BRANCH  15  16
ATOM     16  C   UNL     1      24.029  19.010   6.042  1.00  0.00     0.000 C 
BRANCH  16  17
ATOM     17  C   UNL     1      23.639  19.016   4.555  1.00  0.00     0.000 C 
BRANCH  17  18
ATOM     18  C   UNL     1      22.118  19.148   4.388  1.00  0.00     0.000 C 
BRANCH  18  19
ATOM     19  C   UNL     1      21.435  17.800   4.110  1.00  0.00     0.000 C 
BRANCH  19  20
ATOM     20  C   UNL     1      19.960  17.783   4.550  1.00  0.00     0.006 C 
BRANCH  20  21
ATOM     21  C   UNL     1      19.811  17.762   6.077  1.00  0.00     0.053 C 
BRANCH  21  22
ATOM     22  C   UNL     1      20.030  16.392   6.641  1.00  0.00     0.041 C 
ATOM     23  O   UNL     1      21.190  15.906   6.696  1.00  0.00    -0.550 OA
ATOM     24  O   UNL     1      18.955  15.661   7.129  1.00  0.00    -0.550 OA
ENDBRANCH  21  22
ENDBRANCH  20  21
ENDBRANCH  19  20
ENDBRANCH  18  19
ENDBRANCH  17  18
ENDBRANCH  16  17
ENDBRANCH  15  16
ENDBRANCH  14  15
ENDBRANCH  13  14
ENDBRANCH   1  13
TORSDOF 20
ENDMDL
MODEL 5
REMARK VINA RESULT:    -4.488      2.290      3.639
REMARK INTER + INTRA:         -13.634
REMARK INTER:                 -10.508
REMARK INTRA:                  -3.126
REMARK UNBOUND:                -3.899
REMARK SMILES CCCCCCCCCCCCCCCCCCCCCC(=O)[O-]
REMARK SMILES IDX 12 1 11 2 10 3 9 4 8 5 7 6 6 7 5 8 4 9 3 10 2 11 1 12 13 13
REMARK SMILES IDX 14 14 15 15 16 16 17 17 18 18 19 19 20 20 21 21 22 22 23 23
REMARK SMILES IDX 24 24
REMARK H PARENT
REMARK Flexibility Score: inf
ROOT
ATOM      1  C   UNL     1      20.071  23.571  10.142  1.00  0.00     0.000 C 
ENDROOT
BRANCH   1   2
ATOM      2  C   UNL     1      19.633  22.359  10.990  1.00  0.00     0.000 C 
BRANCH   2   3
ATOM      3  C   UNL     1      18.141  22.331  11.372  1.00  0.00     0.000 C 
BRANCH   3   4
ATOM      4  C   UNL     1      17.195  21.844  10.260  1.00  0.00    -0.000 C 
BRANCH   4   5
ATOM      5  C   UNL     1      17.570  20.451   9.726  1.00  0.00    -0.000 C 
BRANCH   5   6
ATOM      6  C   UNL     1      17.940  20.471   8.236  1.00  0.00    -0.000 C 
BRANCH   6   7
ATOM      7  C   UNL     1      17.011  21.380   7.410  1.00  0.00    -0.000 C 
BRANCH   7   8
ATOM      8  C   UNL     1      17.776  22.246   6.398  1.00  0.00    -0.000 C 
BRANCH   8   9
ATOM      9  C   UNL     1      17.358  23.723   6.446  1.00  0.00    -0.000 C 
BRANCH   9  10
ATOM     10  C   UNL     1      16.875  24.110   7.853  1.00  0.00    -0.000 C 
BRANCH  10  11
ATOM     11  C   UNL     1      17.443  25.459   8.321  1.00  0.00    -0.003 C 
ATOM     12  C   UNL     1      17.291  25.675   9.826  1.00  0.00     0.004 C 
ENDBRANCH  10  11
ENDBRANCH   9  10
ENDBRANCH   8   9
ENDBRANCH   7   8
ENDBRANCH   6   7
ENDBRANCH   5   6
ENDBRANCH   4   5
ENDBRANCH   3   4
ENDBRANCH   2   3
ENDBRANCH   1   2
BRANCH   1  13
ATOM     13  C   UNL     1      21.268  23.310   9.211  1.00  0.00     0.000 C 
BRANCH  13  14
ATOM     14  C   UNL     1      20.853  23.112   7.746  1.00  0.00     0.000 C 
BRANCH  14  15
ATOM     15  C   UNL     1      21.275  21.724   7.241  1.00  0.00     0.000 C 
BRANCH  15  16
ATOM     16  C   UNL     1      21.439  21.669   5.714  1.00  0.00     0.000 C 
BRANCH  16  17
ATOM     17  C   UNL     1      20.779  20.430   5.089  1.00  0.00     0.000 C 
BRANCH  17  18
ATOM     18  C   UNL     1      20.764  19.258   6.081  1.00  0.00     0.000 C 
BRANCH  18  19
ATOM     19  C   UNL     1      22.093  18.486   6.105  1.00  0.00     0.000 C 
BRANCH  19  20
ATOM     20  C   UNL     1      22.905  18.667   4.812  1.00  0.00     0.006 C 
BRANCH  20  21
ATOM     21  C   UNL     1      24.417  18.698   5.076  1.00  0.00     0.053 C 
BRANCH  21  22
ATOM     22  C   UNL     1      25.025  17.331   4.996  1.00  0.00     0.041 C 
ATOM     23  O   UNL     1      24.337  16.352   4.605  1.00  0.00    -0.550 OA
ATOM     24  O   UNL     1      26.361  17.144   5.328  1.00  0.00    -0.550 OA
ENDBRANCH  21  22
ENDBRANCH  20  21
ENDBRANCH  19  20
ENDBRANCH  18  19
ENDBRANCH  17  18
ENDBRANCH  16  17
ENDBRANCH  15  16
ENDBRANCH  14  15
ENDBRANCH  13  14
ENDBRANCH   1  13
TORSDOF 20
ENDMDL
MODEL 6
REMARK VINA RESULT:    -4.437      3.182      7.772
REMARK INTER + INTRA:         -13.523
REMARK INTER:                 -10.442
REMARK INTRA:                  -3.081
REMARK UNBOUND:                -3.899
REMARK SMILES CCCCCCCCCCCCCCCCCCCCCC(=O)[O-]
REMARK SMILES IDX 12 1 11 2 10 3 9 4 8 5 7 6 6 7 5 8 4 9 3 10 2 11 1 12 13 13
REMARK SMILES IDX 14 14 15 15 16 16 17 17 18 18 19 19 20 20 21 21 22 22 23 23
REMARK SMILES IDX 24 24
REMARK H PARENT
REMARK Flexibility Score: inf
ROOT
ATOM      1  C   UNL     1      21.268  22.019   6.346  1.00  0.00     0.000 C 
ENDROOT
BRANCH   1   2
ATOM      2  C   UNL     1      21.153  21.239   5.021  1.00  0.00     0.000 C 
BRANCH   2   3
ATOM      3  C   UNL     1      21.864  19.872   5.000  1.00  0.00     0.000 C 
BRANCH   3   4
ATOM      4  C   UNL     1      22.528  19.466   6.328  1.00  0.00    -0.000 C 
BRANCH   4   5
ATOM      5  C   UNL     1      23.986  19.008   6.151  1.00  0.00    -0.000 C 
BRANCH   5   6
ATOM      6  C   UNL     1      24.244  18.386   4.771  1.00  0.00    -0.000 C 
BRANCH   6   7
ATOM      7  C   UNL     1      24.215  16.847   4.803  1.00  0.00    -0.000 C 
BRANCH   7   8
ATOM      8  C   UNL     1      23.143  16.255   3.875  1.00  0.00    -0.000 C 
BRANCH   8   9
ATOM      9  C   UNL     1      21.775  16.121   4.560  1.00  0.00    -0.000 C 
BRANCH   9  10
ATOM     10  C   UNL     1      21.931  15.611   6.001  1.00  0.00    -0.000 C 
BRANCH  10  11
ATOM     11  C   UNL     1      20.681  15.870   6.857  1.00  0.00    -0.003 C 
ATOM     12  C   UNL     1      19.759  16.928   6.252  1.00  0.00     0.004 C 
ENDBRANCH  10  11
ENDBRANCH   9  10
ENDBRANCH   8   9
ENDBRANCH   7   8
ENDBRANCH   6   7
ENDBRANCH   5   6
ENDBRANCH   4   5
ENDBRANCH   3   4
ENDBRANCH   2   3
ENDBRANCH   1   2
BRANCH   1  13
ATOM     13  C   UNL     1      20.006  22.803   6.748  1.00  0.00     0.000 C 
BRANCH  13  14
ATOM     14  C   UNL     1      18.713  22.156   6.231  1.00  0.00     0.000 C 
BRANCH  14  15
ATOM     15  C   UNL     1      17.896  21.566   7.391  1.00  0.00     0.000 C 
BRANCH  15  16
ATOM     16  C   UNL     1      18.770  20.858   8.437  1.00  0.00     0.000 C 
BRANCH  16  17
ATOM     17  C   UNL     1      18.111  20.801   9.824  1.00  0.00     0.000 C 
BRANCH  17  18
ATOM     18  C   UNL     1      18.405  22.079  10.624  1.00  0.00     0.000 C 
BRANCH  18  19
ATOM     19  C   UNL     1      19.820  22.622  10.370  1.00  0.00     0.000 C 
BRANCH  19  20
ATOM     20  C   UNL     1      19.831  24.135  10.092  1.00  0.00     0.006 C 
BRANCH  20  21
ATOM     21  C   UNL     1      18.417  24.729  10.060  1.00  0.00     0.053 C 
BRANCH  21  22
ATOM     22  C   UNL     1      18.140  25.442   8.772  1.00  0.00     0.041 C 
ATOM     23  O   UNL     1      18.768  26.493   8.480  1.00  0.00    -0.550 OA
ATOM     24  O   UNL     1      17.205  24.929   7.881  1.00  0.00    -0.550 OA
ENDBRANCH  21  22
ENDBRANCH  20  21
ENDBRANCH  19  20
ENDBRANCH  18  19
ENDBRANCH  17  18
ENDBRANCH  16  17
ENDBRANCH  15  16
ENDBRANCH  14  15
ENDBRANCH  13  14
ENDBRANCH   1  13
TORSDOF 20
ENDMDL
MODEL 7
REMARK VINA RESULT:    -4.426      1.838      2.860
REMARK INTER + INTRA:         -13.500
REMARK INTER:                 -10.632
REMARK INTRA:                  -2.868
REMARK UNBOUND:                -3.899
REMARK SMILES CCCCCCCCCCCCCCCCCCCCCC(=O)[O-]
REMARK SMILES IDX 12 1 11 2 10 3 9 4 8 5 7 6 6 7 5 8 4 9 3 10 2 11 1 12 13 13
REMARK SMILES IDX 14 14 15 15 16 16 17 17 18 18 19 19 20 20 21 21 22 22 23 23
REMARK SMILES IDX 24 24
REMARK H PARENT
REMARK Flexibility Score: inf
ROOT
ATOM      1  C   UNL     1      19.360  23.115  10.580  1.00  0.00     0.000 C 
ENDROOT
BRANCH   1   2
ATOM      2  C   UNL     1      19.002  21.628  10.376  1.00  0.00     0.000 C 
BRANCH   2   3
ATOM      3  C   UNL     1      17.500  21.334  10.199  1.00  0.00     0.000 C 
BRANCH   3   4
ATOM      4  C   UNL     1      17.071  20.993   8.761  1.00  0.00    -0.000 C 
BRANCH   4   5
ATOM      5  C   UNL     1      18.265  20.829   7.805  1.00  0.00    -0.000 C 
BRANCH   5   6
ATOM      6  C   UNL     1      17.997  21.433   6.419  1.00  0.00    -0.000 C 
BRANCH   6   7
ATOM      7  C   UNL     1      18.478  22.892   6.309  1.00  0.00    -0.000 C 
BRANCH   7   8
ATOM      8  C   UNL     1      17.500  23.888   6.952  1.00  0.00    -0.000 C 
BRANCH   8   9
ATOM      9  C   UNL     1      18.197  24.870   7.905  1.00  0.00    -0.000 C 
BRANCH   9  10
ATOM     10  C   UNL     1      17.167  25.661   8.726  1.00  0.00    -0.000 C 
BRANCH  10  11
ATOM     11  C   UNL     1      17.616  27.105   9.001  1.00  0.00    -0.003 C 
ATOM     12  C   UNL     1      19.135  27.269   8.960  1.00  0.00     0.004 C 
ENDBRANCH  10  11
ENDBRANCH   9  10
ENDBRANCH   8   9
ENDBRANCH   7   8
ENDBRANCH   6   7
ENDBRANCH   5   6
ENDBRANCH   4   5
ENDBRANCH   3   4
ENDBRANCH   2   3
ENDBRANCH   1   2
BRANCH   1  13
ATOM     13  C   UNL     1      20.808  23.487  10.215  1.00  0.00     0.000 C 
BRANCH  13  14
ATOM     14  C   UNL     1      21.275  22.846   8.900  1.00  0.00     0.000 C 
BRANCH  14  15
ATOM     15  C   UNL     1      22.463  21.903   9.145  1.00  0.00     0.000 C 
BRANCH  15  16
ATOM     16  C   UNL     1      22.663  20.888   8.009  1.00  0.00     0.000 C 
BRANCH  16  17
ATOM     17  C   UNL     1      21.708  21.121   6.827  1.00  0.00     0.000 C 
BRANCH  17  18
ATOM     18  C   UNL     1      21.820  19.985   5.800  1.00  0.00     0.000 C 
BRANCH  18  19
ATOM     19  C   UNL     1      23.175  19.263   5.862  1.00  0.00     0.000 C 
BRANCH  19  20
ATOM     20  C   UNL     1      23.444  18.403   4.615  1.00  0.00     0.006 C 
BRANCH  20  21
ATOM     21  C   UNL     1      23.729  16.938   4.971  1.00  0.00     0.053 C 
BRANCH  21  22
ATOM     22  C   UNL     1      22.492  16.096   4.902  1.00  0.00     0.041 C 
ATOM     23  O   UNL     1      21.578  16.378   4.084  1.00  0.00    -0.550 OA
ATOM     24  O   UNL     1      22.361  14.984   5.724  1.00  0.00    -0.550 OA
ENDBRANCH  21  22
ENDBRANCH  20  21
ENDBRANCH  19  20
ENDBRANCH  18  19
ENDBRANCH  17  18
ENDBRANCH  16  17
ENDBRANCH  15  16
ENDBRANCH  14  15
ENDBRANCH  13  14
ENDBRANCH   1  13
TORSDOF 20
ENDMDL
MODEL 8
REMARK VINA RESULT:    -2.055      1.568      3.790
REMARK INTER + INTRA:          -8.357
REMARK INTER:                  -5.291
REMARK INTRA:                  -3.067
REMARK UNBOUND:                -3.899
REMARK SMILES CCCCCCCCCCCCCCCCCCCCCC(=O)[O-]
REMARK SMILES IDX 12 1 11 2 10 3 9 4 8 5 7 6 6 7 5 8 4 9 3 10 2 11 1 12 13 13
REMARK SMILES IDX 14 14 15 15 16 16 17 17 18 18 19 19 20 20 21 21 22 22 23 23
REMARK SMILES IDX 24 24
REMARK H PARENT
REMARK Flexibility Score: inf
ROOT
ATOM      1  C   UNL     1      21.388  21.079   8.164  1.00  0.00     0.000 C 
ENDROOT
BRANCH   1   2
ATOM      2  C   UNL     1      21.808  20.630   6.750  1.00  0.00     0.000 C 
BRANCH   2   3
ATOM      3  C   UNL     1      21.374  21.569   5.607  1.00  0.00     0.000 C 
BRANCH   3   4
ATOM      4  C   UNL     1      20.189  21.062   4.767  1.00  0.00    -0.000 C 
BRANCH   4   5
ATOM      5  C   UNL     1      18.987  22.022   4.791  1.00  0.00    -0.000 C 
BRANCH   5   6
ATOM      6  C   UNL     1      18.749  22.632   6.180  1.00  0.00    -0.000 C 
BRANCH   6   7
ATOM      7  C   UNL     1      17.252  22.787   6.507  1.00  0.00    -0.000 C 
BRANCH   7   8
ATOM      8  C   UNL     1      16.875  24.227   6.889  1.00  0.00    -0.000 C 
BRANCH   8   9
ATOM      9  C   UNL     1      17.924  24.895   7.788  1.00  0.00    -0.000 C 
BRANCH   9  10
ATOM     10  C   UNL     1      17.254  25.635   8.957  1.00  0.00    -0.000 C 
BRANCH  10  11
ATOM     11  C   UNL     1      17.602  27.131   8.984  1.00  0.00    -0.003 C 
ATOM     12  C   UNL     1      19.102  27.387   9.128  1.00  0.00     0.004 C 
ENDBRANCH  10  11
ENDBRANCH   9  10
ENDBRANCH   8   9
ENDBRANCH   7   8
ENDBRANCH   6   7
ENDBRANCH   5   6
ENDBRANCH   4   5
ENDBRANCH   3   4
ENDBRANCH   2   3
ENDBRANCH   1   2
BRANCH   1  13
ATOM     13  C   UNL     1      22.109  22.334   8.686  1.00  0.00     0.000 C 
BRANCH  13  14
ATOM     14  C   UNL     1      21.329  23.051   9.798  1.00  0.00     0.000 C 
BRANCH  14  15
ATOM     15  C   UNL     1      19.816  22.958   9.551  1.00  0.00     0.000 C 
BRANCH  15  16
ATOM     16  C   UNL     1      19.054  22.350  10.738  1.00  0.00     0.000 C 
BRANCH  16  17
ATOM     17  C   UNL     1      17.613  21.952  10.381  1.00  0.00     0.000 C 
BRANCH  17  18
ATOM     18  C   UNL     1      17.507  20.440  10.133  1.00  0.00     0.000 C 
BRANCH  18  19
ATOM     19  C   UNL     1      16.981  20.107   8.728  1.00  0.00     0.000 C 
BRANCH  19  20
ATOM     20  C   UNL     1      18.037  19.413   7.850  1.00  0.00     0.006 C 
BRANCH  20  21
ATOM     21  C   UNL     1      17.401  18.566   6.739  1.00  0.00     0.053 C 
BRANCH  21  22
ATOM     22  C   UNL     1      18.058  17.225   6.616  1.00  0.00     0.041 C 
ATOM     23  O   UNL     1      19.266  17.078   6.938  1.00  0.00    -0.550 OA
ATOM     24  O   UNL     1      17.327  16.131   6.169  1.00  0.00    -0.550 OA
ENDBRANCH  21  22
ENDBRANCH  20  21
ENDBRANCH  19  20
ENDBRANCH  18  19
ENDBRANCH  17  18
ENDBRANCH  16  17
ENDBRANCH  15  16
ENDBRANCH  14  15
ENDBRANCH  13  14
ENDBRANCH   1  13
TORSDOF 20
ENDMDL
