MODEL 1
REMARK VINA RESULT:     0.016      0.000      0.000
REMARK INTER + INTRA:          -0.003
REMARK INTER:                   0.017
REMARK INTRA:                  -0.020
REMARK UNBOUND:                -0.020
REMARK SMILES C[C@@H]1[C@H](C)CC[C@@]2(C(=O)[O-])CC[C@@]3(C)C(=CC[C@H]4[C@]5(C)CC[C@@H](O)C(C)(C)[C@@H]5CC[C@@]43C)[C@@H]12
REMARK SMILES IDX 7 1 6 2 11 3 33 4 5 5 12 6 15 7 2 8 3 9 13 10 16 11 1 12
REMARK SMILES IDX 4 13 14 14 31 15 17 16 18 17 30 18 32 19 19 20 29 21 28 22
REMARK SMILES IDX 21 23 20 24 25 25 22 26 23 27 26 28 27 29 8 30 9 31 10 32
REMARK SMILES IDX 24 33
REMARK H PARENT 24 34
REMARK Flexibility Score: inf
ROOT
ATOM      1  C   UNL     1      62.195  -8.780   6.467  1.00  0.00     0.017 C 
ATOM      2  C   UNL     1      61.552  -9.115   7.860  1.00  0.00     0.014 C 
ATOM      3  C   UNL     1      62.369 -10.125   5.694  1.00  0.00     0.014 C 
ATOM      4  C   UNL     1      61.278  -7.789   5.656  1.00  0.00     0.030 C 
ATOM      5  C   UNL     1      60.704  -7.963   8.404  1.00  0.00     0.004 C 
ATOM      6  C   UNL     1      62.856  -9.960   4.242  1.00  0.00     0.013 C 
ATOM      7  C   UNL     1      61.592  -7.782   4.136  1.00  0.00    -0.063 C 
ATOM      8  C   UNL     1      59.754  -7.940   6.000  1.00  0.00    -0.003 C 
ATOM      9  C   UNL     1      59.459  -7.759   7.535  1.00  0.00    -0.011 C 
ATOM     10  C   UNL     1      61.938  -9.082   3.339  1.00  0.00    -0.006 C 
ATOM     11  C   UNL     1      61.485  -6.585   3.496  1.00  0.00    -0.027 C 
ATOM     12  C   UNL     1      58.840  -7.088   5.084  1.00  0.00     0.008 C 
ATOM     13  C   UNL     1      58.758  -6.453   7.927  1.00  0.00     0.008 C 
ATOM     14  C   UNL     1      60.609  -9.888   3.109  1.00  0.00     0.017 C 
ATOM     15  C   UNL     1      62.661  -8.753   1.925  1.00  0.00    -0.020 C 
ATOM     16  C   UNL     1      61.812  -6.335   2.057  1.00  0.00     0.032 C 
ATOM     17  C   UNL     1      61.851  -7.615   1.192  1.00  0.00     0.006 C 
ATOM     18  C   UNL     1      62.766 -10.033   1.029  1.00  0.00     0.008 C 
ATOM     19  C   UNL     1      64.124  -8.233   2.134  1.00  0.00     0.012 C 
ATOM     20  C   UNL     1      62.129  -7.348  -0.372  1.00  0.00    -0.025 C 
ATOM     21  C   UNL     1      62.194  -9.899  -0.385  1.00  0.00     0.005 C 
ATOM     22  C   UNL     1      62.734  -8.624  -1.101  1.00  0.00     0.003 C 
ATOM     23  C   UNL     1      60.753  -6.983  -1.017  1.00  0.00     0.010 C 
ATOM     24  C   UNL     1      63.077  -6.123  -0.550  1.00  0.00     0.012 C 
ATOM     25  C   UNL     1      62.614  -8.666  -2.701  1.00  0.00    -0.006 C 
ATOM     26  C   UNL     1      60.781  -6.853  -2.536  1.00  0.00     0.033 C 
ATOM     27  C   UNL     1      61.201  -8.192  -3.170  1.00  0.00     0.120 C 
ATOM     28  C   UNL     1      63.729  -7.804  -3.380  1.00  0.00     0.014 C 
ATOM     29  C   UNL     1      62.828 -10.113  -3.249  1.00  0.00     0.014 C 
ENDROOT
BRANCH   1  30
ATOM     30  C   UNL     1      63.541  -8.105   6.752  1.00  0.00     0.048 C 
ATOM     31  O   UNL     1      64.121  -7.360   5.915  1.00  0.00    -0.550 OA
ATOM     32  O   UNL     1      64.119  -8.226   8.002  1.00  0.00    -0.550 OA
ENDBRANCH   1  30
BRANCH  27  33
ATOM     33  O   UNL     1      61.149  -8.070  -4.571  1.00  0.00    -0.393 OA
ATOM     34  H   UNL     1      60.243  -8.371  -4.858  1.00  0.00     0.210 HD
ENDBRANCH  27  33
TORSDOF 2
ENDMDL
MODEL 2
REMARK VINA RESULT:     1.667     15.051     16.418
REMARK INTER + INTRA:           1.793
REMARK INTER:                   2.049
REMARK INTRA:                  -0.256
REMARK UNBOUND:                -0.020
REMARK SMILES C[C@@H]1[C@H](C)CC[C@@]2(C(=O)[O-])CC[C@@]3(C)C(=CC[C@H]4[C@]5(C)CC[C@@H](O)C(C)(C)[C@@H]5CC[C@@]43C)[C@@H]12
REMARK SMILES IDX 7 1 6 2 11 3 33 4 5 5 12 6 15 7 2 8 3 9 13 10 16 11 1 12
REMARK SMILES IDX 4 13 14 14 31 15 17 16 18 17 30 18 32 19 19 20 29 21 28 22
REMARK SMILES IDX 21 23 20 24 25 25 22 26 23 27 26 28 27 29 8 30 9 31 10 32
REMARK SMILES IDX 24 33
REMARK H PARENT 24 34
REMARK Flexibility Score: inf
ROOT
ATOM      1  C   UNL     1      61.765   7.929   8.250  1.00  0.00     0.017 C 
ATOM      2  C   UNL     1      61.702   7.149   9.612  1.00  0.00     0.014 C 
ATOM      3  C   UNL     1      63.140   7.604   7.586  1.00  0.00     0.014 C 
ATOM      4  C   UNL     1      60.579   7.497   7.308  1.00  0.00     0.030 C 
ATOM      5  C   UNL     1      60.270   6.788  10.013  1.00  0.00     0.004 C 
ATOM      6  C   UNL     1      63.306   8.175   6.165  1.00  0.00     0.013 C 
ATOM      7  C   UNL     1      60.831   7.852   5.818  1.00  0.00    -0.063 C 
ATOM      8  C   UNL     1      60.108   6.020   7.549  1.00  0.00    -0.003 C 
ATOM      9  C   UNL     1      59.689   5.754   9.043  1.00  0.00    -0.011 C 
ATOM     10  C   UNL     1      62.232   7.703   5.140  1.00  0.00    -0.006 C 
ATOM     11  C   UNL     1      59.747   8.240   5.091  1.00  0.00    -0.027 C 
ATOM     12  C   UNL     1      59.061   5.541   6.513  1.00  0.00     0.008 C 
ATOM     13  C   UNL     1      58.184   5.594   9.292  1.00  0.00     0.008 C 
ATOM     14  C   UNL     1      62.491   6.178   4.870  1.00  0.00     0.017 C 
ATOM     15  C   UNL     1      62.334   8.555   3.763  1.00  0.00    -0.020 C 
ATOM     16  C   UNL     1      59.773   8.696   3.666  1.00  0.00     0.032 C 
ATOM     17  C   UNL     1      61.045   8.275   2.896  1.00  0.00     0.006 C 
ATOM     18  C   UNL     1      63.633   8.196   2.968  1.00  0.00     0.008 C 
ATOM     19  C   UNL     1      62.391  10.096   4.042  1.00  0.00     0.012 C 
ATOM     20  C   UNL     1      61.048   8.699   1.342  1.00  0.00    -0.025 C 
ATOM     21  C   UNL     1      63.422   7.779   1.510  1.00  0.00     0.005 C 
ATOM     22  C   UNL     1      62.519   8.796   0.749  1.00  0.00     0.003 C 
ATOM     23  C   UNL     1      60.249   7.597   0.575  1.00  0.00     0.010 C 
ATOM     24  C   UNL     1      60.297  10.052   1.150  1.00  0.00     0.012 C 
ATOM     25  C   UNL     1      62.659   8.735  -0.849  1.00  0.00    -0.006 C 
ATOM     26  C   UNL     1      60.279   7.734  -0.944  1.00  0.00     0.033 C 
ATOM     27  C   UNL     1      61.729   7.633  -1.451  1.00  0.00     0.120 C 
ATOM     28  C   UNL     1      62.350  10.123  -1.503  1.00  0.00     0.014 C 
ATOM     29  C   UNL     1      64.123   8.398  -1.279  1.00  0.00     0.014 C 
ENDROOT
BRANCH   1  30
ATOM     30  C   UNL     1      61.629   9.418   8.586  1.00  0.00     0.048 C 
ATOM     31  O   UNL     1      60.536  10.041   8.490  1.00  0.00    -0.550 OA
ATOM     32  O   UNL     1      62.709  10.107   9.105  1.00  0.00    -0.550 OA
ENDBRANCH   1  30
BRANCH  27  33
ATOM     33  O   UNL     1      61.725   7.689  -2.857  1.00  0.00    -0.393 OA
ATOM     34  H   UNL     1      62.388   8.384  -3.125  1.00  0.00     0.210 HD
ENDBRANCH  27  33
TORSDOF 2
ENDMDL
MODEL 3
REMARK VINA RESULT:     2.496     15.014     17.283
REMARK INTER + INTRA:           2.695
REMARK INTER:                   2.791
REMARK INTRA:                  -0.096
REMARK UNBOUND:                -0.020
REMARK SMILES C[C@@H]1[C@H](C)CC[C@@]2(C(=O)[O-])CC[C@@]3(C)C(=CC[C@H]4[C@]5(C)CC[C@@H](O)C(C)(C)[C@@H]5CC[C@@]43C)[C@@H]12
REMARK SMILES IDX 7 1 6 2 11 3 33 4 5 5 12 6 15 7 2 8 3 9 13 10 16 11 1 12
REMARK SMILES IDX 4 13 14 14 31 15 17 16 18 17 30 18 32 19 19 20 29 21 28 22
REMARK SMILES IDX 21 23 20 24 25 25 22 26 23 27 26 28 27 29 8 30 9 31 10 32
REMARK SMILES IDX 24 33
REMARK H PARENT 24 34
REMARK Flexibility Score: inf
ROOT
ATOM      1  C   UNL     1      61.834   8.819   1.568  1.00  0.00     0.017 C 
ATOM      2  C   UNL     1      62.398   8.837   3.033  1.00  0.00     0.014 C 
ATOM      3  C   UNL     1      62.409  10.068   0.829  1.00  0.00     0.014 C 
ATOM      4  C   UNL     1      62.256   7.495   0.827  1.00  0.00     0.030 C 
ATOM      5  C   UNL     1      62.529   7.432   3.626  1.00  0.00     0.004 C 
ATOM      6  C   UNL     1      62.070  10.125  -0.673  1.00  0.00     0.013 C 
ATOM      7  C   UNL     1      62.150   7.606  -0.718  1.00  0.00    -0.063 C 
ATOM      8  C   UNL     1      63.618   6.909   1.340  1.00  0.00    -0.003 C 
ATOM      9  C   UNL     1      63.616   6.642   2.891  1.00  0.00    -0.011 C 
ATOM     10  C   UNL     1      62.556   8.897  -1.500  1.00  0.00    -0.006 C 
ATOM     11  C   UNL     1      61.747   6.490  -1.384  1.00  0.00    -0.027 C 
ATOM     12  C   UNL     1      64.115   5.706   0.500  1.00  0.00     0.008 C 
ATOM     13  C   UNL     1      63.563   5.168   3.311  1.00  0.00     0.008 C 
ATOM     14  C   UNL     1      64.124   8.969  -1.555  1.00  0.00     0.017 C 
ATOM     15  C   UNL     1      61.928   8.923  -2.996  1.00  0.00    -0.020 C 
ATOM     16  C   UNL     1      61.505   6.396  -2.859  1.00  0.00     0.032 C 
ATOM     17  C   UNL     1      62.177   7.521  -3.676  1.00  0.00     0.006 C 
ATOM     18  C   UNL     1      62.546  10.079  -3.852  1.00  0.00     0.008 C 
ATOM     19  C   UNL     1      60.380   9.166  -2.967  1.00  0.00     0.012 C 
ATOM     20  C   UNL     1      61.984   7.386  -5.270  1.00  0.00    -0.025 C 
ATOM     21  C   UNL     1      63.140   9.659  -5.199  1.00  0.00     0.005 C 
ATOM     22  C   UNL     1      62.145   8.780  -6.015  1.00  0.00     0.003 C 
ATOM     23  C   UNL     1      63.085   6.397  -5.773  1.00  0.00     0.010 C 
ATOM     24  C   UNL     1      60.595   6.756  -5.593  1.00  0.00     0.012 C 
ATOM     25  C   UNL     1      62.450   8.727  -7.589  1.00  0.00    -0.006 C 
ATOM     26  C   UNL     1      63.170   6.264  -7.290  1.00  0.00     0.033 C 
ATOM     27  C   UNL     1      63.511   7.628  -7.918  1.00  0.00     0.120 C 
ATOM     28  C   UNL     1      61.144   8.485  -8.417  1.00  0.00     0.014 C 
ATOM     29  C   UNL     1      63.013  10.090  -8.106  1.00  0.00     0.014 C 
ENDROOT
BRANCH   1  30
ATOM     30  C   UNL     1      60.307   8.873   1.680  1.00  0.00     0.048 C 
ATOM     31  O   UNL     1      59.543   8.268   0.878  1.00  0.00    -0.550 OA
ATOM     32  O   UNL     1      59.719   9.525   2.747  1.00  0.00    -0.550 OA
ENDBRANCH   1  30
BRANCH  27  33
ATOM     33  O   UNL     1      63.657   7.467  -9.308  1.00  0.00    -0.393 OA
ATOM     34  H   UNL     1      63.367   6.539  -9.528  1.00  0.00     0.210 HD
ENDBRANCH  27  33
TORSDOF 2
ENDMDL
