MODEL 1
REMARK VINA RESULT:    -4.147      0.000      0.000
REMARK INTER + INTRA:          -5.648
REMARK INTER:                  -5.360
REMARK INTRA:                  -0.288
REMARK UNBOUND:                -0.288
REMARK SMILES CCCCCCC(=O)[O-]
REMARK SMILES IDX 5 1 6 2 7 3 8 4 9 5 4 6 3 7 2 8 1 9
REMARK H PARENT
REMARK Flexibility Score: inf
ROOT
ATOM      1  C   UNL     1       6.721   8.505  10.191  1.00  0.00     0.006 C 
ENDROOT
BRANCH   1   2
ATOM      2  C   UNL     1       5.937   7.258   9.754  1.00  0.00     0.053 C 
BRANCH   2   3
ATOM      3  C   UNL     1       4.466   7.410   9.989  1.00  0.00     0.041 C 
ATOM      4  O   UNL     1       3.800   8.239   9.314  1.00  0.00    -0.550 OA
ATOM      5  O   UNL     1       3.836   6.661  10.976  1.00  0.00    -0.550 OA
ENDBRANCH   2   3
ENDBRANCH   1   2
BRANCH   1   6
ATOM      6  C   UNL     1       7.873   8.223  11.176  1.00  0.00     0.000 C 
BRANCH   6   7
ATOM      7  C   UNL     1       7.921   6.784  11.732  1.00  0.00    -0.000 C 
BRANCH   7   8
ATOM      8  C   UNL     1       9.199   5.999  11.389  1.00  0.00    -0.003 C 
ATOM      9  C   UNL     1       9.290   5.627   9.910  1.00  0.00     0.004 C 
ENDBRANCH   7   8
ENDBRANCH   6   7
ENDBRANCH   1   6
TORSDOF 5
ENDMDL
MODEL 2
REMARK VINA RESULT:    -4.119      1.164      1.660
REMARK INTER + INTRA:          -5.611
REMARK INTER:                  -5.342
REMARK INTRA:                  -0.269
REMARK UNBOUND:                -0.288
REMARK SMILES CCCCCCC(=O)[O-]
REMARK SMILES IDX 5 1 6 2 7 3 8 4 9 5 4 6 3 7 2 8 1 9
REMARK H PARENT
REMARK Flexibility Score: inf
ROOT
ATOM      1  C   UNL     1       5.647   7.156  11.616  1.00  0.00     0.006 C 
ENDROOT
BRANCH   1   2
ATOM      2  C   UNL     1       5.736   7.139  10.082  1.00  0.00     0.053 C 
BRANCH   2   3
ATOM      3  C   UNL     1       5.012   8.296   9.467  1.00  0.00     0.041 C 
ATOM      4  O   UNL     1       3.777   8.218   9.231  1.00  0.00    -0.550 OA
ATOM      5  O   UNL     1       5.706   9.450   9.123  1.00  0.00    -0.550 OA
ENDBRANCH   2   3
ENDBRANCH   1   2
BRANCH   1   6
ATOM      6  C   UNL     1       7.008   7.260  12.333  1.00  0.00     0.000 C 
BRANCH   6   7
ATOM      7  C   UNL     1       8.235   7.339  11.401  1.00  0.00    -0.000 C 
BRANCH   7   8
ATOM      8  C   UNL     1       9.061   6.045  11.305  1.00  0.00    -0.003 C 
ATOM      9  C   UNL     1       9.389   5.653   9.865  1.00  0.00     0.004 C 
ENDBRANCH   7   8
ENDBRANCH   6   7
ENDBRANCH   1   6
TORSDOF 5
ENDMDL
MODEL 3
REMARK VINA RESULT:    -4.030      2.674      3.184
REMARK INTER + INTRA:          -5.496
REMARK INTER:                  -5.208
REMARK INTRA:                  -0.288
REMARK UNBOUND:                -0.288
REMARK SMILES CCCCCCC(=O)[O-]
REMARK SMILES IDX 5 1 6 2 7 3 8 4 9 5 4 6 3 7 2 8 1 9
REMARK H PARENT
REMARK Flexibility Score: inf
ROOT
ATOM      1  C   UNL     1       5.766   7.902  11.819  1.00  0.00     0.006 C 
ENDROOT
BRANCH   1   2
ATOM      2  C   UNL     1       5.246   6.762  12.709  1.00  0.00     0.053 C 
BRANCH   2   3
ATOM      3  C   UNL     1       6.199   6.439  13.817  1.00  0.00     0.041 C 
ATOM      4  O   UNL     1       7.135   7.232  14.100  1.00  0.00    -0.550 OA
ATOM      5  O   UNL     1       6.073   5.245  14.518  1.00  0.00    -0.550 OA
ENDBRANCH   2   3
ENDBRANCH   1   2
BRANCH   1   6
ATOM      6  C   UNL     1       6.583   7.436  10.597  1.00  0.00     0.000 C 
BRANCH   6   7
ATOM      7  C   UNL     1       8.110   7.616  10.722  1.00  0.00    -0.000 C 
BRANCH   7   8
ATOM      8  C   UNL     1       8.882   6.347  11.125  1.00  0.00    -0.003 C 
ATOM      9  C   UNL     1       9.424   5.573   9.924  1.00  0.00     0.004 C 
ENDBRANCH   7   8
ENDBRANCH   6   7
ENDBRANCH   1   6
TORSDOF 5
ENDMDL
MODEL 4
REMARK VINA RESULT:    -4.020      3.114      4.023
REMARK INTER + INTRA:          -5.483
REMARK INTER:                  -5.311
REMARK INTRA:                  -0.172
REMARK UNBOUND:                -0.288
REMARK SMILES CCCCCCC(=O)[O-]
REMARK SMILES IDX 5 1 6 2 7 3 8 4 9 5 4 6 3 7 2 8 1 9
REMARK H PARENT
REMARK Flexibility Score: inf
ROOT
ATOM      1  C   UNL     1       7.307   6.908  13.639  1.00  0.00     0.006 C 
ENDROOT
BRANCH   1   2
ATOM      2  C   UNL     1       6.109   6.070  14.113  1.00  0.00     0.053 C 
BRANCH   2   3
ATOM      3  C   UNL     1       5.430   6.685  15.298  1.00  0.00     0.041 C 
ATOM      4  O   UNL     1       5.176   5.987  16.315  1.00  0.00    -0.550 OA
ATOM      5  O   UNL     1       5.048   8.021  15.267  1.00  0.00    -0.550 OA
ENDBRANCH   2   3
ENDBRANCH   1   2
BRANCH   1   6
ATOM      6  C   UNL     1       7.131   7.540  12.244  1.00  0.00     0.000 C 
BRANCH   6   7
ATOM      7  C   UNL     1       8.378   7.484  11.337  1.00  0.00    -0.000 C 
BRANCH   7   8
ATOM      8  C   UNL     1       9.077   6.114  11.280  1.00  0.00    -0.003 C 
ATOM      9  C   UNL     1       9.442   5.690   9.858  1.00  0.00     0.004 C 
ENDBRANCH   7   8
ENDBRANCH   6   7
ENDBRANCH   1   6
TORSDOF 5
ENDMDL
MODEL 5
REMARK VINA RESULT:    -3.975      1.884      2.708
REMARK INTER + INTRA:          -5.426
REMARK INTER:                  -5.186
REMARK INTRA:                  -0.240
REMARK UNBOUND:                -0.288
REMARK SMILES CCCCCCC(=O)[O-]
REMARK SMILES IDX 5 1 6 2 7 3 8 4 9 5 4 6 3 7 2 8 1 9
REMARK H PARENT
REMARK Flexibility Score: inf
ROOT
ATOM      1  C   UNL     1       7.516   6.876  10.372  1.00  0.00     0.006 C 
ENDROOT
BRANCH   1   2
ATOM      2  C   UNL     1       5.994   7.060  10.471  1.00  0.00     0.053 C 
BRANCH   2   3
ATOM      3  C   UNL     1       5.510   8.190   9.616  1.00  0.00     0.041 C 
ATOM      4  O   UNL     1       6.215   9.224   9.474  1.00  0.00    -0.550 OA
ATOM      5  O   UNL     1       4.266   8.115   9.002  1.00  0.00    -0.550 OA
ENDBRANCH   2   3
ENDBRANCH   1   2
BRANCH   1   6
ATOM      6  C   UNL     1       8.235   6.760  11.732  1.00  0.00     0.000 C 
BRANCH   6   7
ATOM      7  C   UNL     1       7.384   7.153  12.958  1.00  0.00    -0.000 C 
BRANCH   7   8
ATOM      8  C   UNL     1       7.433   6.155  14.128  1.00  0.00    -0.003 C 
ATOM      9  C   UNL     1       6.049   5.671  14.557  1.00  0.00     0.004 C 
ENDBRANCH   7   8
ENDBRANCH   6   7
ENDBRANCH   1   6
TORSDOF 5
ENDMDL
MODEL 6
REMARK VINA RESULT:    -3.956      1.252      2.056
REMARK INTER + INTRA:          -5.401
REMARK INTER:                  -5.071
REMARK INTRA:                  -0.330
REMARK UNBOUND:                -0.288
REMARK SMILES CCCCCCC(=O)[O-]
REMARK SMILES IDX 5 1 6 2 7 3 8 4 9 5 4 6 3 7 2 8 1 9
REMARK H PARENT
REMARK Flexibility Score: inf
ROOT
ATOM      1  C   UNL     1       7.083   8.325  10.344  1.00  0.00     0.006 C 
ENDROOT
BRANCH   1   2
ATOM      2  C   UNL     1       6.253   7.090   9.962  1.00  0.00     0.053 C 
BRANCH   2   3
ATOM      3  C   UNL     1       4.792   7.404   9.871  1.00  0.00     0.041 C 
ATOM      4  O   UNL     1       4.383   8.296   9.082  1.00  0.00    -0.550 OA
ATOM      5  O   UNL     1       3.884   6.733  10.682  1.00  0.00    -0.550 OA
ENDBRANCH   2   3
ENDBRANCH   1   2
BRANCH   1   6
ATOM      6  C   UNL     1       8.014   8.119  11.556  1.00  0.00     0.000 C 
BRANCH   6   7
ATOM      7  C   UNL     1       7.881   6.751  12.258  1.00  0.00    -0.000 C 
BRANCH   7   8
ATOM      8  C   UNL     1       7.268   6.803  13.668  1.00  0.00    -0.003 C 
ATOM      9  C   UNL     1       5.805   6.362  13.698  1.00  0.00     0.004 C 
ENDBRANCH   7   8
ENDBRANCH   6   7
ENDBRANCH   1   6
TORSDOF 5
ENDMDL
MODEL 7
REMARK VINA RESULT:    -3.933      3.023      3.896
REMARK INTER + INTRA:          -5.371
REMARK INTER:                  -5.090
REMARK INTRA:                  -0.281
REMARK UNBOUND:                -0.288
REMARK SMILES CCCCCCC(=O)[O-]
REMARK SMILES IDX 5 1 6 2 7 3 8 4 9 5 4 6 3 7 2 8 1 9
REMARK H PARENT
REMARK Flexibility Score: inf
ROOT
ATOM      1  C   UNL     1       5.912   7.495  12.397  1.00  0.00     0.006 C 
ENDROOT
BRANCH   1   2
ATOM      2  C   UNL     1       5.519   6.414  13.416  1.00  0.00     0.053 C 
BRANCH   2   3
ATOM      3  C   UNL     1       6.567   6.232  14.470  1.00  0.00     0.041 C 
ATOM      4  O   UNL     1       6.280   6.401  15.685  1.00  0.00    -0.550 OA
ATOM      5  O   UNL     1       7.869   5.907  14.109  1.00  0.00    -0.550 OA
ENDBRANCH   2   3
ENDBRANCH   1   2
BRANCH   1   6
ATOM      6  C   UNL     1       5.599   7.132  10.931  1.00  0.00     0.000 C 
BRANCH   6   7
ATOM      7  C   UNL     1       6.827   6.774  10.068  1.00  0.00    -0.000 C 
BRANCH   7   8
ATOM      8  C   UNL     1       8.186   6.962  10.765  1.00  0.00    -0.003 C 
ATOM      9  C   UNL     1       9.174   5.838  10.459  1.00  0.00     0.004 C 
ENDBRANCH   7   8
ENDBRANCH   6   7
ENDBRANCH   1   6
TORSDOF 5
ENDMDL
MODEL 8
REMARK VINA RESULT:    -3.906      3.062      3.855
REMARK INTER + INTRA:          -5.335
REMARK INTER:                  -4.940
REMARK INTRA:                  -0.395
REMARK UNBOUND:                -0.288
REMARK SMILES CCCCCCC(=O)[O-]
REMARK SMILES IDX 5 1 6 2 7 3 8 4 9 5 4 6 3 7 2 8 1 9
REMARK H PARENT
REMARK Flexibility Score: inf
ROOT
ATOM      1  C   UNL     1       5.595   7.559  10.717  1.00  0.00     0.006 C 
ENDROOT
BRANCH   1   2
ATOM      2  C   UNL     1       6.825   6.846  10.133  1.00  0.00     0.053 C 
BRANCH   2   3
ATOM      3  C   UNL     1       8.072   7.162  10.899  1.00  0.00     0.041 C 
ATOM      4  O   UNL     1       8.189   8.267  11.492  1.00  0.00    -0.550 OA
ATOM      5  O   UNL     1       9.119   6.249  10.933  1.00  0.00    -0.550 OA
ENDBRANCH   2   3
ENDBRANCH   1   2
BRANCH   1   6
ATOM      6  C   UNL     1       4.844   6.755  11.796  1.00  0.00     0.000 C 
BRANCH   6   7
ATOM      7  C   UNL     1       5.218   7.104  13.252  1.00  0.00    -0.000 C 
BRANCH   7   8
ATOM      8  C   UNL     1       5.937   5.984  14.024  1.00  0.00    -0.003 C 
ATOM      9  C   UNL     1       7.341   6.380  14.479  1.00  0.00     0.004 C 
ENDBRANCH   7   8
ENDBRANCH   6   7
ENDBRANCH   1   6
TORSDOF 5
ENDMDL
MODEL 9
REMARK VINA RESULT:    -3.828      2.791      3.245
REMARK INTER + INTRA:          -5.235
REMARK INTER:                  -5.056
REMARK INTRA:                  -0.180
REMARK UNBOUND:                -0.288
REMARK SMILES CCCCCCC(=O)[O-]
REMARK SMILES IDX 5 1 6 2 7 3 8 4 9 5 4 6 3 7 2 8 1 9
REMARK H PARENT
REMARK Flexibility Score: inf
ROOT
ATOM      1  C   UNL     1       4.874   6.613  12.049  1.00  0.00     0.006 C 
ENDROOT
BRANCH   1   2
ATOM      2  C   UNL     1       3.983   7.054  10.878  1.00  0.00     0.053 C 
BRANCH   2   3
ATOM      3  C   UNL     1       4.784   7.621   9.747  1.00  0.00     0.041 C 
ATOM      4  O   UNL     1       4.227   8.331   8.869  1.00  0.00    -0.550 OA
ATOM      5  O   UNL     1       6.141   7.340   9.645  1.00  0.00    -0.550 OA
ENDBRANCH   2   3
ENDBRANCH   1   2
BRANCH   1   6
ATOM      6  C   UNL     1       4.894   7.593  13.240  1.00  0.00     0.000 C 
BRANCH   6   7
ATOM      7  C   UNL     1       5.318   6.976  14.589  1.00  0.00    -0.000 C 
BRANCH   7   8
ATOM      8  C   UNL     1       6.172   5.701  14.479  1.00  0.00    -0.003 C 
ATOM      9  C   UNL     1       7.673   5.986  14.492  1.00  0.00     0.004 C 
ENDBRANCH   7   8
ENDBRANCH   6   7
ENDBRANCH   1   6
TORSDOF 5
ENDMDL
