MODEL 1
REMARK VINA RESULT:    -5.465      0.000      0.000
REMARK INTER + INTRA:          -5.465
REMARK INTER:                  -5.465
REMARK INTRA:                   0.000
REMARK UNBOUND:                 0.000
REMARK SMILES CC(C)=C1CC[C@H](C)CC1=O
REMARK SMILES IDX 8 1 7 2 6 3 5 4 4 5 2 6 1 7 3 8 10 9 11 10 9 11
REMARK H PARENT
REMARK Flexibility Score: inf
ROOT
ATOM      1  C   UNL     1     -31.124  14.587 -31.582  1.00  0.00     0.008 C 
ATOM      2  C   UNL     1     -30.102  14.258 -30.488  1.00  0.00    -0.006 C 
ATOM      3  C   UNL     1     -30.357  12.853 -29.916  1.00  0.00     0.008 C 
ATOM      4  C   UNL     1     -29.409  12.547 -28.749  1.00  0.00     0.039 C 
ATOM      5  C   UNL     1     -27.947  12.775 -29.110  1.00  0.00    -0.006 C 
ATOM      6  C   UNL     1     -26.953  12.022 -28.553  1.00  0.00    -0.070 C 
ATOM      7  C   UNL     1     -27.261  10.942 -27.542  1.00  0.00     0.039 C 
ATOM      8  C   UNL     1     -25.504  12.202 -28.945  1.00  0.00     0.039 C 
ATOM      9  C   UNL     1     -27.667  13.936 -30.007  1.00  0.00     0.159 C 
ATOM     10  O   UNL     1     -26.595  14.592 -29.913  1.00  0.00    -0.295 OA
ATOM     11  C   UNL     1     -28.673  14.347 -31.042  1.00  0.00     0.084 C 
ENDROOT
TORSDOF 0
ENDMDL
MODEL 2
REMARK VINA RESULT:    -5.063      1.579      4.670
REMARK INTER + INTRA:          -5.063
REMARK INTER:                  -5.063
REMARK INTRA:                   0.000
REMARK UNBOUND:                 0.000
REMARK SMILES CC(C)=C1CC[C@H](C)CC1=O
REMARK SMILES IDX 8 1 7 2 6 3 5 4 4 5 2 6 1 7 3 8 10 9 11 10 9 11
REMARK H PARENT
REMARK Flexibility Score: inf
ROOT
ATOM      1  C   UNL     1     -25.120  10.876 -27.880  1.00  0.00     0.008 C 
ATOM      2  C   UNL     1     -26.156  11.950 -28.228  1.00  0.00    -0.006 C 
ATOM      3  C   UNL     1     -25.814  12.615 -29.572  1.00  0.00     0.008 C 
ATOM      4  C   UNL     1     -26.782  13.763 -29.888  1.00  0.00     0.039 C 
ATOM      5  C   UNL     1     -28.241  13.336 -29.802  1.00  0.00    -0.006 C 
ATOM      6  C   UNL     1     -29.194  13.901 -30.600  1.00  0.00    -0.070 C 
ATOM      7  C   UNL     1     -28.843  14.987 -31.592  1.00  0.00     0.039 C 
ATOM      8  C   UNL     1     -30.635  13.447 -30.563  1.00  0.00     0.039 C 
ATOM      9  C   UNL     1     -28.576  12.361 -28.721  1.00  0.00     0.159 C 
ATOM     10  O   UNL     1     -29.700  12.376 -28.151  1.00  0.00    -0.295 OA
ATOM     11  C   UNL     1     -27.564  11.340 -28.289  1.00  0.00     0.084 C 
ENDROOT
TORSDOF 0
ENDMDL
MODEL 3
REMARK VINA RESULT:    -5.054      1.487      2.397
REMARK INTER + INTRA:          -5.054
REMARK INTER:                  -5.054
REMARK INTRA:                   0.000
REMARK UNBOUND:                 0.000
REMARK SMILES CC(C)=C1CC[C@H](C)CC1=O
REMARK SMILES IDX 8 1 7 2 6 3 5 4 4 5 2 6 1 7 3 8 10 9 11 10 9 11
REMARK H PARENT
REMARK Flexibility Score: inf
ROOT
ATOM      1  C   UNL     1     -31.125  14.929 -31.215  1.00  0.00     0.008 C 
ATOM      2  C   UNL     1     -29.962  13.953 -30.998  1.00  0.00    -0.006 C 
ATOM      3  C   UNL     1     -28.626  14.712 -30.931  1.00  0.00     0.008 C 
ATOM      4  C   UNL     1     -27.442  13.744 -30.818  1.00  0.00     0.039 C 
ATOM      5  C   UNL     1     -27.607  12.749 -29.676  1.00  0.00    -0.006 C 
ATOM      6  C   UNL     1     -26.528  12.267 -28.993  1.00  0.00    -0.070 C 
ATOM      7  C   UNL     1     -25.121  12.687 -29.352  1.00  0.00     0.039 C 
ATOM      8  C   UNL     1     -26.683  11.324 -27.822  1.00  0.00     0.039 C 
ATOM      9  C   UNL     1     -28.996  12.253 -29.436  1.00  0.00     0.159 C 
ATOM     10  O   UNL     1     -29.209  11.086 -29.009  1.00  0.00    -0.295 OA
ATOM     11  C   UNL     1     -30.172  13.145 -29.710  1.00  0.00     0.084 C 
ENDROOT
TORSDOF 0
ENDMDL
MODEL 4
REMARK VINA RESULT:    -4.994      1.877      3.003
REMARK INTER + INTRA:          -4.994
REMARK INTER:                  -4.994
REMARK INTRA:                   0.000
REMARK UNBOUND:                 0.000
REMARK SMILES CC(C)=C1CC[C@H](C)CC1=O
REMARK SMILES IDX 8 1 7 2 6 3 5 4 4 5 2 6 1 7 3 8 10 9 11 10 9 11
REMARK H PARENT
REMARK Flexibility Score: inf
ROOT
ATOM      1  C   UNL     1     -30.844  16.534 -32.852  1.00  0.00     0.008 C 
ATOM      2  C   UNL     1     -30.193  15.274 -32.270  1.00  0.00    -0.006 C 
ATOM      3  C   UNL     1     -28.817  15.606 -31.668  1.00  0.00     0.008 C 
ATOM      4  C   UNL     1     -28.107  14.340 -31.172  1.00  0.00     0.039 C 
ATOM      5  C   UNL     1     -28.973  13.515 -30.230  1.00  0.00    -0.006 C 
ATOM      6  C   UNL     1     -28.422  12.780 -29.219  1.00  0.00    -0.070 C 
ATOM      7  C   UNL     1     -26.927  12.742 -29.005  1.00  0.00     0.039 C 
ATOM      8  C   UNL     1     -29.275  12.003 -28.244  1.00  0.00     0.039 C 
ATOM      9  C   UNL     1     -30.431  13.468 -30.553  1.00  0.00     0.159 C 
ATOM     10  O   UNL     1     -31.125  12.447 -30.299  1.00  0.00    -0.295 OA
ATOM     11  C   UNL     1     -31.097  14.649 -31.198  1.00  0.00     0.084 C 
ENDROOT
TORSDOF 0
ENDMDL
MODEL 5
REMARK VINA RESULT:    -4.833      2.759      4.145
REMARK INTER + INTRA:          -4.833
REMARK INTER:                  -4.833
REMARK INTRA:                   0.000
REMARK UNBOUND:                 0.000
REMARK SMILES CC(C)=C1CC[C@H](C)CC1=O
REMARK SMILES IDX 8 1 7 2 6 3 5 4 4 5 2 6 1 7 3 8 10 9 11 10 9 11
REMARK H PARENT
REMARK Flexibility Score: inf
ROOT
ATOM      1  C   UNL     1     -28.662  12.517 -29.886  1.00  0.00     0.008 C 
ATOM      2  C   UNL     1     -27.450  13.416 -29.614  1.00  0.00    -0.006 C 
ATOM      3  C   UNL     1     -26.142  12.651 -29.875  1.00  0.00     0.008 C 
ATOM      4  C   UNL     1     -24.918  13.502 -29.510  1.00  0.00     0.039 C 
ATOM      5  C   UNL     1     -24.938  14.870 -30.176  1.00  0.00    -0.006 C 
ATOM      6  C   UNL     1     -23.782  15.504 -30.533  1.00  0.00    -0.070 C 
ATOM      7  C   UNL     1     -22.432  14.879 -30.265  1.00  0.00     0.039 C 
ATOM      8  C   UNL     1     -23.791  16.836 -31.246  1.00  0.00     0.039 C 
ATOM      9  C   UNL     1     -26.279  15.518 -30.304  1.00  0.00     0.159 C 
ATOM     10  O   UNL     1     -26.408  16.770 -30.252  1.00  0.00    -0.295 OA
ATOM     11  C   UNL     1     -27.507  14.675 -30.492  1.00  0.00     0.084 C 
ENDROOT
TORSDOF 0
ENDMDL
MODEL 6
REMARK VINA RESULT:    -4.749      1.164      4.165
REMARK INTER + INTRA:          -4.749
REMARK INTER:                  -4.749
REMARK INTRA:                   0.000
REMARK UNBOUND:                 0.000
REMARK SMILES CC(C)=C1CC[C@H](C)CC1=O
REMARK SMILES IDX 8 1 7 2 6 3 5 4 4 5 2 6 1 7 3 8 10 9 11 10 9 11
REMARK H PARENT
REMARK Flexibility Score: inf
ROOT
ATOM      1  C   UNL     1     -25.086  10.931 -27.435  1.00  0.00     0.008 C 
ATOM      2  C   UNL     1     -26.118  11.245 -28.524  1.00  0.00    -0.006 C 
ATOM      3  C   UNL     1     -27.545  11.157 -27.958  1.00  0.00     0.008 C 
ATOM      4  C   UNL     1     -28.594  11.368 -29.057  1.00  0.00     0.039 C 
ATOM      5  C   UNL     1     -28.358  12.645 -29.852  1.00  0.00    -0.006 C 
ATOM      6  C   UNL     1     -29.399  13.354 -30.382  1.00  0.00    -0.070 C 
ATOM      7  C   UNL     1     -30.827  12.890 -30.216  1.00  0.00     0.039 C 
ATOM      8  C   UNL     1     -29.181  14.652 -31.125  1.00  0.00     0.039 C 
ATOM      9  C   UNL     1     -26.931  13.002 -30.112  1.00  0.00     0.159 C 
ATOM     10  O   UNL     1     -26.587  13.599 -31.167  1.00  0.00    -0.295 OA
ATOM     11  C   UNL     1     -25.872  12.643 -29.111  1.00  0.00     0.084 C 
ENDROOT
TORSDOF 0
ENDMDL
MODEL 7
REMARK VINA RESULT:    -4.727     12.002     14.787
REMARK INTER + INTRA:          -4.727
REMARK INTER:                  -4.727
REMARK INTRA:                   0.000
REMARK UNBOUND:                 0.000
REMARK SMILES CC(C)=C1CC[C@H](C)CC1=O
REMARK SMILES IDX 8 1 7 2 6 3 5 4 4 5 2 6 1 7 3 8 10 9 11 10 9 11
REMARK H PARENT
REMARK Flexibility Score: inf
ROOT
ATOM      1  C   UNL     1     -10.879  15.584 -30.925  1.00  0.00     0.008 C 
ATOM      2  C   UNL     1     -11.981  14.546 -31.166  1.00  0.00    -0.006 C 
ATOM      3  C   UNL     1     -12.420  13.905 -29.838  1.00  0.00     0.008 C 
ATOM      4  C   UNL     1     -13.448  12.791 -30.071  1.00  0.00     0.039 C 
ATOM      5  C   UNL     1     -14.628  13.253 -30.915  1.00  0.00    -0.006 C 
ATOM      6  C   UNL     1     -15.878  12.732 -30.733  1.00  0.00    -0.070 C 
ATOM      7  C   UNL     1     -16.138  11.663 -29.698  1.00  0.00     0.039 C 
ATOM      8  C   UNL     1     -17.067  13.223 -31.527  1.00  0.00     0.039 C 
ATOM      9  C   UNL     1     -14.311  14.210 -32.018  1.00  0.00     0.159 C 
ATOM     10  O   UNL     1     -14.967  14.209 -33.094  1.00  0.00    -0.295 OA
ATOM     11  C   UNL     1     -13.188  15.193 -31.860  1.00  0.00     0.084 C 
ENDROOT
TORSDOF 0
ENDMDL
MODEL 8
REMARK VINA RESULT:    -4.676     10.850     13.318
REMARK INTER + INTRA:          -4.676
REMARK INTER:                  -4.676
REMARK INTRA:                   0.000
REMARK UNBOUND:                 0.000
REMARK SMILES CC(C)=C1CC[C@H](C)CC1=O
REMARK SMILES IDX 8 1 7 2 6 3 5 4 4 5 2 6 1 7 3 8 10 9 11 10 9 11
REMARK H PARENT
REMARK Flexibility Score: inf
ROOT
ATOM      1  C   UNL     1     -18.031  11.288 -29.532  1.00  0.00     0.008 C 
ATOM      2  C   UNL     1     -17.130  12.526 -29.597  1.00  0.00    -0.006 C 
ATOM      3  C   UNL     1     -15.793  12.260 -28.885  1.00  0.00     0.008 C 
ATOM      4  C   UNL     1     -14.920  13.521 -28.849  1.00  0.00     0.039 C 
ATOM      5  C   UNL     1     -14.735  14.141 -30.227  1.00  0.00    -0.006 C 
ATOM      6  C   UNL     1     -13.586  14.801 -30.560  1.00  0.00    -0.070 C 
ATOM      7  C   UNL     1     -12.457  14.958 -29.568  1.00  0.00     0.039 C 
ATOM      8  C   UNL     1     -13.368  15.372 -31.942  1.00  0.00     0.039 C 
ATOM      9  C   UNL     1     -15.919  14.085 -31.136  1.00  0.00     0.159 C 
ATOM     10  O   UNL     1     -16.143  14.998 -31.977  1.00  0.00    -0.295 OA
ATOM     11  C   UNL     1     -16.875  12.931 -31.056  1.00  0.00     0.084 C 
ENDROOT
TORSDOF 0
ENDMDL
MODEL 9
REMARK VINA RESULT:    -4.491     12.976     15.644
REMARK INTER + INTRA:          -4.491
REMARK INTER:                  -4.491
REMARK INTRA:                   0.000
REMARK UNBOUND:                 0.000
REMARK SMILES CC(C)=C1CC[C@H](C)CC1=O
REMARK SMILES IDX 8 1 7 2 6 3 5 4 4 5 2 6 1 7 3 8 10 9 11 10 9 11
REMARK H PARENT
REMARK Flexibility Score: inf
ROOT
ATOM      1  C   UNL     1     -10.875  16.129 -33.124  1.00  0.00     0.008 C 
ATOM      2  C   UNL     1     -11.628  15.133 -32.235  1.00  0.00    -0.006 C 
ATOM      3  C   UNL     1     -11.208  15.297 -30.765  1.00  0.00     0.008 C 
ATOM      4  C   UNL     1     -11.874  14.240 -29.875  1.00  0.00     0.039 C 
ATOM      5  C   UNL     1     -13.386  14.198 -30.050  1.00  0.00    -0.006 C 
ATOM      6  C   UNL     1     -14.212  13.866 -29.014  1.00  0.00    -0.070 C 
ATOM      7  C   UNL     1     -13.658  13.509 -27.654  1.00  0.00     0.039 C 
ATOM      8  C   UNL     1     -15.716  13.875 -29.160  1.00  0.00     0.039 C 
ATOM      9  C   UNL     1     -13.892  14.423 -31.437  1.00  0.00     0.159 C 
ATOM     10  O   UNL     1     -14.941  13.860 -31.851  1.00  0.00    -0.295 OA
ATOM     11  C   UNL     1     -13.144  15.329 -32.373  1.00  0.00     0.084 C 
ENDROOT
TORSDOF 0
ENDMDL
