MODEL 1
REMARK VINA RESULT:    -1.675      0.000      0.000
REMARK INTER + INTRA:          -2.549
REMARK INTER:                  -2.164
REMARK INTRA:                  -0.384
REMARK UNBOUND:                -0.384
REMARK SMILES CCCCCCC(=O)[O-]
REMARK SMILES IDX 5 1 6 2 7 3 8 4 9 5 4 6 3 7 2 8 1 9
REMARK H PARENT
REMARK Flexibility Score: inf
ROOT
ATOM      1  C   UNL     1       6.393  13.965  26.900  1.00  0.00     0.006 C 
ENDROOT
BRANCH   1   2
ATOM      2  C   UNL     1       6.010  14.390  25.477  1.00  0.00     0.053 C 
BRANCH   2   3
ATOM      3  C   UNL     1       6.658  13.520  24.444  1.00  0.00     0.041 C 
ATOM      4  O   UNL     1       7.913  13.449  24.371  1.00  0.00    -0.550 OA
ATOM      5  O   UNL     1       5.875  12.763  23.581  1.00  0.00    -0.550 OA
ENDBRANCH   2   3
ENDBRANCH   1   2
BRANCH   1   6
ATOM      6  C   UNL     1       6.037  12.498  27.184  1.00  0.00     0.000 C 
BRANCH   6   7
ATOM      7  C   UNL     1       7.275  11.713  27.645  1.00  0.00    -0.000 C 
BRANCH   7   8
ATOM      8  C   UNL     1       7.284  10.267  27.124  1.00  0.00    -0.003 C 
ATOM      9  C   UNL     1       6.347  10.062  25.934  1.00  0.00     0.004 C 
ENDBRANCH   7   8
ENDBRANCH   6   7
ENDBRANCH   1   6
TORSDOF 5
ENDMDL
MODEL 2
REMARK VINA RESULT:    -1.653     24.804     26.314
REMARK INTER + INTRA:          -2.520
REMARK INTER:                  -2.066
REMARK INTRA:                  -0.454
REMARK UNBOUND:                -0.384
REMARK SMILES CCCCCCC(=O)[O-]
REMARK SMILES IDX 5 1 6 2 7 3 8 4 9 5 4 6 3 7 2 8 1 9
REMARK H PARENT
REMARK Flexibility Score: inf
ROOT
ATOM      1  C   UNL     1      23.920  29.000  12.094  1.00  0.00     0.006 C 
ENDROOT
BRANCH   1   2
ATOM      2  C   UNL     1      25.227  29.000  12.896  1.00  0.00     0.053 C 
BRANCH   2   3
ATOM      3  C   UNL     1      25.002  28.610  14.325  1.00  0.00     0.041 C 
ATOM      4  O   UNL     1      24.153  29.223  15.024  1.00  0.00    -0.550 OA
ATOM      5  O   UNL     1      25.707  27.546  14.876  1.00  0.00    -0.550 OA
ENDBRANCH   2   3
ENDBRANCH   1   2
BRANCH   1   6
ATOM      6  C   UNL     1      23.371  27.583  11.875  1.00  0.00     0.000 C 
BRANCH   6   7
ATOM      7  C   UNL     1      22.031  27.395  12.602  1.00  0.00    -0.000 C 
BRANCH   7   8
ATOM      8  C   UNL     1      22.079  26.267  13.644  1.00  0.00    -0.003 C 
ATOM      9  C   UNL     1      23.270  25.330  13.448  1.00  0.00     0.004 C 
ENDBRANCH   7   8
ENDBRANCH   6   7
ENDBRANCH   1   6
TORSDOF 5
ENDMDL
MODEL 3
REMARK VINA RESULT:    -1.628      1.238      3.378
REMARK INTER + INTRA:          -2.488
REMARK INTER:                  -2.155
REMARK INTRA:                  -0.333
REMARK UNBOUND:                -0.384
REMARK SMILES CCCCCCC(=O)[O-]
REMARK SMILES IDX 5 1 6 2 7 3 8 4 9 5 4 6 3 7 2 8 1 9
REMARK H PARENT
REMARK Flexibility Score: inf
ROOT
ATOM      1  C   UNL     1       7.160  11.072  27.446  1.00  0.00     0.006 C 
ENDROOT
BRANCH   1   2
ATOM      2  C   UNL     1       6.909  10.053  26.328  1.00  0.00     0.053 C 
BRANCH   2   3
ATOM      3  C   UNL     1       6.993  10.685  24.972  1.00  0.00     0.041 C 
ATOM      4  O   UNL     1       5.997  10.672  24.202  1.00  0.00    -0.550 OA
ATOM      5  O   UNL     1       8.164  11.318  24.571  1.00  0.00    -0.550 OA
ENDBRANCH   2   3
ENDBRANCH   1   2
BRANCH   1   6
ATOM      6  C   UNL     1       6.212  12.277  27.359  1.00  0.00     0.000 C 
BRANCH   6   7
ATOM      7  C   UNL     1       6.999  13.580  27.156  1.00  0.00    -0.000 C 
BRANCH   7   8
ATOM      8  C   UNL     1       6.172  14.665  26.448  1.00  0.00    -0.003 C 
ATOM      9  C   UNL     1       6.022  14.410  24.949  1.00  0.00     0.004 C 
ENDBRANCH   7   8
ENDBRANCH   6   7
ENDBRANCH   1   6
TORSDOF 5
ENDMDL
MODEL 4
REMARK VINA RESULT:    -1.598     24.641     25.952
REMARK INTER + INTRA:          -2.449
REMARK INTER:                  -2.024
REMARK INTRA:                  -0.425
REMARK UNBOUND:                -0.384
REMARK SMILES CCCCCCC(=O)[O-]
REMARK SMILES IDX 5 1 6 2 7 3 8 4 9 5 4 6 3 7 2 8 1 9
REMARK H PARENT
REMARK Flexibility Score: inf
ROOT
ATOM      1  C   UNL     1      24.371  28.126  15.922  1.00  0.00     0.006 C 
ENDROOT
BRANCH   1   2
ATOM      2  C   UNL     1      24.262  29.299  14.939  1.00  0.00     0.053 C 
BRANCH   2   3
ATOM      3  C   UNL     1      24.290  28.833  13.515  1.00  0.00     0.041 C 
ATOM      4  O   UNL     1      23.283  28.269  13.012  1.00  0.00    -0.550 OA
ATOM      5  O   UNL     1      25.418  29.051  12.734  1.00  0.00    -0.550 OA
ENDBRANCH   2   3
ENDBRANCH   1   2
BRANCH   1   6
ATOM      6  C   UNL     1      25.726  27.409  15.824  1.00  0.00     0.000 C 
BRANCH   6   7
ATOM      7  C   UNL     1      25.533  25.899  15.619  1.00  0.00    -0.000 C 
BRANCH   7   8
ATOM      8  C   UNL     1      24.059  25.516  15.417  1.00  0.00    -0.003 C 
ATOM      9  C   UNL     1      23.783  24.936  14.030  1.00  0.00     0.004 C 
ENDBRANCH   7   8
ENDBRANCH   6   7
ENDBRANCH   1   6
TORSDOF 5
ENDMDL
MODEL 5
REMARK VINA RESULT:    -1.597     25.576     26.565
REMARK INTER + INTRA:          -2.449
REMARK INTER:                  -2.081
REMARK INTRA:                  -0.367
REMARK UNBOUND:                -0.384
REMARK SMILES CCCCCCC(=O)[O-]
REMARK SMILES IDX 5 1 6 2 7 3 8 4 9 5 4 6 3 7 2 8 1 9
REMARK H PARENT
REMARK Flexibility Score: inf
ROOT
ATOM      1  C   UNL     1      23.207  27.361  13.802  1.00  0.00     0.006 C 
ENDROOT
BRANCH   1   2
ATOM      2  C   UNL     1      23.824  27.747  12.452  1.00  0.00     0.053 C 
BRANCH   2   3
ATOM      3  C   UNL     1      24.796  28.879  12.589  1.00  0.00     0.041 C 
ATOM      4  O   UNL     1      25.901  28.700  13.165  1.00  0.00    -0.550 OA
ATOM      5  O   UNL     1      24.494  30.124  12.053  1.00  0.00    -0.550 OA
ENDBRANCH   2   3
ENDBRANCH   1   2
BRANCH   1   6
ATOM      6  C   UNL     1      22.130  28.358  14.255  1.00  0.00     0.000 C 
BRANCH   6   7
ATOM      7  C   UNL     1      22.325  28.742  15.729  1.00  0.00    -0.000 C 
BRANCH   7   8
ATOM      8  C   UNL     1      23.803  28.733  16.150  1.00  0.00    -0.003 C 
ATOM      9  C   UNL     1      24.318  30.119  16.536  1.00  0.00     0.004 C 
ENDBRANCH   7   8
ENDBRANCH   6   7
ENDBRANCH   1   6
TORSDOF 5
ENDMDL
MODEL 6
REMARK VINA RESULT:    -1.596     25.666     26.470
REMARK INTER + INTRA:          -2.447
REMARK INTER:                  -2.065
REMARK INTRA:                  -0.382
REMARK UNBOUND:                -0.384
REMARK SMILES CCCCCCC(=O)[O-]
REMARK SMILES IDX 5 1 6 2 7 3 8 4 9 5 4 6 3 7 2 8 1 9
REMARK H PARENT
REMARK Flexibility Score: inf
ROOT
ATOM      1  C   UNL     1      24.043  27.183  15.203  1.00  0.00     0.006 C 
ENDROOT
BRANCH   1   2
ATOM      2  C   UNL     1      23.910  27.496  13.706  1.00  0.00     0.053 C 
BRANCH   2   3
ATOM      3  C   UNL     1      24.435  28.860  13.376  1.00  0.00     0.041 C 
ATOM      4  O   UNL     1      23.845  29.887  13.803  1.00  0.00    -0.550 OA
ATOM      5  O   UNL     1      25.594  28.995  12.623  1.00  0.00    -0.550 OA
ENDBRANCH   2   3
ENDBRANCH   1   2
BRANCH   1   6
ATOM      6  C   UNL     1      25.509  27.145  15.661  1.00  0.00     0.000 C 
BRANCH   6   7
ATOM      7  C   UNL     1      25.675  27.840  17.020  1.00  0.00    -0.000 C 
BRANCH   7   8
ATOM      8  C   UNL     1      24.417  28.612  17.446  1.00  0.00    -0.003 C 
ATOM      9  C   UNL     1      24.631  30.125  17.475  1.00  0.00     0.004 C 
ENDBRANCH   7   8
ENDBRANCH   6   7
ENDBRANCH   1   6
TORSDOF 5
ENDMDL
MODEL 7
REMARK VINA RESULT:    -1.560      1.936      3.011
REMARK INTER + INTRA:          -2.400
REMARK INTER:                  -1.984
REMARK INTRA:                  -0.416
REMARK UNBOUND:                -0.384
REMARK SMILES CCCCCCC(=O)[O-]
REMARK SMILES IDX 5 1 6 2 7 3 8 4 9 5 4 6 3 7 2 8 1 9
REMARK H PARENT
REMARK Flexibility Score: inf
ROOT
ATOM      1  C   UNL     1       6.317  10.400  25.741  1.00  0.00     0.006 C 
ENDROOT
BRANCH   1   2
ATOM      2  C   UNL     1       6.831  10.497  24.299  1.00  0.00     0.053 C 
BRANCH   2   3
ATOM      3  C   UNL     1       8.286  10.850  24.251  1.00  0.00     0.041 C 
ATOM      4  O   UNL     1       8.656  11.953  23.769  1.00  0.00    -0.550 OA
ATOM      5  O   UNL     1       9.232   9.974  24.769  1.00  0.00    -0.550 OA
ENDBRANCH   2   3
ENDBRANCH   1   2
BRANCH   1   6
ATOM      6  C   UNL     1       5.877  11.763  26.295  1.00  0.00     0.000 C 
BRANCH   6   7
ATOM      7  C   UNL     1       6.676  12.126  27.555  1.00  0.00    -0.000 C 
BRANCH   7   8
ATOM      8  C   UNL     1       7.623  11.000  27.998  1.00  0.00    -0.003 C 
ATOM      9  C   UNL     1       9.092  11.423  27.986  1.00  0.00     0.004 C 
ENDBRANCH   7   8
ENDBRANCH   6   7
ENDBRANCH   1   6
TORSDOF 5
ENDMDL
MODEL 8
REMARK VINA RESULT:    -0.039     25.175     25.994
REMARK INTER + INTRA:          -0.435
REMARK INTER:                  -0.014
REMARK INTRA:                  -0.421
REMARK UNBOUND:                -0.384
REMARK SMILES CCCCCCC(=O)[O-]
REMARK SMILES IDX 5 1 6 2 7 3 8 4 9 5 4 6 3 7 2 8 1 9
REMARK H PARENT
REMARK Flexibility Score: inf
ROOT
ATOM      1  C   UNL     1      22.333  28.757  13.994  1.00  0.00     0.006 C 
ENDROOT
BRANCH   1   2
ATOM      2  C   UNL     1      23.714  29.361  14.283  1.00  0.00     0.053 C 
BRANCH   2   3
ATOM      3  C   UNL     1      24.639  29.214  13.114  1.00  0.00     0.041 C 
ATOM      4  O   UNL     1      25.730  28.598  13.241  1.00  0.00    -0.550 OA
ATOM      5  O   UNL     1      24.282  29.731  11.875  1.00  0.00    -0.550 OA
ENDBRANCH   2   3
ENDBRANCH   1   2
BRANCH   1   6
ATOM      6  C   UNL     1      22.198  27.328  14.539  1.00  0.00     0.000 C 
BRANCH   6   7
ATOM      7  C   UNL     1      22.252  26.300  13.399  1.00  0.00    -0.000 C 
BRANCH   7   8
ATOM      8  C   UNL     1      23.501  25.407  13.469  1.00  0.00    -0.003 C 
ATOM      9  C   UNL     1      24.276  25.576  14.775  1.00  0.00     0.004 C 
ENDBRANCH   7   8
ENDBRANCH   6   7
ENDBRANCH   1   6
TORSDOF 5
ENDMDL
