MODEL 1
REMARK VINA RESULT:     0.410      0.000      0.000
REMARK INTER + INTRA:           0.545
REMARK INTER:                   0.494
REMARK INTRA:                   0.051
REMARK UNBOUND:                 0.051
REMARK SMILES O=c1c(O)c(-c2ccc(O)c(O)c2)oc2cc(O)cc(O)c12
REMARK SMILES IDX 5 1 3 2 2 3 1 4 22 5 20 6 19 7 17 8 16 9 15 10 14 11 6 12
REMARK SMILES IDX 7 13 8 14 9 15 13 16 11 17 10 18 12 20 4 22 21 24 18 26
REMARK H PARENT 10 19 12 21 4 23 21 25 18 27
REMARK Flexibility Score: inf
ROOT
ATOM      1  C   UNL     1     -37.442 -35.487 -34.065  1.00  0.00     0.180 A 
ATOM      2  C   UNL     1     -36.042 -35.412 -34.168  1.00  0.00     0.208 A 
ATOM      3  C   UNL     1     -35.445 -35.549 -35.432  1.00  0.00     0.238 A 
ATOM      4  O   UNL     1     -34.196 -35.427 -35.526  1.00  0.00    -0.285 OA
ATOM      5  C   UNL     1     -36.253 -35.775 -36.572  1.00  0.00     0.111 A 
ATOM      6  C   UNL     1     -35.752 -35.970 -37.894  1.00  0.00     0.134 A 
ATOM      7  C   UNL     1     -36.648 -36.056 -38.967  1.00  0.00     0.093 A 
ATOM      8  C   UNL     1     -38.027 -36.019 -38.758  1.00  0.00     0.123 A 
ATOM      9  C   UNL     1     -38.529 -35.890 -37.462  1.00  0.00     0.094 A 
ATOM     10  C   UNL     1     -37.659 -35.766 -36.376  1.00  0.00     0.146 A 
ATOM     11  O   UNL     1     -38.177 -35.634 -35.161  1.00  0.00    -0.452 OA
ENDROOT
BRANCH   1  12
ATOM     12  C   UNL     1     -38.143 -35.377 -32.764  1.00  0.00     0.025 A 
ATOM     13  C   UNL     1     -37.685 -36.125 -31.667  1.00  0.00     0.016 A 
ATOM     14  C   UNL     1     -38.316 -36.021 -30.426  1.00  0.00     0.051 A 
ATOM     15  C   UNL     1     -39.406 -35.154 -30.258  1.00  0.00     0.157 A 
ATOM     16  C   UNL     1     -39.222 -34.494 -32.586  1.00  0.00     0.062 A 
ATOM     17  C   UNL     1     -39.856 -34.384 -31.342  1.00  0.00     0.158 A 
BRANCH  15  18
ATOM     18  O   UNL     1     -40.036 -35.053 -29.019  1.00  0.00    -0.504 OA
ATOM     19  H   UNL     1     -40.986 -35.378 -28.879  1.00  0.00     0.293 HD
ENDBRANCH  15  18
BRANCH  17  20
ATOM     20  O   UNL     1     -40.927 -33.502 -31.204  1.00  0.00    -0.504 OA
ATOM     21  H   UNL     1     -41.067 -32.953 -30.365  1.00  0.00     0.293 HD
ENDBRANCH  17  20
ENDBRANCH   1  12
BRANCH   2  22
ATOM     22  O   UNL     1     -35.266 -35.166 -33.033  1.00  0.00    -0.502 OA
ATOM     23  H   UNL     1     -34.509 -35.777 -32.749  1.00  0.00     0.293 HD
ENDBRANCH   2  22
BRANCH   6  24
ATOM     24  O   UNL     1     -34.395 -36.111 -38.202  1.00  0.00    -0.507 OA
ATOM     25  H   UNL     1     -33.738 -36.655 -37.665  1.00  0.00     0.293 HD
ENDBRANCH   6  24
BRANCH   8  26
ATOM     26  O   UNL     1     -38.889 -36.123 -39.847  1.00  0.00    -0.508 OA
ATOM     27  H   UNL     1     -39.892 -36.024 -39.740  1.00  0.00     0.293 HD
ENDBRANCH   8  26
TORSDOF 6
ENDMDL
