MODEL 1
REMARK VINA RESULT:    -3.185      0.000      0.000
REMARK INTER + INTRA:          -5.422
REMARK INTER:                  -4.674
REMARK INTRA:                  -0.748
REMARK UNBOUND:                -0.748
REMARK SMILES O=C([O-])CCCCCCCC(=O)[O-]
REMARK SMILES IDX 7 1 6 2 5 3 4 4 2 5 1 6 3 7 8 8 9 9 10 10 11 11 12 12 13 13
REMARK H PARENT
REMARK Flexibility Score: inf
ROOT
ATOM      1  C   UNL     1     -98.653 -44.797 -12.132  1.00  0.00     0.000 C 
ENDROOT
BRANCH   1   2
ATOM      2  C   UNL     1     -97.675 -45.975 -12.007  1.00  0.00     0.000 C 
BRANCH   2   3
ATOM      3  C   UNL     1     -96.204 -45.531 -12.055  1.00  0.00     0.006 C 
BRANCH   3   4
ATOM      4  C   UNL     1     -95.269 -46.500 -11.321  1.00  0.00     0.053 C 
BRANCH   4   5
ATOM      5  C   UNL     1     -94.165 -46.947 -12.227  1.00  0.00     0.041 C 
ATOM      6  O   UNL     1     -93.456 -46.098 -12.828  1.00  0.00    -0.550 OA
ATOM      7  O   UNL     1     -93.951 -48.302 -12.446  1.00  0.00    -0.550 OA
ENDBRANCH   4   5
ENDBRANCH   3   4
ENDBRANCH   2   3
ENDBRANCH   1   2
BRANCH   1   8
ATOM      8  C   UNL     1     -97.951 -43.467 -11.834  1.00  0.00     0.000 C 
BRANCH   8   9
ATOM      9  C   UNL     1     -98.381 -42.911 -10.467  1.00  0.00     0.006 C 
BRANCH   9  10
ATOM     10  C   UNL     1     -97.235 -42.926  -9.448  1.00  0.00     0.053 C 
BRANCH  10  11
ATOM     11  C   UNL     1     -97.165 -44.230  -8.712  1.00  0.00     0.041 C 
ATOM     12  O   UNL     1     -96.051 -44.702  -8.363  1.00  0.00    -0.550 OA
ATOM     13  O   UNL     1     -98.332 -44.907  -8.386  1.00  0.00    -0.550 OA
ENDBRANCH  10  11
ENDBRANCH   9  10
ENDBRANCH   8   9
ENDBRANCH   1   8
TORSDOF 8
ENDMDL
MODEL 2
REMARK VINA RESULT:    -3.048      1.165      4.179
REMARK INTER + INTRA:          -5.222
REMARK INTER:                  -4.379
REMARK INTRA:                  -0.843
REMARK UNBOUND:                -0.748
REMARK SMILES O=C([O-])CCCCCCCC(=O)[O-]
REMARK SMILES IDX 7 1 6 2 5 3 4 4 2 5 1 6 3 7 8 8 9 9 10 10 11 11 12 12 13 13
REMARK H PARENT
REMARK Flexibility Score: inf
ROOT
ATOM      1  C   UNL     1     -97.340 -43.791 -11.817  1.00  0.00     0.000 C 
ENDROOT
BRANCH   1   2
ATOM      2  C   UNL     1     -97.827 -43.093 -10.538  1.00  0.00     0.000 C 
BRANCH   2   3
ATOM      3  C   UNL     1     -96.810 -43.186  -9.389  1.00  0.00     0.006 C 
BRANCH   3   4
ATOM      4  C   UNL     1     -97.105 -44.346  -8.430  1.00  0.00     0.053 C 
BRANCH   4   5
ATOM      5  C   UNL     1     -96.066 -45.415  -8.568  1.00  0.00     0.041 C 
ATOM      6  O   UNL     1     -94.892 -45.116  -8.912  1.00  0.00    -0.550 OA
ATOM      7  O   UNL     1     -96.407 -46.746  -8.364  1.00  0.00    -0.550 OA
ENDBRANCH   4   5
ENDBRANCH   3   4
ENDBRANCH   2   3
ENDBRANCH   1   2
BRANCH   1   8
ATOM      8  C   UNL     1     -98.122 -45.085 -12.068  1.00  0.00     0.000 C 
BRANCH   8   9
ATOM      9  C   UNL     1     -97.197 -46.311 -11.997  1.00  0.00     0.006 C 
BRANCH   9  10
ATOM     10  C   UNL     1     -95.719 -45.933 -12.160  1.00  0.00     0.053 C 
BRANCH  10  11
ATOM     11  C   UNL     1     -94.825 -47.130 -12.045  1.00  0.00     0.041 C 
ATOM     12  O   UNL     1     -93.788 -47.080 -11.333  1.00  0.00    -0.550 OA
ATOM     13  O   UNL     1     -95.155 -48.309 -12.699  1.00  0.00    -0.550 OA
ENDBRANCH  10  11
ENDBRANCH   9  10
ENDBRANCH   8   9
ENDBRANCH   1   8
TORSDOF 8
ENDMDL
MODEL 3
REMARK VINA RESULT:    -2.970      3.171      5.260
REMARK INTER + INTRA:          -5.108
REMARK INTER:                  -4.558
REMARK INTRA:                  -0.550
REMARK UNBOUND:                -0.748
REMARK SMILES O=C([O-])CCCCCCCC(=O)[O-]
REMARK SMILES IDX 7 1 6 2 5 3 4 4 2 5 1 6 3 7 8 8 9 9 10 10 11 11 12 12 13 13
REMARK H PARENT
REMARK Flexibility Score: inf
ROOT
ATOM      1  C   UNL     1     -99.365 -44.810 -12.389  1.00  0.00     0.000 C 
ENDROOT
BRANCH   1   2
ATOM      2  C   UNL     1     -98.731 -43.458 -12.028  1.00  0.00     0.000 C 
BRANCH   2   3
ATOM      3  C   UNL     1     -97.272 -43.595 -11.563  1.00  0.00     0.006 C 
BRANCH   3   4
ATOM      4  C   UNL     1     -97.072 -43.161 -10.106  1.00  0.00     0.053 C 
BRANCH   4   5
ATOM      5  C   UNL     1     -96.774 -44.348  -9.244  1.00  0.00     0.041 C 
ATOM      6  O   UNL     1     -95.586 -44.615  -8.923  1.00  0.00    -0.550 OA
ATOM      7  O   UNL     1     -97.803 -45.187  -8.836  1.00  0.00    -0.550 OA
ENDBRANCH   4   5
ENDBRANCH   3   4
ENDBRANCH   2   3
ENDBRANCH   1   2
BRANCH   1   8
ATOM      8  C   UNL     1     -98.335 -45.942 -12.297  1.00  0.00     0.000 C 
BRANCH   8   9
ATOM      9  C   UNL     1     -99.013 -47.278 -11.955  1.00  0.00     0.006 C 
BRANCH   9  10
ATOM     10  C   UNL     1     -99.063 -48.228 -13.159  1.00  0.00     0.053 C 
BRANCH  10  11
ATOM     11  C   UNL     1    -100.466 -48.440 -13.640  1.00  0.00     0.041 C 
ATOM     12  O   UNL     1    -100.944 -49.603 -13.710  1.00  0.00    -0.550 OA
ATOM     13  O   UNL     1    -101.256 -47.350 -13.981  1.00  0.00    -0.550 OA
ENDBRANCH  10  11
ENDBRANCH   9  10
ENDBRANCH   8   9
ENDBRANCH   1   8
TORSDOF 8
ENDMDL
MODEL 4
REMARK VINA RESULT:    -2.925      0.973      4.994
REMARK INTER + INTRA:          -5.041
REMARK INTER:                  -4.437
REMARK INTRA:                  -0.604
REMARK UNBOUND:                -0.748
REMARK SMILES O=C([O-])CCCCCCCC(=O)[O-]
REMARK SMILES IDX 7 1 6 2 5 3 4 4 2 5 1 6 3 7 8 8 9 9 10 10 11 11 12 12 13 13
REMARK H PARENT
REMARK Flexibility Score: inf
ROOT
ATOM      1  C   UNL     1     -98.222 -45.419 -11.981  1.00  0.00     0.000 C 
ENDROOT
BRANCH   1   2
ATOM      2  C   UNL     1     -97.628 -44.002 -11.997  1.00  0.00     0.000 C 
BRANCH   2   3
ATOM      3  C   UNL     1     -98.159 -43.125 -10.853  1.00  0.00     0.006 C 
BRANCH   3   4
ATOM      4  C   UNL     1     -97.125 -42.914  -9.739  1.00  0.00     0.053 C 
BRANCH   4   5
ATOM      5  C   UNL     1     -97.358 -43.881  -8.622  1.00  0.00     0.041 C 
ATOM      6  O   UNL     1     -96.451 -44.684  -8.279  1.00  0.00    -0.550 OA
ATOM      7  O   UNL     1     -98.594 -43.930  -7.990  1.00  0.00    -0.550 OA
ENDBRANCH   4   5
ENDBRANCH   3   4
ENDBRANCH   2   3
ENDBRANCH   1   2
BRANCH   1   8
ATOM      8  C   UNL     1     -97.115 -46.479 -12.014  1.00  0.00     0.000 C 
BRANCH   8   9
ATOM      9  C   UNL     1     -95.776 -45.893 -11.539  1.00  0.00     0.006 C 
BRANCH   9  10
ATOM     10  C   UNL     1     -94.602 -46.344 -12.417  1.00  0.00     0.053 C 
BRANCH  10  11
ATOM     11  C   UNL     1     -94.105 -47.701 -12.023  1.00  0.00     0.041 C 
ATOM     12  O   UNL     1     -94.476 -48.722 -12.660  1.00  0.00    -0.550 OA
ATOM     13  O   UNL     1     -93.208 -47.835 -10.972  1.00  0.00    -0.550 OA
ENDBRANCH  10  11
ENDBRANCH   9  10
ENDBRANCH   8   9
ENDBRANCH   1   8
TORSDOF 8
ENDMDL
MODEL 5
REMARK VINA RESULT:    -2.874      3.539      5.104
REMARK INTER + INTRA:          -4.966
REMARK INTER:                  -4.596
REMARK INTRA:                  -0.370
REMARK UNBOUND:                -0.748
REMARK SMILES O=C([O-])CCCCCCCC(=O)[O-]
REMARK SMILES IDX 7 1 6 2 5 3 4 4 2 5 1 6 3 7 8 8 9 9 10 10 11 11 12 12 13 13
REMARK H PARENT
REMARK Flexibility Score: inf
ROOT
ATOM      1  C   UNL     1     -98.907 -45.912 -12.262  1.00  0.00     0.000 C 
ENDROOT
BRANCH   1   2
ATOM      2  C   UNL     1    -100.375 -45.745 -12.683  1.00  0.00     0.000 C 
BRANCH   2   3
ATOM      3  C   UNL     1    -101.000 -47.057 -13.180  1.00  0.00     0.006 C 
BRANCH   3   4
ATOM      4  C   UNL     1     -99.955 -48.149 -13.443  1.00  0.00     0.053 C 
BRANCH   4   5
ATOM      5  C   UNL     1    -100.560 -49.505 -13.260  1.00  0.00     0.041 C 
ATOM      6  O   UNL     1    -101.563 -49.848 -13.938  1.00  0.00    -0.550 OA
ATOM      7  O   UNL     1    -100.045 -50.373 -12.305  1.00  0.00    -0.550 OA
ENDBRANCH   4   5
ENDBRANCH   3   4
ENDBRANCH   2   3
ENDBRANCH   1   2
BRANCH   1   8
ATOM      8  C   UNL     1     -98.247 -44.549 -12.020  1.00  0.00     0.000 C 
BRANCH   8   9
ATOM      9  C   UNL     1     -96.728 -44.697 -11.841  1.00  0.00     0.006 C 
BRANCH   9  10
ATOM     10  C   UNL     1     -96.263 -46.151 -11.998  1.00  0.00     0.053 C 
BRANCH  10  11
ATOM     11  C   UNL     1     -94.770 -46.263 -11.952  1.00  0.00     0.041 C 
ATOM     12  O   UNL     1     -94.203 -46.773 -10.950  1.00  0.00    -0.550 OA
ATOM     13  O   UNL     1     -94.007 -45.833 -13.030  1.00  0.00    -0.550 OA
ENDBRANCH  10  11
ENDBRANCH   9  10
ENDBRANCH   8   9
ENDBRANCH   1   8
TORSDOF 8
ENDMDL
MODEL 6
REMARK VINA RESULT:    -2.865      3.118      4.254
REMARK INTER + INTRA:          -4.954
REMARK INTER:                  -4.387
REMARK INTRA:                  -0.567
REMARK UNBOUND:                -0.748
REMARK SMILES O=C([O-])CCCCCCCC(=O)[O-]
REMARK SMILES IDX 7 1 6 2 5 3 4 4 2 5 1 6 3 7 8 8 9 9 10 10 11 11 12 12 13 13
REMARK H PARENT
REMARK Flexibility Score: inf
ROOT
ATOM      1  C   UNL     1     -98.122 -44.467 -11.554  1.00  0.00     0.000 C 
ENDROOT
BRANCH   1   2
ATOM      2  C   UNL     1     -96.700 -44.776 -12.048  1.00  0.00     0.000 C 
BRANCH   2   3
ATOM      3  C   UNL     1     -95.999 -45.849 -11.199  1.00  0.00     0.006 C 
BRANCH   3   4
ATOM      4  C   UNL     1     -95.620 -47.093 -12.014  1.00  0.00     0.053 C 
BRANCH   4   5
ATOM      5  C   UNL     1     -94.149 -47.106 -12.291  1.00  0.00     0.041 C 
ATOM      6  O   UNL     1     -93.576 -46.072 -12.723  1.00  0.00    -0.550 OA
ATOM      7  O   UNL     1     -93.420 -48.276 -12.119  1.00  0.00    -0.550 OA
ENDBRANCH   4   5
ENDBRANCH   3   4
ENDBRANCH   2   3
ENDBRANCH   1   2
BRANCH   1   8
ATOM      8  C   UNL     1     -99.172 -45.101 -12.473  1.00  0.00     0.000 C 
BRANCH   8   9
ATOM      9  C   UNL     1     -99.604 -46.480 -11.949  1.00  0.00     0.006 C 
BRANCH   9  10
ATOM     10  C   UNL     1     -99.302 -47.602 -12.950  1.00  0.00     0.053 C 
BRANCH  10  11
ATOM     11  C   UNL     1    -100.551 -48.113 -13.603  1.00  0.00     0.041 C 
ATOM     12  O   UNL     1    -100.756 -49.351 -13.696  1.00  0.00    -0.550 OA
ATOM     13  O   UNL     1    -101.501 -47.220 -14.080  1.00  0.00    -0.550 OA
ENDBRANCH  10  11
ENDBRANCH   9  10
ENDBRANCH   8   9
ENDBRANCH   1   8
TORSDOF 8
ENDMDL
MODEL 7
REMARK VINA RESULT:    -2.862      2.056      4.537
REMARK INTER + INTRA:          -4.949
REMARK INTER:                  -4.142
REMARK INTRA:                  -0.807
REMARK UNBOUND:                -0.748
REMARK SMILES O=C([O-])CCCCCCCC(=O)[O-]
REMARK SMILES IDX 7 1 6 2 5 3 4 4 2 5 1 6 3 7 8 8 9 9 10 10 11 11 12 12 13 13
REMARK H PARENT
REMARK Flexibility Score: inf
ROOT
ATOM      1  C   UNL     1     -97.341 -43.788 -11.877  1.00  0.00     0.000 C 
ENDROOT
BRANCH   1   2
ATOM      2  C   UNL     1     -98.815 -43.357 -11.930  1.00  0.00     0.000 C 
BRANCH   2   3
ATOM      3  C   UNL     1     -99.777 -44.492 -11.544  1.00  0.00     0.006 C 
BRANCH   3   4
ATOM      4  C   UNL     1     -99.882 -45.572 -12.628  1.00  0.00     0.053 C 
BRANCH   4   5
ATOM      5  C   UNL     1     -99.408 -46.890 -12.100  1.00  0.00     0.041 C 
ATOM      6  O   UNL     1     -99.310 -47.076 -10.858  1.00  0.00    -0.550 OA
ATOM      7  O   UNL     1     -99.029 -47.896 -12.979  1.00  0.00    -0.550 OA
ENDBRANCH   4   5
ENDBRANCH   3   4
ENDBRANCH   2   3
ENDBRANCH   1   2
BRANCH   1   8
ATOM      8  C   UNL     1     -96.983 -44.353 -10.498  1.00  0.00     0.000 C 
BRANCH   8   9
ATOM      9  C   UNL     1     -96.078 -45.588 -10.626  1.00  0.00     0.006 C 
BRANCH   9  10
ATOM     10  C   UNL     1     -95.829 -45.976 -12.089  1.00  0.00     0.053 C 
BRANCH  10  11
ATOM     11  C   UNL     1     -94.400 -46.358 -12.326  1.00  0.00     0.041 C 
ATOM     12  O   UNL     1     -93.704 -45.722 -13.161  1.00  0.00    -0.550 OA
ATOM     13  O   UNL     1     -93.829 -47.396 -11.603  1.00  0.00    -0.550 OA
ENDBRANCH  10  11
ENDBRANCH   9  10
ENDBRANCH   8   9
ENDBRANCH   1   8
TORSDOF 8
ENDMDL
MODEL 8
REMARK VINA RESULT:    -2.856      3.520      4.411
REMARK INTER + INTRA:          -4.939
REMARK INTER:                  -4.390
REMARK INTRA:                  -0.549
REMARK UNBOUND:                -0.748
REMARK SMILES O=C([O-])CCCCCCCC(=O)[O-]
REMARK SMILES IDX 7 1 6 2 5 3 4 4 2 5 1 6 3 7 8 8 9 9 10 10 11 11 12 12 13 13
REMARK H PARENT
REMARK Flexibility Score: inf
ROOT
ATOM      1  C   UNL     1     -99.523 -46.028 -12.326  1.00  0.00     0.000 C 
ENDROOT
BRANCH   1   2
ATOM      2  C   UNL     1     -98.330 -46.995 -12.311  1.00  0.00     0.000 C 
BRANCH   2   3
ATOM      3  C   UNL     1     -98.601 -48.282 -13.106  1.00  0.00     0.006 C 
BRANCH   3   4
ATOM      4  C   UNL     1    -100.012 -48.321 -13.705  1.00  0.00     0.053 C 
BRANCH   4   5
ATOM      5  C   UNL     1    -100.754 -49.524 -13.214  1.00  0.00     0.041 C 
ATOM      6  O   UNL     1    -101.620 -50.076 -13.943  1.00  0.00    -0.550 OA
ATOM      7  O   UNL     1    -100.525 -50.007 -11.932  1.00  0.00    -0.550 OA
ENDBRANCH   4   5
ENDBRANCH   3   4
ENDBRANCH   2   3
ENDBRANCH   1   2
BRANCH   1   8
ATOM      8  C   UNL     1     -99.049 -44.570 -12.321  1.00  0.00     0.000 C 
BRANCH   8   9
ATOM      9  C   UNL     1     -97.562 -44.475 -11.946  1.00  0.00     0.006 C 
BRANCH   9  10
ATOM     10  C   UNL     1     -97.330 -43.599 -10.709  1.00  0.00     0.053 C 
BRANCH  10  11
ATOM     11  C   UNL     1     -97.022 -44.423  -9.496  1.00  0.00     0.041 C 
ATOM     12  O   UNL     1     -97.907 -45.163  -8.990  1.00  0.00    -0.550 OA
ATOM     13  O   UNL     1     -95.749 -44.397  -8.942  1.00  0.00    -0.550 OA
ENDBRANCH  10  11
ENDBRANCH   9  10
ENDBRANCH   8   9
ENDBRANCH   1   8
TORSDOF 8
ENDMDL
MODEL 9
REMARK VINA RESULT:    -2.849      1.876      3.341
REMARK INTER + INTRA:          -4.929
REMARK INTER:                  -3.952
REMARK INTRA:                  -0.978
REMARK UNBOUND:                -0.748
REMARK SMILES O=C([O-])CCCCCCCC(=O)[O-]
REMARK SMILES IDX 7 1 6 2 5 3 4 4 2 5 1 6 3 7 8 8 9 9 10 10 11 11 12 12 13 13
REMARK H PARENT
REMARK Flexibility Score: inf
ROOT
ATOM      1  C   UNL     1     -96.612 -43.379  -9.375  1.00  0.00     0.000 C 
ENDROOT
BRANCH   1   2
ATOM      2  C   UNL     1     -97.021 -44.414  -8.317  1.00  0.00     0.000 C 
BRANCH   2   3
ATOM      3  C   UNL     1     -96.081 -45.630  -8.285  1.00  0.00     0.006 C 
BRANCH   3   4
ATOM      4  C   UNL     1     -94.864 -45.461  -9.202  1.00  0.00     0.053 C 
BRANCH   4   5
ATOM      5  C   UNL     1     -94.804 -46.573 -10.201  1.00  0.00     0.041 C 
ATOM      6  O   UNL     1     -95.241 -47.716  -9.903  1.00  0.00    -0.550 OA
ATOM      7  O   UNL     1     -94.222 -46.361 -11.444  1.00  0.00    -0.550 OA
ENDBRANCH   4   5
ENDBRANCH   3   4
ENDBRANCH   2   3
ENDBRANCH   1   2
BRANCH   1   8
ATOM      8  C   UNL     1     -97.691 -43.244 -10.456  1.00  0.00     0.000 C 
BRANCH   8   9
ATOM      9  C   UNL     1     -97.306 -44.029 -11.720  1.00  0.00     0.006 C 
BRANCH   9  10
ATOM     10  C   UNL     1     -98.411 -44.997 -12.161  1.00  0.00     0.053 C 
BRANCH  10  11
ATOM     11  C   UNL     1     -98.177 -46.381 -11.635  1.00  0.00     0.041 C 
ATOM     12  O   UNL     1     -98.613 -46.710 -10.500  1.00  0.00    -0.550 OA
ATOM     13  O   UNL     1     -97.505 -47.315 -12.411  1.00  0.00    -0.550 OA
ENDBRANCH  10  11
ENDBRANCH   9  10
ENDBRANCH   8   9
ENDBRANCH   1   8
TORSDOF 8
ENDMDL
