MODEL 1
REMARK VINA RESULT:    -4.518      0.000      0.000
REMARK INTER + INTRA:          -5.806
REMARK INTER:                  -5.574
REMARK INTRA:                  -0.232
REMARK UNBOUND:                -0.232
REMARK SMILES CCCCC=CC(C)=O
REMARK SMILES IDX 4 1 3 2 2 3 1 4 5 5 6 6 7 7 9 8 8 9
REMARK H PARENT
REMARK Flexibility Score: inf
ROOT
ATOM      1  C   UNL     1      -6.756  21.023  68.422  1.00  0.00     0.027 C 
ENDROOT
BRANCH   1   2
ATOM      2  C   UNL     1      -7.721  21.443  67.304  1.00  0.00     0.004 C 
BRANCH   2   3
ATOM      3  C   UNL     1      -7.926  22.965  67.245  1.00  0.00    -0.003 C 
ATOM      4  C   UNL     1      -7.121  23.712  68.308  1.00  0.00     0.004 C 
ENDBRANCH   2   3
ENDBRANCH   1   2
BRANCH   1   5
ATOM      5  C   UNL     1      -7.474  20.256  69.497  1.00  0.00    -0.023 C 
ATOM      6  C   UNL     1      -7.516  20.699  70.759  1.00  0.00     0.042 C 
BRANCH   6   7
ATOM      7  C   UNL     1      -8.198  19.975  71.850  1.00  0.00     0.152 C 
ATOM      8  O   UNL     1      -8.027  18.730  71.946  1.00  0.00    -0.295 OA
ATOM      9  C   UNL     1      -9.083  20.665  72.845  1.00  0.00     0.093 C 
ENDBRANCH   6   7
ENDBRANCH   1   5
TORSDOF 4
ENDMDL
MODEL 2
REMARK VINA RESULT:    -4.492      9.596     11.243
REMARK INTER + INTRA:          -5.774
REMARK INTER:                  -5.536
REMARK INTRA:                  -0.239
REMARK UNBOUND:                -0.232
REMARK SMILES CCCCC=CC(C)=O
REMARK SMILES IDX 4 1 3 2 2 3 1 4 5 5 6 6 7 7 9 8 8 9
REMARK H PARENT
REMARK Flexibility Score: inf
ROOT
ATOM      1  C   UNL     1      -6.691  27.816  76.568  1.00  0.00     0.027 C 
ENDROOT
BRANCH   1   2
ATOM      2  C   UNL     1      -6.551  28.760  77.772  1.00  0.00     0.004 C 
BRANCH   2   3
ATOM      3  C   UNL     1      -7.790  28.743  78.680  1.00  0.00    -0.003 C 
ATOM      4  C   UNL     1      -8.541  27.413  78.632  1.00  0.00     0.004 C 
ENDBRANCH   2   3
ENDBRANCH   1   2
BRANCH   1   5
ATOM      5  C   UNL     1      -6.439  28.543  75.278  1.00  0.00    -0.023 C 
ATOM      6  C   UNL     1      -7.118  29.651  74.957  1.00  0.00     0.042 C 
BRANCH   6   7
ATOM      7  C   UNL     1      -6.914  30.392  73.696  1.00  0.00     0.152 C 
ATOM      8  O   UNL     1      -7.207  31.617  73.661  1.00  0.00    -0.295 OA
ATOM      9  C   UNL     1      -6.372  29.740  72.459  1.00  0.00     0.093 C 
ENDBRANCH   6   7
ENDBRANCH   1   5
TORSDOF 4
ENDMDL
MODEL 3
REMARK VINA RESULT:    -4.345      2.025      2.802
REMARK INTER + INTRA:          -5.593
REMARK INTER:                  -5.407
REMARK INTRA:                  -0.186
REMARK UNBOUND:                -0.232
REMARK SMILES CCCCC=CC(C)=O
REMARK SMILES IDX 4 1 3 2 2 3 1 4 5 5 6 6 7 7 9 8 8 9
REMARK H PARENT
REMARK Flexibility Score: inf
ROOT
ATOM      1  C   UNL     1      -6.472  20.563  68.315  1.00  0.00     0.027 C 
ENDROOT
BRANCH   1   2
ATOM      2  C   UNL     1      -6.888  19.102  68.087  1.00  0.00     0.004 C 
BRANCH   2   3
ATOM      3  C   UNL     1      -7.994  18.963  67.030  1.00  0.00    -0.003 C 
ATOM      4  C   UNL     1      -7.452  18.967  65.601  1.00  0.00     0.004 C 
ENDBRANCH   2   3
ENDBRANCH   1   2
BRANCH   1   5
ATOM      5  C   UNL     1      -7.350  21.221  69.342  1.00  0.00    -0.023 C 
ATOM      6  C   UNL     1      -7.752  20.567  70.438  1.00  0.00     0.042 C 
BRANCH   6   7
ATOM      7  C   UNL     1      -8.624  21.168  71.467  1.00  0.00     0.152 C 
ATOM      8  O   UNL     1      -8.958  22.377  71.343  1.00  0.00    -0.295 OA
ATOM      9  C   UNL     1      -9.125  20.394  72.650  1.00  0.00     0.093 C 
ENDBRANCH   6   7
ENDBRANCH   1   5
TORSDOF 4
ENDMDL
MODEL 4
REMARK VINA RESULT:    -4.257      2.746      4.479
REMARK INTER + INTRA:          -5.484
REMARK INTER:                  -5.261
REMARK INTRA:                  -0.223
REMARK UNBOUND:                -0.232
REMARK SMILES CCCCC=CC(C)=O
REMARK SMILES IDX 4 1 3 2 2 3 1 4 5 5 6 6 7 7 9 8 8 9
REMARK H PARENT
REMARK Flexibility Score: inf
ROOT
ATOM      1  C   UNL     1      -6.452  20.679  68.729  1.00  0.00     0.027 C 
ENDROOT
BRANCH   1   2
ATOM      2  C   UNL     1      -7.165  21.111  70.019  1.00  0.00     0.004 C 
BRANCH   2   3
ATOM      3  C   UNL     1      -7.593  22.586  69.988  1.00  0.00    -0.003 C 
ATOM      4  C   UNL     1      -6.983  23.356  68.818  1.00  0.00     0.004 C 
ENDBRANCH   2   3
ENDBRANCH   1   2
BRANCH   1   5
ATOM      5  C   UNL     1      -7.308  19.743  67.924  1.00  0.00    -0.023 C 
ATOM      6  C   UNL     1      -7.428  19.874  66.598  1.00  0.00     0.042 C 
BRANCH   6   7
ATOM      7  C   UNL     1      -8.268  18.986  65.768  1.00  0.00     0.152 C 
ATOM      8  O   UNL     1      -8.392  17.779  66.111  1.00  0.00    -0.295 OA
ATOM      9  C   UNL     1      -8.976  19.467  64.537  1.00  0.00     0.093 C 
ENDBRANCH   6   7
ENDBRANCH   1   5
TORSDOF 4
ENDMDL
MODEL 5
REMARK VINA RESULT:    -4.242      2.576      4.989
REMARK INTER + INTRA:          -5.466
REMARK INTER:                  -5.255
REMARK INTRA:                  -0.210
REMARK UNBOUND:                -0.232
REMARK SMILES CCCCC=CC(C)=O
REMARK SMILES IDX 4 1 3 2 2 3 1 4 5 5 6 6 7 7 9 8 8 9
REMARK H PARENT
REMARK Flexibility Score: inf
ROOT
ATOM      1  C   UNL     1      -6.846  20.955  69.478  1.00  0.00     0.027 C 
ENDROOT
BRANCH   1   2
ATOM      2  C   UNL     1      -8.157  21.061  70.272  1.00  0.00     0.004 C 
BRANCH   2   3
ATOM      3  C   UNL     1      -8.014  20.548  71.713  1.00  0.00    -0.003 C 
ATOM      4  C   UNL     1      -8.022  19.022  71.802  1.00  0.00     0.004 C 
ENDBRANCH   2   3
ENDBRANCH   1   2
BRANCH   1   5
ATOM      5  C   UNL     1      -7.114  20.665  68.028  1.00  0.00    -0.023 C 
ATOM      6  C   UNL     1      -7.130  19.411  67.559  1.00  0.00     0.042 C 
BRANCH   6   7
ATOM      7  C   UNL     1      -7.376  19.079  66.141  1.00  0.00     0.152 C 
ATOM      8  O   UNL     1      -8.082  18.070  65.872  1.00  0.00    -0.295 OA
ATOM      9  C   UNL     1      -6.819  19.897  65.015  1.00  0.00     0.093 C 
ENDBRANCH   6   7
ENDBRANCH   1   5
TORSDOF 4
ENDMDL
MODEL 6
REMARK VINA RESULT:    -4.182      2.734      5.130
REMARK INTER + INTRA:          -5.392
REMARK INTER:                  -5.238
REMARK INTRA:                  -0.154
REMARK UNBOUND:                -0.232
REMARK SMILES CCCCC=CC(C)=O
REMARK SMILES IDX 4 1 3 2 2 3 1 4 5 5 6 6 7 7 9 8 8 9
REMARK H PARENT
REMARK Flexibility Score: inf
ROOT
ATOM      1  C   UNL     1      -6.641  21.406  68.834  1.00  0.00     0.027 C 
ENDROOT
BRANCH   1   2
ATOM      2  C   UNL     1      -7.445  20.434  69.711  1.00  0.00     0.004 C 
BRANCH   2   3
ATOM      3  C   UNL     1      -7.382  20.799  71.202  1.00  0.00    -0.003 C 
ATOM      4  C   UNL     1      -8.124  19.799  72.088  1.00  0.00     0.004 C 
ENDBRANCH   2   3
ENDBRANCH   1   2
BRANCH   1   5
ATOM      5  C   UNL     1      -7.516  22.504  68.299  1.00  0.00    -0.023 C 
ATOM      6  C   UNL     1      -7.230  23.793  68.518  1.00  0.00     0.042 C 
BRANCH   6   7
ATOM      7  C   UNL     1      -8.068  24.904  68.024  1.00  0.00     0.152 C 
ATOM      8  O   UNL     1      -8.752  25.560  68.855  1.00  0.00    -0.295 OA
ATOM      9  C   UNL     1      -8.132  25.280  66.574  1.00  0.00     0.093 C 
ENDBRANCH   6   7
ENDBRANCH   1   5
TORSDOF 4
ENDMDL
MODEL 7
REMARK VINA RESULT:    -4.083     10.185     11.697
REMARK INTER + INTRA:          -5.270
REMARK INTER:                  -5.128
REMARK INTRA:                  -0.142
REMARK UNBOUND:                -0.232
REMARK SMILES CCCCC=CC(C)=O
REMARK SMILES IDX 4 1 3 2 2 3 1 4 5 5 6 6 7 7 9 8 8 9
REMARK H PARENT
REMARK Flexibility Score: inf
ROOT
ATOM      1  C   UNL     1      -6.507  28.595  75.263  1.00  0.00     0.027 C 
ENDROOT
BRANCH   1   2
ATOM      2  C   UNL     1      -7.557  27.918  76.157  1.00  0.00     0.004 C 
BRANCH   2   3
ATOM      3  C   UNL     1      -7.065  27.726  77.600  1.00  0.00    -0.003 C 
ATOM      4  C   UNL     1      -7.986  28.376  78.632  1.00  0.00     0.004 C 
ENDBRANCH   2   3
ENDBRANCH   1   2
BRANCH   1   5
ATOM      5  C   UNL     1      -6.799  30.059  75.098  1.00  0.00    -0.023 C 
ATOM      6  C   UNL     1      -6.651  30.672  73.917  1.00  0.00     0.042 C 
BRANCH   6   7
ATOM      7  C   UNL     1      -6.913  32.110  73.711  1.00  0.00     0.152 C 
ATOM      8  O   UNL     1      -6.600  32.918  74.627  1.00  0.00    -0.295 OA
ATOM      9  C   UNL     1      -7.536  32.643  72.456  1.00  0.00     0.093 C 
ENDBRANCH   6   7
ENDBRANCH   1   5
TORSDOF 4
ENDMDL
MODEL 8
REMARK VINA RESULT:    -4.054      3.281      5.082
REMARK INTER + INTRA:          -5.234
REMARK INTER:                  -5.079
REMARK INTRA:                  -0.155
REMARK UNBOUND:                -0.232
REMARK SMILES CCCCC=CC(C)=O
REMARK SMILES IDX 4 1 3 2 2 3 1 4 5 5 6 6 7 7 9 8 8 9
REMARK H PARENT
REMARK Flexibility Score: inf
ROOT
ATOM      1  C   UNL     1      -6.743  21.555  68.886  1.00  0.00     0.027 C 
ENDROOT
BRANCH   1   2
ATOM      2  C   UNL     1      -7.638  20.419  69.404  1.00  0.00     0.004 C 
BRANCH   2   3
ATOM      3  C   UNL     1      -7.223  19.046  68.855  1.00  0.00    -0.003 C 
ATOM      4  C   UNL     1      -6.870  19.084  67.368  1.00  0.00     0.004 C 
ENDBRANCH   2   3
ENDBRANCH   1   2
BRANCH   1   5
ATOM      5  C   UNL     1      -7.561  22.639  68.243  1.00  0.00    -0.023 C 
ATOM      6  C   UNL     1      -7.182  23.921  68.293  1.00  0.00     0.042 C 
BRANCH   6   7
ATOM      7  C   UNL     1      -7.960  25.021  67.686  1.00  0.00     0.152 C 
ATOM      8  O   UNL     1      -8.093  25.046  66.433  1.00  0.00    -0.295 OA
ATOM      9  C   UNL     1      -8.595  26.104  68.505  1.00  0.00     0.093 C 
ENDBRANCH   6   7
ENDBRANCH   1   5
TORSDOF 4
ENDMDL
MODEL 9
REMARK VINA RESULT:    -3.979      2.851      4.205
REMARK INTER + INTRA:          -5.141
REMARK INTER:                  -4.906
REMARK INTRA:                  -0.235
REMARK UNBOUND:                -0.232
REMARK SMILES CCCCC=CC(C)=O
REMARK SMILES IDX 4 1 3 2 2 3 1 4 5 5 6 6 7 7 9 8 8 9
REMARK H PARENT
REMARK Flexibility Score: inf
ROOT
ATOM      1  C   UNL     1      -6.466  20.276  68.175  1.00  0.00     0.027 C 
ENDROOT
BRANCH   1   2
ATOM      2  C   UNL     1      -7.346  19.017  68.132  1.00  0.00     0.004 C 
BRANCH   2   3
ATOM      3  C   UNL     1      -7.968  18.782  66.746  1.00  0.00    -0.003 C 
ATOM      4  C   UNL     1      -7.122  19.358  65.612  1.00  0.00     0.004 C 
ENDBRANCH   2   3
ENDBRANCH   1   2
BRANCH   1   5
ATOM      5  C   UNL     1      -7.197  21.425  68.809  1.00  0.00    -0.023 C 
ATOM      6  C   UNL     1      -7.252  22.627  68.221  1.00  0.00     0.042 C 
BRANCH   6   7
ATOM      7  C   UNL     1      -7.946  23.788  68.812  1.00  0.00     0.152 C 
ATOM      8  O   UNL     1      -8.373  23.698  69.995  1.00  0.00    -0.295 OA
ATOM      9  C   UNL     1      -8.159  25.067  68.060  1.00  0.00     0.093 C 
ENDBRANCH   6   7
ENDBRANCH   1   5
TORSDOF 4
ENDMDL
