MODEL 1
REMARK VINA RESULT:    -4.002      0.000      0.000
REMARK INTER + INTRA:         -16.374
REMARK INTER:                 -10.554
REMARK INTRA:                  -5.820
REMARK UNBOUND:                -5.820
REMARK SMILES CCCCCCCCCCCCCCCCCCCCCCCCCCCCCC(=O)[O-]
REMARK SMILES IDX 16 1 17 2 18 3 19 4 20 5 21 6 22 7 23 8 24 9 25 10 26 11
REMARK SMILES IDX 27 12 28 13 29 14 30 15 31 16 32 17 15 18 14 19 13 20 12 21
REMARK SMILES IDX 11 22 10 23 9 24 8 25 7 26 6 27 5 28 4 29 3 30 2 31 1 32
REMARK H PARENT
REMARK Flexibility Score: inf
ROOT
ATOM      1  C   UNL     1      15.001   0.776  57.749  1.00  0.00     0.000 C 
ENDROOT
BRANCH   1   2
ATOM      2  C   UNL     1      14.861   0.970  59.267  1.00  0.00     0.000 C 
BRANCH   2   3
ATOM      3  C   UNL     1      14.997  -0.347  60.049  1.00  0.00     0.000 C 
BRANCH   3   4
ATOM      4  C   UNL     1      15.059  -0.134  61.573  1.00  0.00     0.000 C 
BRANCH   4   5
ATOM      5  C   UNL     1      14.706   1.290  62.047  1.00  0.00     0.000 C 
BRANCH   5   6
ATOM      6  C   UNL     1      15.896   2.119  62.574  1.00  0.00     0.000 C 
BRANCH   6   7
ATOM      7  C   UNL     1      17.288   1.513  62.316  1.00  0.00     0.000 C 
BRANCH   7   8
ATOM      8  C   UNL     1      17.996   2.140  61.103  1.00  0.00     0.000 C 
BRANCH   8   9
ATOM      9  C   UNL     1      18.520   1.089  60.109  1.00  0.00     0.000 C 
BRANCH   9  10
ATOM     10  C   UNL     1      19.942   0.583  60.438  1.00  0.00     0.000 C 
BRANCH  10  11
ATOM     11  C   UNL     1      19.953  -0.915  60.785  1.00  0.00     0.000 C 
BRANCH  11  12
ATOM     12  C   UNL     1      18.534  -1.523  60.799  1.00  0.00     0.000 C 
BRANCH  12  13
ATOM     13  C   UNL     1      18.151  -2.153  62.152  1.00  0.00     0.006 C 
BRANCH  13  14
ATOM     14  C   UNL     1      17.688  -3.614  62.049  1.00  0.00     0.053 C 
BRANCH  14  15
ATOM     15  C   UNL     1      16.284  -3.717  61.538  1.00  0.00     0.041 C 
ATOM     16  O   UNL     1      15.311  -3.619  62.331  1.00  0.00    -0.550 OA
ATOM     17  O   UNL     1      16.050  -3.951  60.187  1.00  0.00    -0.550 OA
ENDBRANCH  14  15
ENDBRANCH  13  14
ENDBRANCH  12  13
ENDBRANCH  11  12
ENDBRANCH  10  11
ENDBRANCH   9  10
ENDBRANCH   8   9
ENDBRANCH   7   8
ENDBRANCH   6   7
ENDBRANCH   5   6
ENDBRANCH   4   5
ENDBRANCH   3   4
ENDBRANCH   2   3
ENDBRANCH   1   2
BRANCH   1  18
ATOM     18  C   UNL     1      16.056  -0.285  57.378  1.00  0.00     0.000 C 
BRANCH  18  19
ATOM     19  C   UNL     1      16.847   0.092  56.109  1.00  0.00     0.000 C 
BRANCH  19  20
ATOM     20  C   UNL     1      18.301   0.515  56.389  1.00  0.00     0.000 C 
BRANCH  20  21
ATOM     21  C   UNL     1      18.453   2.038  56.514  1.00  0.00     0.000 C 
BRANCH  21  22
ATOM     22  C   UNL     1      17.518   2.762  55.535  1.00  0.00     0.000 C 
BRANCH  22  23
ATOM     23  C   UNL     1      16.793   3.962  56.179  1.00  0.00     0.000 C 
BRANCH  23  24
ATOM     24  C   UNL     1      16.808   3.943  57.722  1.00  0.00    -0.000 C 
BRANCH  24  25
ATOM     25  C   UNL     1      15.605   4.630  58.395  1.00  0.00    -0.000 C 
BRANCH  25  26
ATOM     26  C   UNL     1      15.627   4.615  59.938  1.00  0.00    -0.000 C 
BRANCH  26  27
ATOM     27  C   UNL     1      16.819   5.355  60.582  1.00  0.00    -0.000 C 
BRANCH  27  28
ATOM     28  C   UNL     1      16.440   6.602  61.405  1.00  0.00    -0.000 C 
BRANCH  28  29
ATOM     29  C   UNL     1      16.959   6.537  62.855  1.00  0.00    -0.000 C 
BRANCH  29  30
ATOM     30  C   UNL     1      17.838   5.293  63.111  1.00  0.00    -0.000 C 
BRANCH  30  31
ATOM     31  C   UNL     1      17.622   4.650  64.491  1.00  0.00    -0.003 C 
ATOM     32  C   UNL     1      17.282   5.664  65.581  1.00  0.00     0.004 C 
ENDBRANCH  30  31
ENDBRANCH  29  30
ENDBRANCH  28  29
ENDBRANCH  27  28
ENDBRANCH  26  27
ENDBRANCH  25  26
ENDBRANCH  24  25
ENDBRANCH  23  24
ENDBRANCH  22  23
ENDBRANCH  21  22
ENDBRANCH  20  21
ENDBRANCH  19  20
ENDBRANCH  18  19
ENDBRANCH   1  18
TORSDOF 28
ENDMDL
MODEL 2
REMARK VINA RESULT:    -3.967      2.752      6.657
REMARK INTER + INTRA:         -16.280
REMARK INTER:                 -10.252
REMARK INTRA:                  -6.028
REMARK UNBOUND:                -5.820
REMARK SMILES CCCCCCCCCCCCCCCCCCCCCCCCCCCCCC(=O)[O-]
REMARK SMILES IDX 16 1 17 2 18 3 19 4 20 5 21 6 22 7 23 8 24 9 25 10 26 11
REMARK SMILES IDX 27 12 28 13 29 14 30 15 31 16 32 17 15 18 14 19 13 20 12 21
REMARK SMILES IDX 11 22 10 23 9 24 8 25 7 26 6 27 5 28 4 29 3 30 2 31 1 32
REMARK H PARENT
REMARK Flexibility Score: inf
ROOT
ATOM      1  C   UNL     1      14.981   0.340  57.776  1.00  0.00     0.000 C 
ENDROOT
BRANCH   1   2
ATOM      2  C   UNL     1      14.920   1.045  59.140  1.00  0.00     0.000 C 
BRANCH   2   3
ATOM      3  C   UNL     1      14.584   0.082  60.291  1.00  0.00     0.000 C 
BRANCH   3   4
ATOM      4  C   UNL     1      14.634   0.762  61.672  1.00  0.00     0.000 C 
BRANCH   4   5
ATOM      5  C   UNL     1      15.285   2.160  61.688  1.00  0.00     0.000 C 
BRANCH   5   6
ATOM      6  C   UNL     1      15.942   2.561  63.025  1.00  0.00     0.000 C 
BRANCH   6   7
ATOM      7  C   UNL     1      17.448   2.878  62.951  1.00  0.00     0.000 C 
BRANCH   7   8
ATOM      8  C   UNL     1      17.738   4.386  62.870  1.00  0.00     0.000 C 
BRANCH   8   9
ATOM      9  C   UNL     1      17.614   4.942  61.440  1.00  0.00     0.000 C 
BRANCH   9  10
ATOM     10  C   UNL     1      18.903   4.785  60.604  1.00  0.00     0.000 C 
BRANCH  10  11
ATOM     11  C   UNL     1      18.598   4.550  59.115  1.00  0.00     0.000 C 
BRANCH  11  12
ATOM     12  C   UNL     1      17.205   3.919  58.896  1.00  0.00     0.000 C 
BRANCH  12  13
ATOM     13  C   UNL     1      16.464   4.483  57.669  1.00  0.00     0.006 C 
BRANCH  13  14
ATOM     14  C   UNL     1      16.429   3.525  56.469  1.00  0.00     0.053 C 
BRANCH  14  15
ATOM     15  C   UNL     1      17.537   3.808  55.501  1.00  0.00     0.041 C 
ATOM     16  O   UNL     1      18.176   4.890  55.566  1.00  0.00    -0.550 OA
ATOM     17  O   UNL     1      17.844   2.885  54.506  1.00  0.00    -0.550 OA
ENDBRANCH  14  15
ENDBRANCH  13  14
ENDBRANCH  12  13
ENDBRANCH  11  12
ENDBRANCH  10  11
ENDBRANCH   9  10
ENDBRANCH   8   9
ENDBRANCH   7   8
ENDBRANCH   6   7
ENDBRANCH   5   6
ENDBRANCH   4   5
ENDBRANCH   3   4
ENDBRANCH   2   3
ENDBRANCH   1   2
BRANCH   1  18
ATOM     18  C   UNL     1      16.257  -0.507  57.598  1.00  0.00     0.000 C 
BRANCH  18  19
ATOM     19  C   UNL     1      17.096  -0.056  56.386  1.00  0.00     0.000 C 
BRANCH  19  20
ATOM     20  C   UNL     1      18.616  -0.121  56.628  1.00  0.00     0.000 C 
BRANCH  20  21
ATOM     21  C   UNL     1      19.132   1.090  57.421  1.00  0.00     0.000 C 
BRANCH  21  22
ATOM     22  C   UNL     1      20.142   0.651  58.490  1.00  0.00     0.000 C 
BRANCH  22  23
ATOM     23  C   UNL     1      19.781   1.168  59.899  1.00  0.00     0.000 C 
BRANCH  23  24
ATOM     24  C   UNL     1      18.400   0.696  60.400  1.00  0.00    -0.000 C 
BRANCH  24  25
ATOM     25  C   UNL     1      18.241  -0.831  60.530  1.00  0.00    -0.000 C 
BRANCH  25  26
ATOM     26  C   UNL     1      17.911  -1.329  61.953  1.00  0.00    -0.000 C 
BRANCH  26  27
ATOM     27  C   UNL     1      16.767  -2.361  62.037  1.00  0.00    -0.000 C 
BRANCH  27  28
ATOM     28  C   UNL     1      16.357  -2.987  60.689  1.00  0.00    -0.000 C 
BRANCH  28  29
ATOM     29  C   UNL     1      14.943  -3.601  60.724  1.00  0.00    -0.000 C 
BRANCH  29  30
ATOM     30  C   UNL     1      14.959  -5.127  60.490  1.00  0.00    -0.000 C 
BRANCH  30  31
ATOM     31  C   UNL     1      16.359  -5.701  60.212  1.00  0.00    -0.003 C 
ATOM     32  C   UNL     1      16.876  -6.597  61.336  1.00  0.00     0.004 C 
ENDBRANCH  30  31
ENDBRANCH  29  30
ENDBRANCH  28  29
ENDBRANCH  27  28
ENDBRANCH  26  27
ENDBRANCH  25  26
ENDBRANCH  24  25
ENDBRANCH  23  24
ENDBRANCH  22  23
ENDBRANCH  21  22
ENDBRANCH  20  21
ENDBRANCH  19  20
ENDBRANCH  18  19
ENDBRANCH   1  18
TORSDOF 28
ENDMDL
MODEL 3
REMARK VINA RESULT:    -3.944      2.731      7.110
REMARK INTER + INTRA:         -16.221
REMARK INTER:                 -10.619
REMARK INTRA:                  -5.603
REMARK UNBOUND:                -5.820
REMARK SMILES CCCCCCCCCCCCCCCCCCCCCCCCCCCCCC(=O)[O-]
REMARK SMILES IDX 16 1 17 2 18 3 19 4 20 5 21 6 22 7 23 8 24 9 25 10 26 11
REMARK SMILES IDX 27 12 28 13 29 14 30 15 31 16 32 17 15 18 14 19 13 20 12 21
REMARK SMILES IDX 11 22 10 23 9 24 8 25 7 26 6 27 5 28 4 29 3 30 2 31 1 32
REMARK H PARENT
REMARK Flexibility Score: inf
ROOT
ATOM      1  C   UNL     1      19.087  -0.277  58.415  1.00  0.00     0.000 C 
ENDROOT
BRANCH   1   2
ATOM      2  C   UNL     1      17.680  -0.895  58.381  1.00  0.00     0.000 C 
BRANCH   2   3
ATOM      3  C   UNL     1      17.121  -1.018  56.953  1.00  0.00     0.000 C 
BRANCH   3   4
ATOM      4  C   UNL     1      16.033   0.028  56.647  1.00  0.00     0.000 C 
BRANCH   4   5
ATOM      5  C   UNL     1      15.129   0.397  57.839  1.00  0.00     0.000 C 
BRANCH   5   6
ATOM      6  C   UNL     1      15.010   1.908  58.128  1.00  0.00     0.000 C 
BRANCH   6   7
ATOM      7  C   UNL     1      16.240   2.752  57.743  1.00  0.00     0.000 C 
BRANCH   7   8
ATOM      8  C   UNL     1      15.868   4.043  56.993  1.00  0.00     0.000 C 
BRANCH   8   9
ATOM      9  C   UNL     1      15.185   5.083  57.898  1.00  0.00     0.000 C 
BRANCH   9  10
ATOM     10  C   UNL     1      16.179   5.942  58.710  1.00  0.00     0.000 C 
BRANCH  10  11
ATOM     11  C   UNL     1      15.809   5.994  60.202  1.00  0.00     0.000 C 
BRANCH  11  12
ATOM     12  C   UNL     1      15.975   4.623  60.894  1.00  0.00     0.000 C 
BRANCH  12  13
ATOM     13  C   UNL     1      15.112   4.469  62.161  1.00  0.00     0.006 C 
BRANCH  13  14
ATOM     14  C   UNL     1      15.879   3.918  63.372  1.00  0.00     0.053 C 
BRANCH  14  15
ATOM     15  C   UNL     1      16.857   4.917  63.910  1.00  0.00     0.041 C 
ATOM     16  O   UNL     1      16.502   6.107  64.113  1.00  0.00    -0.550 OA
ATOM     17  O   UNL     1      18.172   4.538  64.159  1.00  0.00    -0.550 OA
ENDBRANCH  14  15
ENDBRANCH  13  14
ENDBRANCH  12  13
ENDBRANCH  11  12
ENDBRANCH  10  11
ENDBRANCH   9  10
ENDBRANCH   8   9
ENDBRANCH   7   8
ENDBRANCH   6   7
ENDBRANCH   5   6
ENDBRANCH   4   5
ENDBRANCH   3   4
ENDBRANCH   2   3
ENDBRANCH   1   2
BRANCH   1  18
ATOM     18  C   UNL     1      19.122   1.088  59.131  1.00  0.00     0.000 C 
BRANCH  18  19
ATOM     19  C   UNL     1      19.137   0.946  60.666  1.00  0.00     0.000 C 
BRANCH  19  20
ATOM     20  C   UNL     1      17.921   1.589  61.359  1.00  0.00     0.000 C 
BRANCH  20  21
ATOM     21  C   UNL     1      17.026   0.550  62.050  1.00  0.00     0.000 C 
BRANCH  21  22
ATOM     22  C   UNL     1      15.583   0.642  61.534  1.00  0.00     0.000 C 
BRANCH  22  23
ATOM     23  C   UNL     1      14.793  -0.669  61.736  1.00  0.00     0.000 C 
BRANCH  23  24
ATOM     24  C   UNL     1      14.916  -1.656  60.556  1.00  0.00    -0.000 C 
BRANCH  24  25
ATOM     25  C   UNL     1      15.701  -2.945  60.864  1.00  0.00    -0.000 C 
BRANCH  25  26
ATOM     26  C   UNL     1      15.841  -3.276  62.365  1.00  0.00    -0.000 C 
BRANCH  26  27
ATOM     27  C   UNL     1      17.289  -3.294  62.899  1.00  0.00    -0.000 C 
BRANCH  27  28
ATOM     28  C   UNL     1      18.371  -2.964  61.852  1.00  0.00    -0.000 C 
BRANCH  28  29
ATOM     29  C   UNL     1      19.533  -2.137  62.438  1.00  0.00    -0.000 C 
BRANCH  29  30
ATOM     30  C   UNL     1      20.912  -2.643  61.964  1.00  0.00    -0.000 C 
BRANCH  30  31
ATOM     31  C   UNL     1      21.383  -2.019  60.639  1.00  0.00    -0.003 C 
ATOM     32  C   UNL     1      22.759  -1.365  60.737  1.00  0.00     0.004 C 
ENDBRANCH  30  31
ENDBRANCH  29  30
ENDBRANCH  28  29
ENDBRANCH  27  28
ENDBRANCH  26  27
ENDBRANCH  25  26
ENDBRANCH  24  25
ENDBRANCH  23  24
ENDBRANCH  22  23
ENDBRANCH  21  22
ENDBRANCH  20  21
ENDBRANCH  19  20
ENDBRANCH  18  19
ENDBRANCH   1  18
TORSDOF 28
ENDMDL
MODEL 4
REMARK VINA RESULT:    -3.943      3.073      6.838
REMARK INTER + INTRA:         -16.217
REMARK INTER:                 -10.650
REMARK INTRA:                  -5.567
REMARK UNBOUND:                -5.820
REMARK SMILES CCCCCCCCCCCCCCCCCCCCCCCCCCCCCC(=O)[O-]
REMARK SMILES IDX 16 1 17 2 18 3 19 4 20 5 21 6 22 7 23 8 24 9 25 10 26 11
REMARK SMILES IDX 27 12 28 13 29 14 30 15 31 16 32 17 15 18 14 19 13 20 12 21
REMARK SMILES IDX 11 22 10 23 9 24 8 25 7 26 6 27 5 28 4 29 3 30 2 31 1 32
REMARK H PARENT
REMARK Flexibility Score: inf
ROOT
ATOM      1  C   UNL     1      18.082   2.744  54.633  1.00  0.00     0.000 C 
ENDROOT
BRANCH   1   2
ATOM      2  C   UNL     1      19.335   3.590  54.912  1.00  0.00     0.000 C 
BRANCH   2   3
ATOM      3  C   UNL     1      19.010   5.079  55.121  1.00  0.00     0.000 C 
BRANCH   3   4
ATOM      4  C   UNL     1      18.510   5.386  56.545  1.00  0.00     0.000 C 
BRANCH   4   5
ATOM      5  C   UNL     1      17.183   6.169  56.616  1.00  0.00     0.000 C 
BRANCH   5   6
ATOM      6  C   UNL     1      15.932   5.379  56.179  1.00  0.00     0.000 C 
BRANCH   6   7
ATOM      7  C   UNL     1      15.004   4.929  57.323  1.00  0.00     0.000 C 
BRANCH   7   8
ATOM      8  C   UNL     1      15.303   3.501  57.809  1.00  0.00     0.000 C 
BRANCH   8   9
ATOM      9  C   UNL     1      16.315   3.465  58.968  1.00  0.00     0.000 C 
BRANCH   9  10
ATOM     10  C   UNL     1      16.002   4.477  60.092  1.00  0.00     0.000 C 
BRANCH  10  11
ATOM     11  C   UNL     1      17.179   5.432  60.350  1.00  0.00     0.000 C 
BRANCH  11  12
ATOM     12  C   UNL     1      18.190   4.853  61.364  1.00  0.00     0.000 C 
BRANCH  12  13
ATOM     13  C   UNL     1      17.603   4.670  62.777  1.00  0.00     0.006 C 
BRANCH  13  14
ATOM     14  C   UNL     1      18.483   5.249  63.895  1.00  0.00     0.053 C 
BRANCH  14  15
ATOM     15  C   UNL     1      17.712   6.174  64.786  1.00  0.00     0.041 C 
ATOM     16  O   UNL     1      17.550   7.379  64.463  1.00  0.00    -0.550 OA
ATOM     17  O   UNL     1      17.196   5.709  65.992  1.00  0.00    -0.550 OA
ENDBRANCH  14  15
ENDBRANCH  13  14
ENDBRANCH  12  13
ENDBRANCH  11  12
ENDBRANCH  10  11
ENDBRANCH   9  10
ENDBRANCH   8   9
ENDBRANCH   7   8
ENDBRANCH   6   7
ENDBRANCH   5   6
ENDBRANCH   4   5
ENDBRANCH   3   4
ENDBRANCH   2   3
ENDBRANCH   1   2
BRANCH   1  18
ATOM     18  C   UNL     1      17.652   1.897  55.847  1.00  0.00     0.000 C 
BRANCH  18  19
ATOM     19  C   UNL     1      17.481   0.407  55.493  1.00  0.00     0.000 C 
BRANCH  19  20
ATOM     20  C   UNL     1      16.292  -0.266  56.205  1.00  0.00     0.000 C 
BRANCH  20  21
ATOM     21  C   UNL     1      16.646  -0.721  57.628  1.00  0.00     0.000 C 
BRANCH  21  22
ATOM     22  C   UNL     1      15.577  -0.262  58.630  1.00  0.00     0.000 C 
BRANCH  22  23
ATOM     23  C   UNL     1      15.344  -1.283  59.764  1.00  0.00     0.000 C 
BRANCH  23  24
ATOM     24  C   UNL     1      14.803  -0.654  61.065  1.00  0.00    -0.000 C 
BRANCH  24  25
ATOM     25  C   UNL     1      14.774   0.887  61.081  1.00  0.00    -0.000 C 
BRANCH  25  26
ATOM     26  C   UNL     1      15.713   1.542  62.116  1.00  0.00    -0.000 C 
BRANCH  26  27
ATOM     27  C   UNL     1      17.077   0.844  62.297  1.00  0.00    -0.000 C 
BRANCH  27  28
ATOM     28  C   UNL     1      18.128   1.185  61.223  1.00  0.00    -0.000 C 
BRANCH  28  29
ATOM     29  C   UNL     1      18.763  -0.072  60.593  1.00  0.00    -0.000 C 
BRANCH  29  30
ATOM     30  C   UNL     1      20.092   0.240  59.872  1.00  0.00    -0.000 C 
BRANCH  30  31
ATOM     31  C   UNL     1      19.925   0.609  58.388  1.00  0.00    -0.003 C 
ATOM     32  C   UNL     1      20.620  -0.368  57.442  1.00  0.00     0.004 C 
ENDBRANCH  30  31
ENDBRANCH  29  30
ENDBRANCH  28  29
ENDBRANCH  27  28
ENDBRANCH  26  27
ENDBRANCH  25  26
ENDBRANCH  24  25
ENDBRANCH  23  24
ENDBRANCH  22  23
ENDBRANCH  21  22
ENDBRANCH  20  21
ENDBRANCH  19  20
ENDBRANCH  18  19
ENDBRANCH   1  18
TORSDOF 28
ENDMDL
MODEL 5
REMARK VINA RESULT:    -3.941      1.146      5.199
REMARK INTER + INTRA:         -16.211
REMARK INTER:                 -10.652
REMARK INTRA:                  -5.559
REMARK UNBOUND:                -5.820
REMARK SMILES CCCCCCCCCCCCCCCCCCCCCCCCCCCCCC(=O)[O-]
REMARK SMILES IDX 16 1 17 2 18 3 19 4 20 5 21 6 22 7 23 8 24 9 25 10 26 11
REMARK SMILES IDX 27 12 28 13 29 14 30 15 31 16 32 17 15 18 14 19 13 20 12 21
REMARK SMILES IDX 11 22 10 23 9 24 8 25 7 26 6 27 5 28 4 29 3 30 2 31 1 32
REMARK H PARENT
REMARK Flexibility Score: inf
ROOT
ATOM      1  C   UNL     1      15.647   1.120  61.745  1.00  0.00     0.000 C 
ENDROOT
BRANCH   1   2
ATOM      2  C   UNL     1      14.529   0.183  61.261  1.00  0.00     0.000 C 
BRANCH   2   3
ATOM      3  C   UNL     1      14.876  -0.520  59.938  1.00  0.00     0.000 C 
BRANCH   3   4
ATOM      4  C   UNL     1      15.270   0.467  58.824  1.00  0.00     0.000 C 
BRANCH   4   5
ATOM      5  C   UNL     1      15.487  -0.169  57.436  1.00  0.00     0.000 C 
BRANCH   5   6
ATOM      6  C   UNL     1      16.480   0.578  56.521  1.00  0.00     0.000 C 
BRANCH   6   7
ATOM      7  C   UNL     1      17.790  -0.173  56.218  1.00  0.00     0.000 C 
BRANCH   7   8
ATOM      8  C   UNL     1      18.994   0.389  56.993  1.00  0.00     0.000 C 
BRANCH   8   9
ATOM      9  C   UNL     1      19.094  -0.165  58.424  1.00  0.00     0.000 C 
BRANCH   9  10
ATOM     10  C   UNL     1      18.722   0.866  59.512  1.00  0.00     0.000 C 
BRANCH  10  11
ATOM     11  C   UNL     1      19.171   0.413  60.912  1.00  0.00     0.000 C 
BRANCH  11  12
ATOM     12  C   UNL     1      19.295  -1.122  61.018  1.00  0.00     0.000 C 
BRANCH  12  13
ATOM     13  C   UNL     1      17.977  -1.817  61.415  1.00  0.00     0.006 C 
BRANCH  13  14
ATOM     14  C   UNL     1      17.904  -2.207  62.899  1.00  0.00     0.053 C 
BRANCH  14  15
ATOM     15  C   UNL     1      16.709  -3.064  63.188  1.00  0.00     0.041 C 
ATOM     16  O   UNL     1      16.734  -3.888  64.139  1.00  0.00    -0.550 OA
ATOM     17  O   UNL     1      15.576  -2.972  62.386  1.00  0.00    -0.550 OA
ENDBRANCH  14  15
ENDBRANCH  13  14
ENDBRANCH  12  13
ENDBRANCH  11  12
ENDBRANCH  10  11
ENDBRANCH   9  10
ENDBRANCH   8   9
ENDBRANCH   7   8
ENDBRANCH   6   7
ENDBRANCH   5   6
ENDBRANCH   4   5
ENDBRANCH   3   4
ENDBRANCH   2   3
ENDBRANCH   1   2
BRANCH   1  18
ATOM     18  C   UNL     1      15.107   2.371  62.465  1.00  0.00     0.000 C 
BRANCH  18  19
ATOM     19  C   UNL     1      16.079   2.896  63.540  1.00  0.00     0.000 C 
BRANCH  19  20
ATOM     20  C   UNL     1      17.496   3.181  63.007  1.00  0.00     0.000 C 
BRANCH  20  21
ATOM     21  C   UNL     1      18.002   4.574  63.411  1.00  0.00     0.000 C 
BRANCH  21  22
ATOM     22  C   UNL     1      16.933   5.333  64.209  1.00  0.00     0.000 C 
BRANCH  22  23
ATOM     23  C   UNL     1      16.453   6.614  63.494  1.00  0.00     0.000 C 
BRANCH  23  24
ATOM     24  C   UNL     1      16.471   6.510  61.954  1.00  0.00    -0.000 C 
BRANCH  24  25
ATOM     25  C   UNL     1      15.139   6.072  61.315  1.00  0.00    -0.000 C 
BRANCH  25  26
ATOM     26  C   UNL     1      15.283   5.184  60.061  1.00  0.00    -0.000 C 
BRANCH  26  27
ATOM     27  C   UNL     1      16.694   4.601  59.829  1.00  0.00    -0.000 C 
BRANCH  27  28
ATOM     28  C   UNL     1      16.858   3.798  58.524  1.00  0.00    -0.000 C 
BRANCH  28  29
ATOM     29  C   UNL     1      15.622   3.895  57.607  1.00  0.00    -0.000 C 
BRANCH  29  30
ATOM     30  C   UNL     1      15.963   4.481  56.221  1.00  0.00    -0.000 C 
BRANCH  30  31
ATOM     31  C   UNL     1      17.462   4.434  55.875  1.00  0.00    -0.003 C 
ATOM     32  C   UNL     1      17.808   3.359  54.847  1.00  0.00     0.004 C 
ENDBRANCH  30  31
ENDBRANCH  29  30
ENDBRANCH  28  29
ENDBRANCH  27  28
ENDBRANCH  26  27
ENDBRANCH  25  26
ENDBRANCH  24  25
ENDBRANCH  23  24
ENDBRANCH  22  23
ENDBRANCH  21  22
ENDBRANCH  20  21
ENDBRANCH  19  20
ENDBRANCH  18  19
ENDBRANCH   1  18
TORSDOF 28
ENDMDL
MODEL 6
REMARK VINA RESULT:    -3.933      2.990      5.402
REMARK INTER + INTRA:         -16.192
REMARK INTER:                  -9.830
REMARK INTRA:                  -6.362
REMARK UNBOUND:                -5.820
REMARK SMILES CCCCCCCCCCCCCCCCCCCCCCCCCCCCCC(=O)[O-]
REMARK SMILES IDX 16 1 17 2 18 3 19 4 20 5 21 6 22 7 23 8 24 9 25 10 26 11
REMARK SMILES IDX 27 12 28 13 29 14 30 15 31 16 32 17 15 18 14 19 13 20 12 21
REMARK SMILES IDX 11 22 10 23 9 24 8 25 7 26 6 27 5 28 4 29 3 30 2 31 1 32
REMARK H PARENT
REMARK Flexibility Score: inf
ROOT
ATOM      1  C   UNL     1      15.703   1.242  61.342  1.00  0.00     0.000 C 
ENDROOT
BRANCH   1   2
ATOM      2  C   UNL     1      14.403   0.789  62.025  1.00  0.00     0.000 C 
BRANCH   2   3
ATOM      3  C   UNL     1      13.877  -0.546  61.471  1.00  0.00     0.000 C 
BRANCH   3   4
ATOM      4  C   UNL     1      14.394  -1.764  62.259  1.00  0.00     0.000 C 
BRANCH   4   5
ATOM      5  C   UNL     1      15.060  -2.859  61.402  1.00  0.00     0.000 C 
BRANCH   5   6
ATOM      6  C   UNL     1      15.496  -2.414  59.991  1.00  0.00     0.000 C 
BRANCH   6   7
ATOM      7  C   UNL     1      16.966  -1.973  59.863  1.00  0.00     0.000 C 
BRANCH   7   8
ATOM      8  C   UNL     1      17.217  -1.077  58.639  1.00  0.00     0.000 C 
BRANCH   8   9
ATOM      9  C   UNL     1      15.972  -0.276  58.220  1.00  0.00     0.000 C 
BRANCH   9  10
ATOM     10  C   UNL     1      15.922   0.044  56.710  1.00  0.00     0.000 C 
BRANCH  10  11
ATOM     11  C   UNL     1      17.258   0.605  56.196  1.00  0.00     0.000 C 
BRANCH  11  12
ATOM     12  C   UNL     1      17.537   2.029  56.726  1.00  0.00     0.000 C 
BRANCH  12  13
ATOM     13  C   UNL     1      16.289   2.932  56.740  1.00  0.00     0.006 C 
BRANCH  13  14
ATOM     14  C   UNL     1      16.442   4.215  55.911  1.00  0.00     0.053 C 
BRANCH  14  15
ATOM     15  C   UNL     1      15.835   5.399  56.602  1.00  0.00     0.041 C 
ATOM     16  O   UNL     1      14.651   5.349  57.024  1.00  0.00    -0.550 OA
ATOM     17  O   UNL     1      16.572   6.569  56.752  1.00  0.00    -0.550 OA
ENDBRANCH  14  15
ENDBRANCH  13  14
ENDBRANCH  12  13
ENDBRANCH  11  12
ENDBRANCH  10  11
ENDBRANCH   9  10
ENDBRANCH   8   9
ENDBRANCH   7   8
ENDBRANCH   6   7
ENDBRANCH   5   6
ENDBRANCH   4   5
ENDBRANCH   3   4
ENDBRANCH   2   3
ENDBRANCH   1   2
BRANCH   1  18
ATOM     18  C   UNL     1      16.962   0.877  62.154  1.00  0.00     0.000 C 
BRANCH  18  19
ATOM     19  C   UNL     1      18.258   1.374  61.483  1.00  0.00     0.000 C 
BRANCH  19  20
ATOM     20  C   UNL     1      18.016   2.197  60.204  1.00  0.00     0.000 C 
BRANCH  20  21
ATOM     21  C   UNL     1      18.959   3.406  60.101  1.00  0.00     0.000 C 
BRANCH  21  22
ATOM     22  C   UNL     1      18.176   4.681  59.757  1.00  0.00     0.000 C 
BRANCH  22  23
ATOM     23  C   UNL     1      16.667   4.553  60.055  1.00  0.00     0.000 C 
BRANCH  23  24
ATOM     24  C   UNL     1      15.994   5.888  60.437  1.00  0.00    -0.000 C 
BRANCH  24  25
ATOM     25  C   UNL     1      15.180   5.856  61.745  1.00  0.00    -0.000 C 
BRANCH  25  26
ATOM     26  C   UNL     1      15.372   4.584  62.598  1.00  0.00    -0.000 C 
BRANCH  26  27
ATOM     27  C   UNL     1      16.311   4.746  63.813  1.00  0.00    -0.000 C 
BRANCH  27  28
ATOM     28  C   UNL     1      17.755   4.259  63.586  1.00  0.00    -0.000 C 
BRANCH  28  29
ATOM     29  C   UNL     1      18.787   5.402  63.668  1.00  0.00    -0.000 C 
BRANCH  29  30
ATOM     30  C   UNL     1      18.121   6.786  63.823  1.00  0.00    -0.000 C 
BRANCH  30  31
ATOM     31  C   UNL     1      18.315   7.711  62.609  1.00  0.00    -0.003 C 
ATOM     32  C   UNL     1      17.734   9.108  62.818  1.00  0.00     0.004 C 
ENDBRANCH  30  31
ENDBRANCH  29  30
ENDBRANCH  28  29
ENDBRANCH  27  28
ENDBRANCH  26  27
ENDBRANCH  25  26
ENDBRANCH  24  25
ENDBRANCH  23  24
ENDBRANCH  22  23
ENDBRANCH  21  22
ENDBRANCH  20  21
ENDBRANCH  19  20
ENDBRANCH  18  19
ENDBRANCH   1  18
TORSDOF 28
ENDMDL
MODEL 7
REMARK VINA RESULT:    -3.932      2.528      3.901
REMARK INTER + INTRA:         -16.190
REMARK INTER:                 -10.115
REMARK INTRA:                  -6.075
REMARK UNBOUND:                -5.820
REMARK SMILES CCCCCCCCCCCCCCCCCCCCCCCCCCCCCC(=O)[O-]
REMARK SMILES IDX 16 1 17 2 18 3 19 4 20 5 21 6 22 7 23 8 24 9 25 10 26 11
REMARK SMILES IDX 27 12 28 13 29 14 30 15 31 16 32 17 15 18 14 19 13 20 12 21
REMARK SMILES IDX 11 22 10 23 9 24 8 25 7 26 6 27 5 28 4 29 3 30 2 31 1 32
REMARK H PARENT
REMARK Flexibility Score: inf
ROOT
ATOM      1  C   UNL     1      14.861   1.029  58.131  1.00  0.00     0.000 C 
ENDROOT
BRANCH   1   2
ATOM      2  C   UNL     1      14.691   1.616  59.541  1.00  0.00     0.000 C 
BRANCH   2   3
ATOM      3  C   UNL     1      15.838   1.226  60.488  1.00  0.00     0.000 C 
BRANCH   3   4
ATOM      4  C   UNL     1      15.341   0.578  61.793  1.00  0.00     0.000 C 
BRANCH   4   5
ATOM      5  C   UNL     1      13.867   0.125  61.776  1.00  0.00     0.000 C 
BRANCH   5   6
ATOM      6  C   UNL     1      13.651  -1.402  61.751  1.00  0.00     0.000 C 
BRANCH   6   7
ATOM      7  C   UNL     1      14.760  -2.214  61.055  1.00  0.00     0.000 C 
BRANCH   7   8
ATOM      8  C   UNL     1      15.235  -3.414  61.891  1.00  0.00     0.000 C 
BRANCH   8   9
ATOM      9  C   UNL     1      16.435  -3.076  62.792  1.00  0.00     0.000 C 
BRANCH   9  10
ATOM     10  C   UNL     1      17.802  -3.258  62.095  1.00  0.00     0.000 C 
BRANCH  10  11
ATOM     11  C   UNL     1      18.567  -1.930  61.974  1.00  0.00     0.000 C 
BRANCH  11  12
ATOM     12  C   UNL     1      18.417  -1.294  60.574  1.00  0.00     0.000 C 
BRANCH  12  13
ATOM     13  C   UNL     1      19.236   0.000  60.400  1.00  0.00     0.006 C 
BRANCH  13  14
ATOM     14  C   UNL     1      20.393  -0.127  59.398  1.00  0.00     0.053 C 
BRANCH  14  15
ATOM     15  C   UNL     1      21.712  -0.286  60.091  1.00  0.00     0.041 C 
ATOM     16  O   UNL     1      22.605   0.591  59.965  1.00  0.00    -0.550 OA
ATOM     17  O   UNL     1      21.965  -1.422  60.854  1.00  0.00    -0.550 OA
ENDBRANCH  14  15
ENDBRANCH  13  14
ENDBRANCH  12  13
ENDBRANCH  11  12
ENDBRANCH  10  11
ENDBRANCH   9  10
ENDBRANCH   8   9
ENDBRANCH   7   8
ENDBRANCH   6   7
ENDBRANCH   5   6
ENDBRANCH   4   5
ENDBRANCH   3   4
ENDBRANCH   2   3
ENDBRANCH   1   2
BRANCH   1  18
ATOM     18  C   UNL     1      15.898  -0.110  58.080  1.00  0.00     0.000 C 
BRANCH  18  19
ATOM     19  C   UNL     1      16.388  -0.395  56.646  1.00  0.00     0.000 C 
BRANCH  19  20
ATOM     20  C   UNL     1      17.920  -0.341  56.494  1.00  0.00     0.000 C 
BRANCH  20  21
ATOM     21  C   UNL     1      18.452   1.099  56.449  1.00  0.00     0.000 C 
BRANCH  21  22
ATOM     22  C   UNL     1      17.843   1.869  55.268  1.00  0.00     0.000 C 
BRANCH  22  23
ATOM     23  C   UNL     1      18.405   3.300  55.136  1.00  0.00     0.000 C 
BRANCH  23  24
ATOM     24  C   UNL     1      17.523   4.379  55.800  1.00  0.00    -0.000 C 
BRANCH  24  25
ATOM     25  C   UNL     1      16.118   3.905  56.217  1.00  0.00    -0.000 C 
BRANCH  25  26
ATOM     26  C   UNL     1      15.325   4.909  57.081  1.00  0.00    -0.000 C 
BRANCH  26  27
ATOM     27  C   UNL     1      16.151   6.085  57.643  1.00  0.00    -0.000 C 
BRANCH  27  28
ATOM     28  C   UNL     1      16.108   6.234  59.176  1.00  0.00    -0.000 C 
BRANCH  28  29
ATOM     29  C   UNL     1      16.319   4.894  59.910  1.00  0.00    -0.000 C 
BRANCH  29  30
ATOM     30  C   UNL     1      17.813   4.583  60.147  1.00  0.00    -0.000 C 
BRANCH  30  31
ATOM     31  C   UNL     1      18.363   3.453  59.261  1.00  0.00    -0.003 C 
ATOM     32  C   UNL     1      19.766   3.737  58.726  1.00  0.00     0.004 C 
ENDBRANCH  30  31
ENDBRANCH  29  30
ENDBRANCH  28  29
ENDBRANCH  27  28
ENDBRANCH  26  27
ENDBRANCH  25  26
ENDBRANCH  24  25
ENDBRANCH  23  24
ENDBRANCH  22  23
ENDBRANCH  21  22
ENDBRANCH  20  21
ENDBRANCH  19  20
ENDBRANCH  18  19
ENDBRANCH   1  18
TORSDOF 28
ENDMDL
MODEL 8
REMARK VINA RESULT:    -3.904      1.501      3.110
REMARK INTER + INTRA:         -16.115
REMARK INTER:                  -9.059
REMARK INTRA:                  -7.055
REMARK UNBOUND:                -5.820
REMARK SMILES CCCCCCCCCCCCCCCCCCCCCCCCCCCCCC(=O)[O-]
REMARK SMILES IDX 16 1 17 2 18 3 19 4 20 5 21 6 22 7 23 8 24 9 25 10 26 11
REMARK SMILES IDX 27 12 28 13 29 14 30 15 31 16 32 17 15 18 14 19 13 20 12 21
REMARK SMILES IDX 11 22 10 23 9 24 8 25 7 26 6 27 5 28 4 29 3 30 2 31 1 32
REMARK H PARENT
REMARK Flexibility Score: inf
ROOT
ATOM      1  C   UNL     1      17.334   2.978  59.282  1.00  0.00     0.000 C 
ENDROOT
BRANCH   1   2
ATOM      2  C   UNL     1      16.455   2.470  60.435  1.00  0.00     0.000 C 
BRANCH   2   3
ATOM      3  C   UNL     1      15.253   1.645  59.945  1.00  0.00     0.000 C 
BRANCH   3   4
ATOM      4  C   UNL     1      15.012   1.783  58.431  1.00  0.00     0.000 C 
BRANCH   4   5
ATOM      5  C   UNL     1      14.870   0.451  57.668  1.00  0.00     0.000 C 
BRANCH   5   6
ATOM      6  C   UNL     1      16.199  -0.261  57.340  1.00  0.00     0.000 C 
BRANCH   6   7
ATOM      7  C   UNL     1      17.047   0.400  56.237  1.00  0.00     0.000 C 
BRANCH   7   8
ATOM      8  C   UNL     1      18.509   0.619  56.659  1.00  0.00     0.000 C 
BRANCH   8   9
ATOM      9  C   UNL     1      18.962  -0.348  57.768  1.00  0.00     0.000 C 
BRANCH   9  10
ATOM     10  C   UNL     1      19.818   0.326  58.863  1.00  0.00     0.000 C 
BRANCH  10  11
ATOM     11  C   UNL     1      19.331  -0.032  60.276  1.00  0.00     0.000 C 
BRANCH  11  12
ATOM     12  C   UNL     1      18.065  -0.916  60.252  1.00  0.00     0.000 C 
BRANCH  12  13
ATOM     13  C   UNL     1      17.398  -1.068  61.634  1.00  0.00     0.006 C 
BRANCH  13  14
ATOM     14  C   UNL     1      15.982  -1.659  61.578  1.00  0.00     0.053 C 
BRANCH  14  15
ATOM     15  C   UNL     1      15.843  -2.854  62.472  1.00  0.00     0.041 C 
ATOM     16  O   UNL     1      14.913  -3.680  62.288  1.00  0.00    -0.550 OA
ATOM     17  O   UNL     1      16.728  -3.037  63.530  1.00  0.00    -0.550 OA
ENDBRANCH  14  15
ENDBRANCH  13  14
ENDBRANCH  12  13
ENDBRANCH  11  12
ENDBRANCH  10  11
ENDBRANCH   9  10
ENDBRANCH   8   9
ENDBRANCH   7   8
ENDBRANCH   6   7
ENDBRANCH   5   6
ENDBRANCH   4   5
ENDBRANCH   3   4
ENDBRANCH   2   3
ENDBRANCH   1   2
BRANCH   1  18
ATOM     18  C   UNL     1      18.621   3.671  59.772  1.00  0.00     0.000 C 
BRANCH  18  19
ATOM     19  C   UNL     1      19.257   4.564  58.689  1.00  0.00     0.000 C 
BRANCH  19  20
ATOM     20  C   UNL     1      20.177   3.799  57.718  1.00  0.00     0.000 C 
BRANCH  20  21
ATOM     21  C   UNL     1      19.840   4.085  56.247  1.00  0.00     0.000 C 
BRANCH  21  22
ATOM     22  C   UNL     1      18.523   4.866  56.131  1.00  0.00     0.000 C 
BRANCH  22  23
ATOM     23  C   UNL     1      17.360   3.999  55.604  1.00  0.00     0.000 C 
BRANCH  23  24
ATOM     24  C   UNL     1      15.969   4.472  56.076  1.00  0.00    -0.000 C 
BRANCH  24  25
ATOM     25  C   UNL     1      15.982   5.663  57.053  1.00  0.00    -0.000 C 
BRANCH  25  26
ATOM     26  C   UNL     1      14.786   5.717  58.026  1.00  0.00    -0.000 C 
BRANCH  26  27
ATOM     27  C   UNL     1      15.161   5.847  59.518  1.00  0.00    -0.000 C 
BRANCH  27  28
ATOM     28  C   UNL     1      16.382   6.742  59.805  1.00  0.00    -0.000 C 
BRANCH  28  29
ATOM     29  C   UNL     1      16.525   7.091  61.300  1.00  0.00    -0.000 C 
BRANCH  29  30
ATOM     30  C   UNL     1      17.490   6.137  62.037  1.00  0.00    -0.000 C 
BRANCH  30  31
ATOM     31  C   UNL     1      16.788   5.155  62.991  1.00  0.00    -0.003 C 
ATOM     32  C   UNL     1      17.702   4.034  63.479  1.00  0.00     0.004 C 
ENDBRANCH  30  31
ENDBRANCH  29  30
ENDBRANCH  28  29
ENDBRANCH  27  28
ENDBRANCH  26  27
ENDBRANCH  25  26
ENDBRANCH  24  25
ENDBRANCH  23  24
ENDBRANCH  22  23
ENDBRANCH  21  22
ENDBRANCH  20  21
ENDBRANCH  19  20
ENDBRANCH  18  19
ENDBRANCH   1  18
TORSDOF 28
ENDMDL
MODEL 9
REMARK VINA RESULT:    -3.900      2.434      5.867
REMARK INTER + INTRA:         -16.105
REMARK INTER:                 -10.208
REMARK INTRA:                  -5.897
REMARK UNBOUND:                -5.820
REMARK SMILES CCCCCCCCCCCCCCCCCCCCCCCCCCCCCC(=O)[O-]
REMARK SMILES IDX 16 1 17 2 18 3 19 4 20 5 21 6 22 7 23 8 24 9 25 10 26 11
REMARK SMILES IDX 27 12 28 13 29 14 30 15 31 16 32 17 15 18 14 19 13 20 12 21
REMARK SMILES IDX 11 22 10 23 9 24 8 25 7 26 6 27 5 28 4 29 3 30 2 31 1 32
REMARK H PARENT
REMARK Flexibility Score: inf
ROOT
ATOM      1  C   UNL     1      18.132   2.809  55.482  1.00  0.00     0.000 C 
ENDROOT
BRANCH   1   2
ATOM      2  C   UNL     1      18.458   2.245  56.874  1.00  0.00     0.000 C 
BRANCH   2   3
ATOM      3  C   UNL     1      18.765   0.739  56.846  1.00  0.00     0.000 C 
BRANCH   3   4
ATOM      4  C   UNL     1      17.582  -0.102  56.331  1.00  0.00     0.000 C 
BRANCH   4   5
ATOM      5  C   UNL     1      16.605  -0.589  57.419  1.00  0.00     0.000 C 
BRANCH   5   6
ATOM      6  C   UNL     1      15.262   0.168  57.481  1.00  0.00     0.000 C 
BRANCH   6   7
ATOM      7  C   UNL     1      14.906   0.770  58.853  1.00  0.00     0.000 C 
BRANCH   7   8
ATOM      8  C   UNL     1      14.847  -0.284  59.971  1.00  0.00     0.000 C 
BRANCH   8   9
ATOM      9  C   UNL     1      15.175   0.297  61.357  1.00  0.00     0.000 C 
BRANCH   9  10
ATOM     10  C   UNL     1      15.650   1.766  61.314  1.00  0.00     0.000 C 
BRANCH  10  11
ATOM     11  C   UNL     1      17.136   1.901  61.683  1.00  0.00     0.000 C 
BRANCH  11  12
ATOM     12  C   UNL     1      18.067   1.438  60.541  1.00  0.00     0.000 C 
BRANCH  12  13
ATOM     13  C   UNL     1      19.010   0.289  60.947  1.00  0.00     0.006 C 
BRANCH  13  14
ATOM     14  C   UNL     1      18.541  -1.095  60.477  1.00  0.00     0.053 C 
BRANCH  14  15
ATOM     15  C   UNL     1      18.129  -1.963  61.627  1.00  0.00     0.041 C 
ATOM     16  O   UNL     1      17.841  -1.448  62.738  1.00  0.00    -0.550 OA
ATOM     17  O   UNL     1      18.093  -3.345  61.478  1.00  0.00    -0.550 OA
ENDBRANCH  14  15
ENDBRANCH  13  14
ENDBRANCH  12  13
ENDBRANCH  11  12
ENDBRANCH  10  11
ENDBRANCH   9  10
ENDBRANCH   8   9
ENDBRANCH   7   8
ENDBRANCH   6   7
ENDBRANCH   5   6
ENDBRANCH   4   5
ENDBRANCH   3   4
ENDBRANCH   2   3
ENDBRANCH   1   2
BRANCH   1  18
ATOM     18  C   UNL     1      16.920   3.761  55.492  1.00  0.00     0.000 C 
BRANCH  18  19
ATOM     19  C   UNL     1      16.080   3.628  56.778  1.00  0.00     0.000 C 
BRANCH  19  20
ATOM     20  C   UNL     1      15.216   4.867  57.083  1.00  0.00     0.000 C 
BRANCH  20  21
ATOM     21  C   UNL     1      15.650   5.577  58.374  1.00  0.00     0.000 C 
BRANCH  21  22
ATOM     22  C   UNL     1      16.480   4.637  59.261  1.00  0.00     0.000 C 
BRANCH  22  23
ATOM     23  C   UNL     1      17.845   5.241  59.655  1.00  0.00     0.000 C 
BRANCH  23  24
ATOM     24  C   UNL     1      18.802   5.445  58.462  1.00  0.00    -0.000 C 
BRANCH  24  25
ATOM     25  C   UNL     1      18.996   6.910  58.026  1.00  0.00    -0.000 C 
BRANCH  25  26
ATOM     26  C   UNL     1      18.462   7.244  56.617  1.00  0.00    -0.000 C 
BRANCH  26  27
ATOM     27  C   UNL     1      19.137   6.474  55.462  1.00  0.00    -0.000 C 
BRANCH  27  28
ATOM     28  C   UNL     1      20.678   6.489  55.485  1.00  0.00    -0.000 C 
BRANCH  28  29
ATOM     29  C   UNL     1      21.296   5.346  54.656  1.00  0.00    -0.000 C 
BRANCH  29  30
ATOM     30  C   UNL     1      20.486   5.042  53.377  1.00  0.00    -0.000 C 
BRANCH  30  31
ATOM     31  C   UNL     1      20.608   3.588  52.892  1.00  0.00    -0.003 C 
ATOM     32  C   UNL     1      21.363   3.455  51.571  1.00  0.00     0.004 C 
ENDBRANCH  30  31
ENDBRANCH  29  30
ENDBRANCH  28  29
ENDBRANCH  27  28
ENDBRANCH  26  27
ENDBRANCH  25  26
ENDBRANCH  24  25
ENDBRANCH  23  24
ENDBRANCH  22  23
ENDBRANCH  21  22
ENDBRANCH  20  21
ENDBRANCH  19  20
ENDBRANCH  18  19
ENDBRANCH   1  18
TORSDOF 28
ENDMDL
