MODEL 1
REMARK VINA RESULT:    11.964      0.000      0.000
REMARK INTER + INTRA:          14.805
REMARK INTER:                  14.412
REMARK INTRA:                   0.393
REMARK UNBOUND:                 0.393
REMARK SMILES Oc1cc(O)c2c(c1)O[C@@H](c1ccc(O)c(O)c1)[C@H](O)C2
REMARK SMILES IDX 21 1 19 2 10 3 9 4 7 5 8 6 2 7 3 8 4 9 6 10 20 11 11 13
REMARK SMILES IDX 18 14 12 15 16 16 13 17 14 18 17 19 15 21 5 23 1 25
REMARK H PARENT 20 12 17 20 15 22 5 24 1 26
REMARK Flexibility Score: inf
ROOT
ATOM      1  C   UNL     1      36.524  -1.587  20.025  1.00  0.00     0.079 C 
ATOM      2  C   UNL     1      36.794  -0.071  20.033  1.00  0.00     0.164 C 
ATOM      3  C   UNL     1      35.597   0.676  20.661  1.00  0.00     0.232 C 
ATOM      4  O   UNL     1      35.337   0.167  21.971  1.00  0.00    -0.482 OA
ATOM      5  C   UNL     1      35.481  -1.188  22.293  1.00  0.00     0.131 A 
ATOM      6  C   UNL     1      35.047  -1.644  23.540  1.00  0.00     0.093 A 
ATOM      7  C   UNL     1      35.181  -2.996  23.884  1.00  0.00     0.122 A 
ATOM      8  C   UNL     1      35.750  -3.891  22.974  1.00  0.00     0.092 A 
ATOM      9  C   UNL     1      36.194  -3.444  21.721  1.00  0.00     0.126 A 
ATOM     10  C   UNL     1      36.079  -2.083  21.381  1.00  0.00     0.039 A 
ENDROOT
BRANCH   2  11
ATOM     11  O   UNL     1      37.061   0.391  18.731  1.00  0.00    -0.389 OA
ATOM     12  H   UNL     1      37.317  -0.395  18.180  1.00  0.00     0.211 HD
ENDBRANCH   2  11
BRANCH   3  13
ATOM     13  C   UNL     1      35.862   2.161  20.738  1.00  0.00    -0.001 A 
ATOM     14  C   UNL     1      35.154   2.967  21.646  1.00  0.00     0.057 A 
ATOM     15  C   UNL     1      36.857   2.744  19.936  1.00  0.00     0.012 A 
ATOM     16  C   UNL     1      35.420   4.341  21.737  1.00  0.00     0.157 A 
ATOM     17  C   UNL     1      37.123   4.112  20.025  1.00  0.00     0.050 A 
ATOM     18  C   UNL     1      36.409   4.916  20.921  1.00  0.00     0.157 A 
BRANCH  16  19
ATOM     19  O   UNL     1      34.709   5.136  22.636  1.00  0.00    -0.504 OA
ATOM     20  H   UNL     1      34.988   5.216  23.606  1.00  0.00     0.293 HD
ENDBRANCH  16  19
BRANCH  18  21
ATOM     21  O   UNL     1      36.697   6.279  20.986  1.00  0.00    -0.504 OA
ATOM     22  H   UNL     1      37.583   6.657  20.674  1.00  0.00     0.293 HD
ENDBRANCH  18  21
ENDBRANCH   3  13
BRANCH   9  23
ATOM     23  O   UNL     1      36.748  -4.349  20.815  1.00  0.00    -0.507 OA
ATOM     24  H   UNL     1      36.969  -5.301  21.082  1.00  0.00     0.293 HD
ENDBRANCH   9  23
BRANCH   7  25
ATOM     25  O   UNL     1      34.748  -3.458  25.125  1.00  0.00    -0.508 OA
ATOM     26  H   UNL     1      34.044  -4.182  25.204  1.00  0.00     0.293 HD
ENDBRANCH   7  25
TORSDOF 6
ENDMDL
MODEL 2
REMARK VINA RESULT:    12.229     19.369     20.296
REMARK INTER + INTRA:          15.125
REMARK INTER:                  14.719
REMARK INTRA:                   0.406
REMARK UNBOUND:                 0.393
REMARK SMILES Oc1cc(O)c2c(c1)O[C@@H](c1ccc(O)c(O)c1)[C@H](O)C2
REMARK SMILES IDX 21 1 19 2 10 3 9 4 7 5 8 6 2 7 3 8 4 9 6 10 20 11 11 13
REMARK SMILES IDX 18 14 12 15 16 16 13 17 14 18 17 19 15 21 5 23 1 25
REMARK H PARENT 20 12 17 20 15 22 5 24 1 26
REMARK Flexibility Score: inf
ROOT
ATOM      1  C   UNL     1      22.047   3.242   5.644  1.00  0.00     0.079 C 
ATOM      2  C   UNL     1      21.737   4.748   5.736  1.00  0.00     0.164 C 
ATOM      3  C   UNL     1      21.422   5.136   7.198  1.00  0.00     0.232 C 
ATOM      4  O   UNL     1      22.505   4.753   8.048  1.00  0.00    -0.482 OA
ATOM      5  C   UNL     1      23.242   3.581   7.846  1.00  0.00     0.131 A 
ATOM      6  C   UNL     1      24.171   3.183   8.811  1.00  0.00     0.093 A 
ATOM      7  C   UNL     1      24.920   2.013   8.629  1.00  0.00     0.122 A 
ATOM      8  C   UNL     1      24.736   1.241   7.480  1.00  0.00     0.092 A 
ATOM      9  C   UNL     1      23.810   1.632   6.502  1.00  0.00     0.126 A 
ATOM     10  C   UNL     1      23.071   2.819   6.672  1.00  0.00     0.039 A 
ENDROOT
BRANCH   2  11
ATOM     11  O   UNL     1      20.679   5.089   4.875  1.00  0.00    -0.389 OA
ATOM     12  H   UNL     1      21.074   5.462   4.044  1.00  0.00     0.211 HD
ENDBRANCH   2  11
BRANCH   3  13
ATOM     13  C   UNL     1      21.175   6.620   7.326  1.00  0.00    -0.001 A 
ATOM     14  C   UNL     1      21.578   7.314   8.480  1.00  0.00     0.057 A 
ATOM     15  C   UNL     1      20.585   7.333   6.270  1.00  0.00     0.012 A 
ATOM     16  C   UNL     1      21.374   8.698   8.588  1.00  0.00     0.157 A 
ATOM     17  C   UNL     1      20.381   8.710   6.375  1.00  0.00     0.050 A 
ATOM     18  C   UNL     1      20.771   9.398   7.529  1.00  0.00     0.157 A 
BRANCH  16  19
ATOM     19  O   UNL     1      21.771   9.378   9.738  1.00  0.00    -0.504 OA
ATOM     20  H   UNL     1      21.250   9.303  10.604  1.00  0.00     0.293 HD
ENDBRANCH  16  19
BRANCH  18  21
ATOM     21  O   UNL     1      20.553  10.773   7.605  1.00  0.00    -0.504 OA
ATOM     22  H   UNL     1      21.306  11.444   7.511  1.00  0.00     0.293 HD
ENDBRANCH  18  21
ENDBRANCH   3  13
BRANCH   9  23
ATOM     23  O   UNL     1      23.623   0.847   5.365  1.00  0.00    -0.507 OA
ATOM     24  H   UNL     1      23.709  -0.162   5.395  1.00  0.00     0.293 HD
ENDBRANCH   9  23
BRANCH   7  25
ATOM     25  O   UNL     1      25.847   1.608   9.588  1.00  0.00    -0.508 OA
ATOM     26  H   UNL     1      26.187   2.246  10.298  1.00  0.00     0.293 HD
ENDBRANCH   7  25
TORSDOF 6
ENDMDL
MODEL 3
REMARK VINA RESULT:    12.987     19.477     21.364
REMARK INTER + INTRA:          16.037
REMARK INTER:                  16.344
REMARK INTRA:                  -0.307
REMARK UNBOUND:                 0.393
REMARK SMILES Oc1cc(O)c2c(c1)O[C@@H](c1ccc(O)c(O)c1)[C@H](O)C2
REMARK SMILES IDX 21 1 19 2 10 3 9 4 7 5 8 6 2 7 3 8 4 9 6 10 20 11 11 13
REMARK SMILES IDX 18 14 12 15 16 16 13 17 14 18 17 19 15 21 5 23 1 25
REMARK H PARENT 20 12 17 20 15 22 5 24 1 26
REMARK Flexibility Score: inf
ROOT
ATOM      1  C   UNL     1      20.462   5.294   7.111  1.00  0.00     0.079 C 
ATOM      2  C   UNL     1      21.414   4.132   7.455  1.00  0.00     0.164 C 
ATOM      3  C   UNL     1      22.338   3.832   6.255  1.00  0.00     0.232 C 
ATOM      4  O   UNL     1      23.044   5.014   5.874  1.00  0.00    -0.482 OA
ATOM      5  C   UNL     1      22.462   6.287   5.926  1.00  0.00     0.131 A 
ATOM      6  C   UNL     1      23.148   7.374   5.379  1.00  0.00     0.093 A 
ATOM      7  C   UNL     1      22.586   8.656   5.420  1.00  0.00     0.122 A 
ATOM      8  C   UNL     1      21.333   8.848   6.008  1.00  0.00     0.092 A 
ATOM      9  C   UNL     1      20.637   7.765   6.565  1.00  0.00     0.126 A 
ATOM     10  C   UNL     1      21.209   6.478   6.544  1.00  0.00     0.039 A 
ENDROOT
BRANCH   2  11
ATOM     11  O   UNL     1      20.684   2.993   7.840  1.00  0.00    -0.389 OA
ATOM     12  H   UNL     1      21.036   2.692   8.718  1.00  0.00     0.211 HD
ENDBRANCH   2  11
BRANCH   3  13
ATOM     13  C   UNL     1      23.323   2.737   6.588  1.00  0.00    -0.001 A 
ATOM     14  C   UNL     1      24.027   2.755   7.804  1.00  0.00     0.057 A 
ATOM     15  C   UNL     1      23.509   1.660   5.706  1.00  0.00     0.012 A 
ATOM     16  C   UNL     1      24.921   1.724   8.127  1.00  0.00     0.157 A 
ATOM     17  C   UNL     1      24.399   0.632   6.024  1.00  0.00     0.050 A 
ATOM     18  C   UNL     1      25.108   0.658   7.230  1.00  0.00     0.157 A 
BRANCH  16  19
ATOM     19  O   UNL     1      25.620   1.752   9.333  1.00  0.00    -0.504 OA
ATOM     20  H   UNL     1      25.213   1.396  10.189  1.00  0.00     0.293 HD
ENDBRANCH  16  19
BRANCH  18  21
ATOM     21  O   UNL     1      25.991  -0.382   7.520  1.00  0.00    -0.504 OA
ATOM     22  H   UNL     1      26.895  -0.218   7.946  1.00  0.00     0.293 HD
ENDBRANCH  18  21
ENDBRANCH   3  13
BRANCH   9  23
ATOM     23  O   UNL     1      19.381   7.964   7.137  1.00  0.00    -0.507 OA
ATOM     24  H   UNL     1      19.195   7.733   8.106  1.00  0.00     0.293 HD
ENDBRANCH   9  23
BRANCH   7  25
ATOM     25  O   UNL     1      23.263   9.746   4.875  1.00  0.00    -0.508 OA
ATOM     26  H   UNL     1      24.256   9.879   5.022  1.00  0.00     0.293 HD
ENDBRANCH   7  25
TORSDOF 6
ENDMDL
MODEL 4
REMARK VINA RESULT:    13.007     19.692     20.526
REMARK INTER + INTRA:          16.061
REMARK INTER:                  16.413
REMARK INTRA:                  -0.351
REMARK UNBOUND:                 0.393
REMARK SMILES Oc1cc(O)c2c(c1)O[C@@H](c1ccc(O)c(O)c1)[C@H](O)C2
REMARK SMILES IDX 21 1 19 2 10 3 9 4 7 5 8 6 2 7 3 8 4 9 6 10 20 11 11 13
REMARK SMILES IDX 18 14 12 15 16 16 13 17 14 18 17 19 15 21 5 23 1 25
REMARK H PARENT 20 12 17 20 15 22 5 24 1 26
REMARK Flexibility Score: inf
ROOT
ATOM      1  C   UNL     1      23.624   3.606   5.653  1.00  0.00     0.079 C 
ATOM      2  C   UNL     1      23.238   5.069   5.946  1.00  0.00     0.164 C 
ATOM      3  C   UNL     1      21.725   5.168   6.239  1.00  0.00     0.232 C 
ATOM      4  O   UNL     1      21.377   4.292   7.313  1.00  0.00    -0.482 OA
ATOM      5  C   UNL     1      21.978   3.039   7.486  1.00  0.00     0.131 A 
ATOM      6  C   UNL     1      21.472   2.166   8.452  1.00  0.00     0.093 A 
ATOM      7  C   UNL     1      22.056   0.907   8.642  1.00  0.00     0.122 A 
ATOM      8  C   UNL     1      23.150   0.523   7.861  1.00  0.00     0.092 A 
ATOM      9  C   UNL     1      23.670   1.393   6.892  1.00  0.00     0.126 A 
ATOM     10  C   UNL     1      23.097   2.667   6.713  1.00  0.00     0.039 A 
ENDROOT
BRANCH   2  11
ATOM     11  O   UNL     1      23.609   5.902   4.875  1.00  0.00    -0.389 OA
ATOM     12  H   UNL     1      23.346   6.830   5.110  1.00  0.00     0.211 HD
ENDBRANCH   2  11
BRANCH   3  13
ATOM     13  C   UNL     1      21.331   6.583   6.590  1.00  0.00    -0.001 A 
ATOM     14  C   UNL     1      21.710   7.145   7.821  1.00  0.00     0.057 A 
ATOM     15  C   UNL     1      20.622   7.369   5.668  1.00  0.00     0.012 A 
ATOM     16  C   UNL     1      21.368   8.469   8.136  1.00  0.00     0.157 A 
ATOM     17  C   UNL     1      20.281   8.687   5.978  1.00  0.00     0.050 A 
ATOM     18  C   UNL     1      20.649   9.242   7.209  1.00  0.00     0.157 A 
BRANCH  16  19
ATOM     19  O   UNL     1      21.744   9.018   9.361  1.00  0.00    -0.504 OA
ATOM     20  H   UNL     1      21.489   9.964   9.618  1.00  0.00     0.293 HD
ENDBRANCH  16  19
BRANCH  18  21
ATOM     21  O   UNL     1      20.292  10.560   7.492  1.00  0.00    -0.504 OA
ATOM     22  H   UNL     1      19.719  11.110   6.863  1.00  0.00     0.293 HD
ENDBRANCH  18  21
ENDBRANCH   3  13
BRANCH   9  23
ATOM     23  O   UNL     1      24.753   0.995   6.108  1.00  0.00    -0.507 OA
ATOM     24  H   UNL     1      25.709   1.182   6.386  1.00  0.00     0.293 HD
ENDBRANCH   9  23
BRANCH   7  25
ATOM     25  O   UNL     1      21.556   0.029   9.602  1.00  0.00    -0.508 OA
ATOM     26  H   UNL     1      21.934   0.002  10.541  1.00  0.00     0.293 HD
ENDBRANCH   7  25
TORSDOF 6
ENDMDL
MODEL 5
REMARK VINA RESULT:    13.425     20.120     21.065
REMARK INTER + INTRA:          16.565
REMARK INTER:                  16.169
REMARK INTRA:                   0.396
REMARK UNBOUND:                 0.393
REMARK SMILES Oc1cc(O)c2c(c1)O[C@@H](c1ccc(O)c(O)c1)[C@H](O)C2
REMARK SMILES IDX 21 1 19 2 10 3 9 4 7 5 8 6 2 7 3 8 4 9 6 10 20 11 11 13
REMARK SMILES IDX 18 14 12 15 16 16 13 17 14 18 17 19 15 21 5 23 1 25
REMARK H PARENT 20 12 17 20 15 22 5 24 1 26
REMARK Flexibility Score: inf
ROOT
ATOM      1  C   UNL     1      21.830   7.904   7.085  1.00  0.00     0.079 C 
ATOM      2  C   UNL     1      21.347   7.990   8.545  1.00  0.00     0.164 C 
ATOM      3  C   UNL     1      20.256   6.928   8.805  1.00  0.00     0.232 C 
ATOM      4  O   UNL     1      20.751   5.629   8.476  1.00  0.00    -0.482 OA
ATOM      5  C   UNL     1      21.612   5.404   7.395  1.00  0.00     0.131 A 
ATOM      6  C   UNL     1      21.919   4.092   7.027  1.00  0.00     0.093 A 
ATOM      7  C   UNL     1      22.778   3.843   5.948  1.00  0.00     0.122 A 
ATOM      8  C   UNL     1      23.328   4.912   5.238  1.00  0.00     0.092 A 
ATOM      9  C   UNL     1      23.032   6.234   5.600  1.00  0.00     0.126 A 
ATOM     10  C   UNL     1      22.185   6.487   6.697  1.00  0.00     0.039 A 
ENDROOT
BRANCH   2  11
ATOM     11  O   UNL     1      20.883   9.285   8.836  1.00  0.00    -0.389 OA
ATOM     12  H   UNL     1      21.372   9.919   8.249  1.00  0.00     0.211 HD
ENDBRANCH   2  11
BRANCH   3  13
ATOM     13  C   UNL     1      19.809   6.950  10.248  1.00  0.00    -0.001 A 
ATOM     14  C   UNL     1      19.474   5.757  10.910  1.00  0.00     0.057 A 
ATOM     15  C   UNL     1      19.773   8.160  10.959  1.00  0.00     0.012 A 
ATOM     16  C   UNL     1      19.086   5.774  12.258  1.00  0.00     0.157 A 
ATOM     17  C   UNL     1      19.387   8.180  12.300  1.00  0.00     0.050 A 
ATOM     18  C   UNL     1      19.041   6.993  12.955  1.00  0.00     0.157 A 
BRANCH  16  19
ATOM     19  O   UNL     1      18.749   4.586  12.906  1.00  0.00    -0.504 OA
ATOM     20  H   UNL     1      19.457   3.927  13.206  1.00  0.00     0.293 HD
ENDBRANCH  16  19
BRANCH  18  21
ATOM     21  O   UNL     1      18.658   7.044  14.295  1.00  0.00    -0.504 OA
ATOM     22  H   UNL     1      17.686   7.050  14.577  1.00  0.00     0.293 HD
ENDBRANCH  18  21
ENDBRANCH   3  13
BRANCH   9  23
ATOM     23  O   UNL     1      23.576   7.294   4.875  1.00  0.00    -0.507 OA
ATOM     24  H   UNL     1      23.022   7.825   4.213  1.00  0.00     0.293 HD
ENDBRANCH   9  23
BRANCH   7  25
ATOM     25  O   UNL     1      23.087   2.536   5.574  1.00  0.00    -0.508 OA
ATOM     26  H   UNL     1      22.398   1.933   5.142  1.00  0.00     0.293 HD
ENDBRANCH   7  25
TORSDOF 6
ENDMDL
MODEL 6
REMARK VINA RESULT:    13.455     20.011     21.948
REMARK INTER + INTRA:          16.601
REMARK INTER:                  16.879
REMARK INTRA:                  -0.278
REMARK UNBOUND:                 0.393
REMARK SMILES Oc1cc(O)c2c(c1)O[C@@H](c1ccc(O)c(O)c1)[C@H](O)C2
REMARK SMILES IDX 21 1 19 2 10 3 9 4 7 5 8 6 2 7 3 8 4 9 6 10 20 11 11 13
REMARK SMILES IDX 18 14 12 15 16 16 13 17 14 18 17 19 15 21 5 23 1 25
REMARK H PARENT 20 12 17 20 15 22 5 24 1 26
REMARK Flexibility Score: inf
ROOT
ATOM      1  C   UNL     1      20.272   7.226   5.756  1.00  0.00     0.079 C 
ATOM      2  C   UNL     1      20.644   5.750   5.995  1.00  0.00     0.164 C 
ATOM      3  C   UNL     1      22.146   5.631   6.334  1.00  0.00     0.232 C 
ATOM      4  O   UNL     1      22.459   6.455   7.459  1.00  0.00    -0.482 OA
ATOM      5  C   UNL     1      21.857   7.702   7.668  1.00  0.00     0.131 A 
ATOM      6  C   UNL     1      22.333   8.528   8.689  1.00  0.00     0.093 A 
ATOM      7  C   UNL     1      21.746   9.779   8.917  1.00  0.00     0.122 A 
ATOM      8  C   UNL     1      20.681  10.203   8.117  1.00  0.00     0.092 A 
ATOM      9  C   UNL     1      20.191   9.381   7.092  1.00  0.00     0.126 A 
ATOM     10  C   UNL     1      20.766   8.114   6.875  1.00  0.00     0.039 A 
ENDROOT
BRANCH   2  11
ATOM     11  O   UNL     1      20.307   4.968   4.875  1.00  0.00    -0.389 OA
ATOM     12  H   UNL     1      20.362   4.015   5.146  1.00  0.00     0.211 HD
ENDBRANCH   2  11
BRANCH   3  13
ATOM     13  C   UNL     1      22.524   4.200   6.634  1.00  0.00    -0.001 A 
ATOM     14  C   UNL     1      23.078   3.383   5.633  1.00  0.00     0.057 A 
ATOM     15  C   UNL     1      22.372   3.684   7.931  1.00  0.00     0.012 A 
ATOM     16  C   UNL     1      23.455   2.062   5.918  1.00  0.00     0.157 A 
ATOM     17  C   UNL     1      22.746   2.370   8.217  1.00  0.00     0.050 A 
ATOM     18  C   UNL     1      23.286   1.554   7.217  1.00  0.00     0.157 A 
BRANCH  16  19
ATOM     19  O   UNL     1      23.998   1.257   4.918  1.00  0.00    -0.504 OA
ATOM     20  H   UNL     1      23.604   0.351   4.695  1.00  0.00     0.293 HD
ENDBRANCH  16  19
BRANCH  18  21
ATOM     21  O   UNL     1      23.650   0.245   7.532  1.00  0.00    -0.504 OA
ATOM     22  H   UNL     1      24.613  -0.024   7.687  1.00  0.00     0.293 HD
ENDBRANCH  18  21
ENDBRANCH   3  13
BRANCH   9  23
ATOM     23  O   UNL     1      19.137   9.819   6.291  1.00  0.00    -0.507 OA
ATOM     24  H   UNL     1      18.632   9.186   5.683  1.00  0.00     0.293 HD
ENDBRANCH   9  23
BRANCH   7  25
ATOM     25  O   UNL     1      22.216  10.610   9.932  1.00  0.00    -0.508 OA
ATOM     26  H   UNL     1      22.555  11.544   9.737  1.00  0.00     0.293 HD
ENDBRANCH   7  25
TORSDOF 6
ENDMDL
MODEL 7
REMARK VINA RESULT:    13.730     22.191     23.502
REMARK INTER + INTRA:          16.933
REMARK INTER:                  16.567
REMARK INTRA:                   0.366
REMARK UNBOUND:                 0.393
REMARK SMILES Oc1cc(O)c2c(c1)O[C@@H](c1ccc(O)c(O)c1)[C@H](O)C2
REMARK SMILES IDX 21 1 19 2 10 3 9 4 7 5 8 6 2 7 3 8 4 9 6 10 20 11 11 13
REMARK SMILES IDX 18 14 12 15 16 16 13 17 14 18 17 19 15 21 5 23 1 25
REMARK H PARENT 20 12 17 20 15 22 5 24 1 26
REMARK Flexibility Score: inf
ROOT
ATOM      1  C   UNL     1      22.724   8.572   5.229  1.00  0.00     0.079 C 
ATOM      2  C   UNL     1      21.828   9.763   5.620  1.00  0.00     0.164 C 
ATOM      3  C   UNL     1      20.341   9.392   5.426  1.00  0.00     0.232 C 
ATOM      4  O   UNL     1      20.030   8.214   6.173  1.00  0.00    -0.482 OA
ATOM      5  C   UNL     1      20.936   7.156   6.319  1.00  0.00     0.131 A 
ATOM      6  C   UNL     1      20.507   5.967   6.914  1.00  0.00     0.093 A 
ATOM      7  C   UNL     1      21.395   4.895   7.071  1.00  0.00     0.122 A 
ATOM      8  C   UNL     1      22.715   5.016   6.628  1.00  0.00     0.092 A 
ATOM      9  C   UNL     1      23.159   6.206   6.034  1.00  0.00     0.126 A 
ATOM     10  C   UNL     1      22.273   7.292   5.894  1.00  0.00     0.039 A 
ENDROOT
BRANCH   2  11
ATOM     11  O   UNL     1      22.173  10.906   4.876  1.00  0.00    -0.389 OA
ATOM     12  H   UNL     1      21.339  11.272   4.482  1.00  0.00     0.211 HD
ENDBRANCH   2  11
BRANCH   3  13
ATOM     13  C   UNL     1      19.438  10.522   5.861  1.00  0.00    -0.001 A 
ATOM     14  C   UNL     1      19.964  11.802   6.106  1.00  0.00     0.057 A 
ATOM     15  C   UNL     1      18.054  10.317   5.977  1.00  0.00     0.012 A 
ATOM     16  C   UNL     1      19.121  12.859   6.483  1.00  0.00     0.157 A 
ATOM     17  C   UNL     1      17.213  11.367   6.352  1.00  0.00     0.050 A 
ATOM     18  C   UNL     1      17.739  12.638   6.607  1.00  0.00     0.157 A 
BRANCH  16  19
ATOM     19  O   UNL     1      19.651  14.125   6.730  1.00  0.00    -0.504 OA
ATOM     20  H   UNL     1      19.836  14.778   5.978  1.00  0.00     0.293 HD
ENDBRANCH  16  19
BRANCH  18  21
ATOM     21  O   UNL     1      16.875  13.667   6.982  1.00  0.00    -0.504 OA
ATOM     22  H   UNL     1      15.882  13.516   7.107  1.00  0.00     0.293 HD
ENDBRANCH  18  21
ENDBRANCH   3  13
BRANCH   9  23
ATOM     23  O   UNL     1      24.474   6.311   5.582  1.00  0.00    -0.507 OA
ATOM     24  H   UNL     1      24.691   6.444   4.601  1.00  0.00     0.293 HD
ENDBRANCH   9  23
BRANCH   7  25
ATOM     25  O   UNL     1      20.974   3.705   7.662  1.00  0.00    -0.508 OA
ATOM     26  H   UNL     1      20.791   3.645   8.656  1.00  0.00     0.293 HD
ENDBRANCH   7  25
TORSDOF 6
ENDMDL
MODEL 8
REMARK VINA RESULT:    13.807     21.869     24.110
REMARK INTER + INTRA:          17.025
REMARK INTER:                  17.387
REMARK INTRA:                  -0.362
REMARK UNBOUND:                 0.393
REMARK SMILES Oc1cc(O)c2c(c1)O[C@@H](c1ccc(O)c(O)c1)[C@H](O)C2
REMARK SMILES IDX 21 1 19 2 10 3 9 4 7 5 8 6 2 7 3 8 4 9 6 10 20 11 11 13
REMARK SMILES IDX 18 14 12 15 16 16 13 17 14 18 17 19 15 21 5 23 1 25
REMARK H PARENT 20 12 17 20 15 22 5 24 1 26
REMARK Flexibility Score: inf
ROOT
ATOM      1  C   UNL     1      20.211  10.659   8.935  1.00  0.00     0.079 C 
ATOM      2  C   UNL     1      21.094   9.548   8.336  1.00  0.00     0.164 C 
ATOM      3  C   UNL     1      20.319   8.794   7.232  1.00  0.00     0.232 C 
ATOM      4  O   UNL     1      19.864   9.716   6.240  1.00  0.00    -0.482 OA
ATOM      5  C   UNL     1      19.424  11.007   6.558  1.00  0.00     0.131 A 
ATOM      6  C   UNL     1      18.833  11.792   5.565  1.00  0.00     0.093 A 
ATOM      7  C   UNL     1      18.385  13.086   5.860  1.00  0.00     0.122 A 
ATOM      8  C   UNL     1      18.529  13.592   7.154  1.00  0.00     0.092 A 
ATOM      9  C   UNL     1      19.124  12.816   8.159  1.00  0.00     0.126 A 
ATOM     10  C   UNL     1      19.594  11.523   7.860  1.00  0.00     0.039 A 
ENDROOT
BRANCH   2  11
ATOM     11  O   UNL     1      21.535   8.671   9.343  1.00  0.00    -0.389 OA
ATOM     12  H   UNL     1      21.763   7.806   8.911  1.00  0.00     0.211 HD
ENDBRANCH   2  11
BRANCH   3  13
ATOM     13  C   UNL     1      21.184   7.739   6.586  1.00  0.00    -0.001 A 
ATOM     14  C   UNL     1      22.427   8.079   6.024  1.00  0.00     0.057 A 
ATOM     15  C   UNL     1      20.777   6.395   6.583  1.00  0.00     0.012 A 
ATOM     16  C   UNL     1      23.243   7.093   5.449  1.00  0.00     0.157 A 
ATOM     17  C   UNL     1      21.587   5.412   6.011  1.00  0.00     0.050 A 
ATOM     18  C   UNL     1      22.819   5.754   5.441  1.00  0.00     0.157 A 
BRANCH  16  19
ATOM     19  O   UNL     1      24.472   7.440   4.889  1.00  0.00    -0.504 OA
ATOM     20  H   UNL     1      25.251   6.793   4.880  1.00  0.00     0.293 HD
ENDBRANCH  16  19
BRANCH  18  21
ATOM     21  O   UNL     1      23.605   4.751   4.876  1.00  0.00    -0.504 OA
ATOM     22  H   UNL     1      24.495   4.949   4.435  1.00  0.00     0.293 HD
ENDBRANCH  18  21
ENDBRANCH   3  13
BRANCH   9  23
ATOM     23  O   UNL     1      19.250  13.326   9.451  1.00  0.00    -0.507 OA
ATOM     24  H   UNL     1      19.535  12.742  10.228  1.00  0.00     0.293 HD
ENDBRANCH   9  23
BRANCH   7  25
ATOM     25  O   UNL     1      17.793  13.874   4.875  1.00  0.00    -0.508 OA
ATOM     26  H   UNL     1      17.838  14.886   4.909  1.00  0.00     0.293 HD
ENDBRANCH   7  25
TORSDOF 6
ENDMDL
