MODEL 1
REMARK VINA RESULT:    -5.772      0.000      0.000
REMARK INTER + INTRA:          -6.339
REMARK INTER:                  -6.278
REMARK INTRA:                  -0.061
REMARK UNBOUND:                -0.061
REMARK SMILES CC1(C)[C@@H]2CC=C(CO)[C@H]1C2
REMARK SMILES IDX 8 1 7 2 1 3 2 4 4 5 3 6 10 7 5 8 11 9 6 10 9 11
REMARK H PARENT 9 12
REMARK Flexibility Score: inf
ROOT
ATOM      1  C   UNL     1      -1.442   3.979  -3.823  1.00  0.00     0.187 C 
ENDROOT
BRANCH   1   2
ATOM      2  C   UNL     1      -2.806   3.413  -3.556  1.00  0.00    -0.045 C 
ATOM      3  C   UNL     1      -3.235   1.165  -1.680  1.00  0.00     0.012 C 
ATOM      4  C   UNL     1      -4.134   2.434  -1.651  1.00  0.00    -0.026 C 
ATOM      5  C   UNL     1      -5.276   2.561  -2.695  1.00  0.00    -0.000 C 
ATOM      6  C   UNL     1      -4.640   2.637  -0.201  1.00  0.00     0.012 C 
ATOM      7  C   UNL     1      -3.578   3.744  -2.270  1.00  0.00     0.023 C 
ATOM      8  C   UNL     1      -4.809   2.006  -4.085  1.00  0.00     0.031 C 
ATOM      9  C   UNL     1      -5.008   4.079  -2.739  1.00  0.00     0.013 C 
ATOM     10  C   UNL     1      -3.424   2.581  -4.445  1.00  0.00    -0.025 C 
ENDBRANCH   1   2
BRANCH   1  11
ATOM     11  O   UNL     1      -0.757   4.142  -2.614  1.00  0.00    -0.392 OA
ATOM     12  H   UNL     1       0.116   3.684  -2.727  1.00  0.00     0.211 HD
ENDBRANCH   1  11
TORSDOF 2
ENDMDL
MODEL 2
REMARK VINA RESULT:    -5.709      1.965      3.281
REMARK INTER + INTRA:          -6.271
REMARK INTER:                  -6.248
REMARK INTRA:                  -0.023
REMARK UNBOUND:                -0.061
REMARK SMILES CC1(C)[C@@H]2CC=C(CO)[C@H]1C2
REMARK SMILES IDX 8 1 7 2 1 3 2 4 4 5 3 6 10 7 5 8 11 9 6 10 9 11
REMARK H PARENT 9 12
REMARK Flexibility Score: inf
ROOT
ATOM      1  C   UNL     1      -2.836  -0.092  -3.524  1.00  0.00     0.187 C 
ENDROOT
BRANCH   1   2
ATOM      2  C   UNL     1      -3.330   1.105  -2.766  1.00  0.00    -0.045 C 
ATOM      3  C   UNL     1      -1.966   3.727  -2.907  1.00  0.00     0.012 C 
ATOM      4  C   UNL     1      -3.510   3.604  -3.038  1.00  0.00    -0.026 C 
ATOM      5  C   UNL     1      -4.357   3.445  -1.746  1.00  0.00    -0.000 C 
ATOM      6  C   UNL     1      -4.016   4.765  -3.931  1.00  0.00     0.012 C 
ATOM      7  C   UNL     1      -4.106   2.235  -3.460  1.00  0.00     0.023 C 
ATOM      8  C   UNL     1      -3.617   2.519  -0.719  1.00  0.00     0.031 C 
ATOM      9  C   UNL     1      -5.306   2.520  -2.535  1.00  0.00     0.013 C 
ATOM     10  C   UNL     1      -3.115   1.243  -1.425  1.00  0.00    -0.025 C 
ENDBRANCH   1   2
BRANCH   1  11
ATOM     11  O   UNL     1      -2.209  -0.979  -2.641  1.00  0.00    -0.392 OA
ATOM     12  H   UNL     1      -1.854  -0.424  -1.899  1.00  0.00     0.211 HD
ENDBRANCH   1  11
TORSDOF 2
ENDMDL
MODEL 3
REMARK VINA RESULT:    -5.494      2.334      3.786
REMARK INTER + INTRA:          -6.037
REMARK INTER:                  -5.989
REMARK INTRA:                  -0.048
REMARK UNBOUND:                -0.061
REMARK SMILES CC1(C)[C@@H]2CC=C(CO)[C@H]1C2
REMARK SMILES IDX 8 1 7 2 1 3 2 4 4 5 3 6 10 7 5 8 11 9 6 10 9 11
REMARK H PARENT 9 12
REMARK Flexibility Score: inf
ROOT
ATOM      1  C   UNL     1      -6.013   2.319  -0.580  1.00  0.00     0.187 C 
ENDROOT
BRANCH   1   2
ATOM      2  C   UNL     1      -4.908   2.745  -1.502  1.00  0.00    -0.045 C 
ATOM      3  C   UNL     1      -3.609   0.858  -3.374  1.00  0.00     0.012 C 
ATOM      4  C   UNL     1      -4.066   2.273  -3.829  1.00  0.00    -0.026 C 
ATOM      5  C   UNL     1      -3.163   3.491  -3.494  1.00  0.00    -0.000 C 
ATOM      6  C   UNL     1      -4.424   2.207  -5.335  1.00  0.00     0.012 C 
ATOM      7  C   UNL     1      -5.156   2.998  -2.996  1.00  0.00     0.023 C 
ATOM      8  C   UNL     1      -2.539   3.330  -2.064  1.00  0.00     0.031 C 
ATOM      9  C   UNL     1      -4.443   4.330  -3.300  1.00  0.00     0.013 C 
ATOM     10  C   UNL     1      -3.632   2.930  -1.053  1.00  0.00    -0.025 C 
ENDBRANCH   1   2
BRANCH   1  11
ATOM     11  O   UNL     1      -7.224   2.293  -1.282  1.00  0.00    -0.392 OA
ATOM     12  H   UNL     1      -7.749   3.069  -0.955  1.00  0.00     0.211 HD
ENDBRANCH   1  11
TORSDOF 2
ENDMDL
MODEL 4
REMARK VINA RESULT:    -5.407      2.287      3.570
REMARK INTER + INTRA:          -5.942
REMARK INTER:                  -5.878
REMARK INTRA:                  -0.064
REMARK UNBOUND:                -0.061
REMARK SMILES CC1(C)[C@@H]2CC=C(CO)[C@H]1C2
REMARK SMILES IDX 8 1 7 2 1 3 2 4 4 5 3 6 10 7 5 8 11 9 6 10 9 11
REMARK H PARENT 9 12
REMARK Flexibility Score: inf
ROOT
ATOM      1  C   UNL     1      -6.819   2.720  -1.531  1.00  0.00     0.187 C 
ENDROOT
BRANCH   1   2
ATOM      2  C   UNL     1      -5.626   3.004  -2.396  1.00  0.00    -0.045 C 
ATOM      3  C   UNL     1      -2.860   2.847  -1.359  1.00  0.00     0.012 C 
ATOM      4  C   UNL     1      -3.259   2.203  -2.717  1.00  0.00    -0.026 C 
ATOM      5  C   UNL     1      -3.372   3.116  -3.969  1.00  0.00    -0.000 C 
ATOM      6  C   UNL     1      -2.339   0.981  -2.964  1.00  0.00     0.012 C 
ATOM      7  C   UNL     1      -4.755   1.874  -2.964  1.00  0.00     0.023 C 
ATOM      8  C   UNL     1      -4.003   4.498  -3.581  1.00  0.00     0.031 C 
ATOM      9  C   UNL     1      -4.546   2.239  -4.448  1.00  0.00     0.013 C 
ATOM     10  C   UNL     1      -5.263   4.280  -2.720  1.00  0.00    -0.025 C 
ENDBRANCH   1   2
BRANCH   1  11
ATOM     11  O   UNL     1      -6.393   2.403  -0.236  1.00  0.00    -0.392 OA
ATOM     12  H   UNL     1      -7.155   1.940   0.200  1.00  0.00     0.211 HD
ENDBRANCH   1  11
TORSDOF 2
ENDMDL
MODEL 5
REMARK VINA RESULT:    -5.355      1.200      2.101
REMARK INTER + INTRA:          -5.885
REMARK INTER:                  -5.833
REMARK INTRA:                  -0.053
REMARK UNBOUND:                -0.061
REMARK SMILES CC1(C)[C@@H]2CC=C(CO)[C@H]1C2
REMARK SMILES IDX 8 1 7 2 1 3 2 4 4 5 3 6 10 7 5 8 11 9 6 10 9 11
REMARK H PARENT 9 12
REMARK Flexibility Score: inf
ROOT
ATOM      1  C   UNL     1      -2.291   4.544  -4.127  1.00  0.00     0.187 C 
ENDROOT
BRANCH   1   2
ATOM      2  C   UNL     1      -3.055   3.666  -3.180  1.00  0.00    -0.045 C 
ATOM      3  C   UNL     1      -3.462   0.781  -3.695  1.00  0.00     0.012 C 
ATOM      4  C   UNL     1      -3.013   1.305  -2.301  1.00  0.00    -0.026 C 
ATOM      5  C   UNL     1      -4.087   1.894  -1.346  1.00  0.00    -0.000 C 
ATOM      6  C   UNL     1      -2.163   0.204  -1.619  1.00  0.00     0.012 C 
ATOM      7  C   UNL     1      -2.342   2.702  -2.221  1.00  0.00     0.023 C 
ATOM      8  C   UNL     1      -5.139   2.728  -2.156  1.00  0.00     0.031 C 
ATOM      9  C   UNL     1      -3.033   2.909  -0.859  1.00  0.00     0.013 C 
ATOM     10  C   UNL     1      -4.419   3.687  -3.126  1.00  0.00    -0.025 C 
ENDBRANCH   1   2
BRANCH   1  11
ATOM     11  O   UNL     1      -0.956   4.126  -4.180  1.00  0.00    -0.392 OA
ATOM     12  H   UNL     1      -0.981   3.148  -4.348  1.00  0.00     0.211 HD
ENDBRANCH   1  11
TORSDOF 2
ENDMDL
MODEL 6
REMARK VINA RESULT:    -5.258      2.027      3.143
REMARK INTER + INTRA:          -5.781
REMARK INTER:                  -5.745
REMARK INTRA:                  -0.036
REMARK UNBOUND:                -0.061
REMARK SMILES CC1(C)[C@@H]2CC=C(CO)[C@H]1C2
REMARK SMILES IDX 8 1 7 2 1 3 2 4 4 5 3 6 10 7 5 8 11 9 6 10 9 11
REMARK H PARENT 9 12
REMARK Flexibility Score: inf
ROOT
ATOM      1  C   UNL     1      -3.386   0.980  -5.219  1.00  0.00     0.187 C 
ENDROOT
BRANCH   1   2
ATOM      2  C   UNL     1      -3.303   1.825  -3.981  1.00  0.00    -0.045 C 
ATOM      3  C   UNL     1      -4.273   4.620  -3.920  1.00  0.00     0.012 C 
ATOM      4  C   UNL     1      -4.622   3.610  -2.789  1.00  0.00    -0.026 C 
ATOM      5  C   UNL     1      -3.561   3.328  -1.691  1.00  0.00    -0.000 C 
ATOM      6  C   UNL     1      -5.994   4.008  -2.190  1.00  0.00     0.012 C 
ATOM      7  C   UNL     1      -4.534   2.094  -3.103  1.00  0.00     0.023 C 
ATOM      8  C   UNL     1      -2.125   3.282  -2.319  1.00  0.00     0.031 C 
ATOM      9  C   UNL     1      -4.050   1.865  -1.658  1.00  0.00     0.013 C 
ATOM     10  C   UNL     1      -2.127   2.392  -3.579  1.00  0.00    -0.025 C 
ENDBRANCH   1   2
BRANCH   1  11
ATOM     11  O   UNL     1      -3.331  -0.373  -4.865  1.00  0.00    -0.392 OA
ATOM     12  H   UNL     1      -2.478  -0.496  -4.374  1.00  0.00     0.211 HD
ENDBRANCH   1  11
TORSDOF 2
ENDMDL
MODEL 7
REMARK VINA RESULT:    -5.021      2.125      3.148
REMARK INTER + INTRA:          -5.523
REMARK INTER:                  -5.484
REMARK INTRA:                  -0.039
REMARK UNBOUND:                -0.061
REMARK SMILES CC1(C)[C@@H]2CC=C(CO)[C@H]1C2
REMARK SMILES IDX 8 1 7 2 1 3 2 4 4 5 3 6 10 7 5 8 11 9 6 10 9 11
REMARK H PARENT 9 12
REMARK Flexibility Score: inf
ROOT
ATOM      1  C   UNL     1      -4.830   1.644  -5.936  1.00  0.00     0.187 C 
ENDROOT
BRANCH   1   2
ATOM      2  C   UNL     1      -4.176   2.473  -4.869  1.00  0.00    -0.045 C 
ATOM      3  C   UNL     1      -5.689   3.545  -2.564  1.00  0.00     0.012 C 
ATOM      4  C   UNL     1      -4.312   2.846  -2.381  1.00  0.00    -0.026 C 
ATOM      5  C   UNL     1      -3.020   3.658  -2.672  1.00  0.00    -0.000 C 
ATOM      6  C   UNL     1      -4.286   2.184  -0.980  1.00  0.00     0.012 C 
ATOM      7  C   UNL     1      -3.821   1.884  -3.496  1.00  0.00     0.023 C 
ATOM      8  C   UNL     1      -3.228   4.587  -3.918  1.00  0.00     0.031 C 
ATOM      9  C   UNL     1      -2.382   2.363  -3.216  1.00  0.00     0.013 C 
ATOM     10  C   UNL     1      -3.863   3.786  -5.073  1.00  0.00    -0.025 C 
ENDBRANCH   1   2
BRANCH   1  11
ATOM     11  O   UNL     1      -3.932   0.672  -6.391  1.00  0.00    -0.392 OA
ATOM     12  H   UNL     1      -3.286   1.146  -6.976  1.00  0.00     0.211 HD
ENDBRANCH   1  11
TORSDOF 2
ENDMDL
MODEL 8
REMARK VINA RESULT:    -5.009      1.472      3.138
REMARK INTER + INTRA:          -5.510
REMARK INTER:                  -5.487
REMARK INTRA:                  -0.023
REMARK UNBOUND:                -0.061
REMARK SMILES CC1(C)[C@@H]2CC=C(CO)[C@H]1C2
REMARK SMILES IDX 8 1 7 2 1 3 2 4 4 5 3 6 10 7 5 8 11 9 6 10 9 11
REMARK H PARENT 9 12
REMARK Flexibility Score: inf
ROOT
ATOM      1  C   UNL     1      -0.771   3.297  -3.991  1.00  0.00     0.187 C 
ENDROOT
BRANCH   1   2
ATOM      2  C   UNL     1      -2.237   2.988  -3.902  1.00  0.00    -0.045 C 
ATOM      3  C   UNL     1      -4.048   3.280  -6.223  1.00  0.00     0.012 C 
ATOM      4  C   UNL     1      -4.079   2.015  -5.318  1.00  0.00    -0.026 C 
ATOM      5  C   UNL     1      -4.836   2.087  -3.964  1.00  0.00    -0.000 C 
ATOM      6  C   UNL     1      -4.536   0.812  -6.181  1.00  0.00     0.012 C 
ATOM      7  C   UNL     1      -2.823   1.687  -4.469  1.00  0.00     0.023 C 
ATOM      8  C   UNL     1      -4.614   3.485  -3.289  1.00  0.00     0.031 C 
ATOM      9  C   UNL     1      -3.760   1.157  -3.365  1.00  0.00     0.013 C 
ATOM     10  C   UNL     1      -3.116   3.849  -3.310  1.00  0.00    -0.025 C 
ENDBRANCH   1   2
BRANCH   1  11
ATOM     11  O   UNL     1      -0.395   4.101  -2.909  1.00  0.00    -0.392 OA
ATOM     12  H   UNL     1       0.597   4.101  -2.897  1.00  0.00     0.211 HD
ENDBRANCH   1  11
TORSDOF 2
ENDMDL
MODEL 9
REMARK VINA RESULT:    -4.889      2.108      3.651
REMARK INTER + INTRA:          -5.379
REMARK INTER:                  -5.354
REMARK INTRA:                  -0.025
REMARK UNBOUND:                -0.061
REMARK SMILES CC1(C)[C@@H]2CC=C(CO)[C@H]1C2
REMARK SMILES IDX 8 1 7 2 1 3 2 4 4 5 3 6 10 7 5 8 11 9 6 10 9 11
REMARK H PARENT 9 12
REMARK Flexibility Score: inf
ROOT
ATOM      1  C   UNL     1      -5.270   3.368  -0.044  1.00  0.00     0.187 C 
ENDROOT
BRANCH   1   2
ATOM      2  C   UNL     1      -4.765   2.883  -1.371  1.00  0.00    -0.045 C 
ATOM      3  C   UNL     1      -3.728   4.737  -3.431  1.00  0.00     0.012 C 
ATOM      4  C   UNL     1      -2.972   3.431  -3.054  1.00  0.00    -0.026 C 
ATOM      5  C   UNL     1      -3.461   2.087  -3.659  1.00  0.00    -0.000 C 
ATOM      6  C   UNL     1      -1.458   3.662  -3.288  1.00  0.00     0.012 C 
ATOM      7  C   UNL     1      -3.262   2.784  -1.674  1.00  0.00     0.023 C 
ATOM      8  C   UNL     1      -5.028   2.054  -3.719  1.00  0.00     0.031 C 
ATOM      9  C   UNL     1      -3.079   1.401  -2.331  1.00  0.00     0.013 C 
ATOM     10  C   UNL     1      -5.618   2.504  -2.368  1.00  0.00    -0.025 C 
ENDBRANCH   1   2
BRANCH   1  11
ATOM     11  O   UNL     1      -6.047   2.370   0.555  1.00  0.00    -0.392 OA
ATOM     12  H   UNL     1      -6.183   2.653   1.496  1.00  0.00     0.211 HD
ENDBRANCH   1  11
TORSDOF 2
ENDMDL
