MODEL 1
REMARK VINA RESULT:    -3.407      0.000      0.000
REMARK INTER + INTRA:          -4.039
REMARK INTER:                  -4.004
REMARK INTRA:                  -0.035
REMARK UNBOUND:                -0.035
REMARK SMILES CCCCC(=O)[O-]
REMARK SMILES IDX 4 1 5 2 6 3 7 4 3 5 2 6 1 7
REMARK H PARENT
REMARK Flexibility Score: inf
ROOT
ATOM      1  C   UNL     1       6.193  -9.312 -22.678  1.00  0.00     0.053 C 
ENDROOT
BRANCH   1   2
ATOM      2  C   UNL     1       5.546  -8.119 -22.044  1.00  0.00     0.041 C 
ATOM      3  O   UNL     1       5.710  -6.972 -22.537  1.00  0.00    -0.550 OA
ATOM      4  O   UNL     1       4.787  -8.271 -20.890  1.00  0.00    -0.550 OA
ENDBRANCH   1   2
BRANCH   1   5
ATOM      5  C   UNL     1       5.238 -10.511 -22.738  1.00  0.00     0.006 C 
BRANCH   5   6
ATOM      6  C   UNL     1       5.703 -11.573 -23.744  1.00  0.00    -0.003 C 
ATOM      7  C   UNL     1       7.042 -11.189 -24.368  1.00  0.00     0.004 C 
ENDBRANCH   5   6
ENDBRANCH   1   5
TORSDOF 3
ENDMDL
MODEL 2
REMARK VINA RESULT:    -3.302      3.916      4.718
REMARK INTER + INTRA:          -3.916
REMARK INTER:                  -3.817
REMARK INTRA:                  -0.099
REMARK UNBOUND:                -0.035
REMARK SMILES CCCCC(=O)[O-]
REMARK SMILES IDX 4 1 5 2 6 3 7 4 3 5 2 6 1 7
REMARK H PARENT
REMARK Flexibility Score: inf
ROOT
ATOM      1  C   UNL     1       4.250 -12.558 -21.814  1.00  0.00     0.053 C 
ENDROOT
BRANCH   1   2
ATOM      2  C   UNL     1       4.706 -13.984 -21.749  1.00  0.00     0.041 C 
ATOM      3  O   UNL     1       5.912 -14.253 -21.509  1.00  0.00    -0.550 OA
ATOM      4  O   UNL     1       3.804 -15.013 -21.986  1.00  0.00    -0.550 OA
ENDBRANCH   1   2
BRANCH   1   5
ATOM      5  C   UNL     1       4.422 -11.970 -23.220  1.00  0.00     0.006 C 
BRANCH   5   6
ATOM      6  C   UNL     1       5.662 -11.072 -23.325  1.00  0.00    -0.003 C 
ATOM      7  C   UNL     1       6.682 -11.654 -24.301  1.00  0.00     0.004 C 
ENDBRANCH   5   6
ENDBRANCH   1   5
TORSDOF 3
ENDMDL
MODEL 3
REMARK VINA RESULT:    -3.221      3.176      3.968
REMARK INTER + INTRA:          -3.820
REMARK INTER:                  -3.760
REMARK INTRA:                  -0.060
REMARK UNBOUND:                -0.035
REMARK SMILES CCCCC(=O)[O-]
REMARK SMILES IDX 4 1 5 2 6 3 7 4 3 5 2 6 1 7
REMARK H PARENT
REMARK Flexibility Score: inf
ROOT
ATOM      1  C   UNL     1       4.775 -11.388 -23.208  1.00  0.00     0.053 C 
ENDROOT
BRANCH   1   2
ATOM      2  C   UNL     1       4.306 -12.608 -22.474  1.00  0.00     0.041 C 
ATOM      3  O   UNL     1       5.071 -13.193 -21.664  1.00  0.00    -0.550 OA
ATOM      4  O   UNL     1       3.034 -13.115 -22.710  1.00  0.00    -0.550 OA
ENDBRANCH   1   2
BRANCH   1   5
ATOM      5  C   UNL     1       6.075 -11.654 -23.978  1.00  0.00     0.006 C 
BRANCH   5   6
ATOM      6  C   UNL     1       7.000 -10.430 -23.993  1.00  0.00    -0.003 C 
ATOM      7  C   UNL     1       6.562  -9.396 -22.959  1.00  0.00     0.004 C 
ENDBRANCH   5   6
ENDBRANCH   1   5
TORSDOF 3
ENDMDL
MODEL 4
REMARK VINA RESULT:    -3.198      4.820      5.887
REMARK INTER + INTRA:          -3.794
REMARK INTER:                  -3.752
REMARK INTRA:                  -0.042
REMARK UNBOUND:                -0.035
REMARK SMILES CCCCC(=O)[O-]
REMARK SMILES IDX 4 1 5 2 6 3 7 4 3 5 2 6 1 7
REMARK H PARENT
REMARK Flexibility Score: inf
ROOT
ATOM      1  C   UNL     1       5.386 -14.279 -21.733  1.00  0.00     0.053 C 
ENDROOT
BRANCH   1   2
ATOM      2  C   UNL     1       4.421 -15.394 -22.002  1.00  0.00     0.041 C 
ATOM      3  O   UNL     1       3.183 -15.205 -21.871  1.00  0.00    -0.550 OA
ATOM      4  O   UNL     1       4.892 -16.648 -22.366  1.00  0.00    -0.550 OA
ENDBRANCH   1   2
BRANCH   1   5
ATOM      5  C   UNL     1       4.696 -12.910 -21.772  1.00  0.00     0.006 C 
BRANCH   5   6
ATOM      6  C   UNL     1       5.109 -12.087 -23.001  1.00  0.00    -0.003 C 
ATOM      7  C   UNL     1       5.072 -10.591 -22.698  1.00  0.00     0.004 C 
ENDBRANCH   5   6
ENDBRANCH   1   5
TORSDOF 3
ENDMDL
MODEL 5
REMARK VINA RESULT:    -3.189      3.158      3.787
REMARK INTER + INTRA:          -3.783
REMARK INTER:                  -3.717
REMARK INTRA:                  -0.066
REMARK UNBOUND:                -0.035
REMARK SMILES CCCCC(=O)[O-]
REMARK SMILES IDX 4 1 5 2 6 3 7 4 3 5 2 6 1 7
REMARK H PARENT
REMARK Flexibility Score: inf
ROOT
ATOM      1  C   UNL     1       4.312 -12.176 -23.087  1.00  0.00     0.053 C 
ENDROOT
BRANCH   1   2
ATOM      2  C   UNL     1       5.457 -11.246 -23.347  1.00  0.00     0.041 C 
ATOM      3  O   UNL     1       6.350 -11.558 -24.178  1.00  0.00    -0.550 OA
ATOM      4  O   UNL     1       5.553 -10.050 -22.649  1.00  0.00    -0.550 OA
ENDBRANCH   1   2
BRANCH   1   5
ATOM      5  C   UNL     1       4.436 -12.862 -21.720  1.00  0.00     0.006 C 
BRANCH   5   6
ATOM      6  C   UNL     1       5.413 -14.045 -21.751  1.00  0.00    -0.003 C 
ATOM      7  C   UNL     1       4.676 -15.360 -21.994  1.00  0.00     0.004 C 
ENDBRANCH   5   6
ENDBRANCH   1   5
TORSDOF 3
ENDMDL
MODEL 6
REMARK VINA RESULT:    -3.175      3.181      3.836
REMARK INTER + INTRA:          -3.767
REMARK INTER:                  -3.729
REMARK INTRA:                  -0.038
REMARK UNBOUND:                -0.035
REMARK SMILES CCCCC(=O)[O-]
REMARK SMILES IDX 4 1 5 2 6 3 7 4 3 5 2 6 1 7
REMARK H PARENT
REMARK Flexibility Score: inf
ROOT
ATOM      1  C   UNL     1       5.036 -11.103 -23.006  1.00  0.00     0.053 C 
ENDROOT
BRANCH   1   2
ATOM      2  C   UNL     1       4.385 -12.345 -22.477  1.00  0.00     0.041 C 
ATOM      3  O   UNL     1       3.185 -12.601 -22.762  1.00  0.00    -0.550 OA
ATOM      4  O   UNL     1       5.094 -13.201 -21.646  1.00  0.00    -0.550 OA
ENDBRANCH   1   2
BRANCH   1   5
ATOM      5  C   UNL     1       4.784  -9.897 -22.091  1.00  0.00     0.006 C 
BRANCH   5   6
ATOM      6  C   UNL     1       5.889  -8.838 -22.212  1.00  0.00    -0.003 C 
ATOM      7  C   UNL     1       6.976  -9.285 -23.186  1.00  0.00     0.004 C 
ENDBRANCH   5   6
ENDBRANCH   1   5
TORSDOF 3
ENDMDL
MODEL 7
REMARK VINA RESULT:    -3.170      2.816      3.296
REMARK INTER + INTRA:          -3.761
REMARK INTER:                  -3.674
REMARK INTRA:                  -0.087
REMARK UNBOUND:                -0.035
REMARK SMILES CCCCC(=O)[O-]
REMARK SMILES IDX 4 1 5 2 6 3 7 4 3 5 2 6 1 7
REMARK H PARENT
REMARK Flexibility Score: inf
ROOT
ATOM      1  C   UNL     1       5.279 -10.679 -22.786  1.00  0.00     0.053 C 
ENDROOT
BRANCH   1   2
ATOM      2  C   UNL     1       6.508 -10.517 -23.627  1.00  0.00     0.041 C 
ATOM      3  O   UNL     1       7.131  -9.423 -23.634  1.00  0.00    -0.550 OA
ATOM      4  O   UNL     1       6.946 -11.564 -24.427  1.00  0.00    -0.550 OA
ENDBRANCH   1   2
BRANCH   1   5
ATOM      5  C   UNL     1       4.575 -12.014 -23.061  1.00  0.00     0.006 C 
BRANCH   5   6
ATOM      6  C   UNL     1       4.447 -12.873 -21.795  1.00  0.00    -0.003 C 
ATOM      7  C   UNL     1       5.473 -14.004 -21.792  1.00  0.00     0.004 C 
ENDBRANCH   5   6
ENDBRANCH   1   5
TORSDOF 3
ENDMDL
MODEL 8
REMARK VINA RESULT:    -3.158     12.474     13.093
REMARK INTER + INTRA:          -3.747
REMARK INTER:                  -3.717
REMARK INTRA:                  -0.030
REMARK UNBOUND:                -0.035
REMARK SMILES CCCCC(=O)[O-]
REMARK SMILES IDX 4 1 5 2 6 3 7 4 3 5 2 6 1 7
REMARK H PARENT
REMARK Flexibility Score: inf
ROOT
ATOM      1  C   UNL     1       3.682 -10.166 -35.009  1.00  0.00     0.053 C 
ENDROOT
BRANCH   1   2
ATOM      2  C   UNL     1       4.059  -9.057 -35.944  1.00  0.00     0.041 C 
ATOM      3  O   UNL     1       3.453  -7.955 -35.895  1.00  0.00    -0.550 OA
ATOM      4  O   UNL     1       5.057  -9.254 -36.889  1.00  0.00    -0.550 OA
ENDBRANCH   1   2
BRANCH   1   5
ATOM      5  C   UNL     1       2.266  -9.980 -34.449  1.00  0.00     0.006 C 
BRANCH   5   6
ATOM      6  C   UNL     1       1.376 -11.204 -34.704  1.00  0.00    -0.003 C 
ATOM      7  C   UNL     1       1.079 -11.948 -33.405  1.00  0.00     0.004 C 
ENDBRANCH   5   6
ENDBRANCH   1   5
TORSDOF 3
ENDMDL
MODEL 9
REMARK VINA RESULT:    -3.158     12.208     12.530
REMARK INTER + INTRA:          -3.747
REMARK INTER:                  -3.717
REMARK INTRA:                  -0.030
REMARK UNBOUND:                -0.035
REMARK SMILES CCCCC(=O)[O-]
REMARK SMILES IDX 4 1 5 2 6 3 7 4 3 5 2 6 1 7
REMARK H PARENT
REMARK Flexibility Score: inf
ROOT
ATOM      1  C   UNL     1       1.366 -11.246 -34.849  1.00  0.00     0.053 C 
ENDROOT
BRANCH   1   2
ATOM      2  C   UNL     1       0.771 -11.784 -33.584  1.00  0.00     0.041 C 
ATOM      3  O   UNL     1       1.354 -12.702 -32.950  1.00  0.00    -0.550 OA
ATOM      4  O   UNL     1      -0.443 -11.292 -33.122  1.00  0.00    -0.550 OA
ENDBRANCH   1   2
BRANCH   1   5
ATOM      5  C   UNL     1       2.366 -10.116 -34.571  1.00  0.00     0.006 C 
BRANCH   5   6
ATOM      6  C   UNL     1       3.728 -10.372 -35.232  1.00  0.00    -0.003 C 
ATOM      7  C   UNL     1       4.682  -9.204 -34.994  1.00  0.00     0.004 C 
ENDBRANCH   5   6
ENDBRANCH   1   5
TORSDOF 3
ENDMDL
