MODEL 1
REMARK VINA RESULT:    -3.299      0.000      0.000
REMARK INTER + INTRA:          -5.025
REMARK INTER:                  -4.649
REMARK INTRA:                  -0.375
REMARK UNBOUND:                -0.375
REMARK SMILES CCCCCCCCC(=O)[O-]
REMARK SMILES IDX 6 1 7 2 8 3 9 4 10 5 11 6 5 7 4 8 3 9 2 10 1 11
REMARK H PARENT
REMARK Flexibility Score: inf
ROOT
ATOM      1  C   UNL     1     111.802  63.949 217.338  1.00  0.00     0.000 C 
ENDROOT
BRANCH   1   2
ATOM      2  C   UNL     1     111.742  65.345 217.978  1.00  0.00     0.006 C 
BRANCH   2   3
ATOM      3  C   UNL     1     113.134  65.937 218.235  1.00  0.00     0.053 C 
BRANCH   3   4
ATOM      4  C   UNL     1     113.493  66.912 217.159  1.00  0.00     0.041 C 
ATOM      5  O   UNL     1     114.074  66.517 216.114  1.00  0.00    -0.550 OA
ATOM      6  O   UNL     1     113.229  68.265 217.330  1.00  0.00    -0.550 OA
ENDBRANCH   3   4
ENDBRANCH   2   3
ENDBRANCH   1   2
BRANCH   1   7
ATOM      7  C   UNL     1     111.407  63.962 215.851  1.00  0.00     0.000 C 
BRANCH   7   8
ATOM      8  C   UNL     1     110.524  62.752 215.475  1.00  0.00    -0.000 C 
BRANCH   8   9
ATOM      9  C   UNL     1     110.423  61.693 216.585  1.00  0.00    -0.000 C 
BRANCH   9  10
ATOM     10  C   UNL     1     109.261  60.714 216.372  1.00  0.00    -0.003 C 
ATOM     11  C   UNL     1     108.113  61.379 215.616  1.00  0.00     0.004 C 
ENDBRANCH   9  10
ENDBRANCH   8   9
ENDBRANCH   7   8
ENDBRANCH   1   7
TORSDOF 7
ENDMDL
MODEL 2
REMARK VINA RESULT:    -3.261     15.892     16.861
REMARK INTER + INTRA:          -4.970
REMARK INTER:                  -4.717
REMARK INTRA:                  -0.254
REMARK UNBOUND:                -0.375
REMARK SMILES CCCCCCCCC(=O)[O-]
REMARK SMILES IDX 6 1 7 2 8 3 9 4 10 5 11 6 5 7 4 8 3 9 2 10 1 11
REMARK H PARENT
REMARK Flexibility Score: inf
ROOT
ATOM      1  C   UNL     1     113.636  54.225 229.482  1.00  0.00     0.000 C 
ENDROOT
BRANCH   1   2
ATOM      2  C   UNL     1     113.859  54.668 228.028  1.00  0.00     0.006 C 
BRANCH   2   3
ATOM      3  C   UNL     1     113.003  53.877 227.031  1.00  0.00     0.053 C 
BRANCH   3   4
ATOM      4  C   UNL     1     112.586  54.752 225.891  1.00  0.00     0.041 C 
ATOM      5  O   UNL     1     111.887  54.282 224.955  1.00  0.00    -0.550 OA
ATOM      6  O   UNL     1     113.010  56.073 225.838  1.00  0.00    -0.550 OA
ENDBRANCH   3   4
ENDBRANCH   2   3
ENDBRANCH   1   2
BRANCH   1   7
ATOM      7  C   UNL     1     113.129  55.368 230.378  1.00  0.00     0.000 C 
BRANCH   7   8
ATOM      8  C   UNL     1     113.103  54.970 231.870  1.00  0.00    -0.000 C 
BRANCH   8   9
ATOM      9  C   UNL     1     113.139  53.450 232.103  1.00  0.00    -0.000 C 
BRANCH   9  10
ATOM     10  C   UNL     1     113.311  53.077 233.581  1.00  0.00    -0.003 C 
ATOM     11  C   UNL     1     114.773  53.184 234.008  1.00  0.00     0.004 C 
ENDBRANCH   9  10
ENDBRANCH   8   9
ENDBRANCH   7   8
ENDBRANCH   1   7
TORSDOF 7
ENDMDL
MODEL 3
REMARK VINA RESULT:    -3.218      1.011      1.609
REMARK INTER + INTRA:          -4.911
REMARK INTER:                  -4.561
REMARK INTRA:                  -0.350
REMARK UNBOUND:                -0.375
REMARK SMILES CCCCCCCCC(=O)[O-]
REMARK SMILES IDX 6 1 7 2 8 3 9 4 10 5 11 6 5 7 4 8 3 9 2 10 1 11
REMARK H PARENT
REMARK Flexibility Score: inf
ROOT
ATOM      1  C   UNL     1     111.423  63.042 216.397  1.00  0.00     0.000 C 
ENDROOT
BRANCH   1   2
ATOM      2  C   UNL     1     112.575  63.958 216.838  1.00  0.00     0.006 C 
BRANCH   2   3
ATOM      3  C   UNL     1     112.083  65.286 217.427  1.00  0.00     0.053 C 
BRANCH   3   4
ATOM      4  C   UNL     1     112.927  66.420 216.936  1.00  0.00     0.041 C 
ATOM      5  O   UNL     1     112.715  67.591 217.345  1.00  0.00    -0.550 OA
ATOM      6  O   UNL     1     113.917  66.190 215.989  1.00  0.00    -0.550 OA
ENDBRANCH   3   4
ENDBRANCH   2   3
ENDBRANCH   1   2
BRANCH   1   7
ATOM      7  C   UNL     1     110.676  63.582 215.166  1.00  0.00     0.000 C 
BRANCH   7   8
ATOM      8  C   UNL     1     109.383  62.788 214.876  1.00  0.00    -0.000 C 
BRANCH   8   9
ATOM      9  C   UNL     1     109.448  61.320 215.328  1.00  0.00    -0.000 C 
BRANCH   9  10
ATOM     10  C   UNL     1     108.068  60.740 215.669  1.00  0.00    -0.003 C 
ATOM     11  C   UNL     1     107.025  61.846 215.803  1.00  0.00     0.004 C 
ENDBRANCH   9  10
ENDBRANCH   8   9
ENDBRANCH   7   8
ENDBRANCH   1   7
TORSDOF 7
ENDMDL
MODEL 4
REMARK VINA RESULT:    -3.156     16.975     17.695
REMARK INTER + INTRA:          -4.823
REMARK INTER:                  -4.182
REMARK INTRA:                  -0.641
REMARK UNBOUND:                -0.375
REMARK SMILES CCCCCCCCC(=O)[O-]
REMARK SMILES IDX 6 1 7 2 8 3 9 4 10 5 11 6 5 7 4 8 3 9 2 10 1 11
REMARK H PARENT
REMARK Flexibility Score: inf
ROOT
ATOM      1  C   UNL     1     113.052  56.088 230.774  1.00  0.00     0.000 C 
ENDROOT
BRANCH   1   2
ATOM      2  C   UNL     1     113.392  55.213 231.990  1.00  0.00     0.006 C 
BRANCH   2   3
ATOM      3  C   UNL     1     113.151  53.720 231.729  1.00  0.00     0.053 C 
BRANCH   3   4
ATOM      4  C   UNL     1     113.099  52.967 233.021  1.00  0.00     0.041 C 
ATOM      5  O   UNL     1     114.163  52.574 233.569  1.00  0.00    -0.550 OA
ATOM      6  O   UNL     1     111.873  52.656 233.595  1.00  0.00    -0.550 OA
ENDBRANCH   3   4
ENDBRANCH   2   3
ENDBRANCH   1   2
BRANCH   1   7
ATOM      7  C   UNL     1     114.305  56.571 230.022  1.00  0.00     0.000 C 
BRANCH   7   8
ATOM      8  C   UNL     1     114.300  56.130 228.542  1.00  0.00    -0.000 C 
BRANCH   8   9
ATOM      9  C   UNL     1     112.994  55.444 228.107  1.00  0.00    -0.000 C 
BRANCH   9  10
ATOM     10  C   UNL     1     113.231  54.101 227.404  1.00  0.00    -0.003 C 
ATOM     11  C   UNL     1     114.337  53.306 228.094  1.00  0.00     0.004 C 
ENDBRANCH   9  10
ENDBRANCH   8   9
ENDBRANCH   7   8
ENDBRANCH   1   7
TORSDOF 7
ENDMDL
MODEL 5
REMARK VINA RESULT:    -3.070      3.279      5.630
REMARK INTER + INTRA:          -4.702
REMARK INTER:                  -4.240
REMARK INTRA:                  -0.461
REMARK UNBOUND:                -0.375
REMARK SMILES CCCCCCCCC(=O)[O-]
REMARK SMILES IDX 6 1 7 2 8 3 9 4 10 5 11 6 5 7 4 8 3 9 2 10 1 11
REMARK H PARENT
REMARK Flexibility Score: inf
ROOT
ATOM      1  C   UNL     1     112.551  65.008 219.433  1.00  0.00     0.000 C 
ENDROOT
BRANCH   1   2
ATOM      2  C   UNL     1     111.661  65.680 218.375  1.00  0.00     0.006 C 
BRANCH   2   3
ATOM      3  C   UNL     1     112.300  65.684 216.981  1.00  0.00     0.053 C 
BRANCH   3   4
ATOM      4  C   UNL     1     113.495  66.584 216.957  1.00  0.00     0.041 C 
ATOM      5  O   UNL     1     113.352  67.829 217.077  1.00  0.00    -0.550 OA
ATOM      6  O   UNL     1     114.762  66.053 216.753  1.00  0.00    -0.550 OA
ENDBRANCH   3   4
ENDBRANCH   2   3
ENDBRANCH   1   2
BRANCH   1   7
ATOM      7  C   UNL     1     112.941  65.964 220.573  1.00  0.00     0.000 C 
BRANCH   7   8
ATOM      8  C   UNL     1     112.012  67.195 220.643  1.00  0.00    -0.000 C 
BRANCH   8   9
ATOM      9  C   UNL     1     111.056  67.179 221.848  1.00  0.00    -0.000 C 
BRANCH   9  10
ATOM     10  C   UNL     1     109.802  68.034 221.626  1.00  0.00    -0.003 C 
ATOM     11  C   UNL     1     109.631  69.061 222.742  1.00  0.00     0.004 C 
ENDBRANCH   9  10
ENDBRANCH   8   9
ENDBRANCH   7   8
ENDBRANCH   1   7
TORSDOF 7
ENDMDL
MODEL 6
REMARK VINA RESULT:    -3.049      1.264      1.806
REMARK INTER + INTRA:          -4.672
REMARK INTER:                  -4.116
REMARK INTRA:                  -0.556
REMARK UNBOUND:                -0.375
REMARK SMILES CCCCCCCCC(=O)[O-]
REMARK SMILES IDX 6 1 7 2 8 3 9 4 10 5 11 6 5 7 4 8 3 9 2 10 1 11
REMARK H PARENT
REMARK Flexibility Score: inf
ROOT
ATOM      1  C   UNL     1     112.561  64.215 218.861  1.00  0.00     0.000 C 
ENDROOT
BRANCH   1   2
ATOM      2  C   UNL     1     111.699  64.942 217.817  1.00  0.00     0.006 C 
BRANCH   2   3
ATOM      3  C   UNL     1     112.506  65.389 216.591  1.00  0.00     0.053 C 
BRANCH   3   4
ATOM      4  C   UNL     1     113.406  66.529 216.947  1.00  0.00     0.041 C 
ATOM      5  O   UNL     1     114.657  66.388 216.899  1.00  0.00    -0.550 OA
ATOM      6  O   UNL     1     112.865  67.734 217.377  1.00  0.00    -0.550 OA
ENDBRANCH   3   4
ENDBRANCH   2   3
ENDBRANCH   1   2
BRANCH   1   7
ATOM      7  C   UNL     1     112.165  62.739 219.032  1.00  0.00     0.000 C 
BRANCH   7   8
ATOM      8  C   UNL     1     111.946  62.034 217.676  1.00  0.00    -0.000 C 
BRANCH   8   9
ATOM      9  C   UNL     1     110.760  61.054 217.676  1.00  0.00    -0.000 C 
BRANCH   9  10
ATOM     10  C   UNL     1     109.840  61.232 216.461  1.00  0.00    -0.003 C 
ATOM     11  C   UNL     1     110.311  62.384 215.578  1.00  0.00     0.004 C 
ENDBRANCH   9  10
ENDBRANCH   8   9
ENDBRANCH   7   8
ENDBRANCH   1   7
TORSDOF 7
ENDMDL
MODEL 7
REMARK VINA RESULT:    -2.959     15.162     16.299
REMARK INTER + INTRA:          -4.546
REMARK INTER:                  -3.760
REMARK INTRA:                  -0.785
REMARK UNBOUND:                -0.375
REMARK SMILES CCCCCCCCC(=O)[O-]
REMARK SMILES IDX 6 1 7 2 8 3 9 4 10 5 11 6 5 7 4 8 3 9 2 10 1 11
REMARK H PARENT
REMARK Flexibility Score: inf
ROOT
ATOM      1  C   UNL     1      97.889  63.988 225.853  1.00  0.00     0.000 C 
ENDROOT
BRANCH   1   2
ATOM      2  C   UNL     1      99.345  64.361 226.173  1.00  0.00     0.006 C 
BRANCH   2   3
ATOM      3  C   UNL     1      99.778  65.675 225.510  1.00  0.00     0.053 C 
BRANCH   3   4
ATOM      4  C   UNL     1     100.962  65.448 224.625  1.00  0.00     0.041 C 
ATOM      5  O   UNL     1     101.185  64.304 224.146  1.00  0.00    -0.550 OA
ATOM      6  O   UNL     1     101.847  66.486 224.367  1.00  0.00    -0.550 OA
ENDBRANCH   3   4
ENDBRANCH   2   3
ENDBRANCH   1   2
BRANCH   1   7
ATOM      7  C   UNL     1      97.206  65.008 224.926  1.00  0.00     0.000 C 
BRANCH   7   8
ATOM      8  C   UNL     1      95.933  65.609 225.560  1.00  0.00    -0.000 C 
BRANCH   8   9
ATOM      9  C   UNL     1      96.189  66.908 226.342  1.00  0.00    -0.000 C 
BRANCH   9  10
ATOM     10  C   UNL     1      96.317  66.679 227.854  1.00  0.00    -0.003 C 
ATOM     11  C   UNL     1      97.714  67.043 228.349  1.00  0.00     0.004 C 
ENDBRANCH   9  10
ENDBRANCH   8   9
ENDBRANCH   7   8
ENDBRANCH   1   7
TORSDOF 7
ENDMDL
MODEL 8
REMARK VINA RESULT:    -2.946     14.897     16.015
REMARK INTER + INTRA:          -4.528
REMARK INTER:                  -3.819
REMARK INTRA:                  -0.709
REMARK UNBOUND:                -0.375
REMARK SMILES CCCCCCCCC(=O)[O-]
REMARK SMILES IDX 6 1 7 2 8 3 9 4 10 5 11 6 5 7 4 8 3 9 2 10 1 11
REMARK H PARENT
REMARK Flexibility Score: inf
ROOT
ATOM      1  C   UNL     1      99.126  64.274 227.201  1.00  0.00     0.000 C 
ENDROOT
BRANCH   1   2
ATOM      2  C   UNL     1      99.447  64.358 225.700  1.00  0.00     0.006 C 
BRANCH   2   3
ATOM      3  C   UNL     1      99.807  65.781 225.252  1.00  0.00     0.053 C 
BRANCH   3   4
ATOM      4  C   UNL     1     101.241  65.848 224.830  1.00  0.00     0.041 C 
ATOM      5  O   UNL     1     101.768  64.880 224.221  1.00  0.00    -0.550 OA
ATOM      6  O   UNL     1     102.010  66.958 225.153  1.00  0.00    -0.550 OA
ENDBRANCH   3   4
ENDBRANCH   2   3
ENDBRANCH   1   2
BRANCH   1   7
ATOM      7  C   UNL     1      97.685  63.810 227.473  1.00  0.00     0.000 C 
BRANCH   7   8
ATOM      8  C   UNL     1      96.710  64.997 227.621  1.00  0.00    -0.000 C 
BRANCH   8   9
ATOM      9  C   UNL     1      95.692  65.106 226.473  1.00  0.00    -0.000 C 
BRANCH   9  10
ATOM     10  C   UNL     1      96.094  66.142 225.415  1.00  0.00    -0.003 C 
ATOM     11  C   UNL     1      96.274  65.490 224.047  1.00  0.00     0.004 C 
ENDBRANCH   9  10
ENDBRANCH   8   9
ENDBRANCH   7   8
ENDBRANCH   1   7
TORSDOF 7
ENDMDL
MODEL 9
REMARK VINA RESULT:    -2.933     15.571     16.890
REMARK INTER + INTRA:          -4.509
REMARK INTER:                  -3.769
REMARK INTRA:                  -0.740
REMARK UNBOUND:                -0.375
REMARK SMILES CCCCCCCCC(=O)[O-]
REMARK SMILES IDX 6 1 7 2 8 3 9 4 10 5 11 6 5 7 4 8 3 9 2 10 1 11
REMARK H PARENT
REMARK Flexibility Score: inf
ROOT
ATOM      1  C   UNL     1      97.002  64.947 226.993  1.00  0.00     0.000 C 
ENDROOT
BRANCH   1   2
ATOM      2  C   UNL     1      97.818  64.210 225.920  1.00  0.00     0.006 C 
BRANCH   2   3
ATOM      3  C   UNL     1      98.893  65.097 225.281  1.00  0.00     0.053 C 
BRANCH   3   4
ATOM      4  C   UNL     1     100.207  64.381 225.245  1.00  0.00     0.041 C 
ATOM      5  O   UNL     1     100.551  63.641 226.203  1.00  0.00    -0.550 OA
ATOM      6  O   UNL     1     101.071  64.569 224.174  1.00  0.00    -0.550 OA
ENDBRANCH   3   4
ENDBRANCH   2   3
ENDBRANCH   1   2
BRANCH   1   7
ATOM      7  C   UNL     1      95.504  65.021 226.652  1.00  0.00     0.000 C 
BRANCH   7   8
ATOM      8  C   UNL     1      95.142  66.319 225.898  1.00  0.00    -0.000 C 
BRANCH   8   9
ATOM      9  C   UNL     1      95.050  66.141 224.373  1.00  0.00    -0.000 C 
BRANCH   9  10
ATOM     10  C   UNL     1      96.098  66.963 223.612  1.00  0.00    -0.003 C 
ATOM     11  C   UNL     1      96.698  68.048 224.502  1.00  0.00     0.004 C 
ENDBRANCH   9  10
ENDBRANCH   8   9
ENDBRANCH   7   8
ENDBRANCH   1   7
TORSDOF 7
ENDMDL
