MODEL 1
REMARK VINA RESULT:    -6.176      0.000      0.000
REMARK INTER + INTRA:          -7.911
REMARK INTER:                  -7.620
REMARK INTRA:                  -0.291
REMARK UNBOUND:                -0.291
REMARK SMILES O=c1c(O)c(-c2cc(O)c(O)c(O)c2)oc2cc(O)cc(O)c12
REMARK SMILES IDX 5 1 3 2 2 3 1 4 23 5 21 6 20 7 18 8 17 9 16 10 15 11 6 12
REMARK SMILES IDX 7 13 8 14 14 15 10 16 12 17 9 18 11 20 13 22 4 24 22 26
REMARK SMILES IDX 19 28
REMARK H PARENT 9 19 11 21 13 23 4 25 22 27 19 29
REMARK Flexibility Score: inf
ROOT
ATOM      1  C   UNL     1      24.609  -0.911  16.897  1.00  0.00     0.180 A 
ATOM      2  C   UNL     1      23.699  -1.971  17.040  1.00  0.00     0.208 A 
ATOM      3  C   UNL     1      23.124  -2.210  18.299  1.00  0.00     0.238 A 
ATOM      4  O   UNL     1      22.352  -3.195  18.434  1.00  0.00    -0.285 OA
ATOM      5  C   UNL     1      23.455  -1.376  19.394  1.00  0.00     0.111 A 
ATOM      6  C   UNL     1      22.902  -1.501  20.704  1.00  0.00     0.134 A 
ATOM      7  C   UNL     1      23.399  -0.703  21.742  1.00  0.00     0.093 A 
ATOM      8  C   UNL     1      24.380   0.259  21.505  1.00  0.00     0.123 A 
ATOM      9  C   UNL     1      24.885   0.430  20.216  1.00  0.00     0.094 A 
ATOM     10  C   UNL     1      24.436  -0.375  19.167  1.00  0.00     0.146 A 
ATOM     11  O   UNL     1      24.949  -0.187  17.957  1.00  0.00    -0.452 OA
ENDROOT
BRANCH   1  12
ATOM     12  C   UNL     1      25.237  -0.582  15.596  1.00  0.00     0.029 A 
ATOM     13  C   UNL     1      24.759   0.509  14.855  1.00  0.00     0.062 A 
ATOM     14  C   UNL     1      25.319   0.830  13.614  1.00  0.00     0.162 A 
ATOM     15  C   UNL     1      26.265  -1.376  15.058  1.00  0.00     0.062 A 
ATOM     16  C   UNL     1      26.362   0.046  13.091  1.00  0.00     0.200 A 
ATOM     17  C   UNL     1      26.831  -1.063  13.815  1.00  0.00     0.162 A 
BRANCH  14  18
ATOM     18  O   UNL     1      24.825   1.931  12.916  1.00  0.00    -0.504 OA
ATOM     19  H   UNL     1      23.832   2.123  12.844  1.00  0.00     0.293 HD
ENDBRANCH  14  18
BRANCH  16  20
ATOM     20  O   UNL     1      26.916   0.375  11.853  1.00  0.00    -0.502 OA
ATOM     21  H   UNL     1      26.857   1.311  11.467  1.00  0.00     0.293 HD
ENDBRANCH  16  20
BRANCH  17  22
ATOM     22  O   UNL     1      27.855  -1.853  13.295  1.00  0.00    -0.504 OA
ATOM     23  H   UNL     1      28.153  -1.768  12.330  1.00  0.00     0.293 HD
ENDBRANCH  17  22
ENDBRANCH   1  12
BRANCH   2  24
ATOM     24  O   UNL     1      23.403  -2.797  15.951  1.00  0.00    -0.502 OA
ATOM     25  H   UNL     1      22.715  -3.537  16.001  1.00  0.00     0.293 HD
ENDBRANCH   2  24
BRANCH   6  26
ATOM     26  O   UNL     1      21.853  -2.366  21.030  1.00  0.00    -0.507 OA
ATOM     27  H   UNL     1      21.963  -3.345  21.244  1.00  0.00     0.293 HD
ENDBRANCH   6  26
BRANCH   8  28
ATOM     28  O   UNL     1      24.840   1.046  22.559  1.00  0.00    -0.508 OA
ATOM     29  H   UNL     1      24.594   2.027  22.633  1.00  0.00     0.293 HD
ENDBRANCH   8  28
TORSDOF 7
ENDMDL
MODEL 2
REMARK VINA RESULT:    -5.443      3.952      6.173
REMARK INTER + INTRA:          -7.008
REMARK INTER:                  -6.682
REMARK INTRA:                  -0.326
REMARK UNBOUND:                -0.291
REMARK SMILES O=c1c(O)c(-c2cc(O)c(O)c(O)c2)oc2cc(O)cc(O)c12
REMARK SMILES IDX 5 1 3 2 2 3 1 4 23 5 21 6 20 7 18 8 17 9 16 10 15 11 6 12
REMARK SMILES IDX 7 13 8 14 14 15 10 16 12 17 9 18 11 20 13 22 4 24 22 26
REMARK SMILES IDX 19 28
REMARK H PARENT 9 19 11 21 13 23 4 25 22 27 19 29
REMARK Flexibility Score: inf
ROOT
ATOM      1  C   UNL     1      22.292  -4.641  17.156  1.00  0.00     0.180 A 
ATOM      2  C   UNL     1      21.263  -4.250  18.029  1.00  0.00     0.208 A 
ATOM      3  C   UNL     1      21.420  -3.079  18.786  1.00  0.00     0.238 A 
ATOM      4  O   UNL     1      20.520  -2.763  19.607  1.00  0.00    -0.285 OA
ATOM      5  C   UNL     1      22.598  -2.305  18.649  1.00  0.00     0.111 A 
ATOM      6  C   UNL     1      22.846  -1.079  19.337  1.00  0.00     0.134 A 
ATOM      7  C   UNL     1      24.101  -0.466  19.224  1.00  0.00     0.093 A 
ATOM      8  C   UNL     1      25.090  -0.997  18.398  1.00  0.00     0.123 A 
ATOM      9  C   UNL     1      24.837  -2.163  17.675  1.00  0.00     0.094 A 
ATOM     10  C   UNL     1      23.609  -2.818  17.795  1.00  0.00     0.146 A 
ATOM     11  O   UNL     1      23.411  -3.930  17.098  1.00  0.00    -0.452 OA
ENDROOT
BRANCH   1  12
ATOM     12  C   UNL     1      22.188  -5.850  16.307  1.00  0.00     0.029 A 
ATOM     13  C   UNL     1      22.466  -7.109  16.860  1.00  0.00     0.062 A 
ATOM     14  C   UNL     1      22.395  -8.266  16.077  1.00  0.00     0.162 A 
ATOM     15  C   UNL     1      21.873  -5.759  14.940  1.00  0.00     0.062 A 
ATOM     16  C   UNL     1      22.058  -8.171  14.715  1.00  0.00     0.200 A 
ATOM     17  C   UNL     1      21.801  -6.912  14.147  1.00  0.00     0.162 A 
BRANCH  14  18
ATOM     18  O   UNL     1      22.665  -9.499  16.669  1.00  0.00    -0.504 OA
ATOM     19  H   UNL     1      23.514 -10.017  16.473  1.00  0.00     0.293 HD
ENDBRANCH  14  18
BRANCH  16  20
ATOM     20  O   UNL     1      21.988  -9.331  13.942  1.00  0.00    -0.502 OA
ATOM     21  H   UNL     1      22.546  -9.455  13.104  1.00  0.00     0.293 HD
ENDBRANCH  16  20
BRANCH  17  22
ATOM     22  O   UNL     1      21.481  -6.811  12.794  1.00  0.00    -0.504 OA
ATOM     23  H   UNL     1      20.518  -6.803  12.475  1.00  0.00     0.293 HD
ENDBRANCH  17  22
ENDBRANCH   1  12
BRANCH   2  24
ATOM     24  O   UNL     1      20.118  -5.041  18.165  1.00  0.00    -0.502 OA
ATOM     25  H   UNL     1      20.014  -5.723  18.906  1.00  0.00     0.293 HD
ENDBRANCH   2  24
BRANCH   6  26
ATOM     26  O   UNL     1      21.895  -0.413  20.115  1.00  0.00    -0.507 OA
ATOM     27  H   UNL     1      21.379  -0.832  20.874  1.00  0.00     0.293 HD
ENDBRANCH   6  26
BRANCH   8  28
ATOM     28  O   UNL     1      26.321  -0.351  18.297  1.00  0.00    -0.508 OA
ATOM     29  H   UNL     1      26.935  -0.502  17.505  1.00  0.00     0.293 HD
ENDBRANCH   8  28
TORSDOF 7
ENDMDL
MODEL 3
REMARK VINA RESULT:    -5.358      3.697      5.934
REMARK INTER + INTRA:          -6.903
REMARK INTER:                  -6.749
REMARK INTRA:                  -0.154
REMARK UNBOUND:                -0.291
REMARK SMILES O=c1c(O)c(-c2cc(O)c(O)c(O)c2)oc2cc(O)cc(O)c12
REMARK SMILES IDX 5 1 3 2 2 3 1 4 23 5 21 6 20 7 18 8 17 9 16 10 15 11 6 12
REMARK SMILES IDX 7 13 8 14 14 15 10 16 12 17 9 18 11 20 13 22 4 24 22 26
REMARK SMILES IDX 19 28
REMARK H PARENT 9 19 11 21 13 23 4 25 22 27 19 29
REMARK Flexibility Score: inf
ROOT
ATOM      1  C   UNL     1      22.681  -3.174  18.031  1.00  0.00     0.180 A 
ATOM      2  C   UNL     1      21.878  -2.201  18.650  1.00  0.00     0.208 A 
ATOM      3  C   UNL     1      22.485  -1.049  19.174  1.00  0.00     0.238 A 
ATOM      4  O   UNL     1      21.768  -0.208  19.775  1.00  0.00    -0.285 OA
ATOM      5  C   UNL     1      23.886  -0.878  19.059  1.00  0.00     0.111 A 
ATOM      6  C   UNL     1      24.602   0.269  19.518  1.00  0.00     0.134 A 
ATOM      7  C   UNL     1      26.002   0.274  19.470  1.00  0.00     0.093 A 
ATOM      8  C   UNL     1      26.707  -0.796  18.919  1.00  0.00     0.123 A 
ATOM      9  C   UNL     1      26.014  -1.895  18.413  1.00  0.00     0.094 A 
ATOM     10  C   UNL     1      24.620  -1.946  18.481  1.00  0.00     0.146 A 
ATOM     11  O   UNL     1      23.999  -3.015  17.997  1.00  0.00    -0.452 OA
ENDROOT
BRANCH   1  12
ATOM     12  C   UNL     1      22.110  -4.403  17.433  1.00  0.00     0.029 A 
ATOM     13  C   UNL     1      21.457  -5.333  18.256  1.00  0.00     0.062 A 
ATOM     14  C   UNL     1      20.926  -6.511  17.722  1.00  0.00     0.162 A 
ATOM     15  C   UNL     1      22.260  -4.688  16.065  1.00  0.00     0.062 A 
ATOM     16  C   UNL     1      21.060  -6.781  16.349  1.00  0.00     0.200 A 
ATOM     17  C   UNL     1      21.733  -5.867  15.521  1.00  0.00     0.162 A 
BRANCH  14  18
ATOM     18  O   UNL     1      20.272  -7.402  18.571  1.00  0.00    -0.504 OA
ATOM     19  H   UNL     1      20.293  -7.300  19.580  1.00  0.00     0.293 HD
ENDBRANCH  14  18
BRANCH  16  20
ATOM     20  O   UNL     1      20.525  -7.958  15.824  1.00  0.00    -0.502 OA
ATOM     21  H   UNL     1      21.011  -8.506  15.122  1.00  0.00     0.293 HD
ENDBRANCH  16  20
BRANCH  17  22
ATOM     22  O   UNL     1      21.881  -6.136  14.161  1.00  0.00    -0.504 OA
ATOM     23  H   UNL     1      21.220  -5.788  13.476  1.00  0.00     0.293 HD
ENDBRANCH  17  22
ENDBRANCH   1  12
BRANCH   2  24
ATOM     24  O   UNL     1      20.499  -2.401  18.772  1.00  0.00    -0.502 OA
ATOM     25  H   UNL     1      19.831  -1.645  18.692  1.00  0.00     0.293 HD
ENDBRANCH   2  24
BRANCH   6  26
ATOM     26  O   UNL     1      23.991   1.430  20.002  1.00  0.00    -0.507 OA
ATOM     27  H   UNL     1      23.722   2.217  19.432  1.00  0.00     0.293 HD
ENDBRANCH   6  26
BRANCH   8  28
ATOM     28  O   UNL     1      28.099  -0.749  18.873  1.00  0.00    -0.508 OA
ATOM     29  H   UNL     1      28.592  -0.498  18.023  1.00  0.00     0.293 HD
ENDBRANCH   8  28
TORSDOF 7
ENDMDL
MODEL 4
REMARK VINA RESULT:    -5.335      4.606      6.417
REMARK INTER + INTRA:          -6.873
REMARK INTER:                  -6.586
REMARK INTRA:                  -0.287
REMARK UNBOUND:                -0.291
REMARK SMILES O=c1c(O)c(-c2cc(O)c(O)c(O)c2)oc2cc(O)cc(O)c12
REMARK SMILES IDX 5 1 3 2 2 3 1 4 23 5 21 6 20 7 18 8 17 9 16 10 15 11 6 12
REMARK SMILES IDX 7 13 8 14 14 15 10 16 12 17 9 18 11 20 13 22 4 24 22 26
REMARK SMILES IDX 19 28
REMARK H PARENT 9 19 11 21 13 23 4 25 22 27 19 29
REMARK Flexibility Score: inf
ROOT
ATOM      1  C   UNL     1      21.613  -5.050  15.998  1.00  0.00     0.180 A 
ATOM      2  C   UNL     1      20.960  -5.092  17.242  1.00  0.00     0.208 A 
ATOM      3  C   UNL     1      21.396  -4.239  18.268  1.00  0.00     0.238 A 
ATOM      4  O   UNL     1      20.844  -4.320  19.397  1.00  0.00    -0.285 OA
ATOM      5  C   UNL     1      22.467  -3.344  18.033  1.00  0.00     0.111 A 
ATOM      6  C   UNL     1      22.964  -2.406  18.988  1.00  0.00     0.134 A 
ATOM      7  C   UNL     1      24.113  -1.662  18.691  1.00  0.00     0.093 A 
ATOM      8  C   UNL     1      24.742  -1.771  17.452  1.00  0.00     0.123 A 
ATOM      9  C   UNL     1      24.229  -2.641  16.490  1.00  0.00     0.094 A 
ATOM     10  C   UNL     1      23.107  -3.424  16.769  1.00  0.00     0.146 A 
ATOM     11  O   UNL     1      22.656  -4.247  15.829  1.00  0.00    -0.452 OA
ENDROOT
BRANCH   1  12
ATOM     12  C   UNL     1      21.195  -5.901  14.860  1.00  0.00     0.029 A 
ATOM     13  C   UNL     1      20.007  -5.605  14.176  1.00  0.00     0.062 A 
ATOM     14  C   UNL     1      19.577  -6.403  13.111  1.00  0.00     0.162 A 
ATOM     15  C   UNL     1      21.933  -7.038  14.487  1.00  0.00     0.062 A 
ATOM     16  C   UNL     1      20.331  -7.526  12.727  1.00  0.00     0.200 A 
ATOM     17  C   UNL     1      21.510  -7.844  13.422  1.00  0.00     0.162 A 
BRANCH  14  18
ATOM     18  O   UNL     1      18.398  -6.065  12.448  1.00  0.00    -0.504 OA
ATOM     19  H   UNL     1      18.070  -5.108  12.385  1.00  0.00     0.293 HD
ENDBRANCH  14  18
BRANCH  16  20
ATOM     20  O   UNL     1      19.896  -8.315  11.662  1.00  0.00    -0.502 OA
ATOM     21  H   UNL     1      20.296  -8.237  10.733  1.00  0.00     0.293 HD
ENDBRANCH  16  20
BRANCH  17  22
ATOM     22  O   UNL     1      22.254  -8.965  13.055  1.00  0.00    -0.504 OA
ATOM     23  H   UNL     1      22.098  -9.440  12.174  1.00  0.00     0.293 HD
ENDBRANCH  17  22
ENDBRANCH   1  12
BRANCH   2  24
ATOM     24  O   UNL     1      19.919  -5.999  17.459  1.00  0.00    -0.502 OA
ATOM     25  H   UNL     1      19.106  -5.770  18.018  1.00  0.00     0.293 HD
ENDBRANCH   2  24
BRANCH   6  26
ATOM     26  O   UNL     1      22.357  -2.151  20.221  1.00  0.00    -0.507 OA
ATOM     27  H   UNL     1      22.309  -1.245  20.661  1.00  0.00     0.293 HD
ENDBRANCH   6  26
BRANCH   8  28
ATOM     28  O   UNL     1      25.873  -1.002  17.186  1.00  0.00    -0.508 OA
ATOM     29  H   UNL     1      26.136  -0.758  16.237  1.00  0.00     0.293 HD
ENDBRANCH   8  28
TORSDOF 7
ENDMDL
MODEL 5
REMARK VINA RESULT:    -5.291      1.698      3.580
REMARK INTER + INTRA:          -6.819
REMARK INTER:                  -6.589
REMARK INTRA:                  -0.230
REMARK UNBOUND:                -0.291
REMARK SMILES O=c1c(O)c(-c2cc(O)c(O)c(O)c2)oc2cc(O)cc(O)c12
REMARK SMILES IDX 5 1 3 2 2 3 1 4 23 5 21 6 20 7 18 8 17 9 16 10 15 11 6 12
REMARK SMILES IDX 7 13 8 14 14 15 10 16 12 17 9 18 11 20 13 22 4 24 22 26
REMARK SMILES IDX 19 28
REMARK H PARENT 9 19 11 21 13 23 4 25 22 27 19 29
REMARK Flexibility Score: inf
ROOT
ATOM      1  C   UNL     1      24.327  -1.378  16.263  1.00  0.00     0.180 A 
ATOM      2  C   UNL     1      24.212  -0.806  17.542  1.00  0.00     0.208 A 
ATOM      3  C   UNL     1      23.389  -1.428  18.494  1.00  0.00     0.238 A 
ATOM      4  O   UNL     1      23.246  -0.882  19.619  1.00  0.00    -0.285 OA
ATOM      5  C   UNL     1      22.704  -2.621  18.160  1.00  0.00     0.111 A 
ATOM      6  C   UNL     1      21.875  -3.358  19.060  1.00  0.00     0.134 A 
ATOM      7  C   UNL     1      21.143  -4.453  18.584  1.00  0.00     0.093 A 
ATOM      8  C   UNL     1      21.260  -4.877  17.261  1.00  0.00     0.123 A 
ATOM      9  C   UNL     1      22.113  -4.201  16.389  1.00  0.00     0.094 A 
ATOM     10  C   UNL     1      22.829  -3.083  16.824  1.00  0.00     0.146 A 
ATOM     11  O   UNL     1      23.622  -2.461  15.960  1.00  0.00    -0.452 OA
ENDROOT
BRANCH   1  12
ATOM     12  C   UNL     1      25.196  -0.794  15.214  1.00  0.00     0.029 A 
ATOM     13  C   UNL     1      24.834   0.422  14.616  1.00  0.00     0.062 A 
ATOM     14  C   UNL     1      25.623   0.987  13.609  1.00  0.00     0.162 A 
ATOM     15  C   UNL     1      26.346  -1.462  14.762  1.00  0.00     0.062 A 
ATOM     16  C   UNL     1      26.785   0.325  13.176  1.00  0.00     0.200 A 
ATOM     17  C   UNL     1      27.143  -0.905  13.753  1.00  0.00     0.162 A 
BRANCH  14  18
ATOM     18  O   UNL     1      25.236   2.204  13.051  1.00  0.00    -0.504 OA
ATOM     19  H   UNL     1      24.355   2.318  12.564  1.00  0.00     0.293 HD
ENDBRANCH  14  18
BRANCH  16  20
ATOM     20  O   UNL     1      27.569   0.897  12.173  1.00  0.00    -0.502 OA
ATOM     21  H   UNL     1      27.289   0.888  11.198  1.00  0.00     0.293 HD
ENDBRANCH  16  20
BRANCH  17  22
ATOM     22  O   UNL     1      28.286  -1.573  13.317  1.00  0.00    -0.504 OA
ATOM     23  H   UNL     1      28.229  -2.409  12.747  1.00  0.00     0.293 HD
ENDBRANCH  17  22
ENDBRANCH   1  12
BRANCH   2  24
ATOM     24  O   UNL     1      24.880   0.385  17.842  1.00  0.00    -0.502 OA
ATOM     25  H   UNL     1      24.483   1.295  17.645  1.00  0.00     0.293 HD
ENDBRANCH   2  24
BRANCH   6  26
ATOM     26  O   UNL     1      21.758  -3.075  20.424  1.00  0.00    -0.507 OA
ATOM     27  H   UNL     1      22.062  -3.687  21.165  1.00  0.00     0.293 HD
ENDBRANCH   6  26
BRANCH   8  28
ATOM     28  O   UNL     1      20.529  -5.981  16.827  1.00  0.00    -0.508 OA
ATOM     29  H   UNL     1      19.774  -6.368  17.383  1.00  0.00     0.293 HD
ENDBRANCH   8  28
TORSDOF 7
ENDMDL
MODEL 6
REMARK VINA RESULT:    -5.271      3.943      7.102
REMARK INTER + INTRA:          -6.795
REMARK INTER:                  -6.738
REMARK INTRA:                  -0.056
REMARK UNBOUND:                -0.291
REMARK SMILES O=c1c(O)c(-c2cc(O)c(O)c(O)c2)oc2cc(O)cc(O)c12
REMARK SMILES IDX 5 1 3 2 2 3 1 4 23 5 21 6 20 7 18 8 17 9 16 10 15 11 6 12
REMARK SMILES IDX 7 13 8 14 14 15 10 16 12 17 9 18 11 20 13 22 4 24 22 26
REMARK SMILES IDX 19 28
REMARK H PARENT 9 19 11 21 13 23 4 25 22 27 19 29
REMARK Flexibility Score: inf
ROOT
ATOM      1  C   UNL     1      22.187  -3.755  17.117  1.00  0.00     0.180 A 
ATOM      2  C   UNL     1      20.805  -3.503  17.173  1.00  0.00     0.208 A 
ATOM      3  C   UNL     1      19.930  -4.350  16.475  1.00  0.00     0.238 A 
ATOM      4  O   UNL     1      18.699  -4.088  16.483  1.00  0.00    -0.285 OA
ATOM      5  C   UNL     1      20.446  -5.447  15.743  1.00  0.00     0.111 A 
ATOM      6  C   UNL     1      19.649  -6.394  15.032  1.00  0.00     0.134 A 
ATOM      7  C   UNL     1      20.273  -7.363  14.236  1.00  0.00     0.093 A 
ATOM      8  C   UNL     1      21.662  -7.461  14.178  1.00  0.00     0.123 A 
ATOM      9  C   UNL     1      22.451  -6.579  14.917  1.00  0.00     0.094 A 
ATOM     10  C   UNL     1      21.858  -5.578  15.691  1.00  0.00     0.146 A 
ATOM     11  O   UNL     1      22.644  -4.752  16.371  1.00  0.00    -0.452 OA
ENDROOT
BRANCH   1  12
ATOM     12  C   UNL     1      23.169  -2.920  17.847  1.00  0.00     0.029 A 
ATOM     13  C   UNL     1      24.310  -2.452  17.178  1.00  0.00     0.062 A 
ATOM     14  C   UNL     1      25.264  -1.679  17.848  1.00  0.00     0.162 A 
ATOM     15  C   UNL     1      23.014  -2.635  19.215  1.00  0.00     0.062 A 
ATOM     16  C   UNL     1      25.094  -1.379  19.210  1.00  0.00     0.200 A 
ATOM     17  C   UNL     1      23.966  -1.864  19.895  1.00  0.00     0.162 A 
BRANCH  14  18
ATOM     18  O   UNL     1      26.376  -1.221  17.142  1.00  0.00    -0.504 OA
ATOM     19  H   UNL     1      27.144  -1.833  16.890  1.00  0.00     0.293 HD
ENDBRANCH  14  18
BRANCH  16  20
ATOM     20  O   UNL     1      26.049  -0.605  19.869  1.00  0.00    -0.502 OA
ATOM     21  H   UNL     1      27.019  -0.892  19.942  1.00  0.00     0.293 HD
ENDBRANCH  16  20
BRANCH  17  22
ATOM     22  O   UNL     1      23.798  -1.581  21.249  1.00  0.00    -0.504 OA
ATOM     23  H   UNL     1      22.878  -1.519  21.669  1.00  0.00     0.293 HD
ENDBRANCH  17  22
ENDBRANCH   1  12
BRANCH   2  24
ATOM     24  O   UNL     1      20.319  -2.401  17.883  1.00  0.00    -0.502 OA
ATOM     25  H   UNL     1      19.353  -2.104  17.830  1.00  0.00     0.293 HD
ENDBRANCH   2  24
BRANCH   6  26
ATOM     26  O   UNL     1      18.253  -6.443  15.094  1.00  0.00    -0.507 OA
ATOM     27  H   UNL     1      17.725  -6.809  15.872  1.00  0.00     0.293 HD
ENDBRANCH   6  26
BRANCH   8  28
ATOM     28  O   UNL     1      22.248  -8.449  13.389  1.00  0.00    -0.508 OA
ATOM     29  H   UNL     1      21.752  -8.869  12.611  1.00  0.00     0.293 HD
ENDBRANCH   8  28
TORSDOF 7
ENDMDL
MODEL 7
REMARK VINA RESULT:    -5.214      3.739      6.830
REMARK INTER + INTRA:          -6.725
REMARK INTER:                  -6.776
REMARK INTRA:                   0.051
REMARK UNBOUND:                -0.291
REMARK SMILES O=c1c(O)c(-c2cc(O)c(O)c(O)c2)oc2cc(O)cc(O)c12
REMARK SMILES IDX 5 1 3 2 2 3 1 4 23 5 21 6 20 7 18 8 17 9 16 10 15 11 6 12
REMARK SMILES IDX 7 13 8 14 14 15 10 16 12 17 9 18 11 20 13 22 4 24 22 26
REMARK SMILES IDX 19 28
REMARK H PARENT 9 19 11 21 13 23 4 25 22 27 19 29
REMARK Flexibility Score: inf
ROOT
ATOM      1  C   UNL     1      22.399  -3.507  17.246  1.00  0.00     0.180 A 
ATOM      2  C   UNL     1      21.027  -3.215  17.341  1.00  0.00     0.208 A 
ATOM      3  C   UNL     1      20.106  -4.051  16.690  1.00  0.00     0.238 A 
ATOM      4  O   UNL     1      18.884  -3.754  16.733  1.00  0.00    -0.285 OA
ATOM      5  C   UNL     1      20.567  -5.177  15.966  1.00  0.00     0.111 A 
ATOM      6  C   UNL     1      19.720  -6.115  15.301  1.00  0.00     0.134 A 
ATOM      7  C   UNL     1      20.290  -7.117  14.506  1.00  0.00     0.093 A 
ATOM      8  C   UNL     1      21.674  -7.256  14.405  1.00  0.00     0.123 A 
ATOM      9  C   UNL     1      22.511  -6.381  15.098  1.00  0.00     0.094 A 
ATOM     10  C   UNL     1      21.973  -5.349  15.870  1.00  0.00     0.146 A 
ATOM     11  O   UNL     1      22.803  -4.532  16.506  1.00  0.00    -0.452 OA
ENDROOT
BRANCH   1  12
ATOM     12  C   UNL     1      23.428  -2.686  17.926  1.00  0.00     0.029 A 
ATOM     13  C   UNL     1      23.232  -2.298  19.259  1.00  0.00     0.062 A 
ATOM     14  C   UNL     1      24.176  -1.506  19.920  1.00  0.00     0.162 A 
ATOM     15  C   UNL     1      24.572  -2.237  17.245  1.00  0.00     0.062 A 
ATOM     16  C   UNL     1      25.330  -1.078  19.241  1.00  0.00     0.200 A 
ATOM     17  C   UNL     1      25.524  -1.442  17.897  1.00  0.00     0.162 A 
BRANCH  14  18
ATOM     18  O   UNL     1      23.951  -1.155  21.250  1.00  0.00    -0.504 OA
ATOM     19  H   UNL     1      24.295  -0.287  21.644  1.00  0.00     0.293 HD
ENDBRANCH  14  18
BRANCH  16  20
ATOM     20  O   UNL     1      26.269  -0.290  19.908  1.00  0.00    -0.502 OA
ATOM     21  H   UNL     1      26.414  -0.355  20.910  1.00  0.00     0.293 HD
ENDBRANCH  16  20
BRANCH  17  22
ATOM     22  O   UNL     1      26.659  -1.008  17.214  1.00  0.00    -0.504 OA
ATOM     23  H   UNL     1      26.671  -0.130  16.708  1.00  0.00     0.293 HD
ENDBRANCH  17  22
ENDBRANCH   1  12
BRANCH   2  24
ATOM     24  O   UNL     1      20.596  -2.086  18.044  1.00  0.00    -0.502 OA
ATOM     25  H   UNL     1      20.780  -1.957  19.031  1.00  0.00     0.293 HD
ENDBRANCH   2  24
BRANCH   6  26
ATOM     26  O   UNL     1      18.327  -6.122  15.410  1.00  0.00    -0.507 OA
ATOM     27  H   UNL     1      17.711  -6.696  14.855  1.00  0.00     0.293 HD
ENDBRANCH   6  26
BRANCH   8  28
ATOM     28  O   UNL     1      22.206  -8.275  13.617  1.00  0.00    -0.508 OA
ATOM     29  H   UNL     1      21.803  -9.206  13.613  1.00  0.00     0.293 HD
ENDBRANCH   8  28
TORSDOF 7
ENDMDL
MODEL 8
REMARK VINA RESULT:    -5.170      1.555      3.803
REMARK INTER + INTRA:          -6.671
REMARK INTER:                  -6.367
REMARK INTRA:                  -0.304
REMARK UNBOUND:                -0.291
REMARK SMILES O=c1c(O)c(-c2cc(O)c(O)c(O)c2)oc2cc(O)cc(O)c12
REMARK SMILES IDX 5 1 3 2 2 3 1 4 23 5 21 6 20 7 18 8 17 9 16 10 15 11 6 12
REMARK SMILES IDX 7 13 8 14 14 15 10 16 12 17 9 18 11 20 13 22 4 24 22 26
REMARK SMILES IDX 19 28
REMARK H PARENT 9 19 11 21 13 23 4 25 22 27 19 29
REMARK Flexibility Score: inf
ROOT
ATOM      1  C   UNL     1      24.384  -1.219  16.342  1.00  0.00     0.180 A 
ATOM      2  C   UNL     1      24.501  -0.667  17.629  1.00  0.00     0.208 A 
ATOM      3  C   UNL     1      23.726  -1.200  18.671  1.00  0.00     0.238 A 
ATOM      4  O   UNL     1      23.794  -0.667  19.809  1.00  0.00    -0.285 OA
ATOM      5  C   UNL     1      22.856  -2.288  18.416  1.00  0.00     0.111 A 
ATOM      6  C   UNL     1      22.055  -2.933  19.406  1.00  0.00     0.134 A 
ATOM      7  C   UNL     1      21.134  -3.914  19.016  1.00  0.00     0.093 A 
ATOM      8  C   UNL     1      21.033  -4.319  17.686  1.00  0.00     0.123 A 
ATOM      9  C   UNL     1      21.854  -3.737  16.720  1.00  0.00     0.094 A 
ATOM     10  C   UNL     1      22.756  -2.730  17.071  1.00  0.00     0.146 A 
ATOM     11  O   UNL     1      23.513  -2.195  16.121  1.00  0.00    -0.452 OA
ENDROOT
BRANCH   1  12
ATOM     12  C   UNL     1      25.187  -0.726  15.198  1.00  0.00     0.029 A 
ATOM     13  C   UNL     1      26.321  -1.444  14.790  1.00  0.00     0.062 A 
ATOM     14  C   UNL     1      27.109  -0.993  13.726  1.00  0.00     0.162 A 
ATOM     15  C   UNL     1      24.871   0.479  14.548  1.00  0.00     0.062 A 
ATOM     16  C   UNL     1      26.776   0.202  13.065  1.00  0.00     0.200 A 
ATOM     17  C   UNL     1      25.655   0.941  13.482  1.00  0.00     0.162 A 
BRANCH  14  18
ATOM     18  O   UNL     1      28.219  -1.744  13.343  1.00  0.00    -0.504 OA
ATOM     19  H   UNL     1      28.457  -1.896  12.369  1.00  0.00     0.293 HD
ENDBRANCH  14  18
BRANCH  16  20
ATOM     20  O   UNL     1      27.566   0.644  12.004  1.00  0.00    -0.502 OA
ATOM     21  H   UNL     1      27.240   1.339  11.340  1.00  0.00     0.293 HD
ENDBRANCH  16  20
BRANCH  17  22
ATOM     22  O   UNL     1      25.329   2.134  12.840  1.00  0.00    -0.504 OA
ATOM     23  H   UNL     1      25.583   3.034  13.230  1.00  0.00     0.293 HD
ENDBRANCH  17  22
ENDBRANCH   1  12
BRANCH   2  24
ATOM     24  O   UNL     1      25.349   0.421  17.853  1.00  0.00    -0.502 OA
ATOM     25  H   UNL     1      25.291   1.276  17.313  1.00  0.00     0.293 HD
ENDBRANCH   2  24
BRANCH   6  26
ATOM     26  O   UNL     1      22.142  -2.669  20.776  1.00  0.00    -0.507 OA
ATOM     27  H   UNL     1      21.402  -2.269  21.331  1.00  0.00     0.293 HD
ENDBRANCH   6  26
BRANCH   8  28
ATOM     28  O   UNL     1      20.117  -5.310  17.338  1.00  0.00    -0.508 OA
ATOM     29  H   UNL     1      19.554  -5.239  16.497  1.00  0.00     0.293 HD
ENDBRANCH   8  28
TORSDOF 7
ENDMDL
MODEL 9
REMARK VINA RESULT:    -5.138      3.978      6.510
REMARK INTER + INTRA:          -6.631
REMARK INTER:                  -6.539
REMARK INTRA:                  -0.091
REMARK UNBOUND:                -0.291
REMARK SMILES O=c1c(O)c(-c2cc(O)c(O)c(O)c2)oc2cc(O)cc(O)c12
REMARK SMILES IDX 5 1 3 2 2 3 1 4 23 5 21 6 20 7 18 8 17 9 16 10 15 11 6 12
REMARK SMILES IDX 7 13 8 14 14 15 10 16 12 17 9 18 11 20 13 22 4 24 22 26
REMARK SMILES IDX 19 28
REMARK H PARENT 9 19 11 21 13 23 4 25 22 27 19 29
REMARK Flexibility Score: inf
ROOT
ATOM      1  C   UNL     1      22.784  -2.987  18.444  1.00  0.00     0.180 A 
ATOM      2  C   UNL     1      21.644  -3.319  19.196  1.00  0.00     0.208 A 
ATOM      3  C   UNL     1      20.818  -4.364  18.756  1.00  0.00     0.238 A 
ATOM      4  O   UNL     1      19.769  -4.620  19.402  1.00  0.00    -0.285 OA
ATOM      5  C   UNL     1      21.150  -5.075  17.577  1.00  0.00     0.111 A 
ATOM      6  C   UNL     1      20.406  -6.179  17.060  1.00  0.00     0.134 A 
ATOM      7  C   UNL     1      20.753  -6.723  15.817  1.00  0.00     0.093 A 
ATOM      8  C   UNL     1      21.854  -6.249  15.106  1.00  0.00     0.123 A 
ATOM      9  C   UNL     1      22.623  -5.211  15.630  1.00  0.00     0.094 A 
ATOM     10  C   UNL     1      22.281  -4.622  16.850  1.00  0.00     0.146 A 
ATOM     11  O   UNL     1      23.033  -3.630  17.310  1.00  0.00    -0.452 OA
ENDROOT
BRANCH   1  12
ATOM     12  C   UNL     1      23.717  -1.914  18.859  1.00  0.00     0.029 A 
ATOM     13  C   UNL     1      25.066  -2.222  19.090  1.00  0.00     0.062 A 
ATOM     14  C   UNL     1      25.965  -1.233  19.502  1.00  0.00     0.162 A 
ATOM     15  C   UNL     1      23.268  -0.601  19.085  1.00  0.00     0.062 A 
ATOM     16  C   UNL     1      25.515   0.083  19.705  1.00  0.00     0.200 A 
ATOM     17  C   UNL     1      24.160   0.396  19.499  1.00  0.00     0.162 A 
BRANCH  14  18
ATOM     18  O   UNL     1      27.300  -1.578  19.705  1.00  0.00    -0.504 OA
ATOM     19  H   UNL     1      27.746  -2.332  19.196  1.00  0.00     0.293 HD
ENDBRANCH  14  18
BRANCH  16  20
ATOM     20  O   UNL     1      26.419   1.064  20.113  1.00  0.00    -0.502 OA
ATOM     21  H   UNL     1      26.147   1.831  20.719  1.00  0.00     0.293 HD
ENDBRANCH  16  20
BRANCH  17  22
ATOM     22  O   UNL     1      23.705   1.696  19.713  1.00  0.00    -0.504 OA
ATOM     23  H   UNL     1      24.348   2.466  19.861  1.00  0.00     0.293 HD
ENDBRANCH  17  22
ENDBRANCH   1  12
BRANCH   2  24
ATOM     24  O   UNL     1      21.323  -2.588  20.345  1.00  0.00    -0.502 OA
ATOM     25  H   UNL     1      21.667  -2.841  21.263  1.00  0.00     0.293 HD
ENDBRANCH   2  24
BRANCH   6  26
ATOM     26  O   UNL     1      19.344  -6.789  17.734  1.00  0.00    -0.507 OA
ATOM     27  H   UNL     1      18.478  -6.333  17.973  1.00  0.00     0.293 HD
ENDBRANCH   6  26
BRANCH   8  28
ATOM     28  O   UNL     1      22.180  -6.826  13.880  1.00  0.00    -0.508 OA
ATOM     29  H   UNL     1      23.078  -7.271  13.725  1.00  0.00     0.293 HD
ENDBRANCH   8  28
TORSDOF 7
ENDMDL
