MODEL 1
REMARK VINA RESULT:    -4.853      0.000      0.000
REMARK INTER + INTRA:          -5.654
REMARK INTER:                  -5.420
REMARK INTRA:                  -0.234
REMARK UNBOUND:                -0.234
REMARK SMILES COc1cc(C)ccc1C(C)C
REMARK SMILES IDX 6 1 5 2 4 3 3 4 9 5 8 6 7 7 2 8 1 9 10 10 11 11 12 12
REMARK H PARENT
REMARK Flexibility Score: inf
ROOT
ATOM      1  C   UNL     1     -11.860   0.373  32.619  1.00  0.00     0.044 C 
ATOM      2  C   UNL     1     -12.381   1.022  31.371  1.00  0.00    -0.047 A 
ATOM      3  C   UNL     1     -12.082   2.362  31.096  1.00  0.00     0.050 A 
ATOM      4  C   UNL     1     -12.595   2.996  29.945  1.00  0.00     0.122 A 
ATOM      5  C   UNL     1     -13.433   2.267  29.064  1.00  0.00    -0.003 A 
ATOM      6  C   UNL     1     -13.739   0.927  29.367  1.00  0.00     0.008 A 
ATOM      7  C   UNL     1     -13.224   0.315  30.509  1.00  0.00     0.004 A 
ENDROOT
BRANCH   4   8
ATOM      8  O   UNL     1     -12.291   4.337  29.657  1.00  0.00    -0.496 OA
ATOM      9  C   UNL     1     -11.775   5.275  30.594  1.00  0.00     0.278 C 
ENDBRANCH   4   8
BRANCH   5  10
ATOM     10  C   UNL     1     -14.023   2.883  27.802  1.00  0.00     0.017 C 
ATOM     11  C   UNL     1     -15.546   2.709  27.738  1.00  0.00     0.012 C 
ATOM     12  C   UNL     1     -13.340   2.352  26.535  1.00  0.00     0.012 C 
ENDBRANCH   5  10
TORSDOF 2
ENDMDL
MODEL 2
REMARK VINA RESULT:    -4.458     10.119     10.869
REMARK INTER + INTRA:          -5.213
REMARK INTER:                  -4.988
REMARK INTRA:                  -0.226
REMARK UNBOUND:                -0.234
REMARK SMILES COc1cc(C)ccc1C(C)C
REMARK SMILES IDX 6 1 5 2 4 3 3 4 9 5 8 6 7 7 2 8 1 9 10 10 11 11 12 12
REMARK H PARENT
REMARK Flexibility Score: inf
ROOT
ATOM      1  C   UNL     1      -5.117  -0.348  31.840  1.00  0.00     0.044 C 
ATOM      2  C   UNL     1      -4.110  -0.113  30.753  1.00  0.00    -0.047 A 
ATOM      3  C   UNL     1      -3.031   0.754  30.966  1.00  0.00     0.050 A 
ATOM      4  C   UNL     1      -2.098   1.013  29.941  1.00  0.00     0.122 A 
ATOM      5  C   UNL     1      -2.264   0.394  28.677  1.00  0.00    -0.003 A 
ATOM      6  C   UNL     1      -3.365  -0.459  28.474  1.00  0.00     0.008 A 
ATOM      7  C   UNL     1      -4.280  -0.704  29.498  1.00  0.00     0.004 A 
ENDROOT
BRANCH   4   8
ATOM      8  O   UNL     1      -1.008   1.873  30.151  1.00  0.00    -0.496 OA
ATOM      9  C   UNL     1      -0.751   2.585  31.357  1.00  0.00     0.278 C 
ENDBRANCH   4   8
BRANCH   5  10
ATOM     10  C   UNL     1      -1.297   0.624  27.522  1.00  0.00     0.017 C 
ATOM     11  C   UNL     1      -1.664   1.871  26.707  1.00  0.00     0.012 C 
ATOM     12  C   UNL     1      -1.168  -0.618  26.629  1.00  0.00     0.012 C 
ENDBRANCH   5  10
TORSDOF 2
ENDMDL
MODEL 3
REMARK VINA RESULT:    -4.445      6.467      9.110
REMARK INTER + INTRA:          -5.199
REMARK INTER:                  -4.930
REMARK INTRA:                  -0.268
REMARK UNBOUND:                -0.234
REMARK SMILES COc1cc(C)ccc1C(C)C
REMARK SMILES IDX 6 1 5 2 4 3 3 4 9 5 8 6 7 7 2 8 1 9 10 10 11 11 12 12
REMARK H PARENT
REMARK Flexibility Score: inf
ROOT
ATOM      1  C   UNL     1     -14.877  12.018  29.534  1.00  0.00     0.044 C 
ATOM      2  C   UNL     1     -13.694  11.312  30.128  1.00  0.00    -0.047 A 
ATOM      3  C   UNL     1     -13.798   9.971  30.522  1.00  0.00     0.050 A 
ATOM      4  C   UNL     1     -12.706   9.306  31.117  1.00  0.00     0.122 A 
ATOM      5  C   UNL     1     -11.493  10.010  31.327  1.00  0.00    -0.003 A 
ATOM      6  C   UNL     1     -11.414  11.361  30.943  1.00  0.00     0.008 A 
ATOM      7  C   UNL     1     -12.503  12.006  30.357  1.00  0.00     0.004 A 
ENDROOT
BRANCH   4   8
ATOM      8  O   UNL     1     -12.798   7.959  31.504  1.00  0.00    -0.496 OA
ATOM      9  C   UNL     1     -13.350   7.501  32.733  1.00  0.00     0.278 C 
ENDBRANCH   4   8
BRANCH   5  10
ATOM     10  C   UNL     1     -10.270   9.358  31.961  1.00  0.00     0.017 C 
ATOM     11  C   UNL     1     -10.149   9.698  33.453  1.00  0.00     0.012 C 
ATOM     12  C   UNL     1      -8.983   9.696  31.198  1.00  0.00     0.012 C 
ENDBRANCH   5  10
TORSDOF 2
ENDMDL
MODEL 4
REMARK VINA RESULT:    -4.407     10.586     11.436
REMARK INTER + INTRA:          -5.157
REMARK INTER:                  -4.873
REMARK INTRA:                  -0.283
REMARK UNBOUND:                -0.234
REMARK SMILES COc1cc(C)ccc1C(C)C
REMARK SMILES IDX 6 1 5 2 4 3 3 4 9 5 8 6 7 7 2 8 1 9 10 10 11 11 12 12
REMARK H PARENT
REMARK Flexibility Score: inf
ROOT
ATOM      1  C   UNL     1      -0.665   2.673  31.845  1.00  0.00     0.044 C 
ATOM      2  C   UNL     1      -1.143   1.897  30.654  1.00  0.00    -0.047 A 
ATOM      3  C   UNL     1      -2.276   1.079  30.754  1.00  0.00     0.050 A 
ATOM      4  C   UNL     1      -2.715   0.314  29.653  1.00  0.00     0.122 A 
ATOM      5  C   UNL     1      -1.992   0.369  28.435  1.00  0.00    -0.003 A 
ATOM      6  C   UNL     1      -0.845   1.181  28.359  1.00  0.00     0.008 A 
ATOM      7  C   UNL     1      -0.423   1.930  29.457  1.00  0.00     0.004 A 
ENDROOT
BRANCH   4   8
ATOM      8  O   UNL     1      -3.856  -0.500  29.743  1.00  0.00    -0.496 OA
ATOM      9  C   UNL     1      -5.197  -0.024  29.769  1.00  0.00     0.278 C 
ENDBRANCH   4   8
BRANCH   5  10
ATOM     10  C   UNL     1      -2.405  -0.426  27.203  1.00  0.00     0.017 C 
ATOM     11  C   UNL     1      -1.191  -0.955  26.428  1.00  0.00     0.012 C 
ATOM     12  C   UNL     1      -3.350   0.374  26.297  1.00  0.00     0.012 C 
ENDBRANCH   5  10
TORSDOF 2
ENDMDL
MODEL 5
REMARK VINA RESULT:    -4.405      9.778     10.871
REMARK INTER + INTRA:          -5.154
REMARK INTER:                  -4.873
REMARK INTRA:                  -0.281
REMARK UNBOUND:                -0.234
REMARK SMILES COc1cc(C)ccc1C(C)C
REMARK SMILES IDX 6 1 5 2 4 3 3 4 9 5 8 6 7 7 2 8 1 9 10 10 11 11 12 12
REMARK H PARENT
REMARK Flexibility Score: inf
ROOT
ATOM      1  C   UNL     1      -0.938  -0.212  26.659  1.00  0.00     0.044 C 
ATOM      2  C   UNL     1      -1.786  -0.010  27.879  1.00  0.00    -0.047 A 
ATOM      3  C   UNL     1      -1.293   0.723  28.966  1.00  0.00     0.050 A 
ATOM      4  C   UNL     1      -2.065   0.890  30.135  1.00  0.00     0.122 A 
ATOM      5  C   UNL     1      -3.350   0.298  30.211  1.00  0.00    -0.003 A 
ATOM      6  C   UNL     1      -3.821  -0.452  29.117  1.00  0.00     0.008 A 
ATOM      7  C   UNL     1      -3.045  -0.609  27.968  1.00  0.00     0.004 A 
ENDROOT
BRANCH   4   8
ATOM      8  O   UNL     1      -1.582   1.633  31.225  1.00  0.00    -0.496 OA
ATOM      9  C   UNL     1      -1.455   3.050  31.253  1.00  0.00     0.278 C 
ENDBRANCH   4   8
BRANCH   5  10
ATOM     10  C   UNL     1      -4.242   0.435  31.438  1.00  0.00     0.017 C 
ATOM     11  C   UNL     1      -5.073  -0.830  31.688  1.00  0.00     0.012 C 
ATOM     12  C   UNL     1      -5.127   1.687  31.364  1.00  0.00     0.012 C 
ENDBRANCH   5  10
TORSDOF 2
ENDMDL
MODEL 6
REMARK VINA RESULT:    -4.263     12.568     14.125
REMARK INTER + INTRA:          -4.996
REMARK INTER:                  -4.764
REMARK INTRA:                  -0.231
REMARK UNBOUND:                -0.234
REMARK SMILES COc1cc(C)ccc1C(C)C
REMARK SMILES IDX 6 1 5 2 4 3 3 4 9 5 8 6 7 7 2 8 1 9 10 10 11 11 12 12
REMARK H PARENT
REMARK Flexibility Score: inf
ROOT
ATOM      1  C   UNL     1     -15.342   8.856  17.175  1.00  0.00     0.044 C 
ATOM      2  C   UNL     1     -14.069   9.438  17.715  1.00  0.00    -0.047 A 
ATOM      3  C   UNL     1     -14.073  10.142  18.926  1.00  0.00     0.050 A 
ATOM      4  C   UNL     1     -12.891  10.726  19.427  1.00  0.00     0.122 A 
ATOM      5  C   UNL     1     -11.688  10.606  18.688  1.00  0.00    -0.003 A 
ATOM      6  C   UNL     1     -11.706   9.912  17.463  1.00  0.00     0.008 A 
ATOM      7  C   UNL     1     -12.883   9.341  16.981  1.00  0.00     0.004 A 
ENDROOT
BRANCH   4   8
ATOM      8  O   UNL     1     -12.886  11.424  20.646  1.00  0.00    -0.496 OA
ATOM      9  C   UNL     1     -13.977  11.481  21.558  1.00  0.00     0.278 C 
ENDBRANCH   4   8
BRANCH   5  10
ATOM     10  C   UNL     1     -10.372  11.208  19.165  1.00  0.00     0.017 C 
ATOM     11  C   UNL     1      -9.879  12.321  18.231  1.00  0.00     0.012 C 
ATOM     12  C   UNL     1      -9.298  10.134  19.382  1.00  0.00     0.012 C 
ENDBRANCH   5  10
TORSDOF 2
ENDMDL
MODEL 7
REMARK VINA RESULT:    -4.244     11.634     13.809
REMARK INTER + INTRA:          -4.974
REMARK INTER:                  -4.697
REMARK INTRA:                  -0.278
REMARK UNBOUND:                -0.234
REMARK SMILES COc1cc(C)ccc1C(C)C
REMARK SMILES IDX 6 1 5 2 4 3 3 4 9 5 8 6 7 7 2 8 1 9 10 10 11 11 12 12
REMARK H PARENT
REMARK Flexibility Score: inf
ROOT
ATOM      1  C   UNL     1      -9.805  12.385  18.329  1.00  0.00     0.044 C 
ATOM      2  C   UNL     1     -11.109  11.654  18.460  1.00  0.00    -0.047 A 
ATOM      3  C   UNL     1     -11.889  11.804  19.614  1.00  0.00     0.050 A 
ATOM      4  C   UNL     1     -13.098  11.094  19.766  1.00  0.00     0.122 A 
ATOM      5  C   UNL     1     -13.520  10.210  18.741  1.00  0.00    -0.003 A 
ATOM      6  C   UNL     1     -12.714  10.057  17.598  1.00  0.00     0.008 A 
ATOM      7  C   UNL     1     -11.520  10.766  17.462  1.00  0.00     0.004 A 
ENDROOT
BRANCH   4   8
ATOM      8  O   UNL     1     -13.890  11.247  20.915  1.00  0.00    -0.496 OA
ATOM      9  C   UNL     1     -13.552  10.761  22.210  1.00  0.00     0.278 C 
ENDBRANCH   4   8
BRANCH   5  10
ATOM     10  C   UNL     1     -14.814   9.411  18.833  1.00  0.00     0.017 C 
ATOM     11  C   UNL     1     -14.578   8.001  19.390  1.00  0.00     0.012 C 
ATOM     12  C   UNL     1     -15.558   9.372  17.492  1.00  0.00     0.012 C 
ENDBRANCH   5  10
TORSDOF 2
ENDMDL
MODEL 8
REMARK VINA RESULT:    -4.239     10.691     12.078
REMARK INTER + INTRA:          -4.968
REMARK INTER:                  -4.735
REMARK INTRA:                  -0.233
REMARK UNBOUND:                -0.234
REMARK SMILES COc1cc(C)ccc1C(C)C
REMARK SMILES IDX 6 1 5 2 4 3 3 4 9 5 8 6 7 7 2 8 1 9 10 10 11 11 12 12
REMARK H PARENT
REMARK Flexibility Score: inf
ROOT
ATOM      1  C   UNL     1      -0.998  -0.410  26.963  1.00  0.00     0.044 C 
ATOM      2  C   UNL     1      -1.153   0.324  28.263  1.00  0.00    -0.047 A 
ATOM      3  C   UNL     1      -2.275   0.097  29.071  1.00  0.00     0.050 A 
ATOM      4  C   UNL     1      -2.452   0.807  30.277  1.00  0.00     0.122 A 
ATOM      5  C   UNL     1      -1.487   1.769  30.666  1.00  0.00    -0.003 A 
ATOM      6  C   UNL     1      -0.377   1.998  29.832  1.00  0.00     0.008 A 
ATOM      7  C   UNL     1      -0.216   1.289  28.642  1.00  0.00     0.004 A 
ENDROOT
BRANCH   4   8
ATOM      8  O   UNL     1      -3.568   0.577  31.098  1.00  0.00    -0.496 OA
ATOM      9  C   UNL     1      -4.397  -0.578  31.042  1.00  0.00     0.278 C 
ENDBRANCH   4   8
BRANCH   5  10
ATOM     10  C   UNL     1      -1.609   2.573  31.955  1.00  0.00     0.017 C 
ATOM     11  C   UNL     1      -2.397   3.873  31.746  1.00  0.00     0.012 C 
ATOM     12  C   UNL     1      -0.240   2.839  32.594  1.00  0.00     0.012 C 
ENDBRANCH   5  10
TORSDOF 2
ENDMDL
MODEL 9
REMARK VINA RESULT:    -4.174     12.140     14.055
REMARK INTER + INTRA:          -4.896
REMARK INTER:                  -4.695
REMARK INTRA:                  -0.201
REMARK UNBOUND:                -0.234
REMARK SMILES COc1cc(C)ccc1C(C)C
REMARK SMILES IDX 6 1 5 2 4 3 3 4 9 5 8 6 7 7 2 8 1 9 10 10 11 11 12 12
REMARK H PARENT
REMARK Flexibility Score: inf
ROOT
ATOM      1  C   UNL     1      -9.244  12.814  18.842  1.00  0.00     0.044 C 
ATOM      2  C   UNL     1     -10.237  11.708  18.634  1.00  0.00    -0.047 A 
ATOM      3  C   UNL     1      -9.852  10.373  18.811  1.00  0.00     0.050 A 
ATOM      4  C   UNL     1     -10.765   9.322  18.583  1.00  0.00     0.122 A 
ATOM      5  C   UNL     1     -12.083   9.625  18.158  1.00  0.00    -0.003 A 
ATOM      6  C   UNL     1     -12.445  10.971  17.967  1.00  0.00     0.008 A 
ATOM      7  C   UNL     1     -11.532  11.999  18.196  1.00  0.00     0.004 A 
ENDROOT
BRANCH   4   8
ATOM      8  O   UNL     1     -10.390   7.981  18.768  1.00  0.00    -0.496 OA
ATOM      9  C   UNL     1      -9.253   7.547  19.507  1.00  0.00     0.278 C 
ENDBRANCH   4   8
BRANCH   5  10
ATOM     10  C   UNL     1     -13.124   8.544  17.894  1.00  0.00     0.017 C 
ATOM     11  C   UNL     1     -14.177   9.000  16.875  1.00  0.00     0.012 C 
ATOM     12  C   UNL     1     -13.772   8.045  19.192  1.00  0.00     0.012 C 
ENDBRANCH   5  10
TORSDOF 2
ENDMDL
