MODEL 1
REMARK VINA RESULT:    18.068      0.000      0.000
REMARK INTER + INTRA:          27.056
REMARK INTER:                  24.405
REMARK INTRA:                   2.651
REMARK UNBOUND:                 2.651
REMARK SMILES CC[C@@H](CC[C@@H](C)[C@H]1CC[C@@H]2[C@H]3CC(=O)C4=CC(=O)CC[C@@]4(C)[C@H]3CC[C@]21C)C(C)C
REMARK SMILES IDX 4 1 3 2 2 3 1 4 29 5 30 6 31 7 5 8 6 9 7 10 8 11 9 12 27 13
REMARK SMILES IDX 10 14 11 15 26 16 28 17 12 18 25 19 24 20 13 21 22 22 14 23
REMARK SMILES IDX 16 24 21 25 23 26 15 27 17 28 20 29 18 30 19 31
REMARK H PARENT
REMARK Flexibility Score: inf
ROOT
ATOM      1  C   UNL     1      10.775  22.797  23.327  1.00  0.00     0.004 C 
ENDROOT
BRANCH   1   2
ATOM      2  C   UNL     1      10.794  21.889  24.598  1.00  0.00    -0.009 C 
BRANCH   2   3
ATOM      3  C   UNL     1      10.482  20.418  24.211  1.00  0.00     0.000 C 
ATOM      4  C   UNL     1      10.897  20.054  22.785  1.00  0.00     0.004 C 
ENDBRANCH   2   3
BRANCH   2   5
ATOM      5  C   UNL     1       9.874  22.500  25.716  1.00  0.00    -0.014 C 
ATOM      6  C   UNL     1       8.572  23.109  25.153  1.00  0.00     0.007 C 
ATOM      7  C   UNL     1      10.581  23.492  26.654  1.00  0.00     0.007 C 
ENDBRANCH   2   5
ENDBRANCH   1   2
BRANCH   1   8
ATOM      8  C   UNL     1      10.822  21.950  22.043  1.00  0.00     0.004 C 
BRANCH   8   9
ATOM      9  C   UNL     1      11.122  22.752  20.722  1.00  0.00    -0.011 C 
ATOM     10  C   UNL     1      10.618  21.878  19.546  1.00  0.00     0.008 C 
BRANCH   9  11
ATOM     11  C   UNL     1      10.448  24.184  20.774  1.00  0.00    -0.002 C 
ATOM     12  C   UNL     1      10.455  24.887  19.397  1.00  0.00     0.005 C 
ATOM     13  C   UNL     1       8.979  24.415  21.339  1.00  0.00    -0.026 C 
ATOM     14  C   UNL     1       9.192  25.733  19.310  1.00  0.00     0.005 C 
ATOM     15  C   UNL     1       8.188  24.929  20.122  1.00  0.00    -0.001 C 
ATOM     16  C   UNL     1       8.184  23.200  21.877  1.00  0.00     0.007 C 
ATOM     17  C   UNL     1       9.103  25.475  22.483  1.00  0.00     0.012 C 
ATOM     18  C   UNL     1       6.833  25.611  20.489  1.00  0.00     0.004 C 
ATOM     19  C   UNL     1       6.634  23.329  21.786  1.00  0.00     0.005 C 
ATOM     20  C   UNL     1       6.017  24.760  21.569  1.00  0.00     0.003 C 
ATOM     21  C   UNL     1       6.037  25.947  19.201  1.00  0.00     0.085 C 
ATOM     22  C   UNL     1       4.441  24.717  21.338  1.00  0.00    -0.000 C 
ATOM     23  C   UNL     1       5.071  24.868  18.845  1.00  0.00     0.159 C 
ATOM     24  C   UNL     1       4.139  24.382  19.878  1.00  0.00     0.005 C 
ATOM     25  C   UNL     1       3.741  23.664  22.269  1.00  0.00     0.020 C 
ATOM     26  C   UNL     1       3.837  26.112  21.677  1.00  0.00     0.017 C 
ATOM     27  O   UNL     1       5.003  24.453  17.655  1.00  0.00    -0.295 OA
ATOM     28  C   UNL     1       3.021  23.727  19.511  1.00  0.00     0.055 C 
ATOM     29  C   UNL     1       2.250  23.477  21.961  1.00  0.00     0.081 C 
ATOM     30  C   UNL     1       2.042  23.243  20.495  1.00  0.00     0.156 C 
ATOM     31  O   UNL     1       0.989  22.671  20.096  1.00  0.00    -0.295 OA
ENDBRANCH   9  11
ENDBRANCH   8   9
ENDBRANCH   1   8
TORSDOF 6
ENDMDL
