MODEL 1
REMARK VINA RESULT:    -4.392      0.000      0.000
REMARK INTER + INTRA:         -10.033
REMARK INTER:                  -7.986
REMARK INTRA:                  -2.047
REMARK UNBOUND:                -2.047
REMARK SMILES CCCCCCCCCCCCCC[C@H](C)C(=O)[O-]
REMARK SMILES IDX 9 1 10 2 11 3 12 4 13 5 14 6 15 7 16 8 17 9 18 10 19 11 8 12
REMARK SMILES IDX 7 13 6 14 5 15 4 16 3 17 2 18 1 19
REMARK H PARENT
REMARK Flexibility Score: inf
ROOT
ATOM      1  C   UNL     1      30.688  11.223 -14.085  1.00  0.00     0.000 C 
ENDROOT
BRANCH   1   2
ATOM      2  C   UNL     1      30.669  11.352 -12.552  1.00  0.00     0.000 C 
BRANCH   2   3
ATOM      3  C   UNL     1      29.658  10.401 -11.884  1.00  0.00     0.000 C 
BRANCH   3   4
ATOM      4  C   UNL     1      28.822  11.026 -10.752  1.00  0.00     0.000 C 
BRANCH   4   5
ATOM      5  C   UNL     1      28.347  12.454 -11.074  1.00  0.00     0.001 C 
BRANCH   5   6
ATOM      6  C   UNL     1      26.849  12.512 -11.441  1.00  0.00     0.009 C 
BRANCH   6   7
ATOM      7  C   UNL     1      26.402  13.885 -11.991  1.00  0.00     0.032 C 
ATOM      8  C   UNL     1      27.592  14.849 -12.072  1.00  0.00     0.014 C 
BRANCH   7   9
ATOM      9  C   UNL     1      25.308  14.491 -11.158  1.00  0.00     0.044 C 
ATOM     10  O   UNL     1      25.335  14.402  -9.901  1.00  0.00    -0.550 OA
ATOM     11  O   UNL     1      24.247  15.144 -11.774  1.00  0.00    -0.550 OA
ENDBRANCH   7   9
ENDBRANCH   6   7
ENDBRANCH   5   6
ENDBRANCH   4   5
ENDBRANCH   3   4
ENDBRANCH   2   3
ENDBRANCH   1   2
BRANCH   1  12
ATOM     12  C   UNL     1      29.276  11.194 -14.692  1.00  0.00     0.000 C 
BRANCH  12  13
ATOM     13  C   UNL     1      28.660  12.598 -14.819  1.00  0.00    -0.000 C 
BRANCH  13  14
ATOM     14  C   UNL     1      29.346  13.449 -15.901  1.00  0.00    -0.000 C 
BRANCH  14  15
ATOM     15  C   UNL     1      28.630  13.376 -17.257  1.00  0.00    -0.000 C 
BRANCH  15  16
ATOM     16  C   UNL     1      29.635  13.176 -18.398  1.00  0.00    -0.000 C 
BRANCH  16  17
ATOM     17  C   UNL     1      30.819  12.314 -17.946  1.00  0.00    -0.000 C 
BRANCH  17  18
ATOM     18  C   UNL     1      30.903  11.020 -18.765  1.00  0.00    -0.003 C 
ATOM     19  C   UNL     1      30.497   9.811 -17.928  1.00  0.00     0.004 C 
ENDBRANCH  17  18
ENDBRANCH  16  17
ENDBRANCH  15  16
ENDBRANCH  14  15
ENDBRANCH  13  14
ENDBRANCH  12  13
ENDBRANCH   1  12
TORSDOF 14
ENDMDL
MODEL 2
REMARK VINA RESULT:    -4.246      1.308      3.952
REMARK INTER + INTRA:          -9.767
REMARK INTER:                  -7.822
REMARK INTRA:                  -1.945
REMARK UNBOUND:                -2.047
REMARK SMILES CCCCCCCCCCCCCC[C@H](C)C(=O)[O-]
REMARK SMILES IDX 9 1 10 2 11 3 12 4 13 5 14 6 15 7 16 8 17 9 18 10 19 11 8 12
REMARK SMILES IDX 7 13 6 14 5 15 4 16 3 17 2 18 1 19
REMARK H PARENT
REMARK Flexibility Score: inf
ROOT
ATOM      1  C   UNL     1      29.069  13.727 -17.192  1.00  0.00     0.000 C 
ENDROOT
BRANCH   1   2
ATOM      2  C   UNL     1      29.690  15.093 -16.851  1.00  0.00     0.000 C 
BRANCH   2   3
ATOM      3  C   UNL     1      30.495  15.074 -15.538  1.00  0.00     0.000 C 
BRANCH   3   4
ATOM      4  C   UNL     1      29.998  14.071 -14.480  1.00  0.00     0.000 C 
BRANCH   4   5
ATOM      5  C   UNL     1      28.835  14.618 -13.634  1.00  0.00     0.001 C 
BRANCH   5   6
ATOM      6  C   UNL     1      27.852  13.513 -13.193  1.00  0.00     0.009 C 
BRANCH   6   7
ATOM      7  C   UNL     1      27.483  13.578 -11.694  1.00  0.00     0.032 C 
ATOM      8  C   UNL     1      27.594  12.191 -11.049  1.00  0.00     0.014 C 
BRANCH   7   9
ATOM      9  C   UNL     1      26.102  14.131 -11.482  1.00  0.00     0.044 C 
ATOM     10  O   UNL     1      25.488  14.703 -12.423  1.00  0.00    -0.550 OA
ATOM     11  O   UNL     1      25.497  14.027 -10.235  1.00  0.00    -0.550 OA
ENDBRANCH   7   9
ENDBRANCH   6   7
ENDBRANCH   5   6
ENDBRANCH   4   5
ENDBRANCH   3   4
ENDBRANCH   2   3
ENDBRANCH   1   2
BRANCH   1  12
ATOM     12  C   UNL     1      29.772  13.039 -18.373  1.00  0.00     0.000 C 
BRANCH  12  13
ATOM     13  C   UNL     1      31.023  12.255 -17.938  1.00  0.00    -0.000 C 
BRANCH  13  14
ATOM     14  C   UNL     1      30.877  10.740 -18.160  1.00  0.00    -0.000 C 
BRANCH  14  15
ATOM     15  C   UNL     1      30.989   9.936 -16.857  1.00  0.00    -0.000 C 
BRANCH  15  16
ATOM     16  C   UNL     1      29.601   9.633 -16.279  1.00  0.00    -0.000 C 
BRANCH  16  17
ATOM     17  C   UNL     1      29.220  10.650 -15.197  1.00  0.00    -0.000 C 
BRANCH  17  18
ATOM     18  C   UNL     1      30.005  10.399 -13.904  1.00  0.00    -0.003 C 
ATOM     19  C   UNL     1      29.266   9.426 -12.991  1.00  0.00     0.004 C 
ENDBRANCH  17  18
ENDBRANCH  16  17
ENDBRANCH  15  16
ENDBRANCH  14  15
ENDBRANCH  13  14
ENDBRANCH  12  13
ENDBRANCH   1  12
TORSDOF 14
ENDMDL
MODEL 3
REMARK VINA RESULT:    -3.953      1.409      2.584
REMARK INTER + INTRA:          -9.236
REMARK INTER:                  -7.478
REMARK INTRA:                  -1.758
REMARK UNBOUND:                -2.047
REMARK SMILES CCCCCCCCCCCCCC[C@H](C)C(=O)[O-]
REMARK SMILES IDX 9 1 10 2 11 3 12 4 13 5 14 6 15 7 16 8 17 9 18 10 19 11 8 12
REMARK SMILES IDX 7 13 6 14 5 15 4 16 3 17 2 18 1 19
REMARK H PARENT
REMARK Flexibility Score: inf
ROOT
ATOM      1  C   UNL     1      30.022  10.350 -14.114  1.00  0.00     0.000 C 
ENDROOT
BRANCH   1   2
ATOM      2  C   UNL     1      29.308   9.373 -13.163  1.00  0.00     0.000 C 
BRANCH   2   3
ATOM      3  C   UNL     1      29.378   9.812 -11.689  1.00  0.00     0.000 C 
BRANCH   3   4
ATOM      4  C   UNL     1      30.327  10.991 -11.402  1.00  0.00     0.000 C 
BRANCH   4   5
ATOM      5  C   UNL     1      29.590  12.248 -10.906  1.00  0.00     0.001 C 
BRANCH   5   6
ATOM      6  C   UNL     1      28.078  12.210 -11.216  1.00  0.00     0.009 C 
BRANCH   6   7
ATOM      7  C   UNL     1      27.626  13.300 -12.213  1.00  0.00     0.032 C 
ATOM      8  C   UNL     1      28.809  13.781 -13.063  1.00  0.00     0.014 C 
BRANCH   7   9
ATOM      9  C   UNL     1      26.991  14.469 -11.513  1.00  0.00     0.044 C 
ATOM     10  O   UNL     1      26.012  14.298 -10.738  1.00  0.00    -0.550 OA
ATOM     11  O   UNL     1      27.476  15.754 -11.730  1.00  0.00    -0.550 OA
ENDBRANCH   7   9
ENDBRANCH   6   7
ENDBRANCH   5   6
ENDBRANCH   4   5
ENDBRANCH   3   4
ENDBRANCH   2   3
ENDBRANCH   1   2
BRANCH   1  12
ATOM     12  C   UNL     1      29.261  10.548 -15.435  1.00  0.00     0.000 C 
BRANCH  12  13
ATOM     13  C   UNL     1      29.810   9.668 -16.570  1.00  0.00    -0.000 C 
BRANCH  13  14
ATOM     14  C   UNL     1      30.831  10.407 -17.451  1.00  0.00    -0.000 C 
BRANCH  14  15
ATOM     15  C   UNL     1      30.804  11.929 -17.240  1.00  0.00    -0.000 C 
BRANCH  15  16
ATOM     16  C   UNL     1      30.078  12.630 -18.395  1.00  0.00    -0.000 C 
BRANCH  16  17
ATOM     17  C   UNL     1      28.977  13.559 -17.871  1.00  0.00    -0.000 C 
BRANCH  17  18
ATOM     18  C   UNL     1      29.433  14.293 -16.604  1.00  0.00    -0.003 C 
ATOM     19  C   UNL     1      30.070  15.636 -16.945  1.00  0.00     0.004 C 
ENDBRANCH  17  18
ENDBRANCH  16  17
ENDBRANCH  15  16
ENDBRANCH  14  15
ENDBRANCH  13  14
ENDBRANCH  12  13
ENDBRANCH   1  12
TORSDOF 14
ENDMDL
MODEL 4
REMARK VINA RESULT:    -3.942      1.863      5.135
REMARK INTER + INTRA:          -9.216
REMARK INTER:                  -7.380
REMARK INTRA:                  -1.836
REMARK UNBOUND:                -2.047
REMARK SMILES CCCCCCCCCCCCCC[C@H](C)C(=O)[O-]
REMARK SMILES IDX 9 1 10 2 11 3 12 4 13 5 14 6 15 7 16 8 17 9 18 10 19 11 8 12
REMARK SMILES IDX 7 13 6 14 5 15 4 16 3 17 2 18 1 19
REMARK H PARENT
REMARK Flexibility Score: inf
ROOT
ATOM      1  C   UNL     1      29.320  12.891 -17.343  1.00  0.00     0.000 C 
ENDROOT
BRANCH   1   2
ATOM      2  C   UNL     1      29.370  14.231 -18.097  1.00  0.00     0.000 C 
BRANCH   2   3
ATOM      3  C   UNL     1      29.803  15.407 -17.201  1.00  0.00     0.000 C 
BRANCH   3   4
ATOM      4  C   UNL     1      31.079  15.164 -16.374  1.00  0.00     0.000 C 
BRANCH   4   5
ATOM      5  C   UNL     1      30.809  15.079 -14.862  1.00  0.00     0.001 C 
BRANCH   5   6
ATOM      6  C   UNL     1      29.352  15.437 -14.499  1.00  0.00     0.009 C 
BRANCH   6   7
ATOM      7  C   UNL     1      28.769  14.569 -13.361  1.00  0.00     0.032 C 
ATOM      8  C   UNL     1      28.295  13.214 -13.902  1.00  0.00     0.014 C 
BRANCH   7   9
ATOM      9  C   UNL     1      27.638  15.261 -12.653  1.00  0.00     0.044 C 
ATOM     10  O   UNL     1      27.695  16.496 -12.408  1.00  0.00    -0.550 OA
ATOM     11  O   UNL     1      26.524  14.535 -12.251  1.00  0.00    -0.550 OA
ENDBRANCH   7   9
ENDBRANCH   6   7
ENDBRANCH   5   6
ENDBRANCH   4   5
ENDBRANCH   3   4
ENDBRANCH   2   3
ENDBRANCH   1   2
BRANCH   1  12
ATOM     12  C   UNL     1      30.283  11.847 -17.933  1.00  0.00     0.000 C 
BRANCH  12  13
ATOM     13  C   UNL     1      31.125  11.145 -16.854  1.00  0.00    -0.000 C 
BRANCH  13  14
ATOM     14  C   UNL     1      30.260  10.454 -15.787  1.00  0.00    -0.000 C 
BRANCH  14  15
ATOM     15  C   UNL     1      30.830  10.607 -14.369  1.00  0.00    -0.000 C 
BRANCH  15  16
ATOM     16  C   UNL     1      30.575   9.344 -13.536  1.00  0.00    -0.000 C 
BRANCH  16  17
ATOM     17  C   UNL     1      29.189   9.386 -12.882  1.00  0.00    -0.000 C 
BRANCH  17  18
ATOM     18  C   UNL     1      29.207  10.241 -11.609  1.00  0.00    -0.003 C 
ATOM     19  C   UNL     1      29.930   9.525 -10.474  1.00  0.00     0.004 C 
ENDBRANCH  17  18
ENDBRANCH  16  17
ENDBRANCH  15  16
ENDBRANCH  14  15
ENDBRANCH  13  14
ENDBRANCH  12  13
ENDBRANCH   1  12
TORSDOF 14
ENDMDL
MODEL 5
REMARK VINA RESULT:    -3.928      1.565      2.862
REMARK INTER + INTRA:          -9.189
REMARK INTER:                  -7.362
REMARK INTRA:                  -1.827
REMARK UNBOUND:                -2.047
REMARK SMILES CCCCCCCCCCCCCC[C@H](C)C(=O)[O-]
REMARK SMILES IDX 9 1 10 2 11 3 12 4 13 5 14 6 15 7 16 8 17 9 18 10 19 11 8 12
REMARK SMILES IDX 7 13 6 14 5 15 4 16 3 17 2 18 1 19
REMARK H PARENT
REMARK Flexibility Score: inf
ROOT
ATOM      1  C   UNL     1      30.665   8.045 -12.154  1.00  0.00     0.000 C 
ENDROOT
BRANCH   1   2
ATOM      2  C   UNL     1      30.941   9.003 -10.983  1.00  0.00     0.000 C 
BRANCH   2   3
ATOM      3  C   UNL     1      29.654   9.553 -10.341  1.00  0.00     0.000 C 
BRANCH   3   4
ATOM      4  C   UNL     1      29.597  11.085 -10.196  1.00  0.00     0.000 C 
BRANCH   4   5
ATOM      5  C   UNL     1      29.112  11.791 -11.475  1.00  0.00     0.001 C 
BRANCH   5   6
ATOM      6  C   UNL     1      27.752  12.496 -11.283  1.00  0.00     0.009 C 
BRANCH   6   7
ATOM      7  C   UNL     1      27.387  13.456 -12.438  1.00  0.00     0.032 C 
ATOM      8  C   UNL     1      28.615  14.260 -12.882  1.00  0.00     0.014 C 
BRANCH   7   9
ATOM      9  C   UNL     1      26.274  14.391 -12.057  1.00  0.00     0.044 C 
ATOM     10  O   UNL     1      26.313  15.605 -12.393  1.00  0.00    -0.550 OA
ATOM     11  O   UNL     1      25.197  13.921 -11.315  1.00  0.00    -0.550 OA
ENDBRANCH   7   9
ENDBRANCH   6   7
ENDBRANCH   5   6
ENDBRANCH   4   5
ENDBRANCH   3   4
ENDBRANCH   2   3
ENDBRANCH   1   2
BRANCH   1  12
ATOM     12  C   UNL     1      29.280   8.269 -12.784  1.00  0.00     0.000 C 
BRANCH  12  13
ATOM     13  C   UNL     1      29.353   9.061 -14.101  1.00  0.00    -0.000 C 
BRANCH  13  14
ATOM     14  C   UNL     1      30.632   9.907 -14.212  1.00  0.00    -0.000 C 
BRANCH  14  15
ATOM     15  C   UNL     1      30.423  11.196 -15.020  1.00  0.00    -0.000 C 
BRANCH  15  16
ATOM     16  C   UNL     1      29.160  11.103 -15.886  1.00  0.00    -0.000 C 
BRANCH  16  17
ATOM     17  C   UNL     1      28.525  12.483 -16.086  1.00  0.00    -0.000 C 
BRANCH  17  18
ATOM     18  C   UNL     1      29.226  13.254 -17.211  1.00  0.00    -0.003 C 
ATOM     19  C   UNL     1      29.576  14.672 -16.773  1.00  0.00     0.004 C 
ENDBRANCH  17  18
ENDBRANCH  16  17
ENDBRANCH  15  16
ENDBRANCH  14  15
ENDBRANCH  13  14
ENDBRANCH  12  13
ENDBRANCH   1  12
TORSDOF 14
ENDMDL
MODEL 6
REMARK VINA RESULT:    -3.926     16.512     17.965
REMARK INTER + INTRA:          -9.186
REMARK INTER:                  -6.942
REMARK INTRA:                  -2.245
REMARK UNBOUND:                -2.047
REMARK SMILES CCCCCCCCCCCCCC[C@H](C)C(=O)[O-]
REMARK SMILES IDX 9 1 10 2 11 3 12 4 13 5 14 6 15 7 16 8 17 9 18 10 19 11 8 12
REMARK SMILES IDX 7 13 6 14 5 15 4 16 3 17 2 18 1 19
REMARK H PARENT
REMARK Flexibility Score: inf
ROOT
ATOM      1  C   UNL     1      20.316  -1.023 -17.511  1.00  0.00     0.000 C 
ENDROOT
BRANCH   1   2
ATOM      2  C   UNL     1      19.498  -1.146 -18.809  1.00  0.00     0.000 C 
BRANCH   2   3
ATOM      3  C   UNL     1      18.104  -1.759 -18.583  1.00  0.00     0.000 C 
BRANCH   3   4
ATOM      4  C   UNL     1      16.920  -0.831 -18.910  1.00  0.00     0.000 C 
BRANCH   4   5
ATOM      5  C   UNL     1      17.249   0.658 -18.703  1.00  0.00     0.001 C 
BRANCH   5   6
ATOM      6  C   UNL     1      16.781   1.184 -17.329  1.00  0.00     0.009 C 
BRANCH   6   7
ATOM      7  C   UNL     1      15.655   2.238 -17.423  1.00  0.00     0.032 C 
ATOM      8  C   UNL     1      14.385   1.620 -18.023  1.00  0.00     0.014 C 
BRANCH   7   9
ATOM      9  C   UNL     1      16.074   3.432 -18.233  1.00  0.00     0.044 C 
ATOM     10  O   UNL     1      15.266   3.983 -19.029  1.00  0.00    -0.550 OA
ATOM     11  O   UNL     1      17.366   3.930 -18.117  1.00  0.00    -0.550 OA
ENDBRANCH   7   9
ENDBRANCH   6   7
ENDBRANCH   5   6
ENDBRANCH   4   5
ENDBRANCH   3   4
ENDBRANCH   2   3
ENDBRANCH   1   2
BRANCH   1  12
ATOM     12  C   UNL     1      19.579  -1.601 -16.293  1.00  0.00     0.000 C 
BRANCH  12  13
ATOM     13  C   UNL     1      19.319  -0.545 -15.205  1.00  0.00    -0.000 C 
BRANCH  13  14
ATOM     14  C   UNL     1      18.041  -0.829 -14.399  1.00  0.00    -0.000 C 
BRANCH  14  15
ATOM     15  C   UNL     1      17.179  -1.937 -15.023  1.00  0.00    -0.000 C 
BRANCH  15  16
ATOM     16  C   UNL     1      15.690  -1.699 -14.739  1.00  0.00    -0.000 C 
BRANCH  16  17
ATOM     17  C   UNL     1      15.459  -0.311 -14.132  1.00  0.00    -0.000 C 
BRANCH  17  18
ATOM     18  C   UNL     1      14.657  -0.407 -12.828  1.00  0.00    -0.003 C 
ATOM     19  C   UNL     1      15.461   0.124 -11.646  1.00  0.00     0.004 C 
ENDBRANCH  17  18
ENDBRANCH  16  17
ENDBRANCH  15  16
ENDBRANCH  14  15
ENDBRANCH  13  14
ENDBRANCH  12  13
ENDBRANCH   1  12
TORSDOF 14
ENDMDL
MODEL 7
REMARK VINA RESULT:    -3.912      2.234      5.538
REMARK INTER + INTRA:          -9.161
REMARK INTER:                  -7.364
REMARK INTRA:                  -1.797
REMARK UNBOUND:                -2.047
REMARK SMILES CCCCCCCCCCCCCC[C@H](C)C(=O)[O-]
REMARK SMILES IDX 9 1 10 2 11 3 12 4 13 5 14 6 15 7 16 8 17 9 18 10 19 11 8 12
REMARK SMILES IDX 7 13 6 14 5 15 4 16 3 17 2 18 1 19
REMARK H PARENT
REMARK Flexibility Score: inf
ROOT
ATOM      1  C   UNL     1      30.112  12.819 -18.031  1.00  0.00     0.000 C 
ENDROOT
BRANCH   1   2
ATOM      2  C   UNL     1      30.968  11.858 -17.189  1.00  0.00     0.000 C 
BRANCH   2   3
ATOM      3  C   UNL     1      30.320  10.471 -17.019  1.00  0.00     0.000 C 
BRANCH   3   4
ATOM      4  C   UNL     1      29.537  10.271 -15.709  1.00  0.00     0.000 C 
BRANCH   4   5
ATOM      5  C   UNL     1      30.288  10.795 -14.473  1.00  0.00     0.001 C 
BRANCH   5   6
ATOM      6  C   UNL     1      29.412  10.797 -13.202  1.00  0.00     0.009 C 
BRANCH   6   7
ATOM      7  C   UNL     1      30.162  10.328 -11.935  1.00  0.00     0.032 C 
ATOM      8  C   UNL     1      29.863   8.852 -11.645  1.00  0.00     0.014 C 
BRANCH   7   9
ATOM      9  C   UNL     1      29.814  11.166 -10.737  1.00  0.00     0.044 C 
ATOM     10  O   UNL     1      29.099  10.696  -9.812  1.00  0.00    -0.550 OA
ATOM     11  O   UNL     1      30.269  12.476 -10.651  1.00  0.00    -0.550 OA
ENDBRANCH   7   9
ENDBRANCH   6   7
ENDBRANCH   5   6
ENDBRANCH   4   5
ENDBRANCH   3   4
ENDBRANCH   2   3
ENDBRANCH   1   2
BRANCH   1  12
ATOM     12  C   UNL     1      29.252  13.755 -17.166  1.00  0.00     0.000 C 
BRANCH  12  13
ATOM     13  C   UNL     1      30.079  14.869 -16.501  1.00  0.00    -0.000 C 
BRANCH  13  14
ATOM     14  C   UNL     1      29.936  14.878 -14.970  1.00  0.00    -0.000 C 
BRANCH  14  15
ATOM     15  C   UNL     1      28.754  14.029 -14.479  1.00  0.00    -0.000 C 
BRANCH  15  16
ATOM     16  C   UNL     1      28.392  14.378 -13.030  1.00  0.00    -0.000 C 
BRANCH  16  17
ATOM     17  C   UNL     1      26.996  13.856 -12.669  1.00  0.00    -0.000 C 
BRANCH  17  18
ATOM     18  C   UNL     1      26.906  13.514 -11.177  1.00  0.00    -0.003 C 
ATOM     19  C   UNL     1      25.659  14.126 -10.546  1.00  0.00     0.004 C 
ENDBRANCH  17  18
ENDBRANCH  16  17
ENDBRANCH  15  16
ENDBRANCH  14  15
ENDBRANCH  13  14
ENDBRANCH  12  13
ENDBRANCH   1  12
TORSDOF 14
ENDMDL
MODEL 8
REMARK VINA RESULT:    -3.905      3.884      7.735
REMARK INTER + INTRA:          -9.148
REMARK INTER:                  -7.625
REMARK INTRA:                  -1.523
REMARK UNBOUND:                -2.047
REMARK SMILES CCCCCCCCCCCCCC[C@H](C)C(=O)[O-]
REMARK SMILES IDX 9 1 10 2 11 3 12 4 13 5 14 6 15 7 16 8 17 9 18 10 19 11 8 12
REMARK SMILES IDX 7 13 6 14 5 15 4 16 3 17 2 18 1 19
REMARK H PARENT
REMARK Flexibility Score: inf
ROOT
ATOM      1  C   UNL     1      28.492  12.415 -16.323  1.00  0.00     0.000 C 
ENDROOT
BRANCH   1   2
ATOM      2  C   UNL     1      28.756  13.559 -17.317  1.00  0.00     0.000 C 
BRANCH   2   3
ATOM      3  C   UNL     1      29.997  13.315 -18.196  1.00  0.00     0.000 C 
BRANCH   3   4
ATOM      4  C   UNL     1      30.822  12.067 -17.831  1.00  0.00     0.000 C 
BRANCH   4   5
ATOM      5  C   UNL     1      30.700  10.941 -18.872  1.00  0.00     0.001 C 
BRANCH   5   6
ATOM      6  C   UNL     1      31.037   9.553 -18.288  1.00  0.00     0.009 C 
BRANCH   6   7
ATOM      7  C   UNL     1      29.903   8.955 -17.425  1.00  0.00     0.032 C 
ATOM      8  C   UNL     1      30.340   8.841 -15.960  1.00  0.00     0.014 C 
BRANCH   7   9
ATOM      9  C   UNL     1      29.464   7.610 -17.933  1.00  0.00     0.044 C 
ATOM     10  O   UNL     1      30.081   7.048 -18.877  1.00  0.00    -0.550 OA
ATOM     11  O   UNL     1      28.359   6.983 -17.370  1.00  0.00    -0.550 OA
ENDBRANCH   7   9
ENDBRANCH   6   7
ENDBRANCH   5   6
ENDBRANCH   4   5
ENDBRANCH   3   4
ENDBRANCH   2   3
ENDBRANCH   1   2
BRANCH   1  12
ATOM     12  C   UNL     1      28.568  12.877 -14.859  1.00  0.00     0.000 C 
BRANCH  12  13
ATOM     13  C   UNL     1      29.773  12.276 -14.114  1.00  0.00    -0.000 C 
BRANCH  13  14
ATOM     14  C   UNL     1      29.373  11.124 -13.177  1.00  0.00    -0.000 C 
BRANCH  14  15
ATOM     15  C   UNL     1      29.541  11.480 -11.693  1.00  0.00    -0.000 C 
BRANCH  15  16
ATOM     16  C   UNL     1      28.709  12.716 -11.328  1.00  0.00    -0.000 C 
BRANCH  16  17
ATOM     17  C   UNL     1      27.271  12.326 -10.966  1.00  0.00    -0.000 C 
BRANCH  17  18
ATOM     18  C   UNL     1      26.263  13.295 -11.597  1.00  0.00    -0.003 C 
ATOM     19  C   UNL     1      25.569  14.138 -10.532  1.00  0.00     0.004 C 
ENDBRANCH  17  18
ENDBRANCH  16  17
ENDBRANCH  15  16
ENDBRANCH  14  15
ENDBRANCH  13  14
ENDBRANCH  12  13
ENDBRANCH   1  12
TORSDOF 14
ENDMDL
MODEL 9
REMARK VINA RESULT:    -3.893      1.341      2.076
REMARK INTER + INTRA:          -9.126
REMARK INTER:                  -6.983
REMARK INTRA:                  -2.143
REMARK UNBOUND:                -2.047
REMARK SMILES CCCCCCCCCCCCCC[C@H](C)C(=O)[O-]
REMARK SMILES IDX 9 1 10 2 11 3 12 4 13 5 14 6 15 7 16 8 17 9 18 10 19 11 8 12
REMARK SMILES IDX 7 13 6 14 5 15 4 16 3 17 2 18 1 19
REMARK H PARENT
REMARK Flexibility Score: inf
ROOT
ATOM      1  C   UNL     1      29.256  10.099 -13.461  1.00  0.00     0.000 C 
ENDROOT
BRANCH   1   2
ATOM      2  C   UNL     1      30.364  10.144 -12.394  1.00  0.00     0.000 C 
BRANCH   2   3
ATOM      3  C   UNL     1      30.053  11.123 -11.247  1.00  0.00     0.000 C 
BRANCH   3   4
ATOM      4  C   UNL     1      28.560  11.267 -10.896  1.00  0.00     0.000 C 
BRANCH   4   5
ATOM      5  C   UNL     1      28.050  12.714 -11.018  1.00  0.00     0.001 C 
BRANCH   5   6
ATOM      6  C   UNL     1      26.694  12.806 -11.748  1.00  0.00     0.009 C 
BRANCH   6   7
ATOM      7  C   UNL     1      26.209  14.256 -11.968  1.00  0.00     0.032 C 
ATOM      8  C   UNL     1      27.363  15.247 -11.774  1.00  0.00     0.014 C 
BRANCH   7   9
ATOM      9  C   UNL     1      25.071  14.610 -11.052  1.00  0.00     0.044 C 
ATOM     10  O   UNL     1      23.998  15.080 -11.515  1.00  0.00    -0.550 OA
ATOM     11  O   UNL     1      25.205  14.433  -9.680  1.00  0.00    -0.550 OA
ENDBRANCH   7   9
ENDBRANCH   6   7
ENDBRANCH   5   6
ENDBRANCH   4   5
ENDBRANCH   3   4
ENDBRANCH   2   3
ENDBRANCH   1   2
BRANCH   1  12
ATOM     12  C   UNL     1      29.589  10.954 -14.694  1.00  0.00     0.000 C 
BRANCH  12  13
ATOM     13  C   UNL     1      28.915  12.336 -14.653  1.00  0.00    -0.000 C 
BRANCH  13  14
ATOM     14  C   UNL     1      29.854  13.437 -14.135  1.00  0.00    -0.000 C 
BRANCH  14  15
ATOM     15  C   UNL     1      29.417  14.844 -14.568  1.00  0.00    -0.000 C 
BRANCH  15  16
ATOM     16  C   UNL     1      30.465  15.486 -15.486  1.00  0.00    -0.000 C 
BRANCH  16  17
ATOM     17  C   UNL     1      30.048  15.380 -16.958  1.00  0.00    -0.000 C 
BRANCH  17  18
ATOM     18  C   UNL     1      30.471  14.031 -17.553  1.00  0.00    -0.003 C 
ATOM     19  C   UNL     1      29.288  13.321 -18.203  1.00  0.00     0.004 C 
ENDBRANCH  17  18
ENDBRANCH  16  17
ENDBRANCH  15  16
ENDBRANCH  14  15
ENDBRANCH  13  14
ENDBRANCH  12  13
ENDBRANCH   1  12
TORSDOF 14
ENDMDL
