MODEL 1
REMARK VINA RESULT:    -3.941      0.000      0.000
REMARK INTER + INTRA:         -12.868
REMARK INTER:                  -9.009
REMARK INTRA:                  -3.859
REMARK UNBOUND:                -3.859
REMARK SMILES CCCCCCCCCCCCCCCCCCCCCCCC(=O)[O-]
REMARK SMILES IDX 13 1 14 2 15 3 16 4 17 5 18 6 19 7 20 8 21 9 22 10 23 11
REMARK SMILES IDX 24 12 25 13 26 14 12 15 11 16 10 17 9 18 8 19 7 20 6 21 5 22
REMARK SMILES IDX 4 23 3 24 2 25 1 26
REMARK H PARENT
REMARK Flexibility Score: inf
ROOT
ATOM      1  C   UNL     1      39.243 -48.962 -17.490  1.00  0.00     0.000 C 
ENDROOT
BRANCH   1   2
ATOM      2  C   UNL     1      38.621 -50.087 -18.333  1.00  0.00     0.000 C 
BRANCH   2   3
ATOM      3  C   UNL     1      38.560 -51.423 -17.572  1.00  0.00     0.000 C 
BRANCH   3   4
ATOM      4  C   UNL     1      37.125 -51.957 -17.406  1.00  0.00     0.000 C 
BRANCH   4   5
ATOM      5  C   UNL     1      36.330 -51.353 -16.235  1.00  0.00     0.000 C 
BRANCH   5   6
ATOM      6  C   UNL     1      35.172 -50.453 -16.695  1.00  0.00     0.000 C 
BRANCH   6   7
ATOM      7  C   UNL     1      35.360 -48.977 -16.296  1.00  0.00     0.000 C 
BRANCH   7   8
ATOM      8  C   UNL     1      35.615 -48.007 -17.465  1.00  0.00     0.000 C 
BRANCH   8   9
ATOM      9  C   UNL     1      36.377 -46.742 -17.042  1.00  0.00     0.000 C 
BRANCH   9  10
ATOM     10  C   UNL     1      36.887 -45.971 -18.268  1.00  0.00     0.006 C 
BRANCH  10  11
ATOM     11  C   UNL     1      36.863 -46.824 -19.544  1.00  0.00     0.053 C 
BRANCH  11  12
ATOM     12  C   UNL     1      38.039 -46.537 -20.427  1.00  0.00     0.041 C 
ATOM     13  O   UNL     1      38.183 -47.162 -21.511  1.00  0.00    -0.550 OA
ATOM     14  O   UNL     1      38.956 -45.557 -20.071  1.00  0.00    -0.550 OA
ENDBRANCH  11  12
ENDBRANCH  10  11
ENDBRANCH   9  10
ENDBRANCH   8   9
ENDBRANCH   7   8
ENDBRANCH   6   7
ENDBRANCH   5   6
ENDBRANCH   4   5
ENDBRANCH   3   4
ENDBRANCH   2   3
ENDBRANCH   1   2
BRANCH   1  15
ATOM     15  C   UNL     1      39.556 -49.412 -16.051  1.00  0.00     0.000 C 
BRANCH  15  16
ATOM     16  C   UNL     1      38.876 -48.529 -14.992  1.00  0.00     0.000 C 
BRANCH  16  17
ATOM     17  C   UNL     1      38.132 -49.296 -13.882  1.00  0.00     0.000 C 
BRANCH  17  18
ATOM     18  C   UNL     1      38.797 -49.192 -12.494  1.00  0.00    -0.000 C 
BRANCH  18  19
ATOM     19  C   UNL     1      39.095 -47.740 -12.086  1.00  0.00    -0.000 C 
BRANCH  19  20
ATOM     20  C   UNL     1      40.524 -47.551 -11.545  1.00  0.00    -0.000 C 
BRANCH  20  21
ATOM     21  C   UNL     1      41.405 -48.811 -11.668  1.00  0.00    -0.000 C 
BRANCH  21  22
ATOM     22  C   UNL     1      42.423 -48.697 -12.814  1.00  0.00    -0.000 C 
BRANCH  22  23
ATOM     23  C   UNL     1      42.257 -49.843 -13.818  1.00  0.00    -0.000 C 
BRANCH  23  24
ATOM     24  C   UNL     1      43.622 -50.423 -14.218  1.00  0.00    -0.000 C 
BRANCH  24  25
ATOM     25  C   UNL     1      43.500 -51.670 -15.106  1.00  0.00    -0.003 C 
ATOM     26  C   UNL     1      42.517 -51.482 -16.261  1.00  0.00     0.004 C 
ENDBRANCH  24  25
ENDBRANCH  23  24
ENDBRANCH  22  23
ENDBRANCH  21  22
ENDBRANCH  20  21
ENDBRANCH  19  20
ENDBRANCH  18  19
ENDBRANCH  17  18
ENDBRANCH  16  17
ENDBRANCH  15  16
ENDBRANCH   1  15
TORSDOF 22
ENDMDL
MODEL 2
REMARK VINA RESULT:    -3.785      1.388      2.809
REMARK INTER + INTRA:         -12.512
REMARK INTER:                  -8.237
REMARK INTRA:                  -4.275
REMARK UNBOUND:                -3.859
REMARK SMILES CCCCCCCCCCCCCCCCCCCCCCCC(=O)[O-]
REMARK SMILES IDX 13 1 14 2 15 3 16 4 17 5 18 6 19 7 20 8 21 9 22 10 23 11
REMARK SMILES IDX 24 12 25 13 26 14 12 15 11 16 10 17 9 18 8 19 7 20 6 21 5 22
REMARK SMILES IDX 4 23 3 24 2 25 1 26
REMARK H PARENT
REMARK Flexibility Score: inf
ROOT
ATOM      1  C   UNL     1      38.292 -51.464 -17.649  1.00  0.00     0.000 C 
ENDROOT
BRANCH   1   2
ATOM      2  C   UNL     1      36.832 -51.610 -17.189  1.00  0.00     0.000 C 
BRANCH   2   3
ATOM      3  C   UNL     1      36.671 -51.391 -15.674  1.00  0.00     0.000 C 
BRANCH   3   4
ATOM      4  C   UNL     1      35.841 -50.140 -15.332  1.00  0.00     0.000 C 
BRANCH   4   5
ATOM      5  C   UNL     1      35.019 -49.557 -16.495  1.00  0.00     0.000 C 
BRANCH   5   6
ATOM      6  C   UNL     1      35.344 -48.082 -16.779  1.00  0.00     0.000 C 
BRANCH   6   7
ATOM      7  C   UNL     1      35.585 -47.795 -18.273  1.00  0.00     0.000 C 
BRANCH   7   8
ATOM      8  C   UNL     1      36.760 -46.847 -18.579  1.00  0.00     0.000 C 
BRANCH   8   9
ATOM      9  C   UNL     1      37.287 -46.985 -20.015  1.00  0.00     0.000 C 
BRANCH   9  10
ATOM     10  C   UNL     1      38.422 -45.986 -20.284  1.00  0.00     0.006 C 
BRANCH  10  11
ATOM     11  C   UNL     1      39.314 -45.773 -19.054  1.00  0.00     0.053 C 
BRANCH  11  12
ATOM     12  C   UNL     1      39.484 -44.320 -18.733  1.00  0.00     0.041 C 
ATOM     13  O   UNL     1      38.897 -43.819 -17.739  1.00  0.00    -0.550 OA
ATOM     14  O   UNL     1      40.317 -43.527 -19.512  1.00  0.00    -0.550 OA
ENDBRANCH  11  12
ENDBRANCH  10  11
ENDBRANCH   9  10
ENDBRANCH   8   9
ENDBRANCH   7   8
ENDBRANCH   6   7
ENDBRANCH   5   6
ENDBRANCH   4   5
ENDBRANCH   3   4
ENDBRANCH   2   3
ENDBRANCH   1   2
BRANCH   1  15
ATOM     15  C   UNL     1      38.526 -50.176 -18.459  1.00  0.00     0.000 C 
BRANCH  15  16
ATOM     16  C   UNL     1      39.614 -49.279 -17.848  1.00  0.00     0.000 C 
BRANCH  16  17
ATOM     17  C   UNL     1      39.551 -49.127 -16.316  1.00  0.00     0.000 C 
BRANCH  17  18
ATOM     18  C   UNL     1      38.826 -47.850 -15.841  1.00  0.00    -0.000 C 
BRANCH  18  19
ATOM     19  C   UNL     1      38.699 -47.776 -14.311  1.00  0.00    -0.000 C 
BRANCH  19  20
ATOM     20  C   UNL     1      38.988 -49.119 -13.618  1.00  0.00    -0.000 C 
BRANCH  20  21
ATOM     21  C   UNL     1      39.015 -49.029 -12.079  1.00  0.00    -0.000 C 
BRANCH  21  22
ATOM     22  C   UNL     1      40.443 -49.119 -11.517  1.00  0.00    -0.000 C 
BRANCH  22  23
ATOM     23  C   UNL     1      41.359 -48.074 -12.164  1.00  0.00    -0.000 C 
BRANCH  23  24
ATOM     24  C   UNL     1      42.626 -48.732 -12.730  1.00  0.00    -0.000 C 
BRANCH  24  25
ATOM     25  C   UNL     1      42.567 -48.924 -14.252  1.00  0.00    -0.003 C 
ATOM     26  C   UNL     1      42.670 -50.391 -14.669  1.00  0.00     0.004 C 
ENDBRANCH  24  25
ENDBRANCH  23  24
ENDBRANCH  22  23
ENDBRANCH  21  22
ENDBRANCH  20  21
ENDBRANCH  19  20
ENDBRANCH  18  19
ENDBRANCH  17  18
ENDBRANCH  16  17
ENDBRANCH  15  16
ENDBRANCH   1  15
TORSDOF 22
ENDMDL
MODEL 3
REMARK VINA RESULT:    -3.730      1.528      3.165
REMARK INTER + INTRA:         -12.385
REMARK INTER:                  -8.273
REMARK INTRA:                  -4.112
REMARK UNBOUND:                -3.859
REMARK SMILES CCCCCCCCCCCCCCCCCCCCCCCC(=O)[O-]
REMARK SMILES IDX 13 1 14 2 15 3 16 4 17 5 18 6 19 7 20 8 21 9 22 10 23 11
REMARK SMILES IDX 24 12 25 13 26 14 12 15 11 16 10 17 9 18 8 19 7 20 6 21 5 22
REMARK SMILES IDX 4 23 3 24 2 25 1 26
REMARK H PARENT
REMARK Flexibility Score: inf
ROOT
ATOM      1  C   UNL     1      39.512 -49.072 -17.539  1.00  0.00     0.000 C 
ENDROOT
BRANCH   1   2
ATOM      2  C   UNL     1      38.614 -50.096 -18.254  1.00  0.00     0.000 C 
BRANCH   2   3
ATOM      3  C   UNL     1      38.470 -51.404 -17.456  1.00  0.00     0.000 C 
BRANCH   3   4
ATOM      4  C   UNL     1      37.005 -51.833 -17.262  1.00  0.00     0.000 C 
BRANCH   4   5
ATOM      5  C   UNL     1      36.337 -51.331 -15.970  1.00  0.00     0.000 C 
BRANCH   5   6
ATOM      6  C   UNL     1      35.095 -50.463 -16.234  1.00  0.00     0.000 C 
BRANCH   6   7
ATOM      7  C   UNL     1      35.345 -48.963 -15.987  1.00  0.00     0.000 C 
BRANCH   7   8
ATOM      8  C   UNL     1      35.727 -48.146 -17.235  1.00  0.00     0.000 C 
BRANCH   8   9
ATOM      9  C   UNL     1      36.502 -46.863 -16.901  1.00  0.00     0.000 C 
BRANCH   9  10
ATOM     10  C   UNL     1      36.877 -46.097 -18.178  1.00  0.00     0.006 C 
BRANCH  10  11
ATOM     11  C   UNL     1      36.824 -46.987 -19.427  1.00  0.00     0.053 C 
BRANCH  11  12
ATOM     12  C   UNL     1      38.024 -46.791 -20.302  1.00  0.00     0.041 C 
ATOM     13  O   UNL     1      39.121 -46.432 -19.800  1.00  0.00    -0.550 OA
ATOM     14  O   UNL     1      37.940 -47.037 -21.667  1.00  0.00    -0.550 OA
ENDBRANCH  11  12
ENDBRANCH  10  11
ENDBRANCH   9  10
ENDBRANCH   8   9
ENDBRANCH   7   8
ENDBRANCH   6   7
ENDBRANCH   5   6
ENDBRANCH   4   5
ENDBRANCH   3   4
ENDBRANCH   2   3
ENDBRANCH   1   2
BRANCH   1  15
ATOM     15  C   UNL     1      39.879 -49.510 -16.109  1.00  0.00     0.000 C 
BRANCH  15  16
ATOM     16  C   UNL     1      39.455 -48.483 -15.047  1.00  0.00     0.000 C 
BRANCH  16  17
ATOM     17  C   UNL     1      38.382 -48.972 -14.056  1.00  0.00     0.000 C 
BRANCH  17  18
ATOM     18  C   UNL     1      38.850 -48.997 -12.586  1.00  0.00    -0.000 C 
BRANCH  18  19
ATOM     19  C   UNL     1      40.362 -49.243 -12.449  1.00  0.00    -0.000 C 
BRANCH  19  20
ATOM     20  C   UNL     1      40.999 -48.441 -11.301  1.00  0.00    -0.000 C 
BRANCH  20  21
ATOM     21  C   UNL     1      41.655 -47.121 -11.758  1.00  0.00    -0.000 C 
BRANCH  21  22
ATOM     22  C   UNL     1      41.376 -45.967 -10.783  1.00  0.00    -0.000 C 
BRANCH  22  23
ATOM     23  C   UNL     1      39.915 -45.973 -10.320  1.00  0.00    -0.000 C 
BRANCH  23  24
ATOM     24  C   UNL     1      39.108 -44.879 -11.036  1.00  0.00    -0.000 C 
BRANCH  24  25
ATOM     25  C   UNL     1      38.344 -45.408 -12.259  1.00  0.00    -0.003 C 
ATOM     26  C   UNL     1      39.037 -45.074 -13.579  1.00  0.00     0.004 C 
ENDBRANCH  24  25
ENDBRANCH  23  24
ENDBRANCH  22  23
ENDBRANCH  21  22
ENDBRANCH  20  21
ENDBRANCH  19  20
ENDBRANCH  18  19
ENDBRANCH  17  18
ENDBRANCH  16  17
ENDBRANCH  15  16
ENDBRANCH   1  15
TORSDOF 22
ENDMDL
MODEL 4
REMARK VINA RESULT:    -3.726      2.564      6.480
REMARK INTER + INTRA:         -12.377
REMARK INTER:                  -8.740
REMARK INTRA:                  -3.637
REMARK UNBOUND:                -3.859
REMARK SMILES CCCCCCCCCCCCCCCCCCCCCCCC(=O)[O-]
REMARK SMILES IDX 13 1 14 2 15 3 16 4 17 5 18 6 19 7 20 8 21 9 22 10 23 11
REMARK SMILES IDX 24 12 25 13 26 14 12 15 11 16 10 17 9 18 8 19 7 20 6 21 5 22
REMARK SMILES IDX 4 23 3 24 2 25 1 26
REMARK H PARENT
REMARK Flexibility Score: inf
ROOT
ATOM      1  C   UNL     1      36.567 -51.533 -16.541  1.00  0.00     0.000 C 
ENDROOT
BRANCH   1   2
ATOM      2  C   UNL     1      37.763 -51.405 -17.498  1.00  0.00     0.000 C 
BRANCH   2   3
ATOM      3  C   UNL     1      38.460 -50.037 -17.382  1.00  0.00     0.000 C 
BRANCH   3   4
ATOM      4  C   UNL     1      39.253 -49.875 -16.072  1.00  0.00     0.000 C 
BRANCH   4   5
ATOM      5  C   UNL     1      39.384 -48.430 -15.558  1.00  0.00     0.000 C 
BRANCH   5   6
ATOM      6  C   UNL     1      38.364 -48.089 -14.459  1.00  0.00     0.000 C 
BRANCH   6   7
ATOM      7  C   UNL     1      37.948 -49.314 -13.623  1.00  0.00     0.000 C 
BRANCH   7   8
ATOM      8  C   UNL     1      38.745 -49.524 -12.321  1.00  0.00     0.000 C 
BRANCH   8   9
ATOM      9  C   UNL     1      39.508 -48.269 -11.873  1.00  0.00     0.000 C 
BRANCH   9  10
ATOM     10  C   UNL     1      40.919 -48.627 -11.385  1.00  0.00     0.006 C 
BRANCH  10  11
ATOM     11  C   UNL     1      42.012 -47.906 -12.185  1.00  0.00     0.053 C 
BRANCH  11  12
ATOM     12  C   UNL     1      42.359 -48.642 -13.443  1.00  0.00     0.041 C 
ATOM     13  O   UNL     1      42.017 -49.845 -13.586  1.00  0.00    -0.550 OA
ATOM     14  O   UNL     1      43.030 -47.991 -14.470  1.00  0.00    -0.550 OA
ENDBRANCH  11  12
ENDBRANCH  10  11
ENDBRANCH   9  10
ENDBRANCH   8   9
ENDBRANCH   7   8
ENDBRANCH   6   7
ENDBRANCH   5   6
ENDBRANCH   4   5
ENDBRANCH   3   4
ENDBRANCH   2   3
ENDBRANCH   1   2
BRANCH   1  15
ATOM     15  C   UNL     1      35.415 -50.580 -16.910  1.00  0.00     0.000 C 
BRANCH  15  16
ATOM     16  C   UNL     1      35.025 -49.644 -15.754  1.00  0.00     0.000 C 
BRANCH  16  17
ATOM     17  C   UNL     1      35.064 -48.141 -16.089  1.00  0.00     0.000 C 
BRANCH  17  18
ATOM     18  C   UNL     1      35.670 -47.822 -17.471  1.00  0.00    -0.000 C 
BRANCH  18  19
ATOM     19  C   UNL     1      36.709 -46.690 -17.415  1.00  0.00    -0.000 C 
BRANCH  19  20
ATOM     20  C   UNL     1      36.755 -45.853 -18.706  1.00  0.00    -0.000 C 
BRANCH  20  21
ATOM     21  C   UNL     1      36.943 -46.696 -19.985  1.00  0.00    -0.000 C 
BRANCH  21  22
ATOM     22  C   UNL     1      38.411 -46.755 -20.432  1.00  0.00    -0.000 C 
BRANCH  22  23
ATOM     23  C   UNL     1      39.015 -48.139 -20.172  1.00  0.00    -0.000 C 
BRANCH  23  24
ATOM     24  C   UNL     1      39.253 -48.890 -21.490  1.00  0.00    -0.000 C 
BRANCH  24  25
ATOM     25  C   UNL     1      40.394 -49.914 -21.394  1.00  0.00    -0.003 C 
ATOM     26  C   UNL     1      40.036 -51.120 -20.526  1.00  0.00     0.004 C 
ENDBRANCH  24  25
ENDBRANCH  23  24
ENDBRANCH  22  23
ENDBRANCH  21  22
ENDBRANCH  20  21
ENDBRANCH  19  20
ENDBRANCH  18  19
ENDBRANCH  17  18
ENDBRANCH  16  17
ENDBRANCH  15  16
ENDBRANCH   1  15
TORSDOF 22
ENDMDL
MODEL 5
REMARK VINA RESULT:    -3.704      2.018      6.524
REMARK INTER + INTRA:         -12.326
REMARK INTER:                  -8.084
REMARK INTRA:                  -4.242
REMARK UNBOUND:                -3.859
REMARK SMILES CCCCCCCCCCCCCCCCCCCCCCCC(=O)[O-]
REMARK SMILES IDX 13 1 14 2 15 3 16 4 17 5 18 6 19 7 20 8 21 9 22 10 23 11
REMARK SMILES IDX 24 12 25 13 26 14 12 15 11 16 10 17 9 18 8 19 7 20 6 21 5 22
REMARK SMILES IDX 4 23 3 24 2 25 1 26
REMARK H PARENT
REMARK Flexibility Score: inf
ROOT
ATOM      1  C   UNL     1      39.775 -49.699 -17.931  1.00  0.00     0.000 C 
ENDROOT
BRANCH   1   2
ATOM      2  C   UNL     1      39.706 -48.581 -16.877  1.00  0.00     0.000 C 
BRANCH   2   3
ATOM      3  C   UNL     1      39.745 -49.129 -15.440  1.00  0.00     0.000 C 
BRANCH   3   4
ATOM      4  C   UNL     1      38.778 -48.400 -14.490  1.00  0.00     0.000 C 
BRANCH   4   5
ATOM      5  C   UNL     1      38.480 -49.127 -13.167  1.00  0.00     0.000 C 
BRANCH   5   6
ATOM      6  C   UNL     1      39.209 -48.508 -11.964  1.00  0.00     0.000 C 
BRANCH   6   7
ATOM      7  C   UNL     1      40.640 -49.050 -11.782  1.00  0.00     0.000 C 
BRANCH   7   8
ATOM      8  C   UNL     1      41.762 -48.133 -12.302  1.00  0.00     0.000 C 
BRANCH   8   9
ATOM      9  C   UNL     1      42.894 -48.903 -13.000  1.00  0.00     0.000 C 
BRANCH   9  10
ATOM     10  C   UNL     1      43.711 -47.975 -13.911  1.00  0.00     0.006 C 
BRANCH  10  11
ATOM     11  C   UNL     1      43.228 -48.018 -15.367  1.00  0.00     0.053 C 
BRANCH  11  12
ATOM     12  C   UNL     1      42.705 -46.689 -15.820  1.00  0.00     0.041 C 
ATOM     13  O   UNL     1      42.332 -45.834 -14.974  1.00  0.00    -0.550 OA
ATOM     14  O   UNL     1      42.662 -46.380 -17.174  1.00  0.00    -0.550 OA
ENDBRANCH  11  12
ENDBRANCH  10  11
ENDBRANCH   9  10
ENDBRANCH   8   9
ENDBRANCH   7   8
ENDBRANCH   6   7
ENDBRANCH   5   6
ENDBRANCH   4   5
ENDBRANCH   3   4
ENDBRANCH   2   3
ENDBRANCH   1   2
BRANCH   1  15
ATOM     15  C   UNL     1      38.390 -50.296 -18.243  1.00  0.00     0.000 C 
BRANCH  15  16
ATOM     16  C   UNL     1      38.127 -51.612 -17.492  1.00  0.00     0.000 C 
BRANCH  16  17
ATOM     17  C   UNL     1      36.696 -51.778 -16.947  1.00  0.00     0.000 C 
BRANCH  17  18
ATOM     18  C   UNL     1      36.458 -51.086 -15.589  1.00  0.00    -0.000 C 
BRANCH  18  19
ATOM     19  C   UNL     1      35.514 -49.878 -15.697  1.00  0.00    -0.000 C 
BRANCH  19  20
ATOM     20  C   UNL     1      34.875 -49.738 -17.090  1.00  0.00    -0.000 C 
BRANCH  20  21
ATOM     21  C   UNL     1      35.125 -48.367 -17.751  1.00  0.00    -0.000 C 
BRANCH  21  22
ATOM     22  C   UNL     1      36.146 -47.524 -16.972  1.00  0.00    -0.000 C 
BRANCH  22  23
ATOM     23  C   UNL     1      36.849 -46.518 -17.890  1.00  0.00    -0.000 C 
BRANCH  23  24
ATOM     24  C   UNL     1      36.704 -46.925 -19.364  1.00  0.00    -0.000 C 
BRANCH  24  25
ATOM     25  C   UNL     1      37.933 -46.555 -20.207  1.00  0.00    -0.003 C 
ATOM     26  C   UNL     1      38.509 -47.747 -20.969  1.00  0.00     0.004 C 
ENDBRANCH  24  25
ENDBRANCH  23  24
ENDBRANCH  22  23
ENDBRANCH  21  22
ENDBRANCH  20  21
ENDBRANCH  19  20
ENDBRANCH  18  19
ENDBRANCH  17  18
ENDBRANCH  16  17
ENDBRANCH  15  16
ENDBRANCH   1  15
TORSDOF 22
ENDMDL
MODEL 6
REMARK VINA RESULT:    -3.670      2.936      6.436
REMARK INTER + INTRA:         -12.248
REMARK INTER:                  -8.366
REMARK INTRA:                  -3.882
REMARK UNBOUND:                -3.859
REMARK SMILES CCCCCCCCCCCCCCCCCCCCCCCC(=O)[O-]
REMARK SMILES IDX 13 1 14 2 15 3 16 4 17 5 18 6 19 7 20 8 21 9 22 10 23 11
REMARK SMILES IDX 24 12 25 13 26 14 12 15 11 16 10 17 9 18 8 19 7 20 6 21 5 22
REMARK SMILES IDX 4 23 3 24 2 25 1 26
REMARK H PARENT
REMARK Flexibility Score: inf
ROOT
ATOM      1  C   UNL     1      37.739 -50.833 -17.878  1.00  0.00     0.000 C 
ENDROOT
BRANCH   1   2
ATOM      2  C   UNL     1      36.547 -51.651 -17.354  1.00  0.00     0.000 C 
BRANCH   2   3
ATOM      3  C   UNL     1      36.062 -51.161 -15.978  1.00  0.00     0.000 C 
BRANCH   3   4
ATOM      4  C   UNL     1      35.684 -49.669 -15.968  1.00  0.00     0.000 C 
BRANCH   4   5
ATOM      5  C   UNL     1      36.600 -48.764 -15.124  1.00  0.00     0.000 C 
BRANCH   5   6
ATOM      6  C   UNL     1      37.725 -49.539 -14.418  1.00  0.00     0.000 C 
BRANCH   6   7
ATOM      7  C   UNL     1      38.669 -48.627 -13.611  1.00  0.00     0.000 C 
BRANCH   7   8
ATOM      8  C   UNL     1      38.939 -49.079 -12.163  1.00  0.00     0.000 C 
BRANCH   8   9
ATOM      9  C   UNL     1      40.435 -49.146 -11.823  1.00  0.00     0.000 C 
BRANCH   9  10
ATOM     10  C   UNL     1      41.284 -48.537 -12.949  1.00  0.00     0.006 C 
BRANCH  10  11
ATOM     11  C   UNL     1      42.091 -49.598 -13.708  1.00  0.00     0.053 C 
BRANCH  11  12
ATOM     12  C   UNL     1      43.563 -49.455 -13.470  1.00  0.00     0.041 C 
ATOM     13  O   UNL     1      44.292 -50.477 -13.387  1.00  0.00    -0.550 OA
ATOM     14  O   UNL     1      44.134 -48.192 -13.374  1.00  0.00    -0.550 OA
ENDBRANCH  11  12
ENDBRANCH  10  11
ENDBRANCH   9  10
ENDBRANCH   8   9
ENDBRANCH   7   8
ENDBRANCH   6   7
ENDBRANCH   5   6
ENDBRANCH   4   5
ENDBRANCH   3   4
ENDBRANCH   2   3
ENDBRANCH   1   2
BRANCH   1  15
ATOM     15  C   UNL     1      39.000 -51.694 -18.074  1.00  0.00     0.000 C 
BRANCH  15  16
ATOM     16  C   UNL     1      40.299 -50.884 -17.934  1.00  0.00     0.000 C 
BRANCH  16  17
ATOM     17  C   UNL     1      40.243 -49.728 -16.918  1.00  0.00     0.000 C 
BRANCH  17  18
ATOM     18  C   UNL     1      40.736 -48.377 -17.476  1.00  0.00    -0.000 C 
BRANCH  18  19
ATOM     19  C   UNL     1      40.535 -47.218 -16.487  1.00  0.00    -0.000 C 
BRANCH  19  20
ATOM     20  C   UNL     1      39.145 -46.566 -16.600  1.00  0.00    -0.000 C 
BRANCH  20  21
ATOM     21  C   UNL     1      38.664 -46.383 -18.055  1.00  0.00    -0.000 C 
BRANCH  21  22
ATOM     22  C   UNL     1      37.266 -46.977 -18.283  1.00  0.00    -0.000 C 
BRANCH  22  23
ATOM     23  C   UNL     1      36.887 -46.946 -19.768  1.00  0.00    -0.000 C 
BRANCH  23  24
ATOM     24  C   UNL     1      38.124 -46.704 -20.645  1.00  0.00    -0.000 C 
BRANCH  24  25
ATOM     25  C   UNL     1      38.405 -47.864 -21.611  1.00  0.00    -0.003 C 
ATOM     26  C   UNL     1      39.170 -49.011 -20.952  1.00  0.00     0.004 C 
ENDBRANCH  24  25
ENDBRANCH  23  24
ENDBRANCH  22  23
ENDBRANCH  21  22
ENDBRANCH  20  21
ENDBRANCH  19  20
ENDBRANCH  18  19
ENDBRANCH  17  18
ENDBRANCH  16  17
ENDBRANCH  15  16
ENDBRANCH   1  15
TORSDOF 22
ENDMDL
MODEL 7
REMARK VINA RESULT:    -3.650      1.510      3.432
REMARK INTER + INTRA:         -12.204
REMARK INTER:                  -7.983
REMARK INTRA:                  -4.221
REMARK UNBOUND:                -3.859
REMARK SMILES CCCCCCCCCCCCCCCCCCCCCCCC(=O)[O-]
REMARK SMILES IDX 13 1 14 2 15 3 16 4 17 5 18 6 19 7 20 8 21 9 22 10 23 11
REMARK SMILES IDX 24 12 25 13 26 14 12 15 11 16 10 17 9 18 8 19 7 20 6 21 5 22
REMARK SMILES IDX 4 23 3 24 2 25 1 26
REMARK H PARENT
REMARK Flexibility Score: inf
ROOT
ATOM      1  C   UNL     1      37.139 -46.662 -17.359  1.00  0.00     0.000 C 
ENDROOT
BRANCH   1   2
ATOM      2  C   UNL     1      36.364 -47.645 -18.253  1.00  0.00     0.000 C 
BRANCH   2   3
ATOM      3  C   UNL     1      35.209 -48.332 -17.502  1.00  0.00     0.000 C 
BRANCH   3   4
ATOM      4  C   UNL     1      35.491 -48.515 -16.000  1.00  0.00     0.000 C 
BRANCH   4   5
ATOM      5  C   UNL     1      34.997 -49.841 -15.395  1.00  0.00     0.000 C 
BRANCH   5   6
ATOM      6  C   UNL     1      36.087 -50.924 -15.350  1.00  0.00     0.000 C 
BRANCH   6   7
ATOM      7  C   UNL     1      36.074 -51.843 -16.586  1.00  0.00     0.000 C 
BRANCH   7   8
ATOM      8  C   UNL     1      37.317 -51.745 -17.492  1.00  0.00     0.000 C 
BRANCH   8   9
ATOM      9  C   UNL     1      38.321 -50.683 -17.022  1.00  0.00     0.000 C 
BRANCH   9  10
ATOM     10  C   UNL     1      39.524 -50.603 -17.973  1.00  0.00     0.006 C 
BRANCH  10  11
ATOM     11  C   UNL     1      39.098 -50.541 -19.446  1.00  0.00     0.053 C 
BRANCH  11  12
ATOM     12  C   UNL     1      39.593 -49.297 -20.117  1.00  0.00     0.041 C 
ATOM     13  O   UNL     1      40.692 -48.788 -19.774  1.00  0.00    -0.550 OA
ATOM     14  O   UNL     1      38.858 -48.719 -21.145  1.00  0.00    -0.550 OA
ENDBRANCH  11  12
ENDBRANCH  10  11
ENDBRANCH   9  10
ENDBRANCH   8   9
ENDBRANCH   7   8
ENDBRANCH   6   7
ENDBRANCH   5   6
ENDBRANCH   4   5
ENDBRANCH   3   4
ENDBRANCH   2   3
ENDBRANCH   1   2
BRANCH   1  15
ATOM     15  C   UNL     1      38.646 -46.647 -17.674  1.00  0.00     0.000 C 
BRANCH  15  16
ATOM     16  C   UNL     1      39.458 -45.837 -16.650  1.00  0.00     0.000 C 
BRANCH  16  17
ATOM     17  C   UNL     1      40.418 -46.665 -15.775  1.00  0.00     0.000 C 
BRANCH  17  18
ATOM     18  C   UNL     1      39.831 -48.009 -15.298  1.00  0.00    -0.000 C 
BRANCH  18  19
ATOM     19  C   UNL     1      38.870 -47.848 -14.109  1.00  0.00    -0.000 C 
BRANCH  19  20
ATOM     20  C   UNL     1      38.582 -49.175 -13.385  1.00  0.00    -0.000 C 
BRANCH  20  21
ATOM     21  C   UNL     1      39.138 -49.230 -11.947  1.00  0.00    -0.000 C 
BRANCH  21  22
ATOM     22  C   UNL     1      40.091 -48.063 -11.648  1.00  0.00    -0.000 C 
BRANCH  22  23
ATOM     23  C   UNL     1      41.552 -48.526 -11.648  1.00  0.00    -0.000 C 
BRANCH  23  24
ATOM     24  C   UNL     1      42.417 -47.613 -12.530  1.00  0.00    -0.000 C 
BRANCH  24  25
ATOM     25  C   UNL     1      43.133 -48.377 -13.654  1.00  0.00    -0.003 C 
ATOM     26  C   UNL     1      42.607 -49.801 -13.831  1.00  0.00     0.004 C 
ENDBRANCH  24  25
ENDBRANCH  23  24
ENDBRANCH  22  23
ENDBRANCH  21  22
ENDBRANCH  20  21
ENDBRANCH  19  20
ENDBRANCH  18  19
ENDBRANCH  17  18
ENDBRANCH  16  17
ENDBRANCH  15  16
ENDBRANCH   1  15
TORSDOF 22
ENDMDL
MODEL 8
REMARK VINA RESULT:    -3.623      2.840      6.284
REMARK INTER + INTRA:         -12.142
REMARK INTER:                  -8.204
REMARK INTRA:                  -3.937
REMARK UNBOUND:                -3.859
REMARK SMILES CCCCCCCCCCCCCCCCCCCCCCCC(=O)[O-]
REMARK SMILES IDX 13 1 14 2 15 3 16 4 17 5 18 6 19 7 20 8 21 9 22 10 23 11
REMARK SMILES IDX 24 12 25 13 26 14 12 15 11 16 10 17 9 18 8 19 7 20 6 21 5 22
REMARK SMILES IDX 4 23 3 24 2 25 1 26
REMARK H PARENT
REMARK Flexibility Score: inf
ROOT
ATOM      1  C   UNL     1      34.910 -48.570 -17.480  1.00  0.00     0.000 C 
ENDROOT
BRANCH   1   2
ATOM      2  C   UNL     1      35.200 -49.328 -16.174  1.00  0.00     0.000 C 
BRANCH   2   3
ATOM      3  C   UNL     1      35.198 -50.855 -16.371  1.00  0.00     0.000 C 
BRANCH   3   4
ATOM      4  C   UNL     1      36.612 -51.462 -16.389  1.00  0.00     0.000 C 
BRANCH   4   5
ATOM      5  C   UNL     1      37.476 -51.083 -17.605  1.00  0.00     0.000 C 
BRANCH   5   6
ATOM      6  C   UNL     1      38.835 -51.801 -17.625  1.00  0.00     0.000 C 
BRANCH   6   7
ATOM      7  C   UNL     1      40.030 -50.829 -17.643  1.00  0.00     0.000 C 
BRANCH   7   8
ATOM      8  C   UNL     1      39.697 -49.370 -17.278  1.00  0.00     0.000 C 
BRANCH   8   9
ATOM      9  C   UNL     1      40.924 -48.568 -16.822  1.00  0.00     0.000 C 
BRANCH   9  10
ATOM     10  C   UNL     1      40.696 -47.954 -15.433  1.00  0.00     0.006 C 
BRANCH  10  11
ATOM     11  C   UNL     1      40.256 -48.999 -14.399  1.00  0.00     0.053 C 
BRANCH  11  12
ATOM     12  C   UNL     1      38.979 -48.608 -13.721  1.00  0.00     0.041 C 
ATOM     13  O   UNL     1      37.941 -49.303 -13.877  1.00  0.00    -0.550 OA
ATOM     14  O   UNL     1      38.944 -47.496 -12.889  1.00  0.00    -0.550 OA
ENDBRANCH  11  12
ENDBRANCH  10  11
ENDBRANCH   9  10
ENDBRANCH   8   9
ENDBRANCH   7   8
ENDBRANCH   6   7
ENDBRANCH   5   6
ENDBRANCH   4   5
ENDBRANCH   3   4
ENDBRANCH   2   3
ENDBRANCH   1   2
BRANCH   1  15
ATOM     15  C   UNL     1      35.970 -47.494 -17.781  1.00  0.00     0.000 C 
BRANCH  15  16
ATOM     16  C   UNL     1      36.965 -47.301 -16.625  1.00  0.00     0.000 C 
BRANCH  16  17
ATOM     17  C   UNL     1      37.551 -45.882 -16.497  1.00  0.00     0.000 C 
BRANCH  17  18
ATOM     18  C   UNL     1      36.495 -44.788 -16.236  1.00  0.00    -0.000 C 
BRANCH  18  19
ATOM     19  C   UNL     1      36.690 -43.551 -17.127  1.00  0.00    -0.000 C 
BRANCH  19  20
ATOM     20  C   UNL     1      36.889 -43.906 -18.612  1.00  0.00    -0.000 C 
BRANCH  20  21
ATOM     21  C   UNL     1      38.203 -43.360 -19.208  1.00  0.00    -0.000 C 
BRANCH  21  22
ATOM     22  C   UNL     1      39.133 -44.484 -19.689  1.00  0.00    -0.000 C 
BRANCH  22  23
ATOM     23  C   UNL     1      38.335 -45.724 -20.106  1.00  0.00    -0.000 C 
BRANCH  23  24
ATOM     24  C   UNL     1      39.094 -47.011 -19.750  1.00  0.00    -0.000 C 
BRANCH  24  25
ATOM     25  C   UNL     1      38.769 -48.175 -20.698  1.00  0.00    -0.003 C 
ATOM     26  C   UNL     1      38.102 -47.715 -21.994  1.00  0.00     0.004 C 
ENDBRANCH  24  25
ENDBRANCH  23  24
ENDBRANCH  22  23
ENDBRANCH  21  22
ENDBRANCH  20  21
ENDBRANCH  19  20
ENDBRANCH  18  19
ENDBRANCH  17  18
ENDBRANCH  16  17
ENDBRANCH  15  16
ENDBRANCH   1  15
TORSDOF 22
ENDMDL
MODEL 9
REMARK VINA RESULT:    -3.581      3.171      6.941
REMARK INTER + INTRA:         -12.046
REMARK INTER:                  -8.127
REMARK INTRA:                  -3.918
REMARK UNBOUND:                -3.859
REMARK SMILES CCCCCCCCCCCCCCCCCCCCCCCC(=O)[O-]
REMARK SMILES IDX 13 1 14 2 15 3 16 4 17 5 18 6 19 7 20 8 21 9 22 10 23 11
REMARK SMILES IDX 24 12 25 13 26 14 12 15 11 16 10 17 9 18 8 19 7 20 6 21 5 22
REMARK SMILES IDX 4 23 3 24 2 25 1 26
REMARK H PARENT
REMARK Flexibility Score: inf
ROOT
ATOM      1  C   UNL     1      35.902 -47.708 -15.922  1.00  0.00     0.000 C 
ENDROOT
BRANCH   1   2
ATOM      2  C   UNL     1      35.946 -46.170 -15.922  1.00  0.00     0.000 C 
BRANCH   2   3
ATOM      3  C   UNL     1      36.995 -45.616 -16.903  1.00  0.00     0.000 C 
BRANCH   3   4
ATOM      4  C   UNL     1      38.424 -45.632 -16.330  1.00  0.00     0.000 C 
BRANCH   4   5
ATOM      5  C   UNL     1      38.572 -45.046 -14.915  1.00  0.00     0.000 C 
BRANCH   5   6
ATOM      6  C   UNL     1      39.062 -46.077 -13.886  1.00  0.00     0.000 C 
BRANCH   6   7
ATOM      7  C   UNL     1      39.446 -47.427 -14.522  1.00  0.00     0.000 C 
BRANCH   7   8
ATOM      8  C   UNL     1      38.597 -48.631 -14.071  1.00  0.00     0.000 C 
BRANCH   8   9
ATOM      9  C   UNL     1      38.980 -49.149 -12.677  1.00  0.00     0.000 C 
BRANCH   9  10
ATOM     10  C   UNL     1      40.506 -49.212 -12.512  1.00  0.00     0.006 C 
BRANCH  10  11
ATOM     11  C   UNL     1      40.982 -48.516 -11.230  1.00  0.00     0.053 C 
BRANCH  11  12
ATOM     12  C   UNL     1      41.719 -47.246 -11.527  1.00  0.00     0.041 C 
ATOM     13  O   UNL     1      42.662 -47.242 -12.361  1.00  0.00    -0.550 OA
ATOM     14  O   UNL     1      41.344 -46.061 -10.907  1.00  0.00    -0.550 OA
ENDBRANCH  11  12
ENDBRANCH  10  11
ENDBRANCH   9  10
ENDBRANCH   8   9
ENDBRANCH   7   8
ENDBRANCH   6   7
ENDBRANCH   5   6
ENDBRANCH   4   5
ENDBRANCH   3   4
ENDBRANCH   2   3
ENDBRANCH   1   2
BRANCH   1  15
ATOM     15  C   UNL     1      35.297 -48.277 -17.219  1.00  0.00     0.000 C 
BRANCH  15  16
ATOM     16  C   UNL     1      35.074 -49.796 -17.153  1.00  0.00     0.000 C 
BRANCH  16  17
ATOM     17  C   UNL     1      35.512 -50.464 -15.836  1.00  0.00     0.000 C 
BRANCH  17  18
ATOM     18  C   UNL     1      36.349 -51.745 -16.030  1.00  0.00    -0.000 C 
BRANCH  18  19
ATOM     19  C   UNL     1      36.933 -51.863 -17.447  1.00  0.00    -0.000 C 
BRANCH  19  20
ATOM     20  C   UNL     1      38.432 -51.519 -17.510  1.00  0.00    -0.000 C 
BRANCH  20  21
ATOM     21  C   UNL     1      38.774 -50.422 -18.538  1.00  0.00    -0.000 C 
BRANCH  21  22
ATOM     22  C   UNL     1      38.863 -49.030 -17.894  1.00  0.00    -0.000 C 
BRANCH  22  23
ATOM     23  C   UNL     1      39.434 -48.001 -18.876  1.00  0.00    -0.000 C 
BRANCH  23  24
ATOM     24  C   UNL     1      38.666 -48.025 -20.206  1.00  0.00    -0.000 C 
BRANCH  24  25
ATOM     25  C   UNL     1      37.857 -46.743 -20.450  1.00  0.00    -0.003 C 
ATOM     26  C   UNL     1      38.637 -45.476 -20.100  1.00  0.00     0.004 C 
ENDBRANCH  24  25
ENDBRANCH  23  24
ENDBRANCH  22  23
ENDBRANCH  21  22
ENDBRANCH  20  21
ENDBRANCH  19  20
ENDBRANCH  18  19
ENDBRANCH  17  18
ENDBRANCH  16  17
ENDBRANCH  15  16
ENDBRANCH   1  15
TORSDOF 22
ENDMDL
