MODEL 1
REMARK VINA RESULT:    -7.277      0.000      0.000
REMARK INTER + INTRA:          -9.136
REMARK INTER:                  -8.766
REMARK INTRA:                  -0.370
REMARK UNBOUND:                -0.370
REMARK SMILES Oc1cc(O)c2c(c1)O[C@@H](c1ccc(O)c(O)c1)[C@H](O)C2
REMARK SMILES IDX 21 1 19 2 10 3 9 4 7 5 8 6 2 7 3 8 4 9 6 10 20 11 11 13
REMARK SMILES IDX 18 14 12 15 16 16 13 17 14 18 17 19 15 21 5 23 1 25
REMARK H PARENT 20 12 17 20 15 22 5 24 1 26
REMARK Flexibility Score: inf
ROOT
ATOM      1  C   UNL     1      16.617 -48.900  68.280  1.00  0.00     0.079 C 
ATOM      2  C   UNL     1      15.319 -48.484  69.001  1.00  0.00     0.164 C 
ATOM      3  C   UNL     1      15.523 -48.522  70.528  1.00  0.00     0.232 C 
ATOM      4  O   UNL     1      16.621 -47.685  70.887  1.00  0.00    -0.482 OA
ATOM      5  C   UNL     1      17.781 -47.597  70.109  1.00  0.00     0.131 A 
ATOM      6  C   UNL     1      18.886 -46.909  70.616  1.00  0.00     0.093 A 
ATOM      7  C   UNL     1      20.063 -46.817  69.871  1.00  0.00     0.122 A 
ATOM      8  C   UNL     1      20.139 -47.425  68.613  1.00  0.00     0.092 A 
ATOM      9  C   UNL     1      19.043 -48.119  68.089  1.00  0.00     0.126 A 
ATOM     10  C   UNL     1      17.833 -48.179  68.821  1.00  0.00     0.039 A 
ENDROOT
BRANCH   2  11
ATOM     11  O   UNL     1      14.249 -49.306  68.605  1.00  0.00    -0.389 OA
ATOM     12  H   UNL     1      14.433 -49.616  67.680  1.00  0.00     0.211 HD
ENDBRANCH   2  11
BRANCH   3  13
ATOM     13  C   UNL     1      14.279 -48.068  71.256  1.00  0.00    -0.001 A 
ATOM     14  C   UNL     1      13.816 -46.748  71.125  1.00  0.00     0.057 A 
ATOM     15  C   UNL     1      13.543 -48.976  72.031  1.00  0.00     0.012 A 
ATOM     16  C   UNL     1      12.648 -46.327  71.773  1.00  0.00     0.157 A 
ATOM     17  C   UNL     1      12.379 -48.565  72.682  1.00  0.00     0.050 A 
ATOM     18  C   UNL     1      11.920 -47.248  72.565  1.00  0.00     0.157 A 
BRANCH  16  19
ATOM     19  O   UNL     1      12.250 -45.000  71.604  1.00  0.00    -0.504 OA
ATOM     20  H   UNL     1      12.825 -44.287  71.177  1.00  0.00     0.293 HD
ENDBRANCH  16  19
BRANCH  18  21
ATOM     21  O   UNL     1      10.750 -46.901  73.243  1.00  0.00    -0.504 OA
ATOM     22  H   UNL     1      10.189 -46.092  73.023  1.00  0.00     0.293 HD
ENDBRANCH  18  21
ENDBRANCH   3  13
BRANCH   9  23
ATOM     23  O   UNL     1      19.193 -48.744  66.848  1.00  0.00    -0.507 OA
ATOM     24  H   UNL     1      18.782 -48.389  65.994  1.00  0.00     0.293 HD
ENDBRANCH   9  23
BRANCH   7  25
ATOM     25  O   UNL     1      21.154 -46.125  70.393  1.00  0.00    -0.508 OA
ATOM     26  H   UNL     1      21.599 -46.411  71.257  1.00  0.00     0.293 HD
ENDBRANCH   7  25
TORSDOF 6
ENDMDL
MODEL 2
REMARK VINA RESULT:    -7.240      1.302      2.874
REMARK INTER + INTRA:          -9.091
REMARK INTER:                  -8.719
REMARK INTRA:                  -0.372
REMARK UNBOUND:                -0.370
REMARK SMILES Oc1cc(O)c2c(c1)O[C@@H](c1ccc(O)c(O)c1)[C@H](O)C2
REMARK SMILES IDX 21 1 19 2 10 3 9 4 7 5 8 6 2 7 3 8 4 9 6 10 20 11 11 13
REMARK SMILES IDX 18 14 12 15 16 16 13 17 14 18 17 19 15 21 5 23 1 25
REMARK H PARENT 20 12 17 20 15 22 5 24 1 26
REMARK Flexibility Score: inf
ROOT
ATOM      1  C   UNL     1      18.024 -47.151  70.200  1.00  0.00     0.079 C 
ATOM      2  C   UNL     1      16.769 -47.192  71.094  1.00  0.00     0.164 C 
ATOM      3  C   UNL     1      15.496 -47.095  70.231  1.00  0.00     0.232 C 
ATOM      4  O   UNL     1      15.491 -48.143  69.262  1.00  0.00    -0.482 OA
ATOM      5  C   UNL     1      16.655 -48.560  68.607  1.00  0.00     0.131 A 
ATOM      6  C   UNL     1      16.548 -49.455  67.539  1.00  0.00     0.093 A 
ATOM      7  C   UNL     1      17.687 -49.879  66.854  1.00  0.00     0.122 A 
ATOM      8  C   UNL     1      18.945 -49.398  67.234  1.00  0.00     0.092 A 
ATOM      9  C   UNL     1      19.074 -48.501  68.301  1.00  0.00     0.126 A 
ATOM     10  C   UNL     1      17.925 -48.102  69.026  1.00  0.00     0.039 A 
ENDROOT
BRANCH   2  11
ATOM     11  O   UNL     1      16.815 -46.169  72.058  1.00  0.00    -0.389 OA
ATOM     12  H   UNL     1      17.550 -46.382  72.690  1.00  0.00     0.211 HD
ENDBRANCH   2  11
BRANCH   3  13
ATOM     13  C   UNL     1      14.250 -47.185  71.082  1.00  0.00    -0.001 A 
ATOM     14  C   UNL     1      13.363 -46.100  71.167  1.00  0.00     0.057 A 
ATOM     15  C   UNL     1      13.940 -48.376  71.755  1.00  0.00     0.012 A 
ATOM     16  C   UNL     1      12.192 -46.186  71.930  1.00  0.00     0.157 A 
ATOM     17  C   UNL     1      12.776 -48.471  72.519  1.00  0.00     0.050 A 
ATOM     18  C   UNL     1      11.895 -47.387  72.618  1.00  0.00     0.157 A 
BRANCH  16  19
ATOM     19  O   UNL     1      11.358 -45.067  71.975  1.00  0.00    -0.504 OA
ATOM     20  H   UNL     1      10.530 -44.956  71.408  1.00  0.00     0.293 HD
ENDBRANCH  16  19
BRANCH  18  21
ATOM     21  O   UNL     1      10.749 -47.547  73.400  1.00  0.00    -0.504 OA
ATOM     22  H   UNL     1      10.438 -46.878  74.088  1.00  0.00     0.293 HD
ENDBRANCH  18  21
ENDBRANCH   3  13
BRANCH   9  23
ATOM     23  O   UNL     1      20.350 -48.021  68.605  1.00  0.00    -0.507 OA
ATOM     24  H   UNL     1      21.158 -48.621  68.712  1.00  0.00     0.293 HD
ENDBRANCH   9  23
BRANCH   7  25
ATOM     25  O   UNL     1      17.559 -50.773  65.793  1.00  0.00    -0.508 OA
ATOM     26  H   UNL     1      18.306 -51.413  65.546  1.00  0.00     0.293 HD
ENDBRANCH   7  25
TORSDOF 6
ENDMDL
MODEL 3
REMARK VINA RESULT:    -7.170      1.853      6.982
REMARK INTER + INTRA:          -9.007
REMARK INTER:                  -8.639
REMARK INTRA:                  -0.368
REMARK UNBOUND:                -0.370
REMARK SMILES Oc1cc(O)c2c(c1)O[C@@H](c1ccc(O)c(O)c1)[C@H](O)C2
REMARK SMILES IDX 21 1 19 2 10 3 9 4 7 5 8 6 2 7 3 8 4 9 6 10 20 11 11 13
REMARK SMILES IDX 18 14 12 15 16 16 13 17 14 18 17 19 15 21 5 23 1 25
REMARK H PARENT 20 12 17 20 15 22 5 24 1 26
REMARK Flexibility Score: inf
ROOT
ATOM      1  C   UNL     1      14.495 -46.551  70.478  1.00  0.00     0.079 C 
ATOM      2  C   UNL     1      15.789 -46.635  69.645  1.00  0.00     0.164 C 
ATOM      3  C   UNL     1      16.997 -46.908  70.563  1.00  0.00     0.232 C 
ATOM      4  O   UNL     1      16.770 -48.101  71.312  1.00  0.00    -0.482 OA
ATOM      5  C   UNL     1      15.512 -48.433  71.827  1.00  0.00     0.131 A 
ATOM      6  C   UNL     1      15.404 -49.513  72.707  1.00  0.00     0.093 A 
ATOM      7  C   UNL     1      14.167 -49.861  73.250  1.00  0.00     0.122 A 
ATOM      8  C   UNL     1      13.028 -49.118  72.918  1.00  0.00     0.092 A 
ATOM      9  C   UNL     1      13.116 -48.033  72.038  1.00  0.00     0.126 A 
ATOM     10  C   UNL     1      14.361 -47.703  71.452  1.00  0.00     0.039 A 
ENDROOT
BRANCH   2  11
ATOM     11  O   UNL     1      15.971 -45.459  68.894  1.00  0.00    -0.389 OA
ATOM     12  H   UNL     1      16.076 -45.722  67.943  1.00  0.00     0.211 HD
ENDBRANCH   2  11
BRANCH   3  13
ATOM     13  C   UNL     1      18.271 -47.046  69.762  1.00  0.00    -0.001 A 
ATOM     14  C   UNL     1      18.443 -48.118  68.872  1.00  0.00     0.057 A 
ATOM     15  C   UNL     1      19.277 -46.073  69.862  1.00  0.00     0.012 A 
ATOM     16  C   UNL     1      19.609 -48.237  68.105  1.00  0.00     0.157 A 
ATOM     17  C   UNL     1      20.443 -46.184  69.103  1.00  0.00     0.050 A 
ATOM     18  C   UNL     1      20.624 -47.258  68.224  1.00  0.00     0.157 A 
BRANCH  16  19
ATOM     19  O   UNL     1      19.715 -49.331  67.244  1.00  0.00    -0.504 OA
ATOM     20  H   UNL     1      19.928 -49.258  66.259  1.00  0.00     0.293 HD
ENDBRANCH  16  19
BRANCH  18  21
ATOM     21  O   UNL     1      21.814 -47.311  67.495  1.00  0.00    -0.504 OA
ATOM     22  H   UNL     1      22.731 -47.204  67.903  1.00  0.00     0.293 HD
ENDBRANCH  18  21
ENDBRANCH   3  13
BRANCH   9  23
ATOM     23  O   UNL     1      11.954 -47.302  71.779  1.00  0.00    -0.507 OA
ATOM     24  H   UNL     1      11.656 -46.515  72.342  1.00  0.00     0.293 HD
ENDBRANCH   9  23
BRANCH   7  25
ATOM     25  O   UNL     1      14.079 -50.942  74.124  1.00  0.00    -0.508 OA
ATOM     26  H   UNL     1      14.431 -51.858  73.872  1.00  0.00     0.293 HD
ENDBRANCH   7  25
TORSDOF 6
ENDMDL
MODEL 4
REMARK VINA RESULT:    -7.140      2.260      6.707
REMARK INTER + INTRA:          -8.971
REMARK INTER:                  -8.598
REMARK INTRA:                  -0.373
REMARK UNBOUND:                -0.370
REMARK SMILES Oc1cc(O)c2c(c1)O[C@@H](c1ccc(O)c(O)c1)[C@H](O)C2
REMARK SMILES IDX 21 1 19 2 10 3 9 4 7 5 8 6 2 7 3 8 4 9 6 10 20 11 11 13
REMARK SMILES IDX 18 14 12 15 16 16 13 17 14 18 17 19 15 21 5 23 1 25
REMARK H PARENT 20 12 17 20 15 22 5 24 1 26
REMARK Flexibility Score: inf
ROOT
ATOM      1  C   UNL     1      16.236 -49.107  71.870  1.00  0.00     0.079 C 
ATOM      2  C   UNL     1      17.125 -48.101  71.113  1.00  0.00     0.164 C 
ATOM      3  C   UNL     1      16.423 -47.634  69.824  1.00  0.00     0.232 C 
ATOM      4  O   UNL     1      15.148 -47.077  70.145  1.00  0.00    -0.482 OA
ATOM      5  C   UNL     1      14.325 -47.619  71.139  1.00  0.00     0.131 A 
ATOM      6  C   UNL     1      13.018 -47.142  71.270  1.00  0.00     0.093 A 
ATOM      7  C   UNL     1      12.167 -47.671  72.241  1.00  0.00     0.122 A 
ATOM      8  C   UNL     1      12.622 -48.693  73.082  1.00  0.00     0.092 A 
ATOM      9  C   UNL     1      13.928 -49.183  72.966  1.00  0.00     0.126 A 
ATOM     10  C   UNL     1      14.809 -48.620  72.012  1.00  0.00     0.039 A 
ENDROOT
BRANCH   2  11
ATOM     11  O   UNL     1      18.384 -48.665  70.837  1.00  0.00    -0.389 OA
ATOM     12  H   UNL     1      18.940 -48.578  71.655  1.00  0.00     0.211 HD
ENDBRANCH   2  11
BRANCH   3  13
ATOM     13  C   UNL     1      17.254 -46.607  69.090  1.00  0.00    -0.001 A 
ATOM     14  C   UNL     1      17.553 -45.371  69.687  1.00  0.00     0.057 A 
ATOM     15  C   UNL     1      17.782 -46.899  67.824  1.00  0.00     0.012 A 
ATOM     16  C   UNL     1      18.347 -44.426  69.025  1.00  0.00     0.157 A 
ATOM     17  C   UNL     1      18.573 -45.963  67.156  1.00  0.00     0.050 A 
ATOM     18  C   UNL     1      18.862 -44.725  67.741  1.00  0.00     0.157 A 
BRANCH  16  19
ATOM     19  O   UNL     1      18.598 -43.216  69.674  1.00  0.00    -0.504 OA
ATOM     20  H   UNL     1      19.517 -42.909  69.962  1.00  0.00     0.293 HD
ENDBRANCH  16  19
BRANCH  18  21
ATOM     21  O   UNL     1      19.658 -43.832  67.020  1.00  0.00    -0.504 OA
ATOM     22  H   UNL     1      19.321 -43.266  66.256  1.00  0.00     0.293 HD
ENDBRANCH  18  21
ENDBRANCH   3  13
BRANCH   9  23
ATOM     23  O   UNL     1      14.311 -50.234  73.804  1.00  0.00    -0.507 OA
ATOM     24  H   UNL     1      13.832 -50.460  74.667  1.00  0.00     0.293 HD
ENDBRANCH   9  23
BRANCH   7  25
ATOM     25  O   UNL     1      10.868 -47.182  72.356  1.00  0.00    -0.508 OA
ATOM     26  H   UNL     1      10.153 -47.409  71.675  1.00  0.00     0.293 HD
ENDBRANCH   7  25
TORSDOF 6
ENDMDL
MODEL 5
REMARK VINA RESULT:    -6.994      1.587      7.014
REMARK INTER + INTRA:          -8.795
REMARK INTER:                  -8.628
REMARK INTRA:                  -0.167
REMARK UNBOUND:                -0.370
REMARK SMILES Oc1cc(O)c2c(c1)O[C@@H](c1ccc(O)c(O)c1)[C@H](O)C2
REMARK SMILES IDX 21 1 19 2 10 3 9 4 7 5 8 6 2 7 3 8 4 9 6 10 20 11 11 13
REMARK SMILES IDX 18 14 12 15 16 16 13 17 14 18 17 19 15 21 5 23 1 25
REMARK H PARENT 20 12 17 20 15 22 5 24 1 26
REMARK Flexibility Score: inf
ROOT
ATOM      1  C   UNL     1      14.963 -49.005  71.947  1.00  0.00     0.079 C 
ATOM      2  C   UNL     1      16.259 -48.360  71.419  1.00  0.00     0.164 C 
ATOM      3  C   UNL     1      15.966 -47.532  70.153  1.00  0.00     0.232 C 
ATOM      4  O   UNL     1      14.965 -46.555  70.439  1.00  0.00    -0.482 OA
ATOM      5  C   UNL     1      13.873 -46.825  71.271  1.00  0.00     0.131 A 
ATOM      6  C   UNL     1      12.837 -45.890  71.354  1.00  0.00     0.093 A 
ATOM      7  C   UNL     1      11.727 -46.136  72.163  1.00  0.00     0.122 A 
ATOM      8  C   UNL     1      11.646 -47.330  72.888  1.00  0.00     0.092 A 
ATOM      9  C   UNL     1      12.672 -48.279  72.817  1.00  0.00     0.126 A 
ATOM     10  C   UNL     1      13.820 -48.015  72.032  1.00  0.00     0.039 A 
ENDROOT
BRANCH   2  11
ATOM     11  O   UNL     1      17.237 -49.341  71.176  1.00  0.00    -0.389 OA
ATOM     12  H   UNL     1      18.066 -49.064  71.645  1.00  0.00     0.211 HD
ENDBRANCH   2  11
BRANCH   3  13
ATOM     13  C   UNL     1      17.214 -46.846  69.646  1.00  0.00    -0.001 A 
ATOM     14  C   UNL     1      18.096 -47.516  68.783  1.00  0.00     0.057 A 
ATOM     15  C   UNL     1      17.477 -45.513  69.993  1.00  0.00     0.012 A 
ATOM     16  C   UNL     1      19.239 -46.878  68.286  1.00  0.00     0.157 A 
ATOM     17  C   UNL     1      18.615 -44.869  69.504  1.00  0.00     0.050 A 
ATOM     18  C   UNL     1      19.504 -45.537  68.653  1.00  0.00     0.157 A 
BRANCH  16  19
ATOM     19  O   UNL     1      20.075 -47.605  67.437  1.00  0.00    -0.504 OA
ATOM     20  H   UNL     1      21.011 -47.899  67.681  1.00  0.00     0.293 HD
ENDBRANCH  16  19
BRANCH  18  21
ATOM     21  O   UNL     1      20.625 -44.836  68.201  1.00  0.00    -0.504 OA
ATOM     22  H   UNL     1      21.552 -44.950  68.580  1.00  0.00     0.293 HD
ENDBRANCH  18  21
ENDBRANCH   3  13
BRANCH   9  23
ATOM     23  O   UNL     1      12.514 -49.471  73.528  1.00  0.00    -0.507 OA
ATOM     24  H   UNL     1      12.485 -50.381  73.087  1.00  0.00     0.293 HD
ENDBRANCH   9  23
BRANCH   7  25
ATOM     25  O   UNL     1      10.706 -45.191  72.234  1.00  0.00    -0.508 OA
ATOM     26  H   UNL     1      10.679 -44.391  71.611  1.00  0.00     0.293 HD
ENDBRANCH   7  25
TORSDOF 6
ENDMDL
MODEL 6
REMARK VINA RESULT:    -6.921      1.824      6.924
REMARK INTER + INTRA:          -8.708
REMARK INTER:                  -8.357
REMARK INTRA:                  -0.351
REMARK UNBOUND:                -0.370
REMARK SMILES Oc1cc(O)c2c(c1)O[C@@H](c1ccc(O)c(O)c1)[C@H](O)C2
REMARK SMILES IDX 21 1 19 2 10 3 9 4 7 5 8 6 2 7 3 8 4 9 6 10 20 11 11 13
REMARK SMILES IDX 18 14 12 15 16 16 13 17 14 18 17 19 15 21 5 23 1 25
REMARK H PARENT 20 12 17 20 15 22 5 24 1 26
REMARK Flexibility Score: inf
ROOT
ATOM      1  C   UNL     1      14.416 -46.506  70.580  1.00  0.00     0.079 C 
ATOM      2  C   UNL     1      15.682 -46.576  69.704  1.00  0.00     0.164 C 
ATOM      3  C   UNL     1      16.917 -46.881  70.574  1.00  0.00     0.232 C 
ATOM      4  O   UNL     1      16.706 -48.092  71.299  1.00  0.00    -0.482 OA
ATOM      5  C   UNL     1      15.462 -48.430  71.845  1.00  0.00     0.131 A 
ATOM      6  C   UNL     1      15.375 -49.532  72.700  1.00  0.00     0.093 A 
ATOM      7  C   UNL     1      14.153 -49.887  73.273  1.00  0.00     0.122 A 
ATOM      8  C   UNL     1      13.010 -49.128  72.997  1.00  0.00     0.092 A 
ATOM      9  C   UNL     1      13.078 -48.020  72.144  1.00  0.00     0.126 A 
ATOM     10  C   UNL     1      14.305 -47.683  71.527  1.00  0.00     0.039 A 
ENDROOT
BRANCH   2  11
ATOM     11  O   UNL     1      15.848 -45.382  68.978  1.00  0.00    -0.389 OA
ATOM     12  H   UNL     1      15.252 -44.699  69.383  1.00  0.00     0.211 HD
ENDBRANCH   2  11
BRANCH   3  13
ATOM     13  C   UNL     1      18.164 -47.006  69.730  1.00  0.00    -0.001 A 
ATOM     14  C   UNL     1      19.316 -46.266  70.043  1.00  0.00     0.057 A 
ATOM     15  C   UNL     1      18.200 -47.904  68.652  1.00  0.00     0.012 A 
ATOM     16  C   UNL     1      20.484 -46.397  69.282  1.00  0.00     0.157 A 
ATOM     17  C   UNL     1      19.360 -48.040  67.888  1.00  0.00     0.050 A 
ATOM     18  C   UNL     1      20.506 -47.295  68.188  1.00  0.00     0.157 A 
BRANCH  16  19
ATOM     19  O   UNL     1      21.590 -45.627  69.647  1.00  0.00    -0.504 OA
ATOM     20  H   UNL     1      21.621 -44.619  69.584  1.00  0.00     0.293 HD
ENDBRANCH  16  19
BRANCH  18  21
ATOM     21  O   UNL     1      21.633 -47.478  67.383  1.00  0.00    -0.504 OA
ATOM     22  H   UNL     1      22.581 -47.343  67.701  1.00  0.00     0.293 HD
ENDBRANCH  18  21
ENDBRANCH   3  13
BRANCH   9  23
ATOM     23  O   UNL     1      11.913 -47.275  71.942  1.00  0.00    -0.507 OA
ATOM     24  H   UNL     1      11.018 -47.525  72.342  1.00  0.00     0.293 HD
ENDBRANCH   9  23
BRANCH   7  25
ATOM     25  O   UNL     1      14.086 -50.990  74.121  1.00  0.00    -0.508 OA
ATOM     26  H   UNL     1      14.923 -51.438  74.475  1.00  0.00     0.293 HD
ENDBRANCH   7  25
TORSDOF 6
ENDMDL
MODEL 7
REMARK VINA RESULT:    -6.804      2.075      3.302
REMARK INTER + INTRA:          -8.567
REMARK INTER:                  -8.498
REMARK INTRA:                  -0.068
REMARK UNBOUND:                -0.370
REMARK SMILES Oc1cc(O)c2c(c1)O[C@@H](c1ccc(O)c(O)c1)[C@H](O)C2
REMARK SMILES IDX 21 1 19 2 10 3 9 4 7 5 8 6 2 7 3 8 4 9 6 10 20 11 11 13
REMARK SMILES IDX 18 14 12 15 16 16 13 17 14 18 17 19 15 21 5 23 1 25
REMARK H PARENT 20 12 17 20 15 22 5 24 1 26
REMARK Flexibility Score: inf
ROOT
ATOM      1  C   UNL     1      19.717 -48.237  67.943  1.00  0.00     0.079 C 
ATOM      2  C   UNL     1      18.330 -48.378  68.599  1.00  0.00     0.164 C 
ATOM      3  C   UNL     1      18.461 -48.347  70.134  1.00  0.00     0.232 C 
ATOM      4  O   UNL     1      19.118 -47.146  70.536  1.00  0.00    -0.482 OA
ATOM      5  C   UNL     1      20.182 -46.597  69.811  1.00  0.00     0.131 A 
ATOM      6  C   UNL     1      20.898 -45.531  70.362  1.00  0.00     0.093 A 
ATOM      7  C   UNL     1      21.974 -44.971  69.672  1.00  0.00     0.122 A 
ATOM      8  C   UNL     1      22.344 -45.487  68.424  1.00  0.00     0.092 A 
ATOM      9  C   UNL     1      21.639 -46.554  67.856  1.00  0.00     0.126 A 
ATOM     10  C   UNL     1      20.520 -47.097  68.533  1.00  0.00     0.039 A 
ENDROOT
BRANCH   2  11
ATOM     11  O   UNL     1      17.693 -49.554  68.162  1.00  0.00    -0.389 OA
ATOM     12  H   UNL     1      16.756 -49.529  68.488  1.00  0.00     0.211 HD
ENDBRANCH   2  11
BRANCH   3  13
ATOM     13  C   UNL     1      17.107 -48.432  70.800  1.00  0.00    -0.001 A 
ATOM     14  C   UNL     1      16.989 -48.884  72.125  1.00  0.00     0.057 A 
ATOM     15  C   UNL     1      15.957 -48.010  70.118  1.00  0.00     0.012 A 
ATOM     16  C   UNL     1      15.742 -48.938  72.759  1.00  0.00     0.157 A 
ATOM     17  C   UNL     1      14.709 -48.061  70.741  1.00  0.00     0.050 A 
ATOM     18  C   UNL     1      14.585 -48.523  72.057  1.00  0.00     0.157 A 
BRANCH  16  19
ATOM     19  O   UNL     1      15.698 -49.403  74.074  1.00  0.00    -0.504 OA
ATOM     20  H   UNL     1      14.859 -49.738  74.528  1.00  0.00     0.293 HD
ENDBRANCH  16  19
BRANCH  18  21
ATOM     21  O   UNL     1      13.308 -48.551  72.621  1.00  0.00    -0.504 OA
ATOM     22  H   UNL     1      12.956 -47.852  73.257  1.00  0.00     0.293 HD
ENDBRANCH  18  21
ENDBRANCH   3  13
BRANCH   9  23
ATOM     23  O   UNL     1      22.082 -47.055  66.629  1.00  0.00    -0.507 OA
ATOM     24  H   UNL     1      22.760 -47.801  66.546  1.00  0.00     0.293 HD
ENDBRANCH   9  23
BRANCH   7  25
ATOM     25  O   UNL     1      22.675 -43.908  70.236  1.00  0.00    -0.508 OA
ATOM     26  H   UNL     1      23.231 -43.279  69.669  1.00  0.00     0.293 HD
ENDBRANCH   7  25
TORSDOF 6
ENDMDL
MODEL 8
REMARK VINA RESULT:    -6.594      1.880      7.169
REMARK INTER + INTRA:          -8.313
REMARK INTER:                  -8.701
REMARK INTRA:                   0.388
REMARK UNBOUND:                -0.370
REMARK SMILES Oc1cc(O)c2c(c1)O[C@@H](c1ccc(O)c(O)c1)[C@H](O)C2
REMARK SMILES IDX 21 1 19 2 10 3 9 4 7 5 8 6 2 7 3 8 4 9 6 10 20 11 11 13
REMARK SMILES IDX 18 14 12 15 16 16 13 17 14 18 17 19 15 21 5 23 1 25
REMARK H PARENT 20 12 17 20 15 22 5 24 1 26
REMARK Flexibility Score: inf
ROOT
ATOM      1  C   UNL     1      15.998 -48.244  72.242  1.00  0.00     0.079 C 
ATOM      2  C   UNL     1      17.273 -47.590  71.675  1.00  0.00     0.164 C 
ATOM      3  C   UNL     1      17.694 -48.288  70.368  1.00  0.00     0.232 C 
ATOM      4  O   UNL     1      16.617 -48.248  69.433  1.00  0.00    -0.482 OA
ATOM      5  C   UNL     1      15.283 -48.412  69.822  1.00  0.00     0.131 A 
ATOM      6  C   UNL     1      14.302 -48.550  68.837  1.00  0.00     0.093 A 
ATOM      7  C   UNL     1      12.964 -48.731  69.191  1.00  0.00     0.122 A 
ATOM      8  C   UNL     1      12.605 -48.782  70.543  1.00  0.00     0.092 A 
ATOM      9  C   UNL     1      13.573 -48.646  71.544  1.00  0.00     0.126 A 
ATOM     10  C   UNL     1      14.924 -48.420  71.189  1.00  0.00     0.039 A 
ENDROOT
BRANCH   2  11
ATOM     11  O   UNL     1      18.308 -47.617  72.628  1.00  0.00    -0.389 OA
ATOM     12  H   UNL     1      19.022 -47.003  72.315  1.00  0.00     0.211 HD
ENDBRANCH   2  11
BRANCH   3  13
ATOM     13  C   UNL     1      18.914 -47.630  69.765  1.00  0.00    -0.001 A 
ATOM     14  C   UNL     1      19.262 -47.863  68.424  1.00  0.00     0.057 A 
ATOM     15  C   UNL     1      19.683 -46.737  70.526  1.00  0.00     0.012 A 
ATOM     16  C   UNL     1      20.374 -47.234  67.850  1.00  0.00     0.157 A 
ATOM     17  C   UNL     1      20.793 -46.107  69.963  1.00  0.00     0.050 A 
ATOM     18  C   UNL     1      21.152 -46.345  68.631  1.00  0.00     0.157 A 
BRANCH  16  19
ATOM     19  O   UNL     1      20.665 -47.515  66.514  1.00  0.00    -0.504 OA
ATOM     20  H   UNL     1      21.315 -48.230  66.216  1.00  0.00     0.293 HD
ENDBRANCH  16  19
BRANCH  18  21
ATOM     21  O   UNL     1      22.276 -45.684  68.129  1.00  0.00    -0.504 OA
ATOM     22  H   UNL     1      22.665 -44.847  68.534  1.00  0.00     0.293 HD
ENDBRANCH  18  21
ENDBRANCH   3  13
BRANCH   9  23
ATOM     23  O   UNL     1      13.160 -48.751  72.875  1.00  0.00    -0.507 OA
ATOM     24  H   UNL     1      12.223 -49.021  73.146  1.00  0.00     0.293 HD
ENDBRANCH   9  23
BRANCH   7  25
ATOM     25  O   UNL     1      12.001 -48.865  68.194  1.00  0.00    -0.508 OA
ATOM     26  H   UNL     1      12.048 -49.610  67.508  1.00  0.00     0.293 HD
ENDBRANCH   7  25
TORSDOF 6
ENDMDL
MODEL 9
REMARK VINA RESULT:    -6.574      3.388      7.750
REMARK INTER + INTRA:          -8.290
REMARK INTER:                  -7.918
REMARK INTRA:                  -0.372
REMARK UNBOUND:                -0.370
REMARK SMILES Oc1cc(O)c2c(c1)O[C@@H](c1ccc(O)c(O)c1)[C@H](O)C2
REMARK SMILES IDX 21 1 19 2 10 3 9 4 7 5 8 6 2 7 3 8 4 9 6 10 20 11 11 13
REMARK SMILES IDX 18 14 12 15 16 16 13 17 14 18 17 19 15 21 5 23 1 25
REMARK H PARENT 20 12 17 20 15 22 5 24 1 26
REMARK Flexibility Score: inf
ROOT
ATOM      1  C   UNL     1      18.662 -46.968  67.688  1.00  0.00     0.079 C 
ATOM      2  C   UNL     1      19.836 -45.970  67.720  1.00  0.00     0.164 C 
ATOM      3  C   UNL     1      19.535 -44.824  68.705  1.00  0.00     0.232 C 
ATOM      4  O   UNL     1      19.259 -45.362  69.998  1.00  0.00    -0.482 OA
ATOM      5  C   UNL     1      18.529 -46.542  70.177  1.00  0.00     0.131 A 
ATOM      6  C   UNL     1      18.137 -46.906  71.468  1.00  0.00     0.093 A 
ATOM      7  C   UNL     1      17.395 -48.069  71.680  1.00  0.00     0.122 A 
ATOM      8  C   UNL     1      17.034 -48.870  70.590  1.00  0.00     0.092 A 
ATOM      9  C   UNL     1      17.418 -48.522  69.290  1.00  0.00     0.126 A 
ATOM     10  C   UNL     1      18.207 -47.367  69.076  1.00  0.00     0.039 A 
ENDROOT
BRANCH   2  11
ATOM     11  O   UNL     1      20.104 -45.481  66.429  1.00  0.00    -0.389 OA
ATOM     12  H   UNL     1      20.647 -44.656  66.526  1.00  0.00     0.211 HD
ENDBRANCH   2  11
BRANCH   3  13
ATOM     13  C   UNL     1      20.695 -43.860  68.793  1.00  0.00    -0.001 A 
ATOM     14  C   UNL     1      21.957 -44.298  69.225  1.00  0.00     0.057 A 
ATOM     15  C   UNL     1      20.535 -42.525  68.393  1.00  0.00     0.012 A 
ATOM     16  C   UNL     1      23.045 -43.417  69.281  1.00  0.00     0.157 A 
ATOM     17  C   UNL     1      21.613 -41.639  68.447  1.00  0.00     0.050 A 
ATOM     18  C   UNL     1      22.870 -42.069  68.889  1.00  0.00     0.157 A 
BRANCH  16  19
ATOM     19  O   UNL     1      24.269 -43.920  69.726  1.00  0.00    -0.504 OA
ATOM     20  H   UNL     1      24.365 -44.738  70.312  1.00  0.00     0.293 HD
ENDBRANCH  16  19
BRANCH  18  21
ATOM     21  O   UNL     1      23.906 -41.132  68.921  1.00  0.00    -0.504 OA
ATOM     22  H   UNL     1      24.374 -40.780  68.100  1.00  0.00     0.293 HD
ENDBRANCH  18  21
ENDBRANCH   3  13
BRANCH   9  23
ATOM     23  O   UNL     1      16.990 -49.338  68.239  1.00  0.00    -0.507 OA
ATOM     24  H   UNL     1      17.613 -49.706  67.533  1.00  0.00     0.293 HD
ENDBRANCH   9  23
BRANCH   7  25
ATOM     25  O   UNL     1      17.014 -48.416  72.974  1.00  0.00    -0.508 OA
ATOM     26  H   UNL     1      16.137 -48.099  73.371  1.00  0.00     0.293 HD
ENDBRANCH   7  25
TORSDOF 6
ENDMDL
