MODEL 1
REMARK VINA RESULT:    -4.418      0.000      0.000
REMARK INTER + INTRA:          -5.069
REMARK INTER:                  -4.935
REMARK INTRA:                  -0.134
REMARK UNBOUND:                -0.134
REMARK SMILES O=C([O-])C=Cc1ccccc1
REMARK SMILES IDX 4 1 5 2 2 3 1 4 3 5 6 6 7 7 11 8 8 9 10 10 9 11
REMARK H PARENT
REMARK Flexibility Score: inf
ROOT
ATOM      1  C   UNL     1       2.525  -3.843   1.787  1.00  0.00     0.025 C 
ATOM      2  C   UNL     1       1.418  -4.468   1.360  1.00  0.00     0.010 C 
ENDROOT
BRANCH   1   3
ATOM      3  C   UNL     1       3.841  -4.502   1.780  1.00  0.00     0.064 C 
ATOM      4  O   UNL     1       4.029  -5.520   2.496  1.00  0.00    -0.545 OA
ATOM      5  O   UNL     1       4.882  -4.017   0.997  1.00  0.00    -0.545 OA
ENDBRANCH   1   3
BRANCH   2   6
ATOM      6  C   UNL     1       0.056  -3.867   1.337  1.00  0.00    -0.026 A 
ATOM      7  C   UNL     1      -0.135  -2.685   0.598  1.00  0.00     0.008 A 
ATOM      8  C   UNL     1      -1.050  -4.424   2.017  1.00  0.00     0.008 A 
ATOM      9  C   UNL     1      -1.391  -2.074   0.539  1.00  0.00     0.001 A 
ATOM     10  C   UNL     1      -2.304  -3.807   1.953  1.00  0.00     0.001 A 
ATOM     11  C   UNL     1      -2.474  -2.635   1.216  1.00  0.00     0.000 A 
ENDBRANCH   2   6
TORSDOF 2
ENDMDL
MODEL 2
REMARK VINA RESULT:    -4.392      0.194      1.754
REMARK INTER + INTRA:          -5.040
REMARK INTER:                  -4.913
REMARK INTRA:                  -0.127
REMARK UNBOUND:                -0.134
REMARK SMILES O=C([O-])C=Cc1ccccc1
REMARK SMILES IDX 4 1 5 2 2 3 1 4 3 5 6 6 7 7 11 8 8 9 10 10 9 11
REMARK H PARENT
REMARK Flexibility Score: inf
ROOT
ATOM      1  C   UNL     1       2.575  -3.728   1.796  1.00  0.00     0.025 C 
ATOM      2  C   UNL     1       1.471  -4.389   1.422  1.00  0.00     0.010 C 
ENDROOT
BRANCH   1   3
ATOM      3  C   UNL     1       3.889  -4.387   1.870  1.00  0.00     0.064 C 
ATOM      4  O   UNL     1       4.750  -4.158   0.981  1.00  0.00    -0.545 OA
ATOM      5  O   UNL     1       4.195  -5.262   2.906  1.00  0.00    -0.545 OA
ENDBRANCH   1   3
BRANCH   2   6
ATOM      6  C   UNL     1       0.112  -3.790   1.324  1.00  0.00    -0.026 A 
ATOM      7  C   UNL     1      -0.945  -4.427   2.001  1.00  0.00     0.008 A 
ATOM      8  C   UNL     1      -0.168  -2.616   0.589  1.00  0.00     0.008 A 
ATOM      9  C   UNL     1      -2.242  -3.911   1.947  1.00  0.00     0.001 A 
ATOM     10  C   UNL     1      -1.470  -2.106   0.539  1.00  0.00     0.001 A 
ATOM     11  C   UNL     1      -2.505  -2.752   1.217  1.00  0.00     0.000 A 
ENDBRANCH   2   6
TORSDOF 2
ENDMDL
MODEL 3
REMARK VINA RESULT:    -4.314      4.965      6.595
REMARK INTER + INTRA:          -4.953
REMARK INTER:                  -4.818
REMARK INTRA:                  -0.135
REMARK UNBOUND:                -0.134
REMARK SMILES O=C([O-])C=Cc1ccccc1
REMARK SMILES IDX 4 1 5 2 2 3 1 4 3 5 6 6 7 7 11 8 8 9 10 10 9 11
REMARK H PARENT
REMARK Flexibility Score: inf
ROOT
ATOM      1  C   UNL     1      -4.534  -4.778   1.107  1.00  0.00     0.025 C 
ATOM      2  C   UNL     1      -3.850  -3.671   1.428  1.00  0.00     0.010 C 
ENDROOT
BRANCH   1   3
ATOM      3  C   UNL     1      -5.994  -4.863   1.270  1.00  0.00     0.064 C 
ATOM      4  O   UNL     1      -6.738  -4.078   0.626  1.00  0.00    -0.545 OA
ATOM      5  O   UNL     1      -6.567  -5.796   2.127  1.00  0.00    -0.545 OA
ENDBRANCH   1   3
BRANCH   2   6
ATOM      6  C   UNL     1      -2.376  -3.512   1.291  1.00  0.00    -0.026 A 
ATOM      7  C   UNL     1      -1.545  -4.463   1.912  1.00  0.00     0.008 A 
ATOM      8  C   UNL     1      -1.773  -2.457   0.570  1.00  0.00     0.008 A 
ATOM      9  C   UNL     1      -0.154  -4.366   1.818  1.00  0.00     0.001 A 
ATOM     10  C   UNL     1      -0.379  -2.367   0.481  1.00  0.00     0.001 A 
ATOM     11  C   UNL     1       0.428  -3.320   1.103  1.00  0.00     0.000 A 
ENDBRANCH   2   6
TORSDOF 2
ENDMDL
MODEL 4
REMARK VINA RESULT:    -4.221      4.375      5.848
REMARK INTER + INTRA:          -4.848
REMARK INTER:                  -4.719
REMARK INTRA:                  -0.129
REMARK UNBOUND:                -0.134
REMARK SMILES O=C([O-])C=Cc1ccccc1
REMARK SMILES IDX 4 1 5 2 2 3 1 4 3 5 6 6 7 7 11 8 8 9 10 10 9 11
REMARK H PARENT
REMARK Flexibility Score: inf
ROOT
ATOM      1  C   UNL     1      -3.760  -4.541   3.726  1.00  0.00     0.025 C 
ATOM      2  C   UNL     1      -2.791  -4.965   2.902  1.00  0.00     0.010 C 
ENDROOT
BRANCH   1   3
ATOM      3  C   UNL     1      -4.543  -5.476   4.550  1.00  0.00     0.064 C 
ATOM      4  O   UNL     1      -5.566  -6.025   4.066  1.00  0.00    -0.545 OA
ATOM      5  O   UNL     1      -4.171  -5.762   5.859  1.00  0.00    -0.545 OA
ENDBRANCH   1   3
BRANCH   2   6
ATOM      6  C   UNL     1      -1.960  -4.081   2.040  1.00  0.00    -0.026 A 
ATOM      7  C   UNL     1      -0.602  -4.409   1.867  1.00  0.00     0.008 A 
ATOM      8  C   UNL     1      -2.466  -2.935   1.388  1.00  0.00     0.008 A 
ATOM      9  C   UNL     1       0.228  -3.616   1.069  1.00  0.00     0.001 A 
ATOM     10  C   UNL     1      -1.629  -2.147   0.590  1.00  0.00     0.001 A 
ATOM     11  C   UNL     1      -0.285  -2.487   0.431  1.00  0.00     0.000 A 
ENDBRANCH   2   6
TORSDOF 2
ENDMDL
MODEL 5
REMARK VINA RESULT:    -4.191      0.999      1.982
REMARK INTER + INTRA:          -4.815
REMARK INTER:                  -4.674
REMARK INTRA:                  -0.140
REMARK UNBOUND:                -0.134
REMARK SMILES O=C([O-])C=Cc1ccccc1
REMARK SMILES IDX 4 1 5 2 2 3 1 4 3 5 6 6 7 7 11 8 8 9 10 10 9 11
REMARK H PARENT
REMARK Flexibility Score: inf
ROOT
ATOM      1  C   UNL     1       1.494  -4.498   1.875  1.00  0.00     0.025 C 
ATOM      2  C   UNL     1       0.655  -3.803   1.095  1.00  0.00     0.010 C 
ENDROOT
BRANCH   1   3
ATOM      3  C   UNL     1       2.903  -4.710   1.507  1.00  0.00     0.064 C 
ATOM      4  O   UNL     1       3.738  -3.786   1.689  1.00  0.00    -0.545 OA
ATOM      5  O   UNL     1       3.328  -5.915   0.959  1.00  0.00    -0.545 OA
ENDBRANCH   1   3
BRANCH   2   6
ATOM      6  C   UNL     1      -0.779  -3.548   1.401  1.00  0.00    -0.026 A 
ATOM      7  C   UNL     1      -1.488  -4.528   2.121  1.00  0.00     0.008 A 
ATOM      8  C   UNL     1      -1.461  -2.375   1.007  1.00  0.00     0.008 A 
ATOM      9  C   UNL     1      -2.837  -4.346   2.438  1.00  0.00     0.001 A 
ATOM     10  C   UNL     1      -2.811  -2.200   1.329  1.00  0.00     0.001 A 
ATOM     11  C   UNL     1      -3.497  -3.183   2.043  1.00  0.00     0.000 A 
ENDBRANCH   2   6
TORSDOF 2
ENDMDL
MODEL 6
REMARK VINA RESULT:    -4.116      4.299      6.000
REMARK INTER + INTRA:          -4.731
REMARK INTER:                  -4.584
REMARK INTRA:                  -0.147
REMARK UNBOUND:                -0.134
REMARK SMILES O=C([O-])C=Cc1ccccc1
REMARK SMILES IDX 4 1 5 2 2 3 1 4 3 5 6 6 7 7 11 8 8 9 10 10 9 11
REMARK H PARENT
REMARK Flexibility Score: inf
ROOT
ATOM      1  C   UNL     1      -3.285  -3.497   1.848  1.00  0.00     0.025 C 
ATOM      2  C   UNL     1      -2.090  -2.980   1.526  1.00  0.00     0.010 C 
ENDROOT
BRANCH   1   3
ATOM      3  C   UNL     1      -4.530  -2.726   1.703  1.00  0.00     0.064 C 
ATOM      4  O   UNL     1      -4.583  -1.544   2.132  1.00  0.00    -0.545 OA
ATOM      5  O   UNL     1      -5.652  -3.283   1.099  1.00  0.00    -0.545 OA
ENDBRANCH   1   3
BRANCH   2   6
ATOM      6  C   UNL     1      -0.792  -3.698   1.646  1.00  0.00    -0.026 A 
ATOM      7  C   UNL     1      -0.784  -4.952   2.285  1.00  0.00     0.008 A 
ATOM      8  C   UNL     1       0.427  -3.185   1.150  1.00  0.00     0.008 A 
ATOM      9  C   UNL     1       0.405  -5.673   2.428  1.00  0.00     0.001 A 
ATOM     10  C   UNL     1       1.613  -3.913   1.297  1.00  0.00     0.001 A 
ATOM     11  C   UNL     1       1.602  -5.155   1.934  1.00  0.00     0.000 A 
ENDBRANCH   2   6
TORSDOF 2
ENDMDL
MODEL 7
REMARK VINA RESULT:    -4.084      6.144      7.886
REMARK INTER + INTRA:          -4.695
REMARK INTER:                  -4.558
REMARK INTRA:                  -0.137
REMARK UNBOUND:                -0.134
REMARK SMILES O=C([O-])C=Cc1ccccc1
REMARK SMILES IDX 4 1 5 2 2 3 1 4 3 5 6 6 7 7 11 8 8 9 10 10 9 11
REMARK H PARENT
REMARK Flexibility Score: inf
ROOT
ATOM      1  C   UNL     1      -6.835  -4.631   0.731  1.00  0.00     0.025 C 
ATOM      2  C   UNL     1      -5.733  -4.888   1.450  1.00  0.00     0.010 C 
ENDROOT
BRANCH   1   3
ATOM      3  C   UNL     1      -8.043  -5.465   0.836  1.00  0.00     0.064 C 
ATOM      4  O   UNL     1      -8.129  -6.322   1.753  1.00  0.00    -0.545 OA
ATOM      5  O   UNL     1      -9.094  -5.322  -0.064  1.00  0.00    -0.545 OA
ENDBRANCH   1   3
BRANCH   2   6
ATOM      6  C   UNL     1      -4.477  -4.090   1.397  1.00  0.00    -0.026 A 
ATOM      7  C   UNL     1      -4.551  -2.715   1.688  1.00  0.00     0.008 A 
ATOM      8  C   UNL     1      -3.219  -4.645   1.072  1.00  0.00     0.008 A 
ATOM      9  C   UNL     1      -3.405  -1.916   1.653  1.00  0.00     0.001 A 
ATOM     10  C   UNL     1      -2.077  -3.838   1.040  1.00  0.00     0.001 A 
ATOM     11  C   UNL     1      -2.170  -2.476   1.331  1.00  0.00     0.000 A 
ENDBRANCH   2   6
TORSDOF 2
ENDMDL
MODEL 8
REMARK VINA RESULT:    -4.052      8.883      9.909
REMARK INTER + INTRA:          -4.659
REMARK INTER:                  -4.525
REMARK INTRA:                  -0.134
REMARK UNBOUND:                -0.134
REMARK SMILES O=C([O-])C=Cc1ccccc1
REMARK SMILES IDX 4 1 5 2 2 3 1 4 3 5 6 6 7 7 11 8 8 9 10 10 9 11
REMARK H PARENT
REMARK Flexibility Score: inf
ROOT
ATOM      1  C   UNL     1       4.299   2.703  -4.388  1.00  0.00     0.025 C 
ATOM      2  C   UNL     1       5.439   1.999  -4.447  1.00  0.00     0.010 C 
ENDROOT
BRANCH   1   3
ATOM      3  C   UNL     1       4.277   4.163  -4.572  1.00  0.00     0.064 C 
ATOM      4  O   UNL     1       5.323   4.831  -4.364  1.00  0.00    -0.545 OA
ATOM      5  O   UNL     1       3.118   4.818  -4.972  1.00  0.00    -0.545 OA
ENDBRANCH   1   3
BRANCH   2   6
ATOM      6  C   UNL     1       5.538   0.524  -4.271  1.00  0.00    -0.026 A 
ATOM      7  C   UNL     1       4.935  -0.302  -5.238  1.00  0.00     0.008 A 
ATOM      8  C   UNL     1       6.206  -0.084  -3.185  1.00  0.00     0.008 A 
ATOM      9  C   UNL     1       4.995  -1.694  -5.125  1.00  0.00     0.001 A 
ATOM     10  C   UNL     1       6.262  -1.478  -3.080  1.00  0.00     0.001 A 
ATOM     11  C   UNL     1       5.658  -2.281  -4.048  1.00  0.00     0.000 A 
ENDBRANCH   2   6
TORSDOF 2
ENDMDL
MODEL 9
REMARK VINA RESULT:    -3.937      6.949      7.103
REMARK INTER + INTRA:          -4.531
REMARK INTER:                  -4.389
REMARK INTRA:                  -0.143
REMARK UNBOUND:                -0.134
REMARK SMILES O=C([O-])C=Cc1ccccc1
REMARK SMILES IDX 4 1 5 2 2 3 1 4 3 5 6 6 7 7 11 8 8 9 10 10 9 11
REMARK H PARENT
REMARK Flexibility Score: inf
ROOT
ATOM      1  C   UNL     1       3.749   0.045   6.291  1.00  0.00     0.025 C 
ATOM      2  C   UNL     1       2.706   0.011   7.133  1.00  0.00     0.010 C 
ENDROOT
BRANCH   1   3
ATOM      3  C   UNL     1       4.928  -0.815   6.480  1.00  0.00     0.064 C 
ATOM      4  O   UNL     1       5.801  -0.495   7.329  1.00  0.00    -0.545 OA
ATOM      5  O   UNL     1       5.096  -1.976   5.734  1.00  0.00    -0.545 OA
ENDBRANCH   1   3
BRANCH   2   6
ATOM      6  C   UNL     1       1.482   0.849   7.005  1.00  0.00    -0.026 A 
ATOM      7  C   UNL     1       1.571   2.047   6.271  1.00  0.00     0.008 A 
ATOM      8  C   UNL     1       0.240   0.502   7.582  1.00  0.00     0.008 A 
ATOM      9  C   UNL     1       0.456   2.875   6.117  1.00  0.00     0.001 A 
ATOM     10  C   UNL     1      -0.872   1.336   7.423  1.00  0.00     0.001 A 
ATOM     11  C   UNL     1      -0.764   2.520   6.692  1.00  0.00     0.000 A 
ENDBRANCH   2   6
TORSDOF 2
ENDMDL
