MODEL 1
REMARK VINA RESULT:    -5.878      0.000      0.000
REMARK INTER + INTRA:          -5.878
REMARK INTER:                  -5.878
REMARK INTRA:                   0.000
REMARK UNBOUND:                 0.000
REMARK SMILES C=C1CCC[C@@]2(C)CC(=O)C(=C(C)C)C[C@@H]12
REMARK SMILES IDX 13 1 12 2 11 3 15 4 16 5 2 6 1 7 3 8 4 9 5 10 6 11 8 12 9 13
REMARK SMILES IDX 10 14 7 15 14 16
REMARK H PARENT
REMARK Flexibility Score: inf
ROOT
ATOM      1  C   UNL     1      -8.119  -1.824 -12.392  1.00  0.00     0.039 C 
ATOM      2  C   UNL     1      -7.161  -2.584 -13.278  1.00  0.00    -0.070 C 
ATOM      3  C   UNL     1      -7.605  -3.530 -14.156  1.00  0.00    -0.006 C 
ATOM      4  C   UNL     1      -9.062  -3.931 -14.282  1.00  0.00     0.047 C 
ATOM      5  C   UNL     1      -9.289  -5.456 -14.027  1.00  0.00     0.025 C 
ATOM      6  C   UNL     1     -10.668  -5.935 -14.531  1.00  0.00    -0.073 C 
ATOM      7  C   UNL     1     -11.721  -5.101 -14.655  1.00  0.00     0.008 C 
ATOM      8  C   UNL     1     -10.954  -7.407 -14.740  1.00  0.00     0.031 C 
ATOM      9  C   UNL     1      -9.744  -8.289 -14.464  1.00  0.00     0.005 C 
ATOM     10  C   UNL     1      -8.519  -7.706 -15.157  1.00  0.00     0.008 C 
ATOM     11  C   UNL     1      -8.065  -6.362 -14.512  1.00  0.00    -0.018 C 
ATOM     12  C   UNL     1      -7.191  -5.621 -15.568  1.00  0.00     0.088 C 
ATOM     13  C   UNL     1      -6.710  -4.299 -15.052  1.00  0.00     0.159 C 
ATOM     14  O   UNL     1      -5.608  -3.840 -15.453  1.00  0.00    -0.295 OA
ATOM     15  C   UNL     1      -7.167  -6.703 -13.288  1.00  0.00     0.012 C 
ATOM     16  C   UNL     1      -5.688  -2.283 -13.122  1.00  0.00     0.039 C 
ENDROOT
TORSDOF 0
ENDMDL
MODEL 2
REMARK VINA RESULT:    -5.857      2.436      4.733
REMARK INTER + INTRA:          -5.857
REMARK INTER:                  -5.857
REMARK INTRA:                   0.000
REMARK UNBOUND:                 0.000
REMARK SMILES C=C1CCC[C@@]2(C)CC(=O)C(=C(C)C)C[C@@H]12
REMARK SMILES IDX 13 1 12 2 11 3 15 4 16 5 2 6 1 7 3 8 4 9 5 10 6 11 8 12 9 13
REMARK SMILES IDX 10 14 7 15 14 16
REMARK H PARENT
REMARK Flexibility Score: inf
ROOT
ATOM      1  C   UNL     1     -11.125  -9.963 -14.035  1.00  0.00     0.039 C 
ATOM      2  C   UNL     1      -9.774  -9.321 -13.829  1.00  0.00    -0.070 C 
ATOM      3  C   UNL     1      -9.634  -7.965 -13.766  1.00  0.00    -0.006 C 
ATOM      4  C   UNL     1     -10.790  -6.999 -13.944  1.00  0.00     0.047 C 
ATOM      5  C   UNL     1     -10.558  -5.995 -15.120  1.00  0.00     0.025 C 
ATOM      6  C   UNL     1     -11.519  -4.788 -15.056  1.00  0.00    -0.073 C 
ATOM      7  C   UNL     1     -12.717  -4.850 -14.439  1.00  0.00     0.008 C 
ATOM      8  C   UNL     1     -11.238  -3.525 -15.841  1.00  0.00     0.031 C 
ATOM      9  C   UNL     1      -9.921  -3.584 -16.603  1.00  0.00     0.005 C 
ATOM     10  C   UNL     1      -8.821  -4.099 -15.682  1.00  0.00     0.008 C 
ATOM     11  C   UNL     1      -9.022  -5.599 -15.312  1.00  0.00    -0.018 C 
ATOM     12  C   UNL     1      -8.199  -5.863 -14.016  1.00  0.00     0.088 C 
ATOM     13  C   UNL     1      -8.335  -7.284 -13.559  1.00  0.00     0.159 C 
ATOM     14  O   UNL     1      -7.381  -7.832 -12.944  1.00  0.00    -0.295 OA
ATOM     15  C   UNL     1      -8.414  -6.457 -16.459  1.00  0.00     0.012 C 
ATOM     16  C   UNL     1      -8.578 -10.242 -13.739  1.00  0.00     0.039 C 
ENDROOT
TORSDOF 0
ENDMDL
MODEL 3
REMARK VINA RESULT:    -5.687      1.711      2.311
REMARK INTER + INTRA:          -5.687
REMARK INTER:                  -5.687
REMARK INTRA:                   0.000
REMARK UNBOUND:                 0.000
REMARK SMILES C=C1CCC[C@@]2(C)CC(=O)C(=C(C)C)C[C@@H]12
REMARK SMILES IDX 13 1 12 2 11 3 15 4 16 5 2 6 1 7 3 8 4 9 5 10 6 11 8 12 9 13
REMARK SMILES IDX 10 14 7 15 14 16
REMARK H PARENT
REMARK Flexibility Score: inf
ROOT
ATOM      1  C   UNL     1      -5.348  -2.670 -14.879  1.00  0.00     0.039 C 
ATOM      2  C   UNL     1      -5.276  -4.174 -14.992  1.00  0.00    -0.070 C 
ATOM      3  C   UNL     1      -6.357  -4.909 -15.384  1.00  0.00    -0.006 C 
ATOM      4  C   UNL     1      -7.713  -4.301 -15.685  1.00  0.00     0.047 C 
ATOM      5  C   UNL     1      -8.851  -4.899 -14.795  1.00  0.00     0.025 C 
ATOM      6  C   UNL     1     -10.256  -4.585 -15.352  1.00  0.00    -0.073 C 
ATOM      7  C   UNL     1     -10.499  -3.519 -16.142  1.00  0.00     0.008 C 
ATOM      8  C   UNL     1     -11.470  -5.363 -14.890  1.00  0.00     0.031 C 
ATOM      9  C   UNL     1     -11.122  -6.473 -13.909  1.00  0.00     0.005 C 
ATOM     10  C   UNL     1      -9.937  -7.270 -14.440  1.00  0.00     0.008 C 
ATOM     11  C   UNL     1      -8.620  -6.438 -14.432  1.00  0.00    -0.018 C 
ATOM     12  C   UNL     1      -7.643  -7.119 -15.436  1.00  0.00     0.088 C 
ATOM     13  C   UNL     1      -6.339  -6.385 -15.518  1.00  0.00     0.159 C 
ATOM     14  O   UNL     1      -5.284  -7.021 -15.779  1.00  0.00    -0.295 OA
ATOM     15  C   UNL     1      -8.003  -6.538 -13.006  1.00  0.00     0.012 C 
ATOM     16  C   UNL     1      -3.970  -4.834 -14.613  1.00  0.00     0.039 C 
ENDROOT
TORSDOF 0
ENDMDL
MODEL 4
REMARK VINA RESULT:    -5.642      6.866      8.430
REMARK INTER + INTRA:          -5.642
REMARK INTER:                  -5.642
REMARK INTRA:                   0.000
REMARK UNBOUND:                 0.000
REMARK SMILES C=C1CCC[C@@]2(C)CC(=O)C(=C(C)C)C[C@@H]12
REMARK SMILES IDX 13 1 12 2 11 3 15 4 16 5 2 6 1 7 3 8 4 9 5 10 6 11 8 12 9 13
REMARK SMILES IDX 10 14 7 15 14 16
REMARK H PARENT
REMARK Flexibility Score: inf
ROOT
ATOM      1  C   UNL     1      -1.518   2.895 -11.438  1.00  0.00     0.039 C 
ATOM      2  C   UNL     1      -1.852   1.426 -11.539  1.00  0.00    -0.070 C 
ATOM      3  C   UNL     1      -3.145   0.988 -11.511  1.00  0.00    -0.006 C 
ATOM      4  C   UNL     1      -4.333   1.912 -11.330  1.00  0.00     0.047 C 
ATOM      5  C   UNL     1      -5.201   1.537 -10.085  1.00  0.00     0.025 C 
ATOM      6  C   UNL     1      -6.594   2.203 -10.120  1.00  0.00    -0.073 C 
ATOM      7  C   UNL     1      -6.831   3.346 -10.797  1.00  0.00     0.008 C 
ATOM      8  C   UNL     1      -7.722   1.699  -9.246  1.00  0.00     0.031 C 
ATOM      9  C   UNL     1      -7.334   0.476  -8.427  1.00  0.00     0.005 C 
ATOM     10  C   UNL     1      -6.633  -0.537  -9.324  1.00  0.00     0.008 C 
ATOM     11  C   UNL     1      -5.235  -0.034  -9.795  1.00  0.00    -0.018 C 
ATOM     12  C   UNL     1      -4.859  -0.856 -11.064  1.00  0.00     0.088 C 
ATOM     13  C   UNL     1      -3.528  -0.439 -11.613  1.00  0.00     0.159 C 
ATOM     14  O   UNL     1      -2.813  -1.284 -12.214  1.00  0.00    -0.295 OA
ATOM     15  C   UNL     1      -4.208  -0.368  -8.675  1.00  0.00     0.012 C 
ATOM     16  C   UNL     1      -0.694   0.458 -11.628  1.00  0.00     0.039 C 
ENDROOT
TORSDOF 0
ENDMDL
MODEL 5
REMARK VINA RESULT:    -5.625      3.878      7.843
REMARK INTER + INTRA:          -5.625
REMARK INTER:                  -5.625
REMARK INTRA:                   0.000
REMARK UNBOUND:                 0.000
REMARK SMILES C=C1CCC[C@@]2(C)CC(=O)C(=C(C)C)C[C@@H]12
REMARK SMILES IDX 13 1 12 2 11 3 15 4 16 5 2 6 1 7 3 8 4 9 5 10 6 11 8 12 9 13
REMARK SMILES IDX 10 14 7 15 14 16
REMARK H PARENT
REMARK Flexibility Score: inf
ROOT
ATOM      1  C   UNL     1      -8.445  -1.995 -12.735  1.00  0.00     0.039 C 
ATOM      2  C   UNL     1      -7.460  -2.716 -11.845  1.00  0.00    -0.070 C 
ATOM      3  C   UNL     1      -6.734  -2.047 -10.902  1.00  0.00    -0.006 C 
ATOM      4  C   UNL     1      -6.811  -0.546 -10.701  1.00  0.00     0.047 C 
ATOM      5  C   UNL     1      -5.423   0.154 -10.865  1.00  0.00     0.025 C 
ATOM      6  C   UNL     1      -5.417   1.585 -10.286  1.00  0.00    -0.073 C 
ATOM      7  C   UNL     1      -6.541   2.321 -10.167  1.00  0.00     0.008 C 
ATOM      8  C   UNL     1      -4.117   2.301  -9.988  1.00  0.00     0.031 C 
ATOM      9  C   UNL     1      -2.892   1.438 -10.261  1.00  0.00     0.005 C 
ATOM     10  C   UNL     1      -3.092   0.059  -9.646  1.00  0.00     0.008 C 
ATOM     11  C   UNL     1      -4.202  -0.754 -10.378  1.00  0.00    -0.018 C 
ATOM     12  C   UNL     1      -4.675  -1.867  -9.397  1.00  0.00     0.088 C 
ATOM     13  C   UNL     1      -5.761  -2.706 -10.000  1.00  0.00     0.159 C 
ATOM     14  O   UNL     1      -5.869  -3.915  -9.665  1.00  0.00    -0.295 OA
ATOM     15  C   UNL     1      -3.551  -1.439 -11.615  1.00  0.00     0.012 C 
ATOM     16  C   UNL     1      -7.282  -4.199 -12.072  1.00  0.00     0.039 C 
ENDROOT
TORSDOF 0
ENDMDL
MODEL 6
REMARK VINA RESULT:    -5.537      6.200      8.904
REMARK INTER + INTRA:          -5.537
REMARK INTER:                  -5.537
REMARK INTRA:                   0.000
REMARK UNBOUND:                 0.000
REMARK SMILES C=C1CCC[C@@]2(C)CC(=O)C(=C(C)C)C[C@@H]12
REMARK SMILES IDX 13 1 12 2 11 3 15 4 16 5 2 6 1 7 3 8 4 9 5 10 6 11 8 12 9 13
REMARK SMILES IDX 10 14 7 15 14 16
REMARK H PARENT
REMARK Flexibility Score: inf
ROOT
ATOM      1  C   UNL     1      -1.319   2.789 -12.356  1.00  0.00     0.039 C 
ATOM      2  C   UNL     1      -1.551   2.642 -10.871  1.00  0.00    -0.070 C 
ATOM      3  C   UNL     1      -2.243   1.581 -10.363  1.00  0.00    -0.006 C 
ATOM      4  C   UNL     1      -2.872   0.505 -11.227  1.00  0.00     0.047 C 
ATOM      5  C   UNL     1      -4.413   0.376 -10.998  1.00  0.00     0.025 C 
ATOM      6  C   UNL     1      -4.979  -0.947 -11.561  1.00  0.00    -0.073 C 
ATOM      7  C   UNL     1      -4.380  -1.619 -12.565  1.00  0.00     0.008 C 
ATOM      8  C   UNL     1      -6.337  -1.459 -11.131  1.00  0.00     0.031 C 
ATOM      9  C   UNL     1      -6.995  -0.577 -10.079  1.00  0.00     0.005 C 
ATOM     10  C   UNL     1      -5.988  -0.250  -8.984  1.00  0.00     0.008 C 
ATOM     11  C   UNL     1      -4.852   0.687  -9.494  1.00  0.00    -0.018 C 
ATOM     12  C   UNL     1      -3.656   0.532  -8.507  1.00  0.00     0.088 C 
ATOM     13  C   UNL     1      -2.494   1.385  -8.916  1.00  0.00     0.159 C 
ATOM     14  O   UNL     1      -1.719   1.841  -8.033  1.00  0.00    -0.295 OA
ATOM     15  C   UNL     1      -5.370   2.152  -9.407  1.00  0.00     0.012 C 
ATOM     16  C   UNL     1      -1.022   3.740  -9.977  1.00  0.00     0.039 C 
ENDROOT
TORSDOF 0
ENDMDL
MODEL 7
REMARK VINA RESULT:    -5.507      1.498      3.137
REMARK INTER + INTRA:          -5.507
REMARK INTER:                  -5.507
REMARK INTRA:                   0.000
REMARK UNBOUND:                 0.000
REMARK SMILES C=C1CCC[C@@]2(C)CC(=O)C(=C(C)C)C[C@@H]12
REMARK SMILES IDX 13 1 12 2 11 3 15 4 16 5 2 6 1 7 3 8 4 9 5 10 6 11 8 12 9 13
REMARK SMILES IDX 10 14 7 15 14 16
REMARK H PARENT
REMARK Flexibility Score: inf
ROOT
ATOM      1  C   UNL     1      -4.573  -5.164 -15.687  1.00  0.00     0.039 C 
ATOM      2  C   UNL     1      -5.388  -4.000 -15.177  1.00  0.00    -0.070 C 
ATOM      3  C   UNL     1      -6.569  -4.194 -14.520  1.00  0.00    -0.006 C 
ATOM      4  C   UNL     1      -7.181  -5.563 -14.293  1.00  0.00     0.047 C 
ATOM      5  C   UNL     1      -8.616  -5.687 -14.899  1.00  0.00     0.025 C 
ATOM      6  C   UNL     1      -9.383  -6.907 -14.342  1.00  0.00    -0.073 C 
ATOM      7  C   UNL     1      -8.753  -7.995 -13.854  1.00  0.00     0.008 C 
ATOM      8  C   UNL     1     -10.887  -7.013 -14.484  1.00  0.00     0.031 C 
ATOM      9  C   UNL     1     -11.505  -5.793 -15.151  1.00  0.00     0.005 C 
ATOM     10  C   UNL     1     -10.947  -4.525 -14.516  1.00  0.00     0.008 C 
ATOM     11  C   UNL     1      -9.439  -4.318 -14.849  1.00  0.00    -0.018 C 
ATOM     12  C   UNL     1      -8.864  -3.347 -13.775  1.00  0.00     0.088 C 
ATOM     13  C   UNL     1      -7.404  -3.089 -13.994  1.00  0.00     0.159 C 
ATOM     14  O   UNL     1      -6.912  -1.981 -13.652  1.00  0.00    -0.295 OA
ATOM     15  C   UNL     1      -9.351  -3.619 -16.237  1.00  0.00     0.012 C 
ATOM     16  C   UNL     1      -4.864  -2.611 -15.462  1.00  0.00     0.039 C 
ENDROOT
TORSDOF 0
ENDMDL
MODEL 8
REMARK VINA RESULT:    -5.503      1.692      4.818
REMARK INTER + INTRA:          -5.503
REMARK INTER:                  -5.503
REMARK INTRA:                   0.000
REMARK UNBOUND:                 0.000
REMARK SMILES C=C1CCC[C@@]2(C)CC(=O)C(=C(C)C)C[C@@H]12
REMARK SMILES IDX 13 1 12 2 11 3 15 4 16 5 2 6 1 7 3 8 4 9 5 10 6 11 8 12 9 13
REMARK SMILES IDX 10 14 7 15 14 16
REMARK H PARENT
REMARK Flexibility Score: inf
ROOT
ATOM      1  C   UNL     1     -11.464  -6.498 -13.814  1.00  0.00     0.039 C 
ATOM      2  C   UNL     1     -10.930  -5.345 -14.630  1.00  0.00    -0.070 C 
ATOM      3  C   UNL     1      -9.596  -5.054 -14.659  1.00  0.00    -0.006 C 
ATOM      4  C   UNL     1      -8.560  -5.814 -13.854  1.00  0.00     0.047 C 
ATOM      5  C   UNL     1      -7.750  -4.887 -12.891  1.00  0.00     0.025 C 
ATOM      6  C   UNL     1      -6.460  -5.563 -12.375  1.00  0.00    -0.073 C 
ATOM      7  C   UNL     1      -6.326  -6.903 -12.304  1.00  0.00     0.008 C 
ATOM      8  C   UNL     1      -5.347  -4.747 -11.754  1.00  0.00     0.031 C 
ATOM      9  C   UNL     1      -5.632  -3.251 -11.769  1.00  0.00     0.005 C 
ATOM     10  C   UNL     1      -6.119  -2.838 -13.152  1.00  0.00     0.008 C 
ATOM     11  C   UNL     1      -7.529  -3.416 -13.474  1.00  0.00    -0.018 C 
ATOM     12  C   UNL     1      -7.692  -3.387 -15.023  1.00  0.00     0.088 C 
ATOM     13  C   UNL     1      -9.019  -3.940 -15.446  1.00  0.00     0.159 C 
ATOM     14  O   UNL     1      -9.565  -3.506 -16.496  1.00  0.00    -0.295 OA
ATOM     15  C   UNL     1      -8.588  -2.458 -12.854  1.00  0.00     0.012 C 
ATOM     16  C   UNL     1     -11.937  -4.501 -15.376  1.00  0.00     0.039 C 
ENDROOT
TORSDOF 0
ENDMDL
MODEL 9
REMARK VINA RESULT:    -5.415      6.213      8.815
REMARK INTER + INTRA:          -5.415
REMARK INTER:                  -5.415
REMARK INTRA:                   0.000
REMARK UNBOUND:                 0.000
REMARK SMILES C=C1CCC[C@@]2(C)CC(=O)C(=C(C)C)C[C@@H]12
REMARK SMILES IDX 13 1 12 2 11 3 15 4 16 5 2 6 1 7 3 8 4 9 5 10 6 11 8 12 9 13
REMARK SMILES IDX 10 14 7 15 14 16
REMARK H PARENT
REMARK Flexibility Score: inf
ROOT
ATOM      1  C   UNL     1      -2.904   2.516  -6.421  1.00  0.00     0.039 C 
ATOM      2  C   UNL     1      -2.421   2.582  -7.850  1.00  0.00    -0.070 C 
ATOM      3  C   UNL     1      -3.239   2.254  -8.892  1.00  0.00    -0.006 C 
ATOM      4  C   UNL     1      -4.659   1.755  -8.710  1.00  0.00     0.047 C 
ATOM      5  C   UNL     1      -4.889   0.349  -9.354  1.00  0.00     0.025 C 
ATOM      6  C   UNL     1      -6.389   0.020  -9.519  1.00  0.00    -0.073 C 
ATOM      7  C   UNL     1      -7.341   0.578  -8.744  1.00  0.00     0.008 C 
ATOM      8  C   UNL     1      -6.847  -1.087 -10.445  1.00  0.00     0.031 C 
ATOM      9  C   UNL     1      -5.696  -1.744 -11.195  1.00  0.00     0.005 C 
ATOM     10  C   UNL     1      -4.788  -0.669 -11.779  1.00  0.00     0.008 C 
ATOM     11  C   UNL     1      -4.018   0.113 -10.672  1.00  0.00    -0.018 C 
ATOM     12  C   UNL     1      -3.560   1.463 -11.302  1.00  0.00     0.088 C 
ATOM     13  C   UNL     1      -2.818   2.307 -10.311  1.00  0.00     0.159 C 
ATOM     14  O   UNL     1      -1.920   3.093 -10.716  1.00  0.00    -0.295 OA
ATOM     15  C   UNL     1      -2.749  -0.709 -10.305  1.00  0.00     0.012 C 
ATOM     16  C   UNL     1      -0.981   2.985  -8.074  1.00  0.00     0.039 C 
ENDROOT
TORSDOF 0
ENDMDL
