MODEL 1
REMARK VINA RESULT:    -3.871      0.000      0.000
REMARK INTER + INTRA:          -6.578
REMARK INTER:                  -5.907
REMARK INTRA:                  -0.671
REMARK UNBOUND:                -0.671
REMARK SMILES CCCCCCCCCC=CC(=O)[O-]
REMARK SMILES IDX 7 1 8 2 9 3 10 4 11 5 12 6 13 7 14 8 6 9 5 10 4 11 3 12 2 13
REMARK SMILES IDX 1 14
REMARK H PARENT
REMARK Flexibility Score: inf
ROOT
ATOM      1  C   UNL     1     -21.569   2.429   9.277  1.00  0.00     0.000 C 
ENDROOT
BRANCH   1   2
ATOM      2  C   UNL     1     -21.125   1.325  10.249  1.00  0.00     0.004 C 
BRANCH   2   3
ATOM      3  C   UNL     1     -21.951   1.330  11.545  1.00  0.00     0.027 C 
BRANCH   3   4
ATOM      4  C   UNL     1     -21.125   1.700  12.748  1.00  0.00    -0.025 C 
ATOM      5  C   UNL     1     -20.769   0.875  13.747  1.00  0.00     0.020 C 
BRANCH   5   6
ATOM      6  C   UNL     1     -21.150  -0.545  13.896  1.00  0.00     0.064 C 
ATOM      7  O   UNL     1     -21.908  -0.941  14.820  1.00  0.00    -0.545 OA
ATOM      8  O   UNL     1     -20.633  -1.476  13.005  1.00  0.00    -0.545 OA
ENDBRANCH   5   6
ENDBRANCH   3   4
ENDBRANCH   2   3
ENDBRANCH   1   2
BRANCH   1   9
ATOM      9  C   UNL     1     -20.952   2.215   7.886  1.00  0.00     0.000 C 
BRANCH   9  10
ATOM     10  C   UNL     1     -20.036   0.982   7.825  1.00  0.00     0.000 C 
BRANCH  10  11
ATOM     11  C   UNL     1     -20.436  -0.072   6.775  1.00  0.00    -0.000 C 
BRANCH  11  12
ATOM     12  C   UNL     1     -20.328  -1.526   7.279  1.00  0.00    -0.000 C 
BRANCH  12  13
ATOM     13  C   UNL     1     -20.064  -1.602   8.790  1.00  0.00    -0.003 C 
ATOM     14  C   UNL     1     -19.443  -2.942   9.174  1.00  0.00     0.004 C 
ENDBRANCH  12  13
ENDBRANCH  11  12
ENDBRANCH  10  11
ENDBRANCH   9  10
ENDBRANCH   1   9
TORSDOF 9
ENDMDL
MODEL 2
REMARK VINA RESULT:    -3.799      1.399      3.308
REMARK INTER + INTRA:          -6.468
REMARK INTER:                  -6.046
REMARK INTRA:                  -0.422
REMARK UNBOUND:                -0.671
REMARK SMILES CCCCCCCCCC=CC(=O)[O-]
REMARK SMILES IDX 7 1 8 2 9 3 10 4 11 5 12 6 13 7 14 8 6 9 5 10 4 11 3 12 2 13
REMARK SMILES IDX 1 14
REMARK H PARENT
REMARK Flexibility Score: inf
ROOT
ATOM      1  C   UNL     1     -20.378  -1.231   9.010  1.00  0.00     0.000 C 
ENDROOT
BRANCH   1   2
ATOM      2  C   UNL     1     -19.827  -2.247  10.022  1.00  0.00     0.004 C 
BRANCH   2   3
ATOM      3  C   UNL     1     -19.716  -1.653  11.435  1.00  0.00     0.027 C 
BRANCH   3   4
ATOM      4  C   UNL     1     -20.687  -2.283  12.399  1.00  0.00    -0.025 C 
ATOM      5  C   UNL     1     -21.200  -1.703  13.496  1.00  0.00     0.020 C 
BRANCH   5   6
ATOM      6  C   UNL     1     -20.887  -0.352  14.009  1.00  0.00     0.064 C 
ATOM      7  O   UNL     1     -20.289  -0.174  15.102  1.00  0.00    -0.545 OA
ATOM      8  O   UNL     1     -21.288   0.755  13.274  1.00  0.00    -0.545 OA
ENDBRANCH   5   6
ENDBRANCH   3   4
ENDBRANCH   2   3
ENDBRANCH   1   2
BRANCH   1   9
ATOM      9  C   UNL     1     -20.043  -1.654   7.572  1.00  0.00     0.000 C 
BRANCH   9  10
ATOM     10  C   UNL     1     -19.934  -0.459   6.611  1.00  0.00     0.000 C 
BRANCH  10  11
ATOM     11  C   UNL     1     -20.933   0.683   6.881  1.00  0.00    -0.000 C 
BRANCH  11  12
ATOM     12  C   UNL     1     -20.328   1.866   7.667  1.00  0.00    -0.000 C 
BRANCH  12  13
ATOM     13  C   UNL     1     -21.358   2.546   8.582  1.00  0.00    -0.003 C 
ATOM     14  C   UNL     1     -21.528   1.775   9.888  1.00  0.00     0.004 C 
ENDBRANCH  12  13
ENDBRANCH  11  12
ENDBRANCH  10  11
ENDBRANCH   9  10
ENDBRANCH   1   9
TORSDOF 9
ENDMDL
MODEL 3
REMARK VINA RESULT:    -3.538      0.803      1.374
REMARK INTER + INTRA:          -6.071
REMARK INTER:                  -5.638
REMARK INTRA:                  -0.433
REMARK UNBOUND:                -0.671
REMARK SMILES CCCCCCCCCC=CC(=O)[O-]
REMARK SMILES IDX 7 1 8 2 9 3 10 4 11 5 12 6 13 7 14 8 6 9 5 10 4 11 3 12 2 13
REMARK SMILES IDX 1 14
REMARK H PARENT
REMARK Flexibility Score: inf
ROOT
ATOM      1  C   UNL     1     -21.106   1.757   8.490  1.00  0.00     0.000 C 
ENDROOT
BRANCH   1   2
ATOM      2  C   UNL     1     -21.707   2.190   9.836  1.00  0.00     0.004 C 
BRANCH   2   3
ATOM      3  C   UNL     1     -21.486   1.137  10.933  1.00  0.00     0.027 C 
BRANCH   3   4
ATOM      4  C   UNL     1     -21.166   1.759  12.267  1.00  0.00    -0.025 C 
ATOM      5  C   UNL     1     -21.033   1.105  13.432  1.00  0.00     0.020 C 
BRANCH   5   6
ATOM      6  C   UNL     1     -21.215  -0.344  13.657  1.00  0.00     0.064 C 
ATOM      7  O   UNL     1     -21.916  -0.792  14.602  1.00  0.00    -0.545 OA
ATOM      8  O   UNL     1     -20.571  -1.240  12.814  1.00  0.00    -0.545 OA
ENDBRANCH   5   6
ENDBRANCH   3   4
ENDBRANCH   2   3
ENDBRANCH   1   2
BRANCH   1   9
ATOM      9  C   UNL     1     -20.398   0.399   8.619  1.00  0.00     0.000 C 
BRANCH   9  10
ATOM     10  C   UNL     1     -20.384  -0.391   7.300  1.00  0.00     0.000 C 
BRANCH  10  11
ATOM     11  C   UNL     1     -20.160  -1.908   7.455  1.00  0.00    -0.000 C 
BRANCH  11  12
ATOM     12  C   UNL     1     -19.959  -2.361   8.916  1.00  0.00    -0.000 C 
BRANCH  12  13
ATOM     13  C   UNL     1     -18.882  -3.448   9.047  1.00  0.00    -0.003 C 
ATOM     14  C   UNL     1     -19.411  -4.805   8.589  1.00  0.00     0.004 C 
ENDBRANCH  12  13
ENDBRANCH  11  12
ENDBRANCH  10  11
ENDBRANCH   9  10
ENDBRANCH   1   9
TORSDOF 9
ENDMDL
MODEL 4
REMARK VINA RESULT:    -3.466      2.103      4.051
REMARK INTER + INTRA:          -5.960
REMARK INTER:                  -5.778
REMARK INTRA:                  -0.182
REMARK UNBOUND:                -0.671
REMARK SMILES CCCCCCCCCC=CC(=O)[O-]
REMARK SMILES IDX 7 1 8 2 9 3 10 4 11 5 12 6 13 7 14 8 6 9 5 10 4 11 3 12 2 13
REMARK SMILES IDX 1 14
REMARK H PARENT
REMARK Flexibility Score: inf
ROOT
ATOM      1  C   UNL     1     -21.085  -0.840   7.127  1.00  0.00     0.000 C 
ENDROOT
BRANCH   1   2
ATOM      2  C   UNL     1     -20.520   0.475   6.570  1.00  0.00     0.004 C 
BRANCH   2   3
ATOM      3  C   UNL     1     -20.059   1.425   7.687  1.00  0.00     0.027 C 
BRANCH   3   4
ATOM      4  C   UNL     1     -21.175   2.304   8.187  1.00  0.00    -0.025 C 
ATOM      5  C   UNL     1     -21.676   2.314   9.433  1.00  0.00     0.020 C 
BRANCH   5   6
ATOM      6  C   UNL     1     -21.271   1.439  10.553  1.00  0.00     0.064 C 
ATOM      7  O   UNL     1     -21.025   0.215  10.391  1.00  0.00    -0.545 OA
ATOM      8  O   UNL     1     -21.186   1.978  11.830  1.00  0.00    -0.545 OA
ENDBRANCH   5   6
ENDBRANCH   3   4
ENDBRANCH   2   3
ENDBRANCH   1   2
BRANCH   1   9
ATOM      9  C   UNL     1     -19.952  -1.800   7.520  1.00  0.00     0.000 C 
BRANCH   9  10
ATOM     10  C   UNL     1     -19.940  -2.123   9.023  1.00  0.00     0.000 C 
BRANCH  10  11
ATOM     11  C   UNL     1     -19.126  -3.374   9.411  1.00  0.00    -0.000 C 
BRANCH  11  12
ATOM     12  C   UNL     1     -18.958  -4.389   8.261  1.00  0.00    -0.000 C 
BRANCH  12  13
ATOM     13  C   UNL     1     -19.330  -5.817   8.684  1.00  0.00    -0.003 C 
ATOM     14  C   UNL     1     -20.810  -5.917   9.043  1.00  0.00     0.004 C 
ENDBRANCH  12  13
ENDBRANCH  11  12
ENDBRANCH  10  11
ENDBRANCH   9  10
ENDBRANCH   1   9
TORSDOF 9
ENDMDL
MODEL 5
REMARK VINA RESULT:    -3.407      2.627      5.213
REMARK INTER + INTRA:          -5.870
REMARK INTER:                  -5.216
REMARK INTRA:                  -0.654
REMARK UNBOUND:                -0.671
REMARK SMILES CCCCCCCCCC=CC(=O)[O-]
REMARK SMILES IDX 7 1 8 2 9 3 10 4 11 5 12 6 13 7 14 8 6 9 5 10 4 11 3 12 2 13
REMARK SMILES IDX 1 14
REMARK H PARENT
REMARK Flexibility Score: inf
ROOT
ATOM      1  C   UNL     1     -20.778   0.530   6.673  1.00  0.00     0.000 C 
ENDROOT
BRANCH   1   2
ATOM      2  C   UNL     1     -19.758  -0.616   6.742  1.00  0.00     0.004 C 
BRANCH   2   3
ATOM      3  C   UNL     1     -20.341  -1.870   7.412  1.00  0.00     0.027 C 
BRANCH   3   4
ATOM      4  C   UNL     1     -19.840  -2.052   8.820  1.00  0.00    -0.025 C 
ATOM      5  C   UNL     1     -19.345  -3.186   9.343  1.00  0.00     0.020 C 
BRANCH   5   6
ATOM      6  C   UNL     1     -19.230  -4.494   8.664  1.00  0.00     0.064 C 
ATOM      7  O   UNL     1     -18.317  -4.740   7.834  1.00  0.00    -0.545 OA
ATOM      8  O   UNL     1     -20.177  -5.474   8.931  1.00  0.00    -0.545 OA
ENDBRANCH   5   6
ENDBRANCH   3   4
ENDBRANCH   2   3
ENDBRANCH   1   2
BRANCH   1   9
ATOM      9  C   UNL     1     -20.296   1.742   7.485  1.00  0.00     0.000 C 
BRANCH   9  10
ATOM     10  C   UNL     1     -21.190   2.037   8.700  1.00  0.00     0.000 C 
BRANCH  10  11
ATOM     11  C   UNL     1     -21.031   1.054   9.877  1.00  0.00    -0.000 C 
BRANCH  11  12
ATOM     12  C   UNL     1     -21.947   1.367  11.078  1.00  0.00    -0.000 C 
BRANCH  12  13
ATOM     13  C   UNL     1     -21.152   1.637  12.364  1.00  0.00    -0.003 C 
ATOM     14  C   UNL     1     -21.227   0.448  13.318  1.00  0.00     0.004 C 
ENDBRANCH  12  13
ENDBRANCH  11  12
ENDBRANCH  10  11
ENDBRANCH   9  10
ENDBRANCH   1   9
TORSDOF 9
ENDMDL
MODEL 6
REMARK VINA RESULT:    -3.388      1.779      4.940
REMARK INTER + INTRA:          -5.841
REMARK INTER:                  -5.492
REMARK INTRA:                  -0.350
REMARK UNBOUND:                -0.671
REMARK SMILES CCCCCCCCCC=CC(=O)[O-]
REMARK SMILES IDX 7 1 8 2 9 3 10 4 11 5 12 6 13 7 14 8 6 9 5 10 4 11 3 12 2 13
REMARK SMILES IDX 1 14
REMARK H PARENT
REMARK Flexibility Score: inf
ROOT
ATOM      1  C   UNL     1     -21.469   2.857   8.866  1.00  0.00     0.000 C 
ENDROOT
BRANCH   1   2
ATOM      2  C   UNL     1     -20.830   2.259   7.604  1.00  0.00     0.004 C 
BRANCH   2   3
ATOM      3  C   UNL     1     -20.015   0.994   7.913  1.00  0.00     0.027 C 
BRANCH   3   4
ATOM      4  C   UNL     1     -20.391  -0.161   7.023  1.00  0.00    -0.025 C 
ATOM      5  C   UNL     1     -20.385  -1.460   7.368  1.00  0.00     0.020 C 
BRANCH   5   6
ATOM      6  C   UNL     1     -19.968  -2.026   8.668  1.00  0.00     0.064 C 
ATOM      7  O   UNL     1     -20.191  -1.435   9.757  1.00  0.00    -0.545 OA
ATOM      8  O   UNL     1     -19.285  -3.234   8.685  1.00  0.00    -0.545 OA
ENDBRANCH   5   6
ENDBRANCH   3   4
ENDBRANCH   2   3
ENDBRANCH   1   2
BRANCH   1   9
ATOM      9  C   UNL     1     -21.880   1.749   9.849  1.00  0.00     0.000 C 
BRANCH   9  10
ATOM     10  C   UNL     1     -21.080   1.792  11.162  1.00  0.00     0.000 C 
BRANCH  10  11
ATOM     11  C   UNL     1     -21.819   1.224  12.389  1.00  0.00    -0.000 C 
BRANCH  11  12
ATOM     12  C   UNL     1     -20.888   0.871  13.568  1.00  0.00    -0.000 C 
BRANCH  12  13
ATOM     13  C   UNL     1     -21.204  -0.507  14.169  1.00  0.00    -0.003 C 
ATOM     14  C   UNL     1     -20.882  -1.625  13.181  1.00  0.00     0.004 C 
ENDBRANCH  12  13
ENDBRANCH  11  12
ENDBRANCH  10  11
ENDBRANCH   9  10
ENDBRANCH   1   9
TORSDOF 9
ENDMDL
MODEL 7
REMARK VINA RESULT:    -3.297      3.866      4.991
REMARK INTER + INTRA:          -5.702
REMARK INTER:                  -5.061
REMARK INTRA:                  -0.641
REMARK UNBOUND:                -0.671
REMARK SMILES CCCCCCCCCC=CC(=O)[O-]
REMARK SMILES IDX 7 1 8 2 9 3 10 4 11 5 12 6 13 7 14 8 6 9 5 10 4 11 3 12 2 13
REMARK SMILES IDX 1 14
REMARK H PARENT
REMARK Flexibility Score: inf
ROOT
ATOM      1  C   UNL     1     -20.484  -0.241   6.702  1.00  0.00     0.000 C 
ENDROOT
BRANCH   1   2
ATOM      2  C   UNL     1     -19.854   0.820   7.616  1.00  0.00     0.004 C 
BRANCH   2   3
ATOM      3  C   UNL     1     -20.705   2.098   7.689  1.00  0.00     0.027 C 
BRANCH   3   4
ATOM      4  C   UNL     1     -21.455   2.213   8.990  1.00  0.00    -0.025 C 
ATOM      5  C   UNL     1     -21.911   3.349   9.542  1.00  0.00     0.020 C 
BRANCH   5   6
ATOM      6  C   UNL     1     -21.733   4.719   9.016  1.00  0.00     0.064 C 
ATOM      7  O   UNL     1     -20.917   5.531   9.526  1.00  0.00    -0.545 OA
ATOM      8  O   UNL     1     -22.510   5.132   7.943  1.00  0.00    -0.545 OA
ENDBRANCH   5   6
ENDBRANCH   3   4
ENDBRANCH   2   3
ENDBRANCH   1   2
BRANCH   1   9
ATOM      9  C   UNL     1     -20.361  -1.642   7.323  1.00  0.00     0.000 C 
BRANCH   9  10
ATOM     10  C   UNL     1     -20.049  -1.600   8.827  1.00  0.00     0.000 C 
BRANCH  10  11
ATOM     11  C   UNL     1     -19.565  -2.935   9.426  1.00  0.00    -0.000 C 
BRANCH  11  12
ATOM     12  C   UNL     1     -19.051  -3.940   8.374  1.00  0.00    -0.000 C 
BRANCH  12  13
ATOM     13  C   UNL     1     -19.218  -5.397   8.829  1.00  0.00    -0.003 C 
ATOM     14  C   UNL     1     -20.690  -5.798   8.865  1.00  0.00     0.004 C 
ENDBRANCH  12  13
ENDBRANCH  11  12
ENDBRANCH  10  11
ENDBRANCH   9  10
ENDBRANCH   1   9
TORSDOF 9
ENDMDL
MODEL 8
REMARK VINA RESULT:    -3.292      2.381      5.616
REMARK INTER + INTRA:          -5.695
REMARK INTER:                  -5.483
REMARK INTRA:                  -0.212
REMARK UNBOUND:                -0.671
REMARK SMILES CCCCCCCCCC=CC(=O)[O-]
REMARK SMILES IDX 7 1 8 2 9 3 10 4 11 5 12 6 13 7 14 8 6 9 5 10 4 11 3 12 2 13
REMARK SMILES IDX 1 14
REMARK H PARENT
REMARK Flexibility Score: inf
ROOT
ATOM      1  C   UNL     1     -19.597  -2.544   8.742  1.00  0.00     0.000 C 
ENDROOT
BRANCH   1   2
ATOM      2  C   UNL     1     -19.994  -1.961   7.377  1.00  0.00     0.004 C 
BRANCH   2   3
ATOM      3  C   UNL     1     -20.904  -0.731   7.517  1.00  0.00     0.027 C 
BRANCH   3   4
ATOM      4  C   UNL     1     -20.242   0.530   7.028  1.00  0.00    -0.025 C 
ATOM      5  C   UNL     1     -20.336   1.744   7.596  1.00  0.00     0.020 C 
BRANCH   5   6
ATOM      6  C   UNL     1     -21.139   2.102   8.784  1.00  0.00     0.064 C 
ATOM      7  O   UNL     1     -21.195   1.363   9.802  1.00  0.00    -0.545 OA
ATOM      8  O   UNL     1     -21.875   3.279   8.766  1.00  0.00    -0.545 OA
ENDBRANCH   5   6
ENDBRANCH   3   4
ENDBRANCH   2   3
ENDBRANCH   1   2
BRANCH   1   9
ATOM      9  C   UNL     1     -20.071  -1.633   9.885  1.00  0.00     0.000 C 
BRANCH   9  10
ATOM     10  C   UNL     1     -19.437  -1.997  11.237  1.00  0.00     0.000 C 
BRANCH  10  11
ATOM     11  C   UNL     1     -20.422  -2.054  12.421  1.00  0.00    -0.000 C 
BRANCH  11  12
ATOM     12  C   UNL     1     -20.889  -0.666  12.910  1.00  0.00    -0.000 C 
BRANCH  12  13
ATOM     13  C   UNL     1     -20.733  -0.500  14.429  1.00  0.00    -0.003 C 
ATOM     14  C   UNL     1     -22.091  -0.501  15.125  1.00  0.00     0.004 C 
ENDBRANCH  12  13
ENDBRANCH  11  12
ENDBRANCH  10  11
ENDBRANCH   9  10
ENDBRANCH   1   9
TORSDOF 9
ENDMDL
MODEL 9
REMARK VINA RESULT:    -3.282      1.532      4.043
REMARK INTER + INTRA:          -5.680
REMARK INTER:                  -5.860
REMARK INTRA:                   0.179
REMARK UNBOUND:                -0.671
REMARK SMILES CCCCCCCCCC=CC(=O)[O-]
REMARK SMILES IDX 7 1 8 2 9 3 10 4 11 5 12 6 13 7 14 8 6 9 5 10 4 11 3 12 2 13
REMARK SMILES IDX 1 14
REMARK H PARENT
REMARK Flexibility Score: inf
ROOT
ATOM      1  C   UNL     1     -20.695  -0.823   7.706  1.00  0.00     0.000 C 
ENDROOT
BRANCH   1   2
ATOM      2  C   UNL     1     -19.963  -1.572   8.829  1.00  0.00     0.004 C 
BRANCH   2   3
ATOM      3  C   UNL     1     -20.325  -1.026  10.219  1.00  0.00     0.027 C 
BRANCH   3   4
ATOM      4  C   UNL     1     -20.021  -2.009  11.318  1.00  0.00    -0.025 C 
ATOM      5  C   UNL     1     -20.350  -1.875  12.613  1.00  0.00     0.020 C 
BRANCH   5   6
ATOM      6  C   UNL     1     -21.035  -0.721  13.234  1.00  0.00     0.064 C 
ATOM      7  O   UNL     1     -21.090   0.405  12.675  1.00  0.00    -0.545 OA
ATOM      8  O   UNL     1     -21.611  -0.878  14.487  1.00  0.00    -0.545 OA
ENDBRANCH   5   6
ENDBRANCH   3   4
ENDBRANCH   2   3
ENDBRANCH   1   2
BRANCH   1   9
ATOM      9  C   UNL     1     -19.939   0.458   7.320  1.00  0.00     0.000 C 
BRANCH   9  10
ATOM     10  C   UNL     1     -20.686   1.737   7.734  1.00  0.00     0.000 C 
BRANCH  10  11
ATOM     11  C   UNL     1     -21.316   1.693   9.140  1.00  0.00    -0.000 C 
BRANCH  11  12
ATOM     12  C   UNL     1     -21.742   3.076   9.675  1.00  0.00    -0.000 C 
BRANCH  12  13
ATOM     13  C   UNL     1     -21.861   4.123   8.557  1.00  0.00    -0.003 C 
ATOM     14  C   UNL     1     -21.575   5.526   9.085  1.00  0.00     0.004 C 
ENDBRANCH  12  13
ENDBRANCH  11  12
ENDBRANCH  10  11
ENDBRANCH   9  10
ENDBRANCH   1   9
TORSDOF 9
ENDMDL
