MODEL 1
REMARK VINA RESULT:    -3.457      0.000      0.000
REMARK INTER + INTRA:          -3.876
REMARK INTER:                  -3.861
REMARK INTRA:                  -0.014
REMARK UNBOUND:                -0.014
REMARK SMILES CCCC(=O)[O-]
REMARK SMILES IDX 3 1 4 2 5 3 6 4 2 5 1 6
REMARK H PARENT
REMARK Flexibility Score: inf
ROOT
ATOM      1  C   UNL     1      23.109 -15.778  13.655  1.00  0.00     0.052 C 
ENDROOT
BRANCH   1   2
ATOM      2  C   UNL     1      24.043 -15.402  14.764  1.00  0.00     0.041 C 
ATOM      3  O   UNL     1      24.910 -14.507  14.588  1.00  0.00    -0.550 OA
ATOM      4  O   UNL     1      23.933 -16.020  16.004  1.00  0.00    -0.550 OA
ENDBRANCH   1   2
BRANCH   1   5
ATOM      5  C   UNL     1      23.622 -15.293  12.293  1.00  0.00     0.003 C 
ATOM      6  C   UNL     1      23.380 -16.316  11.183  1.00  0.00     0.004 C 
ENDBRANCH   1   5
TORSDOF 2
ENDMDL
MODEL 2
REMARK VINA RESULT:    -3.409      0.106      1.324
REMARK INTER + INTRA:          -3.822
REMARK INTER:                  -3.811
REMARK INTRA:                  -0.011
REMARK UNBOUND:                -0.014
REMARK SMILES CCCC(=O)[O-]
REMARK SMILES IDX 3 1 4 2 5 3 6 4 2 5 1 6
REMARK H PARENT
REMARK Flexibility Score: inf
ROOT
ATOM      1  C   UNL     1      23.086 -15.773  13.585  1.00  0.00     0.052 C 
ENDROOT
BRANCH   1   2
ATOM      2  C   UNL     1      23.980 -15.416  14.732  1.00  0.00     0.041 C 
ATOM      3  O   UNL     1      23.833 -15.976  15.850  1.00  0.00    -0.550 OA
ATOM      4  O   UNL     1      24.998 -14.486  14.556  1.00  0.00    -0.550 OA
ENDBRANCH   1   2
BRANCH   1   5
ATOM      5  C   UNL     1      23.681 -15.329  12.242  1.00  0.00     0.003 C 
ATOM      6  C   UNL     1      23.375 -16.315  11.116  1.00  0.00     0.004 C 
ENDBRANCH   1   5
TORSDOF 2
ENDMDL
MODEL 3
REMARK VINA RESULT:    -2.988      1.990      3.277
REMARK INTER + INTRA:          -3.352
REMARK INTER:                  -3.336
REMARK INTRA:                  -0.016
REMARK UNBOUND:                -0.014
REMARK SMILES CCCC(=O)[O-]
REMARK SMILES IDX 3 1 4 2 5 3 6 4 2 5 1 6
REMARK H PARENT
REMARK Flexibility Score: inf
ROOT
ATOM      1  C   UNL     1      23.225 -15.793  13.842  1.00  0.00     0.052 C 
ENDROOT
BRANCH   1   2
ATOM      2  C   UNL     1      23.699 -15.240  12.532  1.00  0.00     0.041 C 
ATOM      3  O   UNL     1      24.424 -14.212  12.503  1.00  0.00    -0.550 OA
ATOM      4  O   UNL     1      23.363 -15.881  11.346  1.00  0.00    -0.550 OA
ENDBRANCH   1   2
BRANCH   1   5
ATOM      5  C   UNL     1      23.991 -15.186  15.024  1.00  0.00     0.003 C 
ATOM      6  C   UNL     1      24.354 -16.230  16.080  1.00  0.00     0.004 C 
ENDBRANCH   1   5
TORSDOF 2
ENDMDL
MODEL 4
REMARK VINA RESULT:    -2.969      2.733      3.671
REMARK INTER + INTRA:          -3.330
REMARK INTER:                  -3.322
REMARK INTRA:                  -0.008
REMARK UNBOUND:                -0.014
REMARK SMILES CCCC(=O)[O-]
REMARK SMILES IDX 3 1 4 2 5 3 6 4 2 5 1 6
REMARK H PARENT
REMARK Flexibility Score: inf
ROOT
ATOM      1  C   UNL     1      23.710 -15.053  12.595  1.00  0.00     0.052 C 
ENDROOT
BRANCH   1   2
ATOM      2  C   UNL     1      23.197 -15.816  11.412  1.00  0.00     0.041 C 
ATOM      3  O   UNL     1      22.482 -15.244  10.549  1.00  0.00    -0.550 OA
ATOM      4  O   UNL     1      23.537 -17.154  11.249  1.00  0.00    -0.550 OA
ENDBRANCH   1   2
BRANCH   1   5
ATOM      5  C   UNL     1      23.253 -15.682  13.918  1.00  0.00     0.003 C 
ATOM      6  C   UNL     1      24.137 -15.268  15.094  1.00  0.00     0.004 C 
ENDBRANCH   1   5
TORSDOF 2
ENDMDL
MODEL 5
REMARK VINA RESULT:    -2.749     14.623     15.369
REMARK INTER + INTRA:          -3.084
REMARK INTER:                  -3.050
REMARK INTRA:                  -0.034
REMARK UNBOUND:                -0.014
REMARK SMILES CCCC(=O)[O-]
REMARK SMILES IDX 3 1 4 2 5 3 6 4 2 5 1 6
REMARK H PARENT
REMARK Flexibility Score: inf
ROOT
ATOM      1  C   UNL     1      24.772 -13.395  -0.950  1.00  0.00     0.052 C 
ENDROOT
BRANCH   1   2
ATOM      2  C   UNL     1      26.245 -13.649  -0.835  1.00  0.00     0.041 C 
ATOM      3  O   UNL     1      26.830 -13.500   0.269  1.00  0.00    -0.550 OA
ATOM      4  O   UNL     1      26.963 -14.081  -1.943  1.00  0.00    -0.550 OA
ENDBRANCH   1   2
BRANCH   1   5
ATOM      5  C   UNL     1      24.236 -13.786  -2.333  1.00  0.00     0.003 C 
ATOM      6  C   UNL     1      23.297 -14.991  -2.272  1.00  0.00     0.004 C 
ENDBRANCH   1   5
TORSDOF 2
ENDMDL
MODEL 6
REMARK VINA RESULT:    -2.745     15.258     16.176
REMARK INTER + INTRA:          -3.080
REMARK INTER:                  -3.056
REMARK INTRA:                  -0.024
REMARK UNBOUND:                -0.014
REMARK SMILES CCCC(=O)[O-]
REMARK SMILES IDX 3 1 4 2 5 3 6 4 2 5 1 6
REMARK H PARENT
REMARK Flexibility Score: inf
ROOT
ATOM      1  C   UNL     1      24.138 -13.868  -2.591  1.00  0.00     0.052 C 
ENDROOT
BRANCH   1   2
ATOM      2  C   UNL     1      23.600 -15.259  -2.729  1.00  0.00     0.041 C 
ATOM      3  O   UNL     1      24.003 -16.006  -3.658  1.00  0.00    -0.550 OA
ATOM      4  O   UNL     1      22.675 -15.741  -1.810  1.00  0.00    -0.550 OA
ENDBRANCH   1   2
BRANCH   1   5
ATOM      5  C   UNL     1      24.359 -13.489  -1.120  1.00  0.00     0.003 C 
ATOM      6  C   UNL     1      25.840 -13.459  -0.744  1.00  0.00     0.004 C 
ENDBRANCH   1   5
TORSDOF 2
ENDMDL
MODEL 7
REMARK VINA RESULT:    -2.721     14.048     14.371
REMARK INTER + INTRA:          -3.053
REMARK INTER:                  -3.047
REMARK INTRA:                  -0.006
REMARK UNBOUND:                -0.014
REMARK SMILES CCCC(=O)[O-]
REMARK SMILES IDX 3 1 4 2 5 3 6 4 2 5 1 6
REMARK H PARENT
REMARK Flexibility Score: inf
ROOT
ATOM      1  C   UNL     1      26.972 -13.799  -0.852  1.00  0.00     0.052 C 
ENDROOT
BRANCH   1   2
ATOM      2  C   UNL     1      27.854 -14.097   0.322  1.00  0.00     0.041 C 
ATOM      3  O   UNL     1      28.350 -13.158   0.998  1.00  0.00    -0.550 OA
ATOM      4  O   UNL     1      28.102 -15.414   0.689  1.00  0.00    -0.550 OA
ENDBRANCH   1   2
BRANCH   1   5
ATOM      5  C   UNL     1      25.633 -13.189  -0.415  1.00  0.00     0.003 C 
ATOM      6  C   UNL     1      24.474 -13.631  -1.308  1.00  0.00     0.004 C 
ENDBRANCH   1   5
TORSDOF 2
ENDMDL
MODEL 8
REMARK VINA RESULT:    -2.638     14.019     14.880
REMARK INTER + INTRA:          -2.960
REMARK INTER:                  -2.941
REMARK INTRA:                  -0.020
REMARK UNBOUND:                -0.014
REMARK SMILES CCCC(=O)[O-]
REMARK SMILES IDX 3 1 4 2 5 3 6 4 2 5 1 6
REMARK H PARENT
REMARK Flexibility Score: inf
ROOT
ATOM      1  C   UNL     1      26.891 -13.767  -1.008  1.00  0.00     0.052 C 
ENDROOT
BRANCH   1   2
ATOM      2  C   UNL     1      25.447 -13.366  -0.980  1.00  0.00     0.041 C 
ATOM      3  O   UNL     1      24.988 -12.716  -0.006  1.00  0.00    -0.550 OA
ATOM      4  O   UNL     1      24.618 -13.683  -2.049  1.00  0.00    -0.550 OA
ENDBRANCH   1   2
BRANCH   1   5
ATOM      5  C   UNL     1      27.519 -13.718   0.391  1.00  0.00     0.003 C 
ATOM      6  C   UNL     1      28.219 -15.025   0.760  1.00  0.00     0.004 C 
ENDBRANCH   1   5
TORSDOF 2
ENDMDL
MODEL 9
REMARK VINA RESULT:    -2.528     16.166     17.092
REMARK INTER + INTRA:          -2.838
REMARK INTER:                  -2.830
REMARK INTRA:                  -0.008
REMARK UNBOUND:                -0.014
REMARK SMILES CCCC(=O)[O-]
REMARK SMILES IDX 3 1 4 2 5 3 6 4 2 5 1 6
REMARK H PARENT
REMARK Flexibility Score: inf
ROOT
ATOM      1  C   UNL     1      24.914 -15.061  -3.288  1.00  0.00     0.052 C 
ENDROOT
BRANCH   1   2
ATOM      2  C   UNL     1      24.538 -16.469  -3.637  1.00  0.00     0.041 C 
ATOM      3  O   UNL     1      23.365 -16.740  -4.006  1.00  0.00    -0.550 OA
ATOM      4  O   UNL     1      25.494 -17.477  -3.586  1.00  0.00    -0.550 OA
ENDBRANCH   1   2
BRANCH   1   5
ATOM      5  C   UNL     1      23.847 -14.391  -2.412  1.00  0.00     0.003 C 
ATOM      6  C   UNL     1      24.459 -13.590  -1.263  1.00  0.00     0.004 C 
ENDBRANCH   1   5
TORSDOF 2
ENDMDL
