MODEL 1
REMARK VINA RESULT:    -5.354      0.000      0.000
REMARK INTER + INTRA:         -10.883
REMARK INTER:                  -9.110
REMARK INTRA:                  -1.772
REMARK UNBOUND:                -1.772
REMARK SMILES CCCCCCCCCCCCCC(=O)[O-]
REMARK SMILES IDX 8 1 9 2 10 3 11 4 12 5 13 6 14 7 15 8 16 9 7 10 6 11 5 12
REMARK SMILES IDX 4 13 3 14 2 15 1 16
REMARK H PARENT
REMARK Flexibility Score: inf
ROOT
ATOM      1  C   UNL     1      14.161   3.008  16.748  1.00  0.00     0.000 C 
ENDROOT
BRANCH   1   2
ATOM      2  C   UNL     1      15.686   3.042  16.974  1.00  0.00     0.000 C 
BRANCH   2   3
ATOM      3  C   UNL     1      16.450   1.793  16.488  1.00  0.00     0.000 C 
BRANCH   3   4
ATOM      4  C   UNL     1      15.566   0.678  15.899  1.00  0.00     0.000 C 
BRANCH   4   5
ATOM      5  C   UNL     1      15.794   0.470  14.392  1.00  0.00     0.006 C 
BRANCH   5   6
ATOM      6  C   UNL     1      14.682   1.104  13.546  1.00  0.00     0.053 C 
BRANCH   6   7
ATOM      7  C   UNL     1      15.212   2.170  12.637  1.00  0.00     0.041 C 
ATOM      8  O   UNL     1      15.698   1.866  11.516  1.00  0.00    -0.550 OA
ATOM      9  O   UNL     1      15.142   3.505  13.019  1.00  0.00    -0.550 OA
ENDBRANCH   6   7
ENDBRANCH   5   6
ENDBRANCH   4   5
ENDBRANCH   3   4
ENDBRANCH   2   3
ENDBRANCH   1   2
BRANCH   1  10
ATOM     10  C   UNL     1      13.310   3.029  18.030  1.00  0.00     0.000 C 
BRANCH  10  11
ATOM     11  C   UNL     1      13.921   2.193  19.166  1.00  0.00    -0.000 C 
BRANCH  11  12
ATOM     12  C   UNL     1      13.610   0.693  19.029  1.00  0.00    -0.000 C 
BRANCH  12  13
ATOM     13  C   UNL     1      14.535  -0.184  19.886  1.00  0.00    -0.000 C 
BRANCH  13  14
ATOM     14  C   UNL     1      15.872   0.520  20.148  1.00  0.00    -0.000 C 
BRANCH  14  15
ATOM     15  C   UNL     1      16.998  -0.110  19.320  1.00  0.00    -0.003 C 
ATOM     16  C   UNL     1      16.644  -1.532  18.898  1.00  0.00     0.004 C 
ENDBRANCH  14  15
ENDBRANCH  13  14
ENDBRANCH  12  13
ENDBRANCH  11  12
ENDBRANCH  10  11
ENDBRANCH   1  10
TORSDOF 12
ENDMDL
MODEL 2
REMARK VINA RESULT:    -5.348      2.981      6.115
REMARK INTER + INTRA:         -10.871
REMARK INTER:                  -9.804
REMARK INTRA:                  -1.067
REMARK UNBOUND:                -1.772
REMARK SMILES CCCCCCCCCCCCCC(=O)[O-]
REMARK SMILES IDX 8 1 9 2 10 3 11 4 12 5 13 6 14 7 15 8 16 9 7 10 6 11 5 12
REMARK SMILES IDX 4 13 3 14 2 15 1 16
REMARK H PARENT
REMARK Flexibility Score: inf
ROOT
ATOM      1  C   UNL     1      15.049   2.572  14.660  1.00  0.00     0.000 C 
ENDROOT
BRANCH   1   2
ATOM      2  C   UNL     1      13.572   2.749  15.068  1.00  0.00     0.000 C 
BRANCH   2   3
ATOM      3  C   UNL     1      13.240   2.351  16.521  1.00  0.00     0.000 C 
BRANCH   3   4
ATOM      4  C   UNL     1      13.226   3.516  17.527  1.00  0.00     0.000 C 
BRANCH   4   5
ATOM      5  C   UNL     1      13.879   3.150  18.872  1.00  0.00     0.006 C 
BRANCH   5   6
ATOM      6  C   UNL     1      13.991   1.632  19.066  1.00  0.00     0.053 C 
BRANCH   6   7
ATOM      7  C   UNL     1      15.409   1.201  19.280  1.00  0.00     0.041 C 
ATOM      8  O   UNL     1      16.279   1.417  18.396  1.00  0.00    -0.550 OA
ATOM      9  O   UNL     1      15.775   0.584  20.470  1.00  0.00    -0.550 OA
ENDBRANCH   6   7
ENDBRANCH   5   6
ENDBRANCH   4   5
ENDBRANCH   3   4
ENDBRANCH   2   3
ENDBRANCH   1   2
BRANCH   1  10
ATOM     10  C   UNL     1      15.387   3.009  13.224  1.00  0.00     0.000 C 
BRANCH  10  11
ATOM     11  C   UNL     1      15.501   1.824  12.251  1.00  0.00    -0.000 C 
BRANCH  11  12
ATOM     12  C   UNL     1      16.684   1.969  11.280  1.00  0.00    -0.000 C 
BRANCH  12  13
ATOM     13  C   UNL     1      17.861   1.049  11.638  1.00  0.00    -0.000 C 
BRANCH  13  14
ATOM     14  C   UNL     1      17.411  -0.077  12.577  1.00  0.00    -0.000 C 
BRANCH  14  15
ATOM     15  C   UNL     1      18.304  -0.149  13.821  1.00  0.00    -0.003 C 
ATOM     16  C   UNL     1      17.470  -0.255  15.094  1.00  0.00     0.004 C 
ENDBRANCH  14  15
ENDBRANCH  13  14
ENDBRANCH  12  13
ENDBRANCH  11  12
ENDBRANCH  10  11
ENDBRANCH   1  10
TORSDOF 12
ENDMDL
MODEL 3
REMARK VINA RESULT:    -5.346      2.569      5.891
REMARK INTER + INTRA:         -10.869
REMARK INTER:                  -9.273
REMARK INTRA:                  -1.596
REMARK UNBOUND:                -1.772
REMARK SMILES CCCCCCCCCCCCCC(=O)[O-]
REMARK SMILES IDX 8 1 9 2 10 3 11 4 12 5 13 6 14 7 15 8 16 9 7 10 6 11 5 12
REMARK SMILES IDX 4 13 3 14 2 15 1 16
REMARK H PARENT
REMARK Flexibility Score: inf
ROOT
ATOM      1  C   UNL     1      16.932  -0.970  16.087  1.00  0.00     0.000 C 
ENDROOT
BRANCH   1   2
ATOM      2  C   UNL     1      16.610  -1.762  17.370  1.00  0.00     0.000 C 
BRANCH   2   3
ATOM      3  C   UNL     1      17.474  -1.405  18.597  1.00  0.00     0.000 C 
BRANCH   3   4
ATOM      4  C   UNL     1      17.266   0.018  19.148  1.00  0.00     0.000 C 
BRANCH   4   5
ATOM      5  C   UNL     1      15.942   0.171  19.917  1.00  0.00     0.006 C 
BRANCH   5   6
ATOM      6  C   UNL     1      15.181   1.440  19.511  1.00  0.00     0.053 C 
BRANCH   6   7
ATOM      7  C   UNL     1      13.944   1.122  18.729  1.00  0.00     0.041 C 
ATOM      8  O   UNL     1      13.234   2.049  18.258  1.00  0.00    -0.550 OA
ATOM      9  O   UNL     1      13.592  -0.202  18.495  1.00  0.00    -0.550 OA
ENDBRANCH   6   7
ENDBRANCH   5   6
ENDBRANCH   4   5
ENDBRANCH   3   4
ENDBRANCH   2   3
ENDBRANCH   1   2
BRANCH   1  10
ATOM     10  C   UNL     1      15.845   0.023  15.641  1.00  0.00     0.000 C 
BRANCH  10  11
ATOM     11  C   UNL     1      16.291   1.490  15.764  1.00  0.00    -0.000 C 
BRANCH  11  12
ATOM     12  C   UNL     1      15.162   2.480  15.433  1.00  0.00    -0.000 C 
BRANCH  12  13
ATOM     13  C   UNL     1      14.573   2.261  14.031  1.00  0.00    -0.000 C 
BRANCH  13  14
ATOM     14  C   UNL     1      15.403   2.992  12.968  1.00  0.00    -0.000 C 
BRANCH  14  15
ATOM     15  C   UNL     1      15.693   2.080  11.771  1.00  0.00    -0.003 C 
ATOM     16  C   UNL     1      16.900   1.186  12.037  1.00  0.00     0.004 C 
ENDBRANCH  14  15
ENDBRANCH  13  14
ENDBRANCH  12  13
ENDBRANCH  11  12
ENDBRANCH  10  11
ENDBRANCH   1  10
TORSDOF 12
ENDMDL
MODEL 4
REMARK VINA RESULT:    -5.337      1.537      2.308
REMARK INTER + INTRA:         -10.854
REMARK INTER:                  -9.756
REMARK INTRA:                  -1.098
REMARK UNBOUND:                -1.772
REMARK SMILES CCCCCCCCCCCCCC(=O)[O-]
REMARK SMILES IDX 8 1 9 2 10 3 11 4 12 5 13 6 14 7 15 8 16 9 7 10 6 11 5 12
REMARK SMILES IDX 4 13 3 14 2 15 1 16
REMARK H PARENT
REMARK Flexibility Score: inf
ROOT
ATOM      1  C   UNL     1      13.862   3.372  18.869  1.00  0.00     0.000 C 
ENDROOT
BRANCH   1   2
ATOM      2  C   UNL     1      13.078   3.452  17.543  1.00  0.00     0.000 C 
BRANCH   2   3
ATOM      3  C   UNL     1      13.308   2.275  16.573  1.00  0.00     0.000 C 
BRANCH   3   4
ATOM      4  C   UNL     1      13.518   2.677  15.102  1.00  0.00     0.000 C 
BRANCH   4   5
ATOM      5  C   UNL     1      14.998   2.644  14.681  1.00  0.00     0.006 C 
BRANCH   5   6
ATOM      6  C   UNL     1      15.197   3.103  13.230  1.00  0.00     0.053 C 
BRANCH   6   7
ATOM      7  C   UNL     1      15.833   2.037  12.391  1.00  0.00     0.041 C 
ATOM      8  O   UNL     1      15.822   2.126  11.135  1.00  0.00    -0.550 OA
ATOM      9  O   UNL     1      16.464   0.959  13.000  1.00  0.00    -0.550 OA
ENDBRANCH   6   7
ENDBRANCH   5   6
ENDBRANCH   4   5
ENDBRANCH   3   4
ENDBRANCH   2   3
ENDBRANCH   1   2
BRANCH   1  10
ATOM     10  C   UNL     1      14.782   2.147  19.011  1.00  0.00     0.000 C 
BRANCH  10  11
ATOM     11  C   UNL     1      14.670   1.473  20.389  1.00  0.00    -0.000 C 
BRANCH  11  12
ATOM     12  C   UNL     1      15.478   0.169  20.477  1.00  0.00    -0.000 C 
BRANCH  12  13
ATOM     13  C   UNL     1      16.402  -0.038  19.267  1.00  0.00    -0.000 C 
BRANCH  13  14
ATOM     14  C   UNL     1      16.573  -1.530  18.956  1.00  0.00    -0.000 C 
BRANCH  14  15
ATOM     15  C   UNL     1      16.138  -1.848  17.521  1.00  0.00    -0.003 C 
ATOM     16  C   UNL     1      15.888  -0.571  16.725  1.00  0.00     0.004 C 
ENDBRANCH  14  15
ENDBRANCH  13  14
ENDBRANCH  12  13
ENDBRANCH  11  12
ENDBRANCH  10  11
ENDBRANCH   1  10
TORSDOF 12
ENDMDL
MODEL 5
REMARK VINA RESULT:    -5.328      2.619      5.644
REMARK INTER + INTRA:         -10.839
REMARK INTER:                 -10.080
REMARK INTRA:                  -0.759
REMARK UNBOUND:                -1.772
REMARK SMILES CCCCCCCCCCCCCC(=O)[O-]
REMARK SMILES IDX 8 1 9 2 10 3 11 4 12 5 13 6 14 7 15 8 16 9 7 10 6 11 5 12
REMARK SMILES IDX 4 13 3 14 2 15 1 16
REMARK H PARENT
REMARK Flexibility Score: inf
ROOT
ATOM      1  C   UNL     1      13.291   3.129  18.234  1.00  0.00     0.000 C 
ENDROOT
BRANCH   1   2
ATOM      2  C   UNL     1      13.697   1.702  18.652  1.00  0.00     0.000 C 
BRANCH   2   3
ATOM      3  C   UNL     1      14.727   1.620  19.797  1.00  0.00     0.000 C 
BRANCH   3   4
ATOM      4  C   UNL     1      15.171   0.195  20.173  1.00  0.00     0.000 C 
BRANCH   4   5
ATOM      5  C   UNL     1      16.578  -0.147  19.651  1.00  0.00     0.006 C 
BRANCH   5   6
ATOM      6  C   UNL     1      16.608  -1.490  18.908  1.00  0.00     0.053 C 
BRANCH   6   7
ATOM      7  C   UNL     1      15.630  -1.521  17.774  1.00  0.00     0.041 C 
ATOM      8  O   UNL     1      14.597  -2.237  17.845  1.00  0.00    -0.550 OA
ATOM      9  O   UNL     1      15.846  -0.735  16.649  1.00  0.00    -0.550 OA
ENDBRANCH   6   7
ENDBRANCH   5   6
ENDBRANCH   4   5
ENDBRANCH   3   4
ENDBRANCH   2   3
ENDBRANCH   1   2
BRANCH   1  10
ATOM     10  C   UNL     1      13.092   3.336  16.722  1.00  0.00     0.000 C 
BRANCH  10  11
ATOM     11  C   UNL     1      13.711   2.209  15.879  1.00  0.00    -0.000 C 
BRANCH  11  12
ATOM     12  C   UNL     1      15.113   2.563  15.358  1.00  0.00    -0.000 C 
BRANCH  12  13
ATOM     13  C   UNL     1      15.113   2.947  13.871  1.00  0.00    -0.000 C 
BRANCH  13  14
ATOM     14  C   UNL     1      15.464   1.739  12.993  1.00  0.00    -0.000 C 
BRANCH  14  15
ATOM     15  C   UNL     1      15.848   2.179  11.576  1.00  0.00    -0.003 C 
ATOM     16  C   UNL     1      17.057   1.403  11.065  1.00  0.00     0.004 C 
ENDBRANCH  14  15
ENDBRANCH  13  14
ENDBRANCH  12  13
ENDBRANCH  11  12
ENDBRANCH  10  11
ENDBRANCH   1  10
TORSDOF 12
ENDMDL
MODEL 6
REMARK VINA RESULT:    -5.322      0.936      3.273
REMARK INTER + INTRA:         -10.828
REMARK INTER:                  -9.090
REMARK INTRA:                  -1.738
REMARK UNBOUND:                -1.772
REMARK SMILES CCCCCCCCCCCCCC(=O)[O-]
REMARK SMILES IDX 8 1 9 2 10 3 11 4 12 5 13 6 14 7 15 8 16 9 7 10 6 11 5 12
REMARK SMILES IDX 4 13 3 14 2 15 1 16
REMARK H PARENT
REMARK Flexibility Score: inf
ROOT
ATOM      1  C   UNL     1      17.224  -1.842  17.116  1.00  0.00     0.000 C 
ENDROOT
BRANCH   1   2
ATOM      2  C   UNL     1      16.198  -1.112  16.226  1.00  0.00     0.000 C 
BRANCH   2   3
ATOM      3  C   UNL     1      16.774   0.019  15.351  1.00  0.00     0.000 C 
BRANCH   3   4
ATOM      4  C   UNL     1      16.224   1.424  15.658  1.00  0.00     0.000 C 
BRANCH   4   5
ATOM      5  C   UNL     1      14.810   1.648  15.093  1.00  0.00     0.006 C 
BRANCH   5   6
ATOM      6  C   UNL     1      14.679   1.149  13.648  1.00  0.00     0.053 C 
BRANCH   6   7
ATOM      7  C   UNL     1      15.205   2.148  12.664  1.00  0.00     0.041 C 
ATOM      8  O   UNL     1      15.725   1.763  11.584  1.00  0.00    -0.550 OA
ATOM      9  O   UNL     1      15.093   3.508  12.929  1.00  0.00    -0.550 OA
ENDBRANCH   6   7
ENDBRANCH   5   6
ENDBRANCH   4   5
ENDBRANCH   3   4
ENDBRANCH   2   3
ENDBRANCH   1   2
BRANCH   1  10
ATOM     10  C   UNL     1      17.103  -1.557  18.623  1.00  0.00     0.000 C 
BRANCH  10  11
ATOM     11  C   UNL     1      17.265  -0.066  18.963  1.00  0.00    -0.000 C 
BRANCH  11  12
ATOM     12  C   UNL     1      16.133   0.461  19.861  1.00  0.00    -0.000 C 
BRANCH  12  13
ATOM     13  C   UNL     1      14.776  -0.186  19.546  1.00  0.00    -0.000 C 
BRANCH  13  14
ATOM     14  C   UNL     1      13.959   0.691  18.590  1.00  0.00    -0.000 C 
BRANCH  14  15
ATOM     15  C   UNL     1      14.311   2.173  18.764  1.00  0.00    -0.003 C 
ATOM     16  C   UNL     1      13.171   3.070  18.292  1.00  0.00     0.004 C 
ENDBRANCH  14  15
ENDBRANCH  13  14
ENDBRANCH  12  13
ENDBRANCH  11  12
ENDBRANCH  10  11
ENDBRANCH   1  10
TORSDOF 12
ENDMDL
MODEL 7
REMARK VINA RESULT:    -5.311      1.330      3.275
REMARK INTER + INTRA:         -10.809
REMARK INTER:                  -9.240
REMARK INTRA:                  -1.569
REMARK UNBOUND:                -1.772
REMARK SMILES CCCCCCCCCCCCCC(=O)[O-]
REMARK SMILES IDX 8 1 9 2 10 3 11 4 12 5 13 6 14 7 15 8 16 9 7 10 6 11 5 12
REMARK SMILES IDX 4 13 3 14 2 15 1 16
REMARK H PARENT
REMARK Flexibility Score: inf
ROOT
ATOM      1  C   UNL     1      15.009   1.509  20.116  1.00  0.00     0.000 C 
ENDROOT
BRANCH   1   2
ATOM      2  C   UNL     1      14.136   1.675  18.855  1.00  0.00     0.000 C 
BRANCH   2   3
ATOM      3  C   UNL     1      14.250   3.044  18.154  1.00  0.00     0.000 C 
BRANCH   3   4
ATOM      4  C   UNL     1      13.101   3.376  17.184  1.00  0.00     0.000 C 
BRANCH   4   5
ATOM      5  C   UNL     1      13.251   2.676  15.822  1.00  0.00     0.006 C 
BRANCH   5   6
ATOM      6  C   UNL     1      14.696   2.714  15.308  1.00  0.00     0.053 C 
BRANCH   6   7
ATOM      7  C   UNL     1      14.778   2.380  13.850  1.00  0.00     0.041 C 
ATOM      8  O   UNL     1      14.475   1.227  13.444  1.00  0.00    -0.550 OA
ATOM      9  O   UNL     1      15.162   3.353  12.935  1.00  0.00    -0.550 OA
ENDBRANCH   6   7
ENDBRANCH   5   6
ENDBRANCH   4   5
ENDBRANCH   3   4
ENDBRANCH   2   3
ENDBRANCH   1   2
BRANCH   1  10
ATOM     10  C   UNL     1      15.993   0.326  20.077  1.00  0.00     0.000 C 
BRANCH  10  11
ATOM     11  C   UNL     1      15.487  -0.844  19.217  1.00  0.00    -0.000 C 
BRANCH  11  12
ATOM     12  C   UNL     1      16.621  -1.777  18.763  1.00  0.00    -0.000 C 
BRANCH  12  13
ATOM     13  C   UNL     1      16.688  -1.929  17.236  1.00  0.00    -0.000 C 
BRANCH  13  14
ATOM     14  C   UNL     1      16.091  -0.702  16.536  1.00  0.00    -0.000 C 
BRANCH  14  15
ATOM     15  C   UNL     1      17.191   0.174  15.926  1.00  0.00    -0.003 C 
ATOM     16  C   UNL     1      17.721   1.181  16.942  1.00  0.00     0.004 C 
ENDBRANCH  14  15
ENDBRANCH  13  14
ENDBRANCH  12  13
ENDBRANCH  11  12
ENDBRANCH  10  11
ENDBRANCH   1  10
TORSDOF 12
ENDMDL
MODEL 8
REMARK VINA RESULT:    -5.310      1.119      3.243
REMARK INTER + INTRA:         -10.808
REMARK INTER:                  -9.374
REMARK INTRA:                  -1.433
REMARK UNBOUND:                -1.772
REMARK SMILES CCCCCCCCCCCCCC(=O)[O-]
REMARK SMILES IDX 8 1 9 2 10 3 11 4 12 5 13 6 14 7 15 8 16 9 7 10 6 11 5 12
REMARK SMILES IDX 4 13 3 14 2 15 1 16
REMARK H PARENT
REMARK Flexibility Score: inf
ROOT
ATOM      1  C   UNL     1      17.749   0.246  18.919  1.00  0.00     0.000 C 
ENDROOT
BRANCH   1   2
ATOM      2  C   UNL     1      17.622   0.958  17.557  1.00  0.00     0.000 C 
BRANCH   2   3
ATOM      3  C   UNL     1      17.340   0.033  16.356  1.00  0.00     0.000 C 
BRANCH   3   4
ATOM      4  C   UNL     1      15.922   0.145  15.766  1.00  0.00     0.000 C 
BRANCH   4   5
ATOM      5  C   UNL     1      15.734   1.405  14.903  1.00  0.00     0.006 C 
BRANCH   5   6
ATOM      6  C   UNL     1      16.062   1.149  13.426  1.00  0.00     0.053 C 
BRANCH   6   7
ATOM      7  C   UNL     1      15.642   2.293  12.556  1.00  0.00     0.041 C 
ATOM      8  O   UNL     1      15.131   3.325  13.065  1.00  0.00    -0.550 OA
ATOM      9  O   UNL     1      15.840   2.229  11.182  1.00  0.00    -0.550 OA
ENDBRANCH   6   7
ENDBRANCH   5   6
ENDBRANCH   4   5
ENDBRANCH   3   4
ENDBRANCH   2   3
ENDBRANCH   1   2
BRANCH   1  10
ATOM     10  C   UNL     1      16.863  -1.001  19.090  1.00  0.00     0.000 C 
BRANCH  10  11
ATOM     11  C   UNL     1      15.447  -0.662  19.586  1.00  0.00    -0.000 C 
BRANCH  11  12
ATOM     12  C   UNL     1      15.421   0.575  20.498  1.00  0.00    -0.000 C 
BRANCH  12  13
ATOM     13  C   UNL     1      14.668   1.758  19.871  1.00  0.00    -0.000 C 
BRANCH  13  14
ATOM     14  C   UNL     1      13.944   1.330  18.589  1.00  0.00    -0.000 C 
BRANCH  14  15
ATOM     15  C   UNL     1      13.409   2.546  17.825  1.00  0.00    -0.003 C 
ATOM     16  C   UNL     1      13.668   3.838  18.594  1.00  0.00     0.004 C 
ENDBRANCH  14  15
ENDBRANCH  13  14
ENDBRANCH  12  13
ENDBRANCH  11  12
ENDBRANCH  10  11
ENDBRANCH   1  10
TORSDOF 12
ENDMDL
MODEL 9
REMARK VINA RESULT:    -5.254      1.800      2.256
REMARK INTER + INTRA:         -10.713
REMARK INTER:                  -9.450
REMARK INTRA:                  -1.262
REMARK UNBOUND:                -1.772
REMARK SMILES CCCCCCCCCCCCCC(=O)[O-]
REMARK SMILES IDX 8 1 9 2 10 3 11 4 12 5 13 6 14 7 15 8 16 9 7 10 6 11 5 12
REMARK SMILES IDX 4 13 3 14 2 15 1 16
REMARK H PARENT
REMARK Flexibility Score: inf
ROOT
ATOM      1  C   UNL     1      13.210   2.429  16.241  1.00  0.00     0.000 C 
ENDROOT
BRANCH   1   2
ATOM      2  C   UNL     1      13.947   2.656  14.905  1.00  0.00     0.000 C 
BRANCH   2   3
ATOM      3  C   UNL     1      15.486   2.594  14.986  1.00  0.00     0.000 C 
BRANCH   3   4
ATOM      4  C   UNL     1      16.044   1.621  16.040  1.00  0.00     0.000 C 
BRANCH   4   5
ATOM      5  C   UNL     1      16.653   0.353  15.417  1.00  0.00     0.006 C 
BRANCH   5   6
ATOM      6  C   UNL     1      16.552   0.355  13.886  1.00  0.00     0.053 C 
BRANCH   6   7
ATOM      7  C   UNL     1      17.878   0.100  13.239  1.00  0.00     0.041 C 
ATOM      8  O   UNL     1      18.100   0.494  12.064  1.00  0.00    -0.550 OA
ATOM      9  O   UNL     1      18.882  -0.551  13.947  1.00  0.00    -0.550 OA
ENDBRANCH   6   7
ENDBRANCH   5   6
ENDBRANCH   4   5
ENDBRANCH   3   4
ENDBRANCH   2   3
ENDBRANCH   1   2
BRANCH   1  10
ATOM     10  C   UNL     1      13.020   3.689  17.104  1.00  0.00     0.000 C 
BRANCH  10  11
ATOM     11  C   UNL     1      13.372   3.457  18.583  1.00  0.00    -0.000 C 
BRANCH  11  12
ATOM     12  C   UNL     1      13.749   1.997  18.878  1.00  0.00    -0.000 C 
BRANCH  12  13
ATOM     13  C   UNL     1      14.710   1.861  20.069  1.00  0.00    -0.000 C 
BRANCH  13  14
ATOM     14  C   UNL     1      15.175   0.410  20.237  1.00  0.00    -0.000 C 
BRANCH  14  15
ATOM     15  C   UNL     1      16.505   0.169  19.514  1.00  0.00    -0.003 C 
ATOM     16  C   UNL     1      16.632  -1.281  19.059  1.00  0.00     0.004 C 
ENDBRANCH  14  15
ENDBRANCH  13  14
ENDBRANCH  12  13
ENDBRANCH  11  12
ENDBRANCH  10  11
ENDBRANCH   1  10
TORSDOF 12
ENDMDL
