MODEL 1
REMARK VINA RESULT:    -4.402      0.000      0.000
REMARK INTER + INTRA:          -6.931
REMARK INTER:                  -6.718
REMARK INTRA:                  -0.213
REMARK UNBOUND:                -0.213
REMARK SMILES CC1=CCC[C@H](C)C(=O)C[C@H](C(C)C)C(=O)C1
REMARK SMILES IDX 8 1 9 2 6 3 7 4 5 5 4 6 3 7 2 8 1 9 10 11 11 12 15 13 16 14
REMARK SMILES IDX 17 15 12 17 13 18 14 19
REMARK H PARENT
REMARK Flexibility Score: 70.00
ROOT
ATOM      1  C   UNL     1      14.258 -33.173  20.887  1.00  0.00     0.136 C 
ATOM      2  O   UNL     1      13.808 -33.183  19.751  1.00  0.00    -0.299 OA
ENDROOT
BRANCH   1   3
ATOM      3  C   UNL     1      13.870 -32.037  21.819  1.00  0.00     0.053 C 
ATOM      4  C   UNL     1      14.111 -32.434  23.279  1.00  0.00     0.016 C 
BRANCH   3   5
ATOM      5  C   UNL     1      14.604 -30.724  21.476  1.00  0.00     0.015 C 
BRANCH   5   6
ATOM      6  C   UNL     1      15.667 -30.372  22.532  1.00  0.00     0.028 C 
BRANCH   6   7
ATOM      7  C   UNL     1      17.078 -30.465  22.009  1.00  0.00    -0.028 C 
ATOM      8  C   UNL     1      17.935 -31.500  22.202  1.00  0.00    -0.070 CG0
ATOM      9  C   UNL     1      19.258 -31.445  21.477  1.00  0.00     0.039 C 
ATOM     10  G   UNL     1      17.682 -32.666  23.156  1.00  0.00     0.000 G0
ENDBRANCH   6   7
ENDBRANCH   5   6
ENDBRANCH   3   5
ENDBRANCH   1   3
BRANCH   1  11
ATOM     11  C   UNL     1      15.135 -34.322  21.335  1.00  0.00     0.087 C 
BRANCH  11  12
ATOM     12  C   UNL     1      16.650 -34.046  21.132  1.00  0.00     0.066 C 
BRANCH  12  13
ATOM     13  C   UNL     1      17.394 -33.998  22.462  1.00  0.00     0.140 C 
ATOM     14  O   UNL     1      17.633 -35.045  23.045  1.00  0.00    -0.299 OA
BRANCH  13  15
ATOM     15  C   UNL     1      17.691 -32.683  23.148  1.00  0.00     0.106 CG0
ATOM     16  G   UNL     1      17.926 -31.504  22.207  1.00  0.00     0.000 G0
ENDBRANCH  13  15
ENDBRANCH  12  13
BRANCH  12  17
ATOM     17  C   UNL     1      17.323 -35.077  20.167  1.00  0.00    -0.006 C 
ATOM     18  C   UNL     1      18.003 -34.369  18.980  1.00  0.00     0.008 C 
ATOM     19  C   UNL     1      16.322 -36.110  19.617  1.00  0.00     0.008 C 
ENDBRANCH  12  17
ENDBRANCH  11  12
ENDBRANCH   1  11
TORSDOF 1
ENDMDL
MODEL 2
REMARK VINA RESULT:    -4.401      2.043      4.473
REMARK INTER + INTRA:          -6.930
REMARK INTER:                  -6.489
REMARK INTRA:                  -0.441
REMARK UNBOUND:                -0.213
REMARK SMILES CC1=CCC[C@H](C)C(=O)C[C@H](C(C)C)C(=O)C1
REMARK SMILES IDX 8 1 9 2 6 3 7 4 5 5 4 6 3 7 2 8 1 9 10 11 11 12 15 13 16 14
REMARK SMILES IDX 17 15 12 17 13 18 14 19
REMARK H PARENT
REMARK Flexibility Score: 70.00
ROOT
ATOM      1  C   UNL     1      17.632 -31.134  22.829  1.00  0.00     0.136 C 
ATOM      2  O   UNL     1      18.531 -31.314  23.636  1.00  0.00    -0.299 OA
ENDROOT
BRANCH   1   3
ATOM      3  C   UNL     1      17.995 -30.836  21.383  1.00  0.00     0.053 C 
ATOM      4  C   UNL     1      18.465 -29.385  21.237  1.00  0.00     0.016 C 
BRANCH   3   5
ATOM      5  C   UNL     1      19.050 -31.817  20.831  1.00  0.00     0.015 C 
BRANCH   5   6
ATOM      6  C   UNL     1      18.425 -33.167  20.438  1.00  0.00     0.028 C 
BRANCH   6   7
ATOM      7  C   UNL     1      18.609 -34.236  21.485  1.00  0.00    -0.028 C 
ATOM      8  C   UNL     1      17.623 -34.975  22.053  1.00  0.00    -0.070 CG0
ATOM      9  C   UNL     1      18.044 -36.085  22.987  1.00  0.00     0.039 C 
ATOM     10  G   UNL     1      16.130 -34.710  21.873  1.00  0.00     0.000 G0
ENDBRANCH   6   7
ENDBRANCH   5   6
ENDBRANCH   3   5
ENDBRANCH   1   3
BRANCH   1  11
ATOM     11  C   UNL     1      16.197 -31.274  23.290  1.00  0.00     0.087 C 
BRANCH  11  12
ATOM     12  C   UNL     1      15.359 -32.224  22.390  1.00  0.00     0.066 C 
BRANCH  12  13
ATOM     13  C   UNL     1      15.516 -33.680  22.814  1.00  0.00     0.140 C 
ATOM     14  O   UNL     1      15.284 -33.987  23.974  1.00  0.00    -0.299 OA
BRANCH  13  15
ATOM     15  C   UNL     1      16.107 -34.711  21.879  1.00  0.00     0.106 CG0
ATOM     16  G   UNL     1      17.604 -34.959  22.057  1.00  0.00     0.000 G0
ENDBRANCH  13  15
ENDBRANCH  12  13
BRANCH  12  17
ATOM     17  C   UNL     1      13.846 -31.827  22.346  1.00  0.00    -0.006 C 
ATOM     18  C   UNL     1      13.478 -31.182  20.997  1.00  0.00     0.008 C 
ATOM     19  C   UNL     1      13.457 -30.859  23.479  1.00  0.00     0.008 C 
ENDBRANCH  12  17
ENDBRANCH  11  12
ENDBRANCH   1  11
TORSDOF 1
ENDMDL
MODEL 3
REMARK VINA RESULT:    -4.393      1.861      4.210
REMARK INTER + INTRA:          -6.918
REMARK INTER:                  -6.807
REMARK INTRA:                  -0.112
REMARK UNBOUND:                -0.213
REMARK SMILES CC1=CCC[C@H](C)C(=O)C[C@H](C(C)C)C(=O)C1
REMARK SMILES IDX 8 1 9 2 6 3 7 4 5 5 4 6 3 7 2 8 1 9 10 11 11 12 15 13 16 14
REMARK SMILES IDX 17 15 12 17 13 18 14 19
REMARK H PARENT
REMARK Flexibility Score: 70.00
ROOT
ATOM      1  C   UNL     1      15.110 -33.767  22.534  1.00  0.00     0.136 C 
ATOM      2  O   UNL     1      15.283 -34.013  23.717  1.00  0.00    -0.299 OA
ENDROOT
BRANCH   1   3
ATOM      3  C   UNL     1      15.768 -34.660  21.495  1.00  0.00     0.053 C 
ATOM      4  C   UNL     1      14.986 -34.618  20.178  1.00  0.00     0.016 C 
BRANCH   3   5
ATOM      5  C   UNL     1      17.250 -34.298  21.268  1.00  0.00     0.015 C 
BRANCH   5   6
ATOM      6  C   UNL     1      17.420 -33.271  20.135  1.00  0.00     0.028 C 
BRANCH   6   7
ATOM      7  C   UNL     1      18.323 -32.122  20.504  1.00  0.00    -0.028 C 
ATOM      8  C   UNL     1      17.944 -30.975  21.124  1.00  0.00    -0.070 CG0
ATOM      9  C   UNL     1      19.037 -30.011  21.518  1.00  0.00     0.039 C 
ATOM     10  G   UNL     1      16.494 -30.567  21.375  1.00  0.00     0.000 G0
ENDBRANCH   6   7
ENDBRANCH   5   6
ENDBRANCH   3   5
ENDBRANCH   1   3
BRANCH   1  11
ATOM     11  C   UNL     1      14.200 -32.619  22.153  1.00  0.00     0.087 C 
BRANCH  11  12
ATOM     12  C   UNL     1      14.494 -31.319  22.953  1.00  0.00     0.066 C 
BRANCH  12  13
ATOM     13  C   UNL     1      15.933 -30.854  22.755  1.00  0.00     0.140 C 
ATOM     14  O   UNL     1      16.615 -30.603  23.739  1.00  0.00    -0.299 OA
BRANCH  13  15
ATOM     15  C   UNL     1      16.476 -30.542  21.379  1.00  0.00     0.106 CG0
ATOM     16  G   UNL     1      17.921 -30.977  21.143  1.00  0.00     0.000 G0
ENDBRANCH  13  15
ENDBRANCH  12  13
BRANCH  12  17
ATOM     17  C   UNL     1      13.495 -30.165  22.610  1.00  0.00    -0.006 C 
ATOM     18  C   UNL     1      12.979 -29.478  23.888  1.00  0.00     0.008 C 
ATOM     19  C   UNL     1      12.287 -30.655  21.791  1.00  0.00     0.008 C 
ENDBRANCH  12  17
ENDBRANCH  11  12
ENDBRANCH   1  11
TORSDOF 1
ENDMDL
MODEL 4
REMARK VINA RESULT:    -4.302      1.673      4.401
REMARK INTER + INTRA:          -6.778
REMARK INTER:                  -6.272
REMARK INTRA:                  -0.506
REMARK UNBOUND:                -0.213
REMARK SMILES CC1=CCC[C@H](C)C(=O)C[C@H](C(C)C)C(=O)C1
REMARK SMILES IDX 8 1 9 2 6 3 7 4 5 5 4 6 3 7 2 8 1 9 10 11 11 12 15 13 16 14
REMARK SMILES IDX 17 15 12 17 13 18 14 19
REMARK H PARENT
REMARK Flexibility Score: 70.00
ROOT
ATOM      1  C   UNL     1      15.578 -33.574  20.539  1.00  0.00     0.136 C 
ATOM      2  O   UNL     1      14.362 -33.665  20.597  1.00  0.00    -0.299 OA
ENDROOT
BRANCH   1   3
ATOM      3  C   UNL     1      16.349 -34.587  19.709  1.00  0.00     0.053 C 
ATOM      4  C   UNL     1      17.706 -34.012  19.286  1.00  0.00     0.016 C 
BRANCH   3   5
ATOM      5  C   UNL     1      16.525 -35.932  20.442  1.00  0.00     0.015 C 
BRANCH   5   6
ATOM      6  C   UNL     1      17.921 -36.058  21.078  1.00  0.00     0.028 C 
BRANCH   6   7
ATOM      7  C   UNL     1      17.882 -36.175  22.581  1.00  0.00    -0.028 C 
ATOM      8  C   UNL     1      17.948 -35.145  23.463  1.00  0.00    -0.070 CG0
ATOM      9  C   UNL     1      17.759 -35.477  24.924  1.00  0.00     0.039 C 
ATOM     10  G   UNL     1      18.275 -33.702  23.086  1.00  0.00     0.000 G0
ENDBRANCH   6   7
ENDBRANCH   5   6
ENDBRANCH   3   5
ENDBRANCH   1   3
BRANCH   1  11
ATOM     11  C   UNL     1      16.259 -32.424  21.248  1.00  0.00     0.087 C 
BRANCH  11  12
ATOM     12  C   UNL     1      15.992 -32.411  22.779  1.00  0.00     0.066 C 
BRANCH  12  13
ATOM     13  C   UNL     1      17.267 -32.678  23.572  1.00  0.00     0.140 C 
ATOM     14  O   UNL     1      17.534 -31.960  24.525  1.00  0.00    -0.299 OA
BRANCH  13  15
ATOM     15  C   UNL     1      18.282 -33.698  23.107  1.00  0.00     0.106 CG0
ATOM     16  G   UNL     1      17.960 -35.143  23.479  1.00  0.00     0.000 G0
ENDBRANCH  13  15
ENDBRANCH  12  13
BRANCH  12  17
ATOM     17  C   UNL     1      15.319 -31.082  23.258  1.00  0.00    -0.006 C 
ATOM     18  C   UNL     1      13.814 -31.282  23.517  1.00  0.00     0.008 C 
ATOM     19  C   UNL     1      15.497 -29.933  22.249  1.00  0.00     0.008 C 
ENDBRANCH  12  17
ENDBRANCH  11  12
ENDBRANCH   1  11
TORSDOF 1
ENDMDL
MODEL 5
REMARK VINA RESULT:    -4.273      2.050      4.633
REMARK INTER + INTRA:          -6.735
REMARK INTER:                  -6.307
REMARK INTRA:                  -0.428
REMARK UNBOUND:                -0.213
REMARK SMILES CC1=CCC[C@H](C)C(=O)C[C@H](C(C)C)C(=O)C1
REMARK SMILES IDX 8 1 9 2 6 3 7 4 5 5 4 6 3 7 2 8 1 9 10 11 11 12 15 13 16 14
REMARK SMILES IDX 17 15 12 17 13 18 14 19
REMARK H PARENT
REMARK Flexibility Score: 70.00
ROOT
ATOM      1  C   UNL     1      16.914 -32.473  24.019  1.00  0.00     0.136 C 
ATOM      2  O   UNL     1      17.340 -31.343  23.832  1.00  0.00    -0.299 OA
ENDROOT
BRANCH   1   3
ATOM      3  C   UNL     1      17.781 -33.466  24.775  1.00  0.00     0.053 C 
ATOM      4  C   UNL     1      16.911 -34.524  25.462  1.00  0.00     0.016 C 
BRANCH   3   5
ATOM      5  C   UNL     1      18.839 -34.127  23.867  1.00  0.00     0.015 C 
BRANCH   5   6
ATOM      6  C   UNL     1      18.239 -35.270  23.029  1.00  0.00     0.028 C 
BRANCH   6   7
ATOM      7  C   UNL     1      18.259 -34.995  21.547  1.00  0.00    -0.028 C 
ATOM      8  C   UNL     1      17.188 -34.663  20.782  1.00  0.00    -0.070 CG0
ATOM      9  C   UNL     1      17.457 -34.302  19.340  1.00  0.00     0.039 C 
ATOM     10  G   UNL     1      15.738 -34.707  21.258  1.00  0.00     0.000 G0
ENDBRANCH   6   7
ENDBRANCH   5   6
ENDBRANCH   3   5
ENDBRANCH   1   3
BRANCH   1  11
ATOM     11  C   UNL     1      15.520 -32.816  23.542  1.00  0.00     0.087 C 
BRANCH  11  12
ATOM     12  C   UNL     1      15.211 -32.267  22.121  1.00  0.00     0.066 C 
BRANCH  12  13
ATOM     13  C   UNL     1      14.989 -33.397  21.121  1.00  0.00     0.140 C 
ATOM     14  O   UNL     1      14.097 -33.287  20.292  1.00  0.00    -0.299 OA
BRANCH  13  15
ATOM     15  C   UNL     1      15.734 -34.707  21.238  1.00  0.00     0.106 CG0
ATOM     16  G   UNL     1      17.187 -34.667  20.772  1.00  0.00     0.000 G0
ENDBRANCH  13  15
ENDBRANCH  12  13
BRANCH  12  17
ATOM     17  C   UNL     1      13.997 -31.281  22.110  1.00  0.00    -0.006 C 
ATOM     18  C   UNL     1      14.406 -29.900  21.564  1.00  0.00     0.008 C 
ATOM     19  C   UNL     1      13.376 -31.095  23.507  1.00  0.00     0.008 C 
ENDBRANCH  12  17
ENDBRANCH  11  12
ENDBRANCH   1  11
TORSDOF 1
ENDMDL
MODEL 6
REMARK VINA RESULT:    -4.251      1.558      3.764
REMARK INTER + INTRA:          -6.700
REMARK INTER:                  -6.541
REMARK INTRA:                  -0.160
REMARK UNBOUND:                -0.213
REMARK SMILES CC1=CCC[C@H](C)C(=O)C[C@H](C(C)C)C(=O)C1
REMARK SMILES IDX 8 1 9 2 6 3 7 4 5 5 4 6 3 7 2 8 1 9 10 11 11 12 15 13 16 14
REMARK SMILES IDX 17 15 12 17 13 18 14 19
REMARK H PARENT
REMARK Flexibility Score: 70.00
ROOT
ATOM      1  C   UNL     1      18.192 -32.239  21.742  1.00  0.00     0.136 C 
ATOM      2  O   UNL     1      18.765 -33.129  22.351  1.00  0.00    -0.299 OA
ENDROOT
BRANCH   1   3
ATOM      3  C   UNL     1      18.432 -30.797  22.158  1.00  0.00     0.053 C 
ATOM      4  C   UNL     1      19.660 -30.228  21.439  1.00  0.00     0.016 C 
BRANCH   3   5
ATOM      5  C   UNL     1      17.194 -29.906  21.922  1.00  0.00     0.015 C 
BRANCH   5   6
ATOM      6  C   UNL     1      16.045 -30.260  22.883  1.00  0.00     0.028 C 
BRANCH   6   7
ATOM      7  C   UNL     1      14.708 -30.372  22.196  1.00  0.00    -0.028 C 
ATOM      8  C   UNL     1      14.013 -31.519  21.984  1.00  0.00    -0.070 CG0
ATOM      9  C   UNL     1      12.630 -31.387  21.392  1.00  0.00     0.039 C 
ATOM     10  G   UNL     1      14.564 -32.922  22.229  1.00  0.00     0.000 G0
ENDBRANCH   6   7
ENDBRANCH   5   6
ENDBRANCH   3   5
ENDBRANCH   1   3
BRANCH   1  11
ATOM     11  C   UNL     1      17.315 -32.605  20.565  1.00  0.00     0.087 C 
BRANCH  11  12
ATOM     12  C   UNL     1      16.536 -33.933  20.778  1.00  0.00     0.066 C 
BRANCH  12  13
ATOM     13  C   UNL     1      15.050 -33.679  21.006  1.00  0.00     0.140 C 
ATOM     14  O   UNL     1      14.258 -33.956  20.116  1.00  0.00    -0.299 OA
BRANCH  13  15
ATOM     15  C   UNL     1      14.557 -32.946  22.233  1.00  0.00     0.106 CG0
ATOM     16  G   UNL     1      14.027 -31.538  21.973  1.00  0.00     0.000 G0
ENDBRANCH  13  15
ENDBRANCH  12  13
BRANCH  12  17
ATOM     17  C   UNL     1      16.744 -34.945  19.604  1.00  0.00    -0.006 C 
ATOM     18  C   UNL     1      17.181 -36.326  20.129  1.00  0.00     0.008 C 
ATOM     19  C   UNL     1      17.784 -34.455  18.580  1.00  0.00     0.008 C 
ENDBRANCH  12  17
ENDBRANCH  11  12
ENDBRANCH   1  11
TORSDOF 1
ENDMDL
MODEL 7
REMARK VINA RESULT:    -4.138      2.112      3.985
REMARK INTER + INTRA:          -6.529
REMARK INTER:                  -6.483
REMARK INTRA:                  -0.046
REMARK UNBOUND:                -0.213
REMARK SMILES CC1=CCC[C@H](C)C(=O)C[C@H](C(C)C)C(=O)C1
REMARK SMILES IDX 8 1 9 2 6 3 7 4 5 5 4 6 3 7 2 8 1 9 10 11 11 12 15 13 16 14
REMARK SMILES IDX 17 15 12 17 13 18 14 19
REMARK H PARENT
REMARK Flexibility Score: 70.00
ROOT
ATOM      1  C   UNL     1      17.696 -35.354  22.962  1.00  0.00     0.136 C 
ATOM      2  O   UNL     1      18.357 -36.370  22.814  1.00  0.00    -0.299 OA
ENDROOT
BRANCH   1   3
ATOM      3  C   UNL     1      16.931 -35.161  24.261  1.00  0.00     0.053 C 
ATOM      4  C   UNL     1      17.805 -35.547  25.460  1.00  0.00     0.016 C 
BRANCH   3   5
ATOM      5  C   UNL     1      16.391 -33.724  24.413  1.00  0.00     0.015 C 
BRANCH   5   6
ATOM      6  C   UNL     1      14.868 -33.662  24.201  1.00  0.00     0.028 C 
BRANCH   6   7
ATOM      7  C   UNL     1      14.384 -32.306  23.751  1.00  0.00    -0.028 C 
ATOM      8  C   UNL     1      14.059 -31.955  22.481  1.00  0.00    -0.070 CG0
ATOM      9  C   UNL     1      13.471 -30.580  22.275  1.00  0.00     0.039 C 
ATOM     10  G   UNL     1      14.319 -32.822  21.251  1.00  0.00     0.000 G0
ENDBRANCH   6   7
ENDBRANCH   5   6
ENDBRANCH   3   5
ENDBRANCH   1   3
BRANCH   1  11
ATOM     11  C   UNL     1      17.712 -34.307  21.870  1.00  0.00     0.087 C 
BRANCH  11  12
ATOM     12  C   UNL     1      16.454 -34.359  20.958  1.00  0.00     0.066 C 
BRANCH  12  13
ATOM     13  C   UNL     1      15.770 -32.999  20.871  1.00  0.00     0.140 C 
ATOM     14  O   UNL     1      16.446 -32.011  20.625  1.00  0.00    -0.299 OA
BRANCH  13  15
ATOM     15  C   UNL     1      14.314 -32.827  21.242  1.00  0.00     0.106 CG0
ATOM     16  G   UNL     1      14.062 -31.964  22.476  1.00  0.00     0.000 G0
ENDBRANCH  13  15
ENDBRANCH  12  13
BRANCH  12  17
ATOM     17  C   UNL     1      16.773 -34.904  19.527  1.00  0.00    -0.006 C 
ATOM     18  C   UNL     1      16.694 -36.442  19.485  1.00  0.00     0.008 C 
ATOM     19  C   UNL     1      18.163 -34.468  19.027  1.00  0.00     0.008 C 
ENDBRANCH  12  17
ENDBRANCH  11  12
ENDBRANCH   1  11
TORSDOF 1
ENDMDL
MODEL 8
REMARK VINA RESULT:    -4.026      1.559      2.127
REMARK INTER + INTRA:          -6.357
REMARK INTER:                  -6.392
REMARK INTRA:                   0.035
REMARK UNBOUND:                -0.213
REMARK SMILES CC1=CCC[C@H](C)C(=O)C[C@H](C(C)C)C(=O)C1
REMARK SMILES IDX 8 1 9 2 6 3 7 4 5 5 4 6 3 7 2 8 1 9 10 11 11 12 15 13 16 14
REMARK SMILES IDX 17 15 12 17 13 18 14 19
REMARK H PARENT
REMARK Flexibility Score: 70.00
ROOT
ATOM      1  C   UNL     1      14.991 -33.388  22.764  1.00  0.00     0.136 C 
ATOM      2  O   UNL     1      15.036 -33.897  23.874  1.00  0.00    -0.299 OA
ENDROOT
BRANCH   1   3
ATOM      3  C   UNL     1      14.775 -31.888  22.654  1.00  0.00     0.053 C 
ATOM      4  C   UNL     1      13.356 -31.517  23.099  1.00  0.00     0.016 C 
BRANCH   3   5
ATOM      5  C   UNL     1      15.828 -31.086  23.446  1.00  0.00     0.015 C 
BRANCH   5   6
ATOM      6  C   UNL     1      17.226 -31.197  22.811  1.00  0.00     0.028 C 
BRANCH   6   7
ATOM      7  C   UNL     1      18.221 -31.917  23.686  1.00  0.00    -0.028 C 
ATOM      8  C   UNL     1      19.046 -32.922  23.295  1.00  0.00    -0.070 CG0
ATOM      9  C   UNL     1      20.059 -33.413  24.303  1.00  0.00     0.039 C 
ATOM     10  G   UNL     1      18.965 -33.633  21.947  1.00  0.00     0.000 G0
ENDBRANCH   6   7
ENDBRANCH   5   6
ENDBRANCH   3   5
ENDBRANCH   1   3
BRANCH   1  11
ATOM     11  C   UNL     1      15.211 -34.264  21.550  1.00  0.00     0.087 C 
BRANCH  11  12
ATOM     12  C   UNL     1      16.581 -34.013  20.859  1.00  0.00     0.066 C 
BRANCH  12  13
ATOM     13  C   UNL     1      17.740 -34.499  21.722  1.00  0.00     0.140 C 
ATOM     14  O   UNL     1      17.613 -35.539  22.352  1.00  0.00    -0.299 OA
BRANCH  13  15
ATOM     15  C   UNL     1      18.968 -33.645  21.942  1.00  0.00     0.106 CG0
ATOM     16  G   UNL     1      19.025 -32.933  23.291  1.00  0.00     0.000 G0
ENDBRANCH  13  15
ENDBRANCH  12  13
BRANCH  12  17
ATOM     17  C   UNL     1      16.657 -34.649  19.432  1.00  0.00    -0.006 C 
ATOM     18  C   UNL     1      16.435 -36.172  19.487  1.00  0.00     0.008 C 
ATOM     19  C   UNL     1      18.001 -34.372  18.734  1.00  0.00     0.008 C 
ENDBRANCH  12  17
ENDBRANCH  11  12
ENDBRANCH   1  11
TORSDOF 1
ENDMDL
MODEL 9
REMARK VINA RESULT:    -4.013      2.026      4.087
REMARK INTER + INTRA:          -6.338
REMARK INTER:                  -6.204
REMARK INTRA:                  -0.134
REMARK UNBOUND:                -0.213
REMARK SMILES CC1=CCC[C@H](C)C(=O)C[C@H](C(C)C)C(=O)C1
REMARK SMILES IDX 8 1 9 2 6 3 7 4 5 5 4 6 3 7 2 8 1 9 10 11 11 12 15 13 16 14
REMARK SMILES IDX 17 15 12 17 13 18 14 19
REMARK H PARENT
REMARK Flexibility Score: 70.00
ROOT
ATOM      1  C   UNL     1      16.864 -31.223  23.120  1.00  0.00     0.136 C 
ATOM      2  O   UNL     1      17.552 -31.321  24.124  1.00  0.00    -0.299 OA
ENDROOT
BRANCH   1   3
ATOM      3  C   UNL     1      15.369 -30.997  23.277  1.00  0.00     0.053 C 
ATOM      4  C   UNL     1      14.966 -29.644  22.681  1.00  0.00     0.016 C 
BRANCH   3   5
ATOM      5  C   UNL     1      14.537 -32.141  22.661  1.00  0.00     0.015 C 
BRANCH   5   6
ATOM      6  C   UNL     1      15.218 -33.508  22.849  1.00  0.00     0.028 C 
BRANCH   6   7
ATOM      7  C   UNL     1      15.231 -34.344  21.594  1.00  0.00    -0.028 C 
ATOM      8  C   UNL     1      16.319 -34.937  21.040  1.00  0.00    -0.070 CG0
ATOM      9  C   UNL     1      16.083 -35.839  19.852  1.00  0.00     0.039 C 
ATOM     10  G   UNL     1      17.759 -34.690  21.485  1.00  0.00     0.000 G0
ENDBRANCH   6   7
ENDBRANCH   5   6
ENDBRANCH   3   5
ENDBRANCH   1   3
BRANCH   1  11
ATOM     11  C   UNL     1      17.537 -31.272  21.766  1.00  0.00     0.087 C 
BRANCH  11  12
ATOM     12  C   UNL     1      18.742 -32.252  21.721  1.00  0.00     0.066 C 
BRANCH  12  13
ATOM     13  C   UNL     1      18.432 -33.484  20.878  1.00  0.00     0.140 C 
ATOM     14  O   UNL     1      18.601 -33.432  19.669  1.00  0.00    -0.299 OA
BRANCH  13  15
ATOM     15  C   UNL     1      17.769 -34.702  21.481  1.00  0.00     0.106 CG0
ATOM     16  G   UNL     1      16.327 -34.936  21.038  1.00  0.00     0.000 G0
ENDBRANCH  13  15
ENDBRANCH  12  13
BRANCH  12  17
ATOM     17  C   UNL     1      20.055 -31.564  21.221  1.00  0.00    -0.006 C 
ATOM     18  C   UNL     1      21.289 -32.109  21.964  1.00  0.00     0.008 C 
ATOM     19  C   UNL     1      20.018 -30.033  21.385  1.00  0.00     0.008 C 
ENDBRANCH  12  17
ENDBRANCH  11  12
ENDBRANCH   1  11
TORSDOF 1
ENDMDL
