MODEL 1
REMARK VINA RESULT:    -5.524      0.000      0.000
REMARK INTER + INTRA:          -7.959
REMARK INTER:                  -7.461
REMARK INTRA:                  -0.497
REMARK UNBOUND:                -0.497
REMARK SMILES CC(=O)CCC=C(C)CCC=C(C)C
REMARK SMILES IDX 7 1 6 2 8 3 9 4 10 5 11 6 13 7 12 8 14 9 5 10 4 11 2 12 3 13
REMARK SMILES IDX 1 14
REMARK H PARENT
REMARK Flexibility Score: inf
ROOT
ATOM      1  C   UNL     1     -29.900  17.871 -33.141  1.00  0.00    -0.077 C 
ATOM      2  C   UNL     1     -28.654  18.383 -33.039  1.00  0.00    -0.028 C 
ATOM      3  C   UNL     1     -31.119  18.764 -33.165  1.00  0.00     0.039 C 
ENDROOT
BRANCH   1   4
ATOM      4  C   UNL     1     -30.080  16.371 -33.231  1.00  0.00     0.034 C 
BRANCH   4   5
ATOM      5  C   UNL     1     -29.075  15.648 -32.327  1.00  0.00     0.032 C 
BRANCH   5   6
ATOM      6  C   UNL     1     -29.789  14.769 -31.331  1.00  0.00    -0.028 C 
ATOM      7  C   UNL     1     -27.670  13.720 -30.501  1.00  0.00     0.039 C 
ATOM      8  C   UNL     1     -29.172  13.874 -30.526  1.00  0.00    -0.080 C 
ATOM      9  C   UNL     1     -29.987  13.025 -29.585  1.00  0.00     0.039 C 
ENDBRANCH   5   6
ENDBRANCH   4   5
ENDBRANCH   1   4
BRANCH   2  10
ATOM     10  C   UNL     1     -28.375  19.866 -32.948  1.00  0.00     0.035 C 
BRANCH  10  11
ATOM     11  C   UNL     1     -27.610  20.387 -34.171  1.00  0.00     0.079 C 
BRANCH  11  12
ATOM     12  C   UNL     1     -26.146  20.037 -34.106  1.00  0.00     0.130 C 
ATOM     13  O   UNL     1     -25.517  19.869 -35.140  1.00  0.00    -0.300 OA
ATOM     14  C   UNL     1     -25.437  19.925 -32.790  1.00  0.00     0.087 C 
ENDBRANCH  11  12
ENDBRANCH  10  11
ENDBRANCH   2  10
TORSDOF 6
ENDMDL
MODEL 2
REMARK VINA RESULT:    -5.416      1.319      1.979
REMARK INTER + INTRA:          -7.814
REMARK INTER:                  -7.116
REMARK INTRA:                  -0.697
REMARK UNBOUND:                -0.497
REMARK SMILES CC(=O)CCC=C(C)CCC=C(C)C
REMARK SMILES IDX 7 1 6 2 8 3 9 4 10 5 11 6 13 7 12 8 14 9 5 10 4 11 2 12 3 13
REMARK SMILES IDX 1 14
REMARK H PARENT
REMARK Flexibility Score: inf
ROOT
ATOM      1  C   UNL     1     -28.283  18.456 -32.758  1.00  0.00    -0.077 C 
ATOM      2  C   UNL     1     -27.969  19.574 -33.448  1.00  0.00    -0.028 C 
ATOM      3  C   UNL     1     -27.386  17.928 -31.663  1.00  0.00     0.039 C 
ENDROOT
BRANCH   1   4
ATOM      4  C   UNL     1     -29.560  17.715 -33.091  1.00  0.00     0.034 C 
BRANCH   4   5
ATOM      5  C   UNL     1     -29.304  16.207 -33.191  1.00  0.00     0.032 C 
BRANCH   5   6
ATOM      6  C   UNL     1     -30.194  15.450 -32.237  1.00  0.00    -0.028 C 
ATOM      7  C   UNL     1     -28.268  14.443 -30.991  1.00  0.00     0.039 C 
ATOM      8  C   UNL     1     -29.741  14.628 -31.263  1.00  0.00    -0.080 C 
ATOM      9  C   UNL     1     -30.722  13.896 -30.383  1.00  0.00     0.039 C 
ENDBRANCH   5   6
ENDBRANCH   4   5
ENDBRANCH   1   4
BRANCH   2  10
ATOM     10  C   UNL     1     -26.719  20.383 -33.184  1.00  0.00     0.035 C 
BRANCH  10  11
ATOM     11  C   UNL     1     -25.520  19.877 -33.996  1.00  0.00     0.079 C 
BRANCH  11  12
ATOM     12  C   UNL     1     -24.242  19.930 -33.199  1.00  0.00     0.130 C 
ATOM     13  O   UNL     1     -23.378  20.742 -33.493  1.00  0.00    -0.300 OA
ATOM     14  C   UNL     1     -24.027  19.023 -32.025  1.00  0.00     0.087 C 
ENDBRANCH  11  12
ENDBRANCH  10  11
ENDBRANCH   2  10
TORSDOF 6
ENDMDL
MODEL 3
REMARK VINA RESULT:    -5.306      2.489      5.852
REMARK INTER + INTRA:          -7.665
REMARK INTER:                  -6.954
REMARK INTRA:                  -0.712
REMARK UNBOUND:                -0.497
REMARK SMILES CC(=O)CCC=C(C)CCC=C(C)C
REMARK SMILES IDX 7 1 6 2 8 3 9 4 10 5 11 6 13 7 12 8 14 9 5 10 4 11 2 12 3 13
REMARK SMILES IDX 1 14
REMARK H PARENT
REMARK Flexibility Score: inf
ROOT
ATOM      1  C   UNL     1     -29.851  14.739 -31.339  1.00  0.00    -0.077 C 
ATOM      2  C   UNL     1     -28.504  14.805 -31.262  1.00  0.00    -0.028 C 
ATOM      3  C   UNL     1     -30.635  13.707 -30.564  1.00  0.00     0.039 C 
ENDROOT
BRANCH   1   4
ATOM      4  C   UNL     1     -30.590  15.719 -32.224  1.00  0.00     0.034 C 
BRANCH   4   5
ATOM      5  C   UNL     1     -29.631  16.388 -33.215  1.00  0.00     0.032 C 
BRANCH   5   6
ATOM      6  C   UNL     1     -29.821  17.885 -33.216  1.00  0.00    -0.028 C 
ATOM      7  C   UNL     1     -27.508  18.337 -32.366  1.00  0.00     0.039 C 
ATOM      8  C   UNL     1     -28.885  18.771 -32.807  1.00  0.00    -0.080 C 
ATOM      9  C   UNL     1     -29.192  20.247 -32.823  1.00  0.00     0.039 C 
ENDBRANCH   5   6
ENDBRANCH   4   5
ENDBRANCH   1   4
BRANCH   2  10
ATOM     10  C   UNL     1     -27.679  13.873 -30.403  1.00  0.00     0.035 C 
BRANCH  10  11
ATOM     11  C   UNL     1     -26.535  14.604 -29.689  1.00  0.00     0.079 C 
BRANCH  11  12
ATOM     12  C   UNL     1     -25.256  13.808 -29.722  1.00  0.00     0.130 C 
ATOM     13  O   UNL     1     -24.204  14.364 -29.995  1.00  0.00    -0.300 OA
ATOM     14  C   UNL     1     -25.249  12.346 -29.390  1.00  0.00     0.087 C 
ENDBRANCH  11  12
ENDBRANCH  10  11
ENDBRANCH   2  10
TORSDOF 6
ENDMDL
MODEL 4
REMARK VINA RESULT:    -5.256      2.136      4.055
REMARK INTER + INTRA:          -7.596
REMARK INTER:                  -6.876
REMARK INTRA:                  -0.720
REMARK UNBOUND:                -0.497
REMARK SMILES CC(=O)CCC=C(C)CCC=C(C)C
REMARK SMILES IDX 7 1 6 2 8 3 9 4 10 5 11 6 13 7 12 8 14 9 5 10 4 11 2 12 3 13
REMARK SMILES IDX 1 14
REMARK H PARENT
REMARK Flexibility Score: inf
ROOT
ATOM      1  C   UNL     1     -25.444  15.493 -30.330  1.00  0.00    -0.077 C 
ATOM      2  C   UNL     1     -26.588  16.206 -30.427  1.00  0.00    -0.028 C 
ATOM      3  C   UNL     1     -24.122  16.061 -30.791  1.00  0.00     0.039 C 
ENDROOT
BRANCH   1   4
ATOM      4  C   UNL     1     -25.489  14.097 -29.750  1.00  0.00     0.034 C 
BRANCH   4   5
ATOM      5  C   UNL     1     -26.533  13.240 -30.475  1.00  0.00     0.032 C 
BRANCH   5   6
ATOM      6  C   UNL     1     -27.529  12.669 -29.498  1.00  0.00    -0.028 C 
ATOM      7  C   UNL     1     -29.470  13.871 -30.530  1.00  0.00     0.039 C 
ATOM      8  C   UNL     1     -28.848  12.969 -29.492  1.00  0.00    -0.080 C 
ATOM      9  C   UNL     1     -29.751  12.361 -28.449  1.00  0.00     0.039 C 
ENDBRANCH   5   6
ENDBRANCH   4   5
ENDBRANCH   1   4
BRANCH   2  10
ATOM     10  C   UNL     1     -26.643  17.609 -30.988  1.00  0.00     0.035 C 
BRANCH  10  11
ATOM     11  C   UNL     1     -27.767  17.778 -32.017  1.00  0.00     0.079 C 
BRANCH  11  12
ATOM     12  C   UNL     1     -27.607  19.045 -32.817  1.00  0.00     0.130 C 
ATOM     13  O   UNL     1     -26.488  19.444 -33.101  1.00  0.00    -0.300 OA
ATOM     14  C   UNL     1     -28.804  19.808 -33.300  1.00  0.00     0.087 C 
ENDBRANCH  11  12
ENDBRANCH  10  11
ENDBRANCH   2  10
TORSDOF 6
ENDMDL
MODEL 5
REMARK VINA RESULT:    -5.243      2.440      3.571
REMARK INTER + INTRA:          -7.579
REMARK INTER:                  -6.976
REMARK INTRA:                  -0.604
REMARK UNBOUND:                -0.497
REMARK SMILES CC(=O)CCC=C(C)CCC=C(C)C
REMARK SMILES IDX 7 1 6 2 8 3 9 4 10 5 11 6 13 7 12 8 14 9 5 10 4 11 2 12 3 13
REMARK SMILES IDX 1 14
REMARK H PARENT
REMARK Flexibility Score: inf
ROOT
ATOM      1  C   UNL     1     -28.399  20.555 -33.390  1.00  0.00    -0.077 C 
ATOM      2  C   UNL     1     -27.214  19.917 -33.512  1.00  0.00    -0.028 C 
ATOM      3  C   UNL     1     -28.489  21.942 -32.797  1.00  0.00     0.039 C 
ENDROOT
BRANCH   1   4
ATOM      4  C   UNL     1     -29.663  19.865 -33.854  1.00  0.00     0.034 C 
BRANCH   4   5
ATOM      5  C   UNL     1     -30.362  19.165 -32.682  1.00  0.00     0.032 C 
BRANCH   5   6
ATOM      6  C   UNL     1     -31.015  17.884 -33.137  1.00  0.00    -0.028 C 
ATOM      7  C   UNL     1     -28.954  16.512 -32.749  1.00  0.00     0.039 C 
ATOM      8  C   UNL     1     -30.383  16.690 -33.201  1.00  0.00    -0.080 C 
ATOM      9  C   UNL     1     -31.125  15.475 -33.698  1.00  0.00     0.039 C 
ENDBRANCH   5   6
ENDBRANCH   4   5
ENDBRANCH   1   4
BRANCH   2  10
ATOM     10  C   UNL     1     -25.900  20.527 -33.081  1.00  0.00     0.035 C 
BRANCH  10  11
ATOM     11  C   UNL     1     -24.715  19.584 -33.330  1.00  0.00     0.079 C 
BRANCH  11  12
ATOM     12  C   UNL     1     -24.009  19.223 -32.049  1.00  0.00     0.130 C 
ATOM     13  O   UNL     1     -24.015  18.065 -31.660  1.00  0.00    -0.300 OA
ATOM     14  C   UNL     1     -23.268  20.259 -31.258  1.00  0.00     0.087 C 
ENDBRANCH  11  12
ENDBRANCH  10  11
ENDBRANCH   2  10
TORSDOF 6
ENDMDL
MODEL 6
REMARK VINA RESULT:    -5.226      3.546      6.984
REMARK INTER + INTRA:          -7.556
REMARK INTER:                  -6.919
REMARK INTRA:                  -0.637
REMARK UNBOUND:                -0.497
REMARK SMILES CC(=O)CCC=C(C)CCC=C(C)C
REMARK SMILES IDX 7 1 6 2 8 3 9 4 10 5 11 6 13 7 12 8 14 9 5 10 4 11 2 12 3 13
REMARK SMILES IDX 1 14
REMARK H PARENT
REMARK Flexibility Score: inf
ROOT
ATOM      1  C   UNL     1     -30.064  14.625 -31.279  1.00  0.00    -0.077 C 
ATOM      2  C   UNL     1     -30.750  13.605 -30.719  1.00  0.00    -0.028 C 
ATOM      3  C   UNL     1     -28.554  14.669 -31.249  1.00  0.00     0.039 C 
ENDROOT
BRANCH   1   4
ATOM      4  C   UNL     1     -30.824  15.749 -31.949  1.00  0.00     0.034 C 
BRANCH   4   5
ATOM      5  C   UNL     1     -30.033  16.310 -33.136  1.00  0.00     0.032 C 
BRANCH   5   6
ATOM      6  C   UNL     1     -30.130  17.814 -33.181  1.00  0.00    -0.028 C 
ATOM      7  C   UNL     1     -27.785  18.148 -32.366  1.00  0.00     0.039 C 
ATOM      8  C   UNL     1     -29.137  18.653 -32.807  1.00  0.00    -0.080 C 
ATOM      9  C   UNL     1     -29.353  20.143 -32.866  1.00  0.00     0.039 C 
ENDBRANCH   5   6
ENDBRANCH   4   5
ENDBRANCH   1   4
BRANCH   2  10
ATOM     10  C   UNL     1     -30.079  12.437 -30.032  1.00  0.00     0.035 C 
BRANCH  10  11
ATOM     11  C   UNL     1     -29.671  12.769 -28.591  1.00  0.00     0.079 C 
BRANCH  11  12
ATOM     12  C   UNL     1     -28.373  12.106 -28.211  1.00  0.00     0.130 C 
ATOM     13  O   UNL     1     -28.379  11.167 -27.429  1.00  0.00    -0.300 OA
ATOM     14  C   UNL     1     -27.073  12.560 -28.803  1.00  0.00     0.087 C 
ENDBRANCH  11  12
ENDBRANCH  10  11
ENDBRANCH   2  10
TORSDOF 6
ENDMDL
MODEL 7
REMARK VINA RESULT:    -5.181      3.050      6.806
REMARK INTER + INTRA:          -7.495
REMARK INTER:                  -7.063
REMARK INTRA:                  -0.432
REMARK UNBOUND:                -0.497
REMARK SMILES CC(=O)CCC=C(C)CCC=C(C)C
REMARK SMILES IDX 7 1 6 2 8 3 9 4 10 5 11 6 13 7 12 8 14 9 5 10 4 11 2 12 3 13
REMARK SMILES IDX 1 14
REMARK H PARENT
REMARK Flexibility Score: inf
ROOT
ATOM      1  C   UNL     1     -29.664  15.567 -32.117  1.00  0.00    -0.077 C 
ATOM      2  C   UNL     1     -28.645  14.975 -31.455  1.00  0.00    -0.028 C 
ATOM      3  C   UNL     1     -31.097  15.138 -31.903  1.00  0.00     0.039 C 
ENDROOT
BRANCH   1   4
ATOM      4  C   UNL     1     -29.362  16.681 -33.096  1.00  0.00     0.034 C 
BRANCH   4   5
ATOM      5  C   UNL     1     -28.315  17.642 -32.521  1.00  0.00     0.032 C 
BRANCH   5   6
ATOM      6  C   UNL     1     -28.735  19.076 -32.727  1.00  0.00    -0.028 C 
ATOM      7  C   UNL     1     -26.457  19.800 -33.475  1.00  0.00     0.039 C 
ATOM      8  C   UNL     1     -27.901  20.063 -33.125  1.00  0.00    -0.080 C 
ATOM      9  C   UNL     1     -28.421  21.470 -33.273  1.00  0.00     0.039 C 
ENDBRANCH   5   6
ENDBRANCH   4   5
ENDBRANCH   1   4
BRANCH   2  10
ATOM     10  C   UNL     1     -28.848  13.859 -30.456  1.00  0.00     0.035 C 
BRANCH  10  11
ATOM     11  C   UNL     1     -27.532  13.159 -30.094  1.00  0.00     0.079 C 
BRANCH  11  12
ATOM     12  C   UNL     1     -27.643  12.391 -28.803  1.00  0.00     0.130 C 
ATOM     13  O   UNL     1     -26.644  11.893 -28.307  1.00  0.00    -0.300 OA
ATOM     14  C   UNL     1     -28.958  12.256 -28.096  1.00  0.00     0.087 C 
ENDBRANCH  11  12
ENDBRANCH  10  11
ENDBRANCH   2  10
TORSDOF 6
ENDMDL
MODEL 8
REMARK VINA RESULT:    -5.070      1.826      3.464
REMARK INTER + INTRA:          -7.345
REMARK INTER:                  -6.578
REMARK INTRA:                  -0.768
REMARK UNBOUND:                -0.497
REMARK SMILES CC(=O)CCC=C(C)CCC=C(C)C
REMARK SMILES IDX 7 1 6 2 8 3 9 4 10 5 11 6 13 7 12 8 14 9 5 10 4 11 2 12 3 13
REMARK SMILES IDX 1 14
REMARK H PARENT
REMARK Flexibility Score: inf
ROOT
ATOM      1  C   UNL     1     -30.039  14.933 -31.430  1.00  0.00    -0.077 C 
ATOM      2  C   UNL     1     -30.678  15.633 -32.393  1.00  0.00    -0.028 C 
ATOM      3  C   UNL     1     -28.536  14.981 -31.288  1.00  0.00     0.039 C 
ENDROOT
BRANCH   1   4
ATOM      4  C   UNL     1     -30.847  14.082 -30.475  1.00  0.00     0.034 C 
BRANCH   4   5
ATOM      5  C   UNL     1     -30.337  12.636 -30.471  1.00  0.00     0.032 C 
BRANCH   5   6
ATOM      6  C   UNL     1     -29.811  12.258 -29.109  1.00  0.00    -0.028 C 
ATOM      7  C   UNL     1     -27.481  11.869 -29.943  1.00  0.00     0.039 C 
ATOM      8  C   UNL     1     -28.536  11.880 -28.863  1.00  0.00    -0.080 C 
ATOM      9  C   UNL     1     -28.124  11.495 -27.465  1.00  0.00     0.039 C 
ENDBRANCH   5   6
ENDBRANCH   4   5
ENDBRANCH   1   4
BRANCH   2  10
ATOM     10  C   UNL     1     -29.958  16.513 -33.390  1.00  0.00     0.035 C 
BRANCH  10  11
ATOM     11  C   UNL     1     -30.259  18.001 -33.170  1.00  0.00     0.079 C 
BRANCH  11  12
ATOM     12  C   UNL     1     -29.003  18.833 -33.177  1.00  0.00     0.130 C 
ATOM     13  O   UNL     1     -28.970  19.876 -33.813  1.00  0.00    -0.300 OA
ATOM     14  C   UNL     1     -27.799  18.418 -32.386  1.00  0.00     0.087 C 
ENDBRANCH  11  12
ENDBRANCH  10  11
ENDBRANCH   2  10
TORSDOF 6
ENDMDL
