MODEL 1
REMARK VINA RESULT:    -6.672      0.000      0.000
REMARK INTER + INTRA:          -9.174
REMARK INTER:                  -8.428
REMARK INTRA:                  -0.746
REMARK UNBOUND:                -0.746
REMARK SMILES Oc1cc(O)cc(CCc2ccccc2O)c1
REMARK SMILES IDX 9 1 10 2 12 3 13 4 11 5 14 6 15 7 16 8 8 10 7 11 6 12 17 13
REMARK SMILES IDX 4 14 2 15 3 16 5 17 1 19
REMARK H PARENT 16 9 5 18 1 20
REMARK Flexibility Score: inf
ROOT
ATOM      1  C   UNL     1     -39.693 -11.532  24.662  1.00  0.00     0.044 C 
ENDROOT
BRANCH   1   2
ATOM      2  C   UNL     1     -38.615 -12.254  23.895  1.00  0.00    -0.006 A 
ATOM      3  C   UNL     1     -37.071 -14.125  23.714  1.00  0.00     0.001 A 
ATOM      4  C   UNL     1     -36.656 -13.668  22.462  1.00  0.00     0.004 A 
ATOM      5  C   UNL     1     -38.049 -13.426  24.427  1.00  0.00     0.007 A 
ATOM      6  C   UNL     1     -37.221 -12.513  21.916  1.00  0.00     0.046 A 
ATOM      7  C   UNL     1     -38.205 -11.805  22.623  1.00  0.00     0.118 A 
BRANCH   7   8
ATOM      8  O   UNL     1     -38.775 -10.661  22.065  1.00  0.00    -0.508 OA
ATOM      9  H   UNL     1     -39.688 -10.329  22.351  1.00  0.00     0.293 HD
ENDBRANCH   7   8
ENDBRANCH   1   2
BRANCH   1  10
ATOM     10  C   UNL     1     -39.184 -11.119  26.047  1.00  0.00     0.040 C 
BRANCH  10  11
ATOM     11  C   UNL     1     -38.306  -9.901  25.948  1.00  0.00    -0.040 A 
ATOM     12  C   UNL     1     -38.819  -8.701  25.429  1.00  0.00     0.050 A 
ATOM     13  C   UNL     1     -36.954  -9.971  26.317  1.00  0.00     0.050 A 
ATOM     14  C   UNL     1     -37.993  -7.575  25.304  1.00  0.00     0.119 A 
ATOM     15  C   UNL     1     -36.127  -8.845  26.193  1.00  0.00     0.119 A 
ATOM     16  C   UNL     1     -36.651  -7.649  25.690  1.00  0.00     0.092 A 
BRANCH  14  17
ATOM     17  O   UNL     1     -38.496  -6.379  24.798  1.00  0.00    -0.508 OA
ATOM     18  H   UNL     1     -38.023  -5.877  24.055  1.00  0.00     0.293 HD
ENDBRANCH  14  17
BRANCH  15  19
ATOM     19  O   UNL     1     -34.786  -8.905  26.564  1.00  0.00    -0.508 OA
ATOM     20  H   UNL     1     -34.372  -9.760  26.917  1.00  0.00     0.293 HD
ENDBRANCH  15  19
ENDBRANCH  10  11
ENDBRANCH   1  10
TORSDOF 6
ENDMDL
MODEL 2
REMARK VINA RESULT:    -6.657      1.707      2.395
REMARK INTER + INTRA:          -9.155
REMARK INTER:                  -8.523
REMARK INTRA:                  -0.633
REMARK UNBOUND:                -0.746
REMARK SMILES Oc1cc(O)cc(CCc2ccccc2O)c1
REMARK SMILES IDX 9 1 10 2 12 3 13 4 11 5 14 6 15 7 16 8 8 10 7 11 6 12 17 13
REMARK SMILES IDX 4 14 2 15 3 16 5 17 1 19
REMARK H PARENT 16 9 5 18 1 20
REMARK Flexibility Score: inf
ROOT
ATOM      1  C   UNL     1     -37.201 -11.583  23.932  1.00  0.00     0.044 C 
ENDROOT
BRANCH   1   2
ATOM      2  C   UNL     1     -38.573 -12.204  23.869  1.00  0.00    -0.006 A 
ATOM      3  C   UNL     1     -40.251 -13.674  24.839  1.00  0.00     0.001 A 
ATOM      4  C   UNL     1     -41.147 -13.329  23.826  1.00  0.00     0.004 A 
ATOM      5  C   UNL     1     -38.972 -13.112  24.865  1.00  0.00     0.007 A 
ATOM      6  C   UNL     1     -40.768 -12.416  22.838  1.00  0.00     0.046 A 
ATOM      7  C   UNL     1     -39.486 -11.846  22.856  1.00  0.00     0.118 A 
BRANCH   7   8
ATOM      8  O   UNL     1     -39.120 -10.925  21.875  1.00  0.00    -0.508 OA
ATOM      9  H   UNL     1     -38.307 -11.068  21.288  1.00  0.00     0.293 HD
ENDBRANCH   7   8
ENDBRANCH   1   2
BRANCH   1  10
ATOM     10  C   UNL     1     -36.846 -11.204  25.373  1.00  0.00     0.040 C 
BRANCH  10  11
ATOM     11  C   UNL     1     -37.170  -9.758  25.635  1.00  0.00    -0.040 A 
ATOM     12  C   UNL     1     -38.307  -9.414  26.384  1.00  0.00     0.050 A 
ATOM     13  C   UNL     1     -36.374  -8.742  25.084  1.00  0.00     0.050 A 
ATOM     14  C   UNL     1     -38.629  -8.067  26.601  1.00  0.00     0.119 A 
ATOM     15  C   UNL     1     -36.695  -7.395  25.300  1.00  0.00     0.119 A 
ATOM     16  C   UNL     1     -37.821  -7.061  26.061  1.00  0.00     0.092 A 
BRANCH  14  17
ATOM     17  O   UNL     1     -39.751  -7.717  27.350  1.00  0.00    -0.508 OA
ATOM     18  H   UNL     1     -39.752  -7.778  28.361  1.00  0.00     0.293 HD
ENDBRANCH  14  17
BRANCH  15  19
ATOM     19  O   UNL     1     -35.905  -6.381  24.763  1.00  0.00    -0.508 OA
ATOM     20  H   UNL     1     -35.304  -5.812  25.347  1.00  0.00     0.293 HD
ENDBRANCH  15  19
ENDBRANCH  10  11
ENDBRANCH   1  10
TORSDOF 6
ENDMDL
MODEL 3
REMARK VINA RESULT:    -6.647      1.704      2.648
REMARK INTER + INTRA:          -9.142
REMARK INTER:                  -8.511
REMARK INTRA:                  -0.631
REMARK UNBOUND:                -0.746
REMARK SMILES Oc1cc(O)cc(CCc2ccccc2O)c1
REMARK SMILES IDX 9 1 10 2 12 3 13 4 11 5 14 6 15 7 16 8 8 10 7 11 6 12 17 13
REMARK SMILES IDX 4 14 2 15 3 16 5 17 1 19
REMARK H PARENT 16 9 5 18 1 20
REMARK Flexibility Score: inf
ROOT
ATOM      1  C   UNL     1     -37.273 -11.640  23.875  1.00  0.00     0.044 C 
ENDROOT
BRANCH   1   2
ATOM      2  C   UNL     1     -38.651 -12.253  23.878  1.00  0.00    -0.006 A 
ATOM      3  C   UNL     1     -40.301 -13.686  24.945  1.00  0.00     0.001 A 
ATOM      4  C   UNL     1     -41.232 -13.358  23.957  1.00  0.00     0.004 A 
ATOM      5  C   UNL     1     -39.018 -13.133  24.910  1.00  0.00     0.007 A 
ATOM      6  C   UNL     1     -40.884 -12.473  22.935  1.00  0.00     0.046 A 
ATOM      7  C   UNL     1     -39.598 -11.911  22.891  1.00  0.00     0.118 A 
BRANCH   7   8
ATOM      8  O   UNL     1     -39.263 -11.017  21.875  1.00  0.00    -0.508 OA
ATOM      9  H   UNL     1     -39.673 -11.085  20.951  1.00  0.00     0.293 HD
ENDBRANCH   7   8
ENDBRANCH   1   2
BRANCH   1  10
ATOM     10  C   UNL     1     -36.865 -11.222  25.291  1.00  0.00     0.040 C 
BRANCH  10  11
ATOM     11  C   UNL     1     -37.209  -9.778  25.536  1.00  0.00    -0.040 A 
ATOM     12  C   UNL     1     -36.387  -8.760  25.025  1.00  0.00     0.050 A 
ATOM     13  C   UNL     1     -38.318  -9.438  26.326  1.00  0.00     0.050 A 
ATOM     14  C   UNL     1     -36.688  -7.414  25.282  1.00  0.00     0.119 A 
ATOM     15  C   UNL     1     -38.620  -8.093  26.583  1.00  0.00     0.119 A 
ATOM     16  C   UNL     1     -37.804  -7.085  26.057  1.00  0.00     0.092 A 
BRANCH  14  17
ATOM     17  O   UNL     1     -35.882  -6.398  24.772  1.00  0.00    -0.508 OA
ATOM     18  H   UNL     1     -36.280  -5.576  24.333  1.00  0.00     0.293 HD
ENDBRANCH  14  17
BRANCH  15  19
ATOM     19  O   UNL     1     -39.723  -7.748  27.360  1.00  0.00    -0.508 OA
ATOM     20  H   UNL     1     -40.669  -7.937  27.049  1.00  0.00     0.293 HD
ENDBRANCH  15  19
ENDBRANCH  10  11
ENDBRANCH   1  10
TORSDOF 6
ENDMDL
MODEL 4
REMARK VINA RESULT:    -6.527      1.778      5.570
REMARK INTER + INTRA:          -8.991
REMARK INTER:                  -8.454
REMARK INTRA:                  -0.536
REMARK UNBOUND:                -0.746
REMARK SMILES Oc1cc(O)cc(CCc2ccccc2O)c1
REMARK SMILES IDX 9 1 10 2 12 3 13 4 11 5 14 6 15 7 16 8 8 10 7 11 6 12 17 13
REMARK SMILES IDX 4 14 2 15 3 16 5 17 1 19
REMARK H PARENT 16 9 5 18 1 20
REMARK Flexibility Score: inf
ROOT
ATOM      1  C   UNL     1     -39.127  -9.705  25.965  1.00  0.00     0.044 C 
ENDROOT
BRANCH   1   2
ATOM      2  C   UNL     1     -38.069  -8.692  25.608  1.00  0.00    -0.006 A 
ATOM      3  C   UNL     1     -35.727  -8.158  25.224  1.00  0.00     0.001 A 
ATOM      4  C   UNL     1     -36.076  -6.851  24.879  1.00  0.00     0.004 A 
ATOM      5  C   UNL     1     -36.718  -9.077  25.583  1.00  0.00     0.007 A 
ATOM      6  C   UNL     1     -37.418  -6.460  24.887  1.00  0.00     0.046 A 
ATOM      7  C   UNL     1     -38.420  -7.376  25.244  1.00  0.00     0.118 A 
BRANCH   7   8
ATOM      8  O   UNL     1     -39.757  -6.982  25.235  1.00  0.00    -0.508 OA
ATOM      9  H   UNL     1     -40.043  -6.064  25.554  1.00  0.00     0.293 HD
ENDBRANCH   7   8
ENDBRANCH   1   2
BRANCH   1  10
ATOM     10  C   UNL     1     -38.507 -11.095  26.135  1.00  0.00     0.040 C 
BRANCH  10  11
ATOM     11  C   UNL     1     -38.523 -11.845  24.831  1.00  0.00    -0.040 A 
ATOM     12  C   UNL     1     -37.411 -12.611  24.443  1.00  0.00     0.050 A 
ATOM     13  C   UNL     1     -39.623 -11.738  23.966  1.00  0.00     0.050 A 
ATOM     14  C   UNL     1     -37.412 -13.283  23.212  1.00  0.00     0.119 A 
ATOM     15  C   UNL     1     -39.624 -12.410  22.735  1.00  0.00     0.119 A 
ATOM     16  C   UNL     1     -38.519 -13.183  22.364  1.00  0.00     0.092 A 
BRANCH  14  17
ATOM     17  O   UNL     1     -36.316 -14.051  22.823  1.00  0.00    -0.508 OA
ATOM     18  H   UNL     1     -35.408 -13.937  23.258  1.00  0.00     0.293 HD
ENDBRANCH  14  17
BRANCH  15  19
ATOM     19  O   UNL     1     -40.715 -12.314  21.875  1.00  0.00    -0.508 OA
ATOM     20  H   UNL     1     -41.019 -11.422  21.503  1.00  0.00     0.293 HD
ENDBRANCH  15  19
ENDBRANCH  10  11
ENDBRANCH   1  10
TORSDOF 6
ENDMDL
MODEL 5
REMARK VINA RESULT:    -6.480      1.829      5.264
REMARK INTER + INTRA:          -8.932
REMARK INTER:                  -8.460
REMARK INTRA:                  -0.472
REMARK UNBOUND:                -0.746
REMARK SMILES Oc1cc(O)cc(CCc2ccccc2O)c1
REMARK SMILES IDX 9 1 10 2 12 3 13 4 11 5 14 6 15 7 16 8 8 10 7 11 6 12 17 13
REMARK SMILES IDX 4 14 2 15 3 16 5 17 1 19
REMARK H PARENT 16 9 5 18 1 20
REMARK Flexibility Score: inf
ROOT
ATOM      1  C   UNL     1     -39.204  -9.814  25.772  1.00  0.00     0.044 C 
ENDROOT
BRANCH   1   2
ATOM      2  C   UNL     1     -38.098  -8.831  25.484  1.00  0.00    -0.006 A 
ATOM      3  C   UNL     1     -35.734  -8.388  25.122  1.00  0.00     0.001 A 
ATOM      4  C   UNL     1     -36.018  -7.043  24.879  1.00  0.00     0.004 A 
ATOM      5  C   UNL     1     -36.768  -9.281  25.418  1.00  0.00     0.007 A 
ATOM      6  C   UNL     1     -37.338  -6.587  24.926  1.00  0.00     0.046 A 
ATOM      7  C   UNL     1     -38.383  -7.476  25.222  1.00  0.00     0.118 A 
BRANCH   7   8
ATOM      8  O   UNL     1     -39.699  -7.016  25.253  1.00  0.00    -0.508 OA
ATOM      9  H   UNL     1     -39.930  -6.052  25.045  1.00  0.00     0.293 HD
ENDBRANCH   7   8
ENDBRANCH   1   2
BRANCH   1  10
ATOM     10  C   UNL     1     -38.633 -11.217  26.003  1.00  0.00     0.040 C 
BRANCH  10  11
ATOM     11  C   UNL     1     -38.602 -11.995  24.716  1.00  0.00    -0.040 A 
ATOM     12  C   UNL     1     -39.752 -12.082  23.915  1.00  0.00     0.050 A 
ATOM     13  C   UNL     1     -37.442 -12.688  24.335  1.00  0.00     0.050 A 
ATOM     14  C   UNL     1     -39.734 -12.835  22.732  1.00  0.00     0.119 A 
ATOM     15  C   UNL     1     -37.423 -13.440  23.152  1.00  0.00     0.119 A 
ATOM     16  C   UNL     1     -38.569 -13.509  22.352  1.00  0.00     0.092 A 
BRANCH  14  17
ATOM     17  O   UNL     1     -40.869 -12.919  21.928  1.00  0.00    -0.508 OA
ATOM     18  H   UNL     1     -41.729 -12.444  22.175  1.00  0.00     0.293 HD
ENDBRANCH  14  17
BRANCH  15  19
ATOM     19  O   UNL     1     -36.274 -14.125  22.764  1.00  0.00    -0.508 OA
ATOM     20  H   UNL     1     -35.441 -13.633  22.461  1.00  0.00     0.293 HD
ENDBRANCH  15  19
ENDBRANCH  10  11
ENDBRANCH   1  10
TORSDOF 6
ENDMDL
MODEL 6
REMARK VINA RESULT:    -6.474      2.419      5.635
REMARK INTER + INTRA:          -8.924
REMARK INTER:                  -8.340
REMARK INTRA:                  -0.584
REMARK UNBOUND:                -0.746
REMARK SMILES Oc1cc(O)cc(CCc2ccccc2O)c1
REMARK SMILES IDX 9 1 10 2 12 3 13 4 11 5 14 6 15 7 16 8 8 10 7 11 6 12 17 13
REMARK SMILES IDX 4 14 2 15 3 16 5 17 1 19
REMARK H PARENT 16 9 5 18 1 20
REMARK Flexibility Score: inf
ROOT
ATOM      1  C   UNL     1     -37.905  -8.798  25.648  1.00  0.00     0.044 C 
ENDROOT
BRANCH   1   2
ATOM      2  C   UNL     1     -36.928  -9.242  26.707  1.00  0.00    -0.006 A 
ATOM      3  C   UNL     1     -34.629  -9.578  27.424  1.00  0.00     0.001 A 
ATOM      4  C   UNL     1     -35.075  -9.993  28.680  1.00  0.00     0.004 A 
ATOM      5  C   UNL     1     -35.549  -9.199  26.443  1.00  0.00     0.007 A 
ATOM      6  C   UNL     1     -36.444 -10.027  28.959  1.00  0.00     0.046 A 
ATOM      7  C   UNL     1     -37.376  -9.647  27.981  1.00  0.00     0.118 A 
BRANCH   7   8
ATOM      8  O   UNL     1     -38.739  -9.669  28.273  1.00  0.00    -0.508 OA
ATOM      9  H   UNL     1     -39.282 -10.522  28.214  1.00  0.00     0.293 HD
ENDBRANCH   7   8
ENDBRANCH   1   2
BRANCH   1  10
ATOM     10  C   UNL     1     -37.594  -9.475  24.309  1.00  0.00     0.040 C 
BRANCH  10  11
ATOM     11  C   UNL     1     -37.838 -10.957  24.396  1.00  0.00    -0.040 A 
ATOM     12  C   UNL     1     -37.010 -11.852  23.698  1.00  0.00     0.050 A 
ATOM     13  C   UNL     1     -38.929 -11.454  25.127  1.00  0.00     0.050 A 
ATOM     14  C   UNL     1     -37.257 -13.231  23.752  1.00  0.00     0.119 A 
ATOM     15  C   UNL     1     -39.176 -12.833  25.181  1.00  0.00     0.119 A 
ATOM     16  C   UNL     1     -38.336 -13.718  24.495  1.00  0.00     0.092 A 
BRANCH  14  17
ATOM     17  O   UNL     1     -36.435 -14.125  23.069  1.00  0.00    -0.508 OA
ATOM     18  H   UNL     1     -35.505 -13.863  22.764  1.00  0.00     0.293 HD
ENDBRANCH  14  17
BRANCH  15  19
ATOM     19  O   UNL     1     -40.252 -13.333  25.910  1.00  0.00    -0.508 OA
ATOM     20  H   UNL     1     -40.125 -13.741  26.829  1.00  0.00     0.293 HD
ENDBRANCH  15  19
ENDBRANCH  10  11
ENDBRANCH   1  10
TORSDOF 6
ENDMDL
MODEL 7
REMARK VINA RESULT:    -6.404      2.216      3.590
REMARK INTER + INTRA:          -8.836
REMARK INTER:                  -8.135
REMARK INTRA:                  -0.701
REMARK UNBOUND:                -0.746
REMARK SMILES Oc1cc(O)cc(CCc2ccccc2O)c1
REMARK SMILES IDX 9 1 10 2 12 3 13 4 11 5 14 6 15 7 16 8 8 10 7 11 6 12 17 13
REMARK SMILES IDX 4 14 2 15 3 16 5 17 1 19
REMARK H PARENT 16 9 5 18 1 20
REMARK Flexibility Score: inf
ROOT
ATOM      1  C   UNL     1     -37.949 -12.598  24.546  1.00  0.00     0.044 C 
ENDROOT
BRANCH   1   2
ATOM      2  C   UNL     1     -39.395 -12.571  24.118  1.00  0.00    -0.006 A 
ATOM      3  C   UNL     1     -41.049 -12.482  22.337  1.00  0.00     0.001 A 
ATOM      4  C   UNL     1     -42.075 -12.589  23.278  1.00  0.00     0.004 A 
ATOM      5  C   UNL     1     -39.715 -12.478  22.753  1.00  0.00     0.007 A 
ATOM      6  C   UNL     1     -41.770 -12.696  24.637  1.00  0.00     0.046 A 
ATOM      7  C   UNL     1     -40.433 -12.694  25.064  1.00  0.00     0.118 A 
BRANCH   7   8
ATOM      8  O   UNL     1     -40.136 -12.817  26.421  1.00  0.00    -0.508 OA
ATOM      9  H   UNL     1     -40.193 -12.026  27.051  1.00  0.00     0.293 HD
ENDBRANCH   7   8
ENDBRANCH   1   2
BRANCH   1  10
ATOM     10  C   UNL     1     -37.260 -11.275  24.200  1.00  0.00     0.040 C 
BRANCH  10  11
ATOM     11  C   UNL     1     -37.725 -10.179  25.121  1.00  0.00    -0.040 A 
ATOM     12  C   UNL     1     -37.807 -10.406  26.504  1.00  0.00     0.050 A 
ATOM     13  C   UNL     1     -38.135  -8.942  24.599  1.00  0.00     0.050 A 
ATOM     14  C   UNL     1     -38.273  -9.397  27.359  1.00  0.00     0.119 A 
ATOM     15  C   UNL     1     -38.600  -7.933  25.453  1.00  0.00     0.119 A 
ATOM     16  C   UNL     1     -38.665  -8.163  26.832  1.00  0.00     0.092 A 
BRANCH  14  17
ATOM     17  O   UNL     1     -38.350  -9.612  28.734  1.00  0.00    -0.508 OA
ATOM     18  H   UNL     1     -37.520  -9.780  29.291  1.00  0.00     0.293 HD
ENDBRANCH  14  17
BRANCH  15  19
ATOM     19  O   UNL     1     -39.003  -6.701  24.944  1.00  0.00    -0.508 OA
ATOM     20  H   UNL     1     -38.490  -5.851  25.147  1.00  0.00     0.293 HD
ENDBRANCH  15  19
ENDBRANCH  10  11
ENDBRANCH   1  10
TORSDOF 6
ENDMDL
MODEL 8
REMARK VINA RESULT:    -6.244      2.258      3.290
REMARK INTER + INTRA:          -8.634
REMARK INTER:                  -8.185
REMARK INTRA:                  -0.448
REMARK UNBOUND:                -0.746
REMARK SMILES Oc1cc(O)cc(CCc2ccccc2O)c1
REMARK SMILES IDX 9 1 10 2 12 3 13 4 11 5 14 6 15 7 16 8 8 10 7 11 6 12 17 13
REMARK SMILES IDX 4 14 2 15 3 16 5 17 1 19
REMARK H PARENT 16 9 5 18 1 20
REMARK Flexibility Score: inf
ROOT
ATOM      1  C   UNL     1     -38.239 -12.363  24.851  1.00  0.00     0.044 C 
ENDROOT
BRANCH   1   2
ATOM      2  C   UNL     1     -39.598 -12.411  24.199  1.00  0.00    -0.006 A 
ATOM      3  C   UNL     1     -40.948 -12.469  22.177  1.00  0.00     0.001 A 
ATOM      4  C   UNL     1     -42.107 -12.572  22.948  1.00  0.00     0.004 A 
ATOM      5  C   UNL     1     -39.698 -12.394  22.797  1.00  0.00     0.007 A 
ATOM      6  C   UNL     1     -42.019 -12.605  24.342  1.00  0.00     0.046 A 
ATOM      7  C   UNL     1     -40.769 -12.531  24.974  1.00  0.00     0.118 A 
BRANCH   7   8
ATOM      8  O   UNL     1     -40.689 -12.580  26.366  1.00  0.00    -0.508 OA
ATOM      9  H   UNL     1     -41.478 -12.867  26.934  1.00  0.00     0.293 HD
ENDBRANCH   7   8
ENDBRANCH   1   2
BRANCH   1  10
ATOM     10  C   UNL     1     -37.362 -11.294  24.190  1.00  0.00     0.040 C 
BRANCH  10  11
ATOM     11  C   UNL     1     -37.522  -9.971  24.889  1.00  0.00    -0.040 A 
ATOM     12  C   UNL     1     -36.707  -8.883  24.538  1.00  0.00     0.050 A 
ATOM     13  C   UNL     1     -38.447  -9.831  25.936  1.00  0.00     0.050 A 
ATOM     14  C   UNL     1     -36.832  -7.660  25.211  1.00  0.00     0.119 A 
ATOM     15  C   UNL     1     -38.573  -8.608  26.609  1.00  0.00     0.119 A 
ATOM     16  C   UNL     1     -37.767  -7.524  26.242  1.00  0.00     0.092 A 
BRANCH  14  17
ATOM     17  O   UNL     1     -36.032  -6.574  24.863  1.00  0.00    -0.508 OA
ATOM     18  H   UNL     1     -36.420  -5.752  24.414  1.00  0.00     0.293 HD
ENDBRANCH  14  17
BRANCH  15  19
ATOM     19  O   UNL     1     -39.493  -8.459  27.644  1.00  0.00    -0.508 OA
ATOM     20  H   UNL     1     -39.378  -8.940  28.528  1.00  0.00     0.293 HD
ENDBRANCH  15  19
ENDBRANCH  10  11
ENDBRANCH   1  10
TORSDOF 6
ENDMDL
