MODEL 1
REMARK VINA RESULT:    -5.264      0.000      0.000
REMARK INTER + INTRA:          -6.100
REMARK INTER:                  -5.879
REMARK INTRA:                  -0.221
REMARK UNBOUND:                -0.221
REMARK SMILES CC(C)c1ccc(C(=O)[O-])cc1
REMARK SMILES IDX 7 1 6 2 11 3 5 4 12 5 4 6 8 7 9 8 10 9 2 10 1 11 3 12
REMARK H PARENT
REMARK Flexibility Score: inf
ROOT
ATOM      1  C   UNL     1      36.147  19.227   8.309  1.00  0.00    -0.003 A 
ATOM      2  C   UNL     1      35.290  19.160   9.421  1.00  0.00     0.010 A 
ATOM      3  C   UNL     1      37.501  18.892   8.473  1.00  0.00     0.010 A 
ATOM      4  C   UNL     1      35.778  18.765  10.670  1.00  0.00     0.004 A 
ATOM      5  C   UNL     1      37.990  18.498   9.722  1.00  0.00     0.004 A 
ATOM      6  C   UNL     1      37.132  18.430  10.835  1.00  0.00    -0.045 A 
ENDROOT
BRANCH   1   7
ATOM      7  C   UNL     1      35.626  19.645   6.989  1.00  0.00     0.071 C 
ATOM      8  O   UNL     1      34.384  19.717   6.785  1.00  0.00    -0.545 OA
ATOM      9  O   UNL     1      36.498  19.964   5.956  1.00  0.00    -0.545 OA
ENDBRANCH   1   7
BRANCH   6  10
ATOM     10  C   UNL     1      37.648  18.003  12.197  1.00  0.00     0.013 C 
ATOM     11  C   UNL     1      36.927  18.754  13.322  1.00  0.00     0.012 C 
ATOM     12  C   UNL     1      39.167  18.188  12.295  1.00  0.00     0.012 C 
ENDBRANCH   6  10
TORSDOF 2
ENDMDL
MODEL 2
REMARK VINA RESULT:    -5.256      0.066      1.680
REMARK INTER + INTRA:          -6.091
REMARK INTER:                  -5.870
REMARK INTRA:                  -0.221
REMARK UNBOUND:                -0.221
REMARK SMILES CC(C)c1ccc(C(=O)[O-])cc1
REMARK SMILES IDX 7 1 6 2 11 3 5 4 12 5 4 6 8 7 9 8 10 9 2 10 1 11 3 12
REMARK H PARENT
REMARK Flexibility Score: inf
ROOT
ATOM      1  C   UNL     1      36.191  19.222   8.297  1.00  0.00    -0.003 A 
ATOM      2  C   UNL     1      37.547  18.906   8.486  1.00  0.00     0.010 A 
ATOM      3  C   UNL     1      35.315  19.141   9.392  1.00  0.00     0.010 A 
ATOM      4  C   UNL     1      38.017  18.520   9.745  1.00  0.00     0.004 A 
ATOM      5  C   UNL     1      35.784  18.754  10.650  1.00  0.00     0.004 A 
ATOM      6  C   UNL     1      37.142  18.439  10.840  1.00  0.00    -0.045 A 
ENDROOT
BRANCH   1   7
ATOM      7  C   UNL     1      35.699  19.631   6.963  1.00  0.00     0.071 C 
ATOM      8  O   UNL     1      36.506  19.993   6.066  1.00  0.00    -0.545 OA
ATOM      9  O   UNL     1      34.338  19.622   6.680  1.00  0.00    -0.545 OA
ENDBRANCH   1   7
BRANCH   6  10
ATOM     10  C   UNL     1      37.665  18.017  12.201  1.00  0.00     0.013 C 
ATOM     11  C   UNL     1      36.957  18.781  13.326  1.00  0.00     0.012 C 
ATOM     12  C   UNL     1      39.186  18.192  12.287  1.00  0.00     0.012 C 
ENDBRANCH   6  10
TORSDOF 2
ENDMDL
MODEL 3
REMARK VINA RESULT:    -5.220      3.829      5.016
REMARK INTER + INTRA:          -6.051
REMARK INTER:                  -5.847
REMARK INTRA:                  -0.204
REMARK UNBOUND:                -0.221
REMARK SMILES CC(C)c1ccc(C(=O)[O-])cc1
REMARK SMILES IDX 7 1 6 2 11 3 5 4 12 5 4 6 8 7 9 8 10 9 2 10 1 11 3 12
REMARK H PARENT
REMARK Flexibility Score: inf
ROOT
ATOM      1  C   UNL     1      40.606  18.472  10.934  1.00  0.00    -0.003 A 
ATOM      2  C   UNL     1      40.068  18.265  12.216  1.00  0.00     0.010 A 
ATOM      3  C   UNL     1      39.738  18.504   9.830  1.00  0.00     0.010 A 
ATOM      4  C   UNL     1      38.692  18.094  12.390  1.00  0.00     0.004 A 
ATOM      5  C   UNL     1      38.362  18.332  10.003  1.00  0.00     0.004 A 
ATOM      6  C   UNL     1      37.823  18.125  11.287  1.00  0.00    -0.045 A 
ENDROOT
BRANCH   1   7
ATOM      7  C   UNL     1      42.063  18.653  10.756  1.00  0.00     0.071 C 
ATOM      8  O   UNL     1      42.869  17.755  11.118  1.00  0.00    -0.545 OA
ATOM      9  O   UNL     1      42.565  19.817  10.185  1.00  0.00    -0.545 OA
ENDBRANCH   1   7
BRANCH   6  10
ATOM     10  C   UNL     1      36.331  17.938  11.490  1.00  0.00     0.013 C 
ATOM     11  C   UNL     1      35.805  18.858  12.597  1.00  0.00     0.012 C 
ATOM     12  C   UNL     1      35.993  16.472  11.782  1.00  0.00     0.012 C 
ENDBRANCH   6  10
TORSDOF 2
ENDMDL
MODEL 4
REMARK VINA RESULT:    -5.171      3.098      4.185
REMARK INTER + INTRA:          -5.996
REMARK INTER:                  -5.791
REMARK INTRA:                  -0.205
REMARK UNBOUND:                -0.221
REMARK SMILES CC(C)c1ccc(C(=O)[O-])cc1
REMARK SMILES IDX 7 1 6 2 11 3 5 4 12 5 4 6 8 7 9 8 10 9 2 10 1 11 3 12
REMARK H PARENT
REMARK Flexibility Score: inf
ROOT
ATOM      1  C   UNL     1      39.240  18.302  10.516  1.00  0.00    -0.003 A 
ATOM      2  C   UNL     1      38.007  18.405   9.849  1.00  0.00     0.010 A 
ATOM      3  C   UNL     1      39.250  18.226  11.919  1.00  0.00     0.010 A 
ATOM      4  C   UNL     1      36.810  18.431  10.570  1.00  0.00     0.004 A 
ATOM      5  C   UNL     1      38.053  18.252  12.640  1.00  0.00     0.004 A 
ATOM      6  C   UNL     1      36.818  18.355  11.973  1.00  0.00    -0.045 A 
ENDROOT
BRANCH   1   7
ATOM      7  C   UNL     1      40.504  18.274   9.749  1.00  0.00     0.071 C 
ATOM      8  O   UNL     1      40.714  17.373   8.893  1.00  0.00    -0.545 OA
ATOM      9  O   UNL     1      41.478  19.242   9.959  1.00  0.00    -0.545 OA
ENDBRANCH   1   7
BRANCH   6  10
ATOM     10  C   UNL     1      35.511  18.384  12.743  1.00  0.00     0.013 C 
ATOM     11  C   UNL     1      34.850  17.001  12.763  1.00  0.00     0.012 C 
ATOM     12  C   UNL     1      34.559  19.443  12.175  1.00  0.00     0.012 C 
ENDBRANCH   6  10
TORSDOF 2
ENDMDL
MODEL 5
REMARK VINA RESULT:    -5.146      3.598      4.908
REMARK INTER + INTRA:          -5.968
REMARK INTER:                  -5.768
REMARK INTRA:                  -0.200
REMARK UNBOUND:                -0.221
REMARK SMILES CC(C)c1ccc(C(=O)[O-])cc1
REMARK SMILES IDX 7 1 6 2 11 3 5 4 12 5 4 6 8 7 9 8 10 9 2 10 1 11 3 12
REMARK H PARENT
REMARK Flexibility Score: inf
ROOT
ATOM      1  C   UNL     1      37.807  17.899  11.985  1.00  0.00    -0.003 A 
ATOM      2  C   UNL     1      37.174  16.760  11.457  1.00  0.00     0.010 A 
ATOM      3  C   UNL     1      37.119  18.684  12.926  1.00  0.00     0.010 A 
ATOM      4  C   UNL     1      35.882  16.414  11.863  1.00  0.00     0.004 A 
ATOM      5  C   UNL     1      35.827  18.338  13.331  1.00  0.00     0.004 A 
ATOM      6  C   UNL     1      35.194  17.198  12.803  1.00  0.00    -0.045 A 
ENDROOT
BRANCH   1   7
ATOM      7  C   UNL     1      39.174  18.261  11.553  1.00  0.00     0.071 C 
ATOM      8  O   UNL     1      40.130  18.248  12.375  1.00  0.00    -0.545 OA
ATOM      9  O   UNL     1      39.426  18.621  10.235  1.00  0.00    -0.545 OA
ENDBRANCH   1   7
BRANCH   6  10
ATOM     10  C   UNL     1      33.792  16.810  13.234  1.00  0.00     0.013 C 
ATOM     11  C   UNL     1      32.815  17.978  13.052  1.00  0.00     0.012 C 
ATOM     12  C   UNL     1      33.779  16.300  14.680  1.00  0.00     0.012 C 
ENDBRANCH   6  10
TORSDOF 2
ENDMDL
MODEL 6
REMARK VINA RESULT:    -5.120      3.511      4.968
REMARK INTER + INTRA:          -5.939
REMARK INTER:                  -5.731
REMARK INTRA:                  -0.208
REMARK UNBOUND:                -0.221
REMARK SMILES CC(C)c1ccc(C(=O)[O-])cc1
REMARK SMILES IDX 7 1 6 2 11 3 5 4 12 5 4 6 8 7 9 8 10 9 2 10 1 11 3 12
REMARK H PARENT
REMARK Flexibility Score: inf
ROOT
ATOM      1  C   UNL     1      38.125  18.185  11.499  1.00  0.00    -0.003 A 
ATOM      2  C   UNL     1      39.286  18.181  12.292  1.00  0.00     0.010 A 
ATOM      3  C   UNL     1      38.251  18.347  10.110  1.00  0.00     0.010 A 
ATOM      4  C   UNL     1      40.546  18.335  11.706  1.00  0.00     0.004 A 
ATOM      5  C   UNL     1      39.510  18.502   9.524  1.00  0.00     0.004 A 
ATOM      6  C   UNL     1      40.673  18.497  10.316  1.00  0.00    -0.045 A 
ENDROOT
BRANCH   1   7
ATOM      7  C   UNL     1      36.794  18.021  12.124  1.00  0.00     0.071 C 
ATOM      8  O   UNL     1      35.895  17.352  11.549  1.00  0.00    -0.545 OA
ATOM      9  O   UNL     1      36.516  18.603  13.355  1.00  0.00    -0.545 OA
ENDBRANCH   1   7
BRANCH   6  10
ATOM     10  C   UNL     1      42.046  18.663   9.694  1.00  0.00     0.013 C 
ATOM     11  C   UNL     1      42.793  17.326   9.637  1.00  0.00     0.012 C 
ATOM     12  C   UNL     1      42.867  19.722  10.440  1.00  0.00     0.012 C 
ENDBRANCH   6  10
TORSDOF 2
ENDMDL
MODEL 7
REMARK VINA RESULT:    -5.076      3.031      4.341
REMARK INTER + INTRA:          -5.890
REMARK INTER:                  -5.680
REMARK INTRA:                  -0.210
REMARK UNBOUND:                -0.221
REMARK SMILES CC(C)c1ccc(C(=O)[O-])cc1
REMARK SMILES IDX 7 1 6 2 11 3 5 4 12 5 4 6 8 7 9 8 10 9 2 10 1 11 3 12
REMARK H PARENT
REMARK Flexibility Score: inf
ROOT
ATOM      1  C   UNL     1      36.368  18.111  11.757  1.00  0.00    -0.003 A 
ATOM      2  C   UNL     1      36.506  18.298  10.371  1.00  0.00     0.010 A 
ATOM      3  C   UNL     1      37.522  18.080  12.557  1.00  0.00     0.010 A 
ATOM      4  C   UNL     1      37.772  18.451   9.798  1.00  0.00     0.004 A 
ATOM      5  C   UNL     1      38.788  18.233  11.984  1.00  0.00     0.004 A 
ATOM      6  C   UNL     1      38.927  18.420  10.597  1.00  0.00    -0.045 A 
ENDROOT
BRANCH   1   7
ATOM      7  C   UNL     1      35.027  17.950  12.358  1.00  0.00     0.071 C 
ATOM      8  O   UNL     1      34.625  16.817  12.735  1.00  0.00    -0.545 OA
ATOM      9  O   UNL     1      34.189  19.048  12.518  1.00  0.00    -0.545 OA
ENDBRANCH   1   7
BRANCH   6  10
ATOM     10  C   UNL     1      40.294  18.587   9.962  1.00  0.00     0.013 C 
ATOM     11  C   UNL     1      40.520  17.552   8.854  1.00  0.00     0.012 C 
ATOM     12  C   UNL     1      41.406  18.518  11.015  1.00  0.00     0.012 C 
ENDBRANCH   6  10
TORSDOF 2
ENDMDL
MODEL 8
REMARK VINA RESULT:    -5.042      2.937      4.255
REMARK INTER + INTRA:          -5.852
REMARK INTER:                  -5.644
REMARK INTRA:                  -0.209
REMARK UNBOUND:                -0.221
REMARK SMILES CC(C)c1ccc(C(=O)[O-])cc1
REMARK SMILES IDX 7 1 6 2 11 3 5 4 12 5 4 6 8 7 9 8 10 9 2 10 1 11 3 12
REMARK H PARENT
REMARK Flexibility Score: inf
ROOT
ATOM      1  C   UNL     1      37.998  18.497  10.719  1.00  0.00    -0.003 A 
ATOM      2  C   UNL     1      38.663  18.176  11.915  1.00  0.00     0.010 A 
ATOM      3  C   UNL     1      38.759  18.830   9.586  1.00  0.00     0.010 A 
ATOM      4  C   UNL     1      40.060  18.187  11.976  1.00  0.00     0.004 A 
ATOM      5  C   UNL     1      40.155  18.842   9.647  1.00  0.00     0.004 A 
ATOM      6  C   UNL     1      40.822  18.520  10.844  1.00  0.00    -0.045 A 
ENDROOT
BRANCH   1   7
ATOM      7  C   UNL     1      36.520  18.483  10.660  1.00  0.00     0.071 C 
ATOM      8  O   UNL     1      35.847  17.954  11.584  1.00  0.00    -0.545 OA
ATOM      9  O   UNL     1      35.852  19.053   9.583  1.00  0.00    -0.545 OA
ENDBRANCH   1   7
BRANCH   6  10
ATOM     10  C   UNL     1      42.337  18.528  10.924  1.00  0.00     0.013 C 
ATOM     11  C   UNL     1      42.915  19.813  10.320  1.00  0.00     0.012 C 
ATOM     12  C   UNL     1      42.933  17.286  10.252  1.00  0.00     0.012 C 
ENDBRANCH   6  10
TORSDOF 2
ENDMDL
MODEL 9
REMARK VINA RESULT:    -5.018      9.269     10.745
REMARK INTER + INTRA:          -5.826
REMARK INTER:                  -5.619
REMARK INTRA:                  -0.207
REMARK UNBOUND:                -0.221
REMARK SMILES CC(C)c1ccc(C(=O)[O-])cc1
REMARK SMILES IDX 7 1 6 2 11 3 5 4 12 5 4 6 8 7 9 8 10 9 2 10 1 11 3 12
REMARK H PARENT
REMARK Flexibility Score: inf
ROOT
ATOM      1  C   UNL     1      32.643  13.745  15.714  1.00  0.00    -0.003 A 
ATOM      2  C   UNL     1      32.657  12.440  15.193  1.00  0.00     0.010 A 
ATOM      3  C   UNL     1      31.409  14.391  15.895  1.00  0.00     0.010 A 
ATOM      4  C   UNL     1      31.463  11.794  14.861  1.00  0.00     0.004 A 
ATOM      5  C   UNL     1      30.214  13.746  15.562  1.00  0.00     0.004 A 
ATOM      6  C   UNL     1      30.228  12.440  15.040  1.00  0.00    -0.045 A 
ENDROOT
BRANCH   1   7
ATOM      7  C   UNL     1      33.910  14.423  16.065  1.00  0.00     0.071 C 
ATOM      8  O   UNL     1      34.999  14.053  15.549  1.00  0.00    -0.545 OA
ATOM      9  O   UNL     1      33.918  15.478  16.969  1.00  0.00    -0.545 OA
ENDBRANCH   1   7
BRANCH   6  10
ATOM     10  C   UNL     1      28.939  11.728  14.675  1.00  0.00     0.013 C 
ATOM     11  C   UNL     1      28.262  12.393  13.471  1.00  0.00     0.012 C 
ATOM     12  C   UNL     1      27.987  11.658  15.874  1.00  0.00     0.012 C 
ENDBRANCH   6  10
TORSDOF 2
ENDMDL
