MODEL 1
REMARK VINA RESULT:    -3.840      0.000      0.000
REMARK INTER + INTRA:          -4.540
REMARK INTER:                  -4.513
REMARK INTRA:                  -0.026
REMARK UNBOUND:                -0.026
REMARK SMILES O=C([O-])CCC(=O)[O-]
REMARK SMILES IDX 4 1 2 2 1 3 3 4 5 5 6 6 7 7 8 8
REMARK H PARENT
REMARK Flexibility Score: inf
ROOT
ATOM      1  C   UNL     1       3.463 -36.518  17.226  1.00  0.00     0.059 C 
ENDROOT
BRANCH   1   2
ATOM      2  C   UNL     1       2.864 -37.100  15.986  1.00  0.00     0.042 C 
ATOM      3  O   UNL     1       1.707 -36.761  15.621  1.00  0.00    -0.550 OA
ATOM      4  O   UNL     1       3.600 -37.983  15.206  1.00  0.00    -0.550 OA
ENDBRANCH   1   2
BRANCH   1   5
ATOM      5  C   UNL     1       3.239 -37.452  18.417  1.00  0.00     0.059 C 
BRANCH   5   6
ATOM      6  C   UNL     1       4.145 -37.081  19.549  1.00  0.00     0.042 C 
ATOM      7  O   UNL     1       5.145 -37.797  19.821  1.00  0.00    -0.550 OA
ATOM      8  O   UNL     1       3.859 -35.971  20.333  1.00  0.00    -0.550 OA
ENDBRANCH   5   6
ENDBRANCH   1   5
TORSDOF 3
ENDMDL
MODEL 2
REMARK VINA RESULT:    -3.838      0.120      4.263
REMARK INTER + INTRA:          -4.538
REMARK INTER:                  -4.510
REMARK INTRA:                  -0.028
REMARK UNBOUND:                -0.026
REMARK SMILES O=C([O-])CCC(=O)[O-]
REMARK SMILES IDX 4 1 2 2 1 3 3 4 5 5 6 6 7 7 8 8
REMARK H PARENT
REMARK Flexibility Score: inf
ROOT
ATOM      1  C   UNL     1       3.301 -37.504  18.468  1.00  0.00     0.059 C 
ENDROOT
BRANCH   1   2
ATOM      2  C   UNL     1       4.197 -37.137  19.607  1.00  0.00     0.042 C 
ATOM      3  O   UNL     1       5.195 -37.852  19.885  1.00  0.00    -0.550 OA
ATOM      4  O   UNL     1       3.958 -35.977  20.334  1.00  0.00    -0.550 OA
ENDBRANCH   1   2
BRANCH   1   5
ATOM      5  C   UNL     1       3.480 -36.522  17.308  1.00  0.00     0.059 C 
BRANCH   5   6
ATOM      6  C   UNL     1       2.876 -37.076  16.057  1.00  0.00     0.042 C 
ATOM      7  O   UNL     1       3.504 -37.927  15.372  1.00  0.00    -0.550 OA
ATOM      8  O   UNL     1       1.640 -36.618  15.620  1.00  0.00    -0.550 OA
ENDBRANCH   5   6
ENDBRANCH   1   5
TORSDOF 3
ENDMDL
MODEL 3
REMARK VINA RESULT:    -3.719      1.250      4.155
REMARK INTER + INTRA:          -4.398
REMARK INTER:                  -4.358
REMARK INTRA:                  -0.040
REMARK UNBOUND:                -0.026
REMARK SMILES O=C([O-])CCC(=O)[O-]
REMARK SMILES IDX 4 1 2 2 1 3 3 4 5 5 6 6 7 7 8 8
REMARK H PARENT
REMARK Flexibility Score: inf
ROOT
ATOM      1  C   UNL     1       2.417 -37.478  17.504  1.00  0.00     0.059 C 
ENDROOT
BRANCH   1   2
ATOM      2  C   UNL     1       2.995 -37.411  18.882  1.00  0.00     0.042 C 
ATOM      3  O   UNL     1       2.267 -37.630  19.885  1.00  0.00    -0.550 OA
ATOM      4  O   UNL     1       4.348 -37.152  19.057  1.00  0.00    -0.550 OA
ENDBRANCH   1   2
BRANCH   1   5
ATOM      5  C   UNL     1       3.213 -36.588  16.547  1.00  0.00     0.059 C 
BRANCH   5   6
ATOM      6  C   UNL     1       3.100 -37.096  15.145  1.00  0.00     0.042 C 
ATOM      7  O   UNL     1       3.912 -37.958  14.716  1.00  0.00    -0.550 OA
ATOM      8  O   UNL     1       2.127 -36.584  14.296  1.00  0.00    -0.550 OA
ENDBRANCH   5   6
ENDBRANCH   1   5
TORSDOF 3
ENDMDL
MODEL 4
REMARK VINA RESULT:    -3.692      1.574      2.027
REMARK INTER + INTRA:          -4.366
REMARK INTER:                  -4.316
REMARK INTRA:                  -0.051
REMARK UNBOUND:                -0.026
REMARK SMILES O=C([O-])CCC(=O)[O-]
REMARK SMILES IDX 4 1 2 2 1 3 3 4 5 5 6 6 7 7 8 8
REMARK H PARENT
REMARK Flexibility Score: inf
ROOT
ATOM      1  C   UNL     1       2.379 -36.782  16.582  1.00  0.00     0.059 C 
ENDROOT
BRANCH   1   2
ATOM      2  C   UNL     1       2.827 -37.198  15.216  1.00  0.00     0.042 C 
ATOM      3  O   UNL     1       3.724 -38.071  15.083  1.00  0.00    -0.550 OA
ATOM      4  O   UNL     1       2.220 -36.657  14.091  1.00  0.00    -0.550 OA
ENDBRANCH   1   2
BRANCH   1   5
ATOM      5  C   UNL     1       3.353 -37.296  17.643  1.00  0.00     0.059 C 
BRANCH   5   6
ATOM      6  C   UNL     1       2.643 -37.513  18.942  1.00  0.00     0.042 C 
ATOM      7  O   UNL     1       3.245 -37.323  20.033  1.00  0.00    -0.550 OA
ATOM      8  O   UNL     1       1.332 -37.971  18.950  1.00  0.00    -0.550 OA
ENDBRANCH   5   6
ENDBRANCH   1   5
TORSDOF 3
ENDMDL
MODEL 5
REMARK VINA RESULT:    -3.670      1.998      4.375
REMARK INTER + INTRA:          -4.340
REMARK INTER:                  -4.304
REMARK INTRA:                  -0.037
REMARK UNBOUND:                -0.026
REMARK SMILES O=C([O-])CCC(=O)[O-]
REMARK SMILES IDX 4 1 2 2 1 3 3 4 5 5 6 6 7 7 8 8
REMARK H PARENT
REMARK Flexibility Score: inf
ROOT
ATOM      1  C   UNL     1       4.014 -36.366  20.135  1.00  0.00     0.059 C 
ENDROOT
BRANCH   1   2
ATOM      2  C   UNL     1       5.391 -35.856  20.425  1.00  0.00     0.042 C 
ATOM      3  O   UNL     1       6.047 -35.260  19.532  1.00  0.00    -0.550 OA
ATOM      4  O   UNL     1       5.930 -35.997  21.697  1.00  0.00    -0.550 OA
ENDBRANCH   1   2
BRANCH   1   5
ATOM      5  C   UNL     1       4.072 -37.505  19.115  1.00  0.00     0.059 C 
BRANCH   5   6
ATOM      6  C   UNL     1       2.824 -37.530  18.290  1.00  0.00     0.042 C 
ATOM      7  O   UNL     1       2.853 -37.159  17.086  1.00  0.00    -0.550 OA
ATOM      8  O   UNL     1       1.620 -37.917  18.862  1.00  0.00    -0.550 OA
ENDBRANCH   5   6
ENDBRANCH   1   5
TORSDOF 3
ENDMDL
MODEL 6
REMARK VINA RESULT:    -3.656      1.923      2.313
REMARK INTER + INTRA:          -4.324
REMARK INTER:                  -4.234
REMARK INTRA:                  -0.089
REMARK UNBOUND:                -0.026
REMARK SMILES O=C([O-])CCC(=O)[O-]
REMARK SMILES IDX 4 1 2 2 1 3 3 4 5 5 6 6 7 7 8 8
REMARK H PARENT
REMARK Flexibility Score: inf
ROOT
ATOM      1  C   UNL     1       3.943 -37.477  19.158  1.00  0.00     0.059 C 
ENDROOT
BRANCH   1   2
ATOM      2  C   UNL     1       3.028 -37.135  18.025  1.00  0.00     0.042 C 
ATOM      3  O   UNL     1       1.837 -37.543  18.029  1.00  0.00    -0.550 OA
ATOM      4  O   UNL     1       3.476 -36.328  16.988  1.00  0.00    -0.550 OA
ENDBRANCH   1   2
BRANCH   1   5
ATOM      5  C   UNL     1       3.917 -36.372  20.217  1.00  0.00     0.059 C 
BRANCH   5   6
ATOM      6  C   UNL     1       5.303 -35.880  20.493  1.00  0.00     0.042 C 
ATOM      7  O   UNL     1       5.807 -36.016  21.639  1.00  0.00    -0.550 OA
ATOM      8  O   UNL     1       6.020 -35.229  19.498  1.00  0.00    -0.550 OA
ENDBRANCH   5   6
ENDBRANCH   1   5
TORSDOF 3
ENDMDL
MODEL 7
REMARK VINA RESULT:    -3.647      2.026      2.645
REMARK INTER + INTRA:          -4.313
REMARK INTER:                  -4.266
REMARK INTRA:                  -0.047
REMARK UNBOUND:                -0.026
REMARK SMILES O=C([O-])CCC(=O)[O-]
REMARK SMILES IDX 4 1 2 2 1 3 3 4 5 5 6 6 7 7 8 8
REMARK H PARENT
REMARK Flexibility Score: inf
ROOT
ATOM      1  C   UNL     1       4.083 -37.528  19.208  1.00  0.00     0.059 C 
ENDROOT
BRANCH   1   2
ATOM      2  C   UNL     1       2.847 -37.515  18.366  1.00  0.00     0.042 C 
ATOM      3  O   UNL     1       2.918 -37.224  17.143  1.00  0.00    -0.550 OA
ATOM      4  O   UNL     1       1.624 -37.869  18.920  1.00  0.00    -0.550 OA
ENDBRANCH   1   2
BRANCH   1   5
ATOM      5  C   UNL     1       4.090 -36.335  20.166  1.00  0.00     0.059 C 
BRANCH   5   6
ATOM      6  C   UNL     1       5.448 -35.709  20.210  1.00  0.00     0.042 C 
ATOM      7  O   UNL     1       6.124 -35.735  21.273  1.00  0.00    -0.550 OA
ATOM      8  O   UNL     1       5.949 -35.055  19.091  1.00  0.00    -0.550 OA
ENDBRANCH   5   6
ENDBRANCH   1   5
TORSDOF 3
ENDMDL
MODEL 8
REMARK VINA RESULT:    -3.584      2.774      5.640
REMARK INTER + INTRA:          -4.239
REMARK INTER:                  -4.128
REMARK INTRA:                  -0.110
REMARK UNBOUND:                -0.026
REMARK SMILES O=C([O-])CCC(=O)[O-]
REMARK SMILES IDX 4 1 2 2 1 3 3 4 5 5 6 6 7 7 8 8
REMARK H PARENT
REMARK Flexibility Score: inf
ROOT
ATOM      1  C   UNL     1       5.864 -35.693  21.175  1.00  0.00     0.059 C 
ENDROOT
BRANCH   1   2
ATOM      2  C   UNL     1       5.727 -35.733  22.664  1.00  0.00     0.042 C 
ATOM      3  O   UNL     1       6.077 -36.758  23.305  1.00  0.00    -0.550 OA
ATOM      4  O   UNL     1       5.256 -34.620  23.348  1.00  0.00    -0.550 OA
ENDBRANCH   1   2
BRANCH   1   5
ATOM      5  C   UNL     1       4.520 -35.991  20.507  1.00  0.00     0.059 C 
BRANCH   5   6
ATOM      6  C   UNL     1       4.593 -37.268  19.732  1.00  0.00     0.042 C 
ATOM      7  O   UNL     1       3.880 -37.429  18.706  1.00  0.00    -0.550 OA
ATOM      8  O   UNL     1       5.415 -38.300  20.168  1.00  0.00    -0.550 OA
ENDBRANCH   5   6
ENDBRANCH   1   5
TORSDOF 3
ENDMDL
MODEL 9
REMARK VINA RESULT:    -3.410      2.910      4.245
REMARK INTER + INTRA:          -4.035
REMARK INTER:                  -3.995
REMARK INTRA:                  -0.040
REMARK UNBOUND:                -0.026
REMARK SMILES O=C([O-])CCC(=O)[O-]
REMARK SMILES IDX 4 1 2 2 1 3 3 4 5 5 6 6 7 7 8 8
REMARK H PARENT
REMARK Flexibility Score: inf
ROOT
ATOM      1  C   UNL     1       5.358 -36.864  20.898  1.00  0.00     0.059 C 
ENDROOT
BRANCH   1   2
ATOM      2  C   UNL     1       4.697 -36.562  19.590  1.00  0.00     0.042 C 
ATOM      3  O   UNL     1       3.957 -37.421  19.042  1.00  0.00    -0.550 OA
ATOM      4  O   UNL     1       4.860 -35.316  18.999  1.00  0.00    -0.550 OA
ENDBRANCH   1   2
BRANCH   1   5
ATOM      5  C   UNL     1       6.016 -35.605  21.466  1.00  0.00     0.059 C 
BRANCH   5   6
ATOM      6  C   UNL     1       5.896 -35.580  22.957  1.00  0.00     0.042 C 
ATOM      7  O   UNL     1       6.077 -36.634  23.624  1.00  0.00    -0.550 OA
ATOM      8  O   UNL     1       5.540 -34.406  23.606  1.00  0.00    -0.550 OA
ENDBRANCH   5   6
ENDBRANCH   1   5
TORSDOF 3
ENDMDL
