MODEL 1
REMARK VINA RESULT:    -4.661      0.000      0.000
REMARK INTER + INTRA:         -10.715
REMARK INTER:                  -8.747
REMARK INTRA:                  -1.967
REMARK UNBOUND:                -1.967
REMARK SMILES CCCCCCCCC=CCCCCCCCC(=O)[O-]
REMARK SMILES IDX 10 1 9 2 11 3 12 4 13 5 14 6 15 7 16 8 17 9 18 10 19 11
REMARK SMILES IDX 20 12 8 13 7 14 6 15 5 16 4 17 3 18 2 19 1 20
REMARK H PARENT
REMARK Flexibility Score: inf
ROOT
ATOM      1  C   UNL     1     128.554 121.310 141.172  1.00  0.00    -0.031 C 
ATOM      2  C   UNL     1     127.518 121.252 140.316  1.00  0.00    -0.031 C 
ENDROOT
BRANCH   1   3
ATOM      3  C   UNL     1     129.447 122.511 141.353  1.00  0.00     0.027 C 
BRANCH   3   4
ATOM      4  C   UNL     1     130.920 122.120 141.160  1.00  0.00     0.004 C 
BRANCH   4   5
ATOM      5  C   UNL     1     131.546 122.770 139.917  1.00  0.00     0.000 C 
BRANCH   5   6
ATOM      6  C   UNL     1     131.759 121.763 138.773  1.00  0.00     0.000 C 
BRANCH   6   7
ATOM      7  C   UNL     1     130.459 121.443 138.018  1.00  0.00     0.000 C 
BRANCH   7   8
ATOM      8  C   UNL     1     130.089 119.951 138.081  1.00  0.00     0.006 C 
BRANCH   8   9
ATOM      9  C   UNL     1     130.910 119.196 139.135  1.00  0.00     0.053 C 
BRANCH   9  10
ATOM     10  C   UNL     1     130.103 118.131 139.812  1.00  0.00     0.041 C 
ATOM     11  O   UNL     1     130.631 117.391 140.682  1.00  0.00    -0.550 OA
ATOM     12  O   UNL     1     128.756 117.979 139.505  1.00  0.00    -0.550 OA
ENDBRANCH   9  10
ENDBRANCH   8   9
ENDBRANCH   7   8
ENDBRANCH   6   7
ENDBRANCH   5   6
ENDBRANCH   4   5
ENDBRANCH   3   4
ENDBRANCH   1   3
BRANCH   2  13
ATOM     13  C   UNL     1     127.147 122.347 139.343  1.00  0.00     0.027 C 
BRANCH  13  14
ATOM     14  C   UNL     1     126.567 121.793 138.027  1.00  0.00     0.004 C 
BRANCH  14  15
ATOM     15  C   UNL     1     125.195 122.384 137.647  1.00  0.00     0.000 C 
BRANCH  15  16
ATOM     16  C   UNL     1     125.079 122.878 136.195  1.00  0.00     0.000 C 
BRANCH  16  17
ATOM     17  C   UNL     1     126.254 122.422 135.311  1.00  0.00    -0.000 C 
BRANCH  17  18
ATOM     18  C   UNL     1     125.864 122.304 133.831  1.00  0.00    -0.000 C 
BRANCH  18  19
ATOM     19  C   UNL     1     126.191 123.577 133.035  1.00  0.00    -0.003 C 
ATOM     20  C   UNL     1     127.560 124.130 133.421  1.00  0.00     0.004 C 
ENDBRANCH  18  19
ENDBRANCH  17  18
ENDBRANCH  16  17
ENDBRANCH  15  16
ENDBRANCH  14  15
ENDBRANCH  13  14
ENDBRANCH   2  13
TORSDOF 15
ENDMDL
MODEL 2
REMARK VINA RESULT:    -4.472      3.003      6.380
REMARK INTER + INTRA:         -10.361
REMARK INTER:                  -7.386
REMARK INTRA:                  -2.975
REMARK UNBOUND:                -1.967
REMARK SMILES CCCCCCCCC=CCCCCCCCC(=O)[O-]
REMARK SMILES IDX 10 1 9 2 11 3 12 4 13 5 14 6 15 7 16 8 17 9 18 10 19 11
REMARK SMILES IDX 20 12 8 13 7 14 6 15 5 16 4 17 3 18 2 19 1 20
REMARK H PARENT
REMARK Flexibility Score: inf
ROOT
ATOM      1  C   UNL     1     129.067 119.308 138.338  1.00  0.00    -0.031 C 
ATOM      2  C   UNL     1     129.952 120.281 138.052  1.00  0.00    -0.031 C 
ENDROOT
BRANCH   1   3
ATOM      3  C   UNL     1     129.230 118.306 139.453  1.00  0.00     0.027 C 
BRANCH   3   4
ATOM      4  C   UNL     1     127.862 117.759 139.888  1.00  0.00     0.004 C 
BRANCH   4   5
ATOM      5  C   UNL     1     126.800 117.877 138.783  1.00  0.00     0.000 C 
BRANCH   5   6
ATOM      6  C   UNL     1     125.503 118.536 139.285  1.00  0.00     0.000 C 
BRANCH   6   7
ATOM      7  C   UNL     1     124.980 119.616 138.324  1.00  0.00     0.000 C 
BRANCH   7   8
ATOM      8  C   UNL     1     125.607 119.516 136.922  1.00  0.00     0.006 C 
BRANCH   8   9
ATOM      9  C   UNL     1     126.030 120.888 136.379  1.00  0.00     0.053 C 
BRANCH   9  10
ATOM     10  C   UNL     1     125.559 121.098 134.972  1.00  0.00     0.041 C 
ATOM     11  O   UNL     1     126.045 122.025 134.272  1.00  0.00    -0.550 OA
ATOM     12  O   UNL     1     124.605 120.250 134.424  1.00  0.00    -0.550 OA
ENDBRANCH   9  10
ENDBRANCH   8   9
ENDBRANCH   7   8
ENDBRANCH   6   7
ENDBRANCH   5   6
ENDBRANCH   4   5
ENDBRANCH   3   4
ENDBRANCH   1   3
BRANCH   2  13
ATOM     13  C   UNL     1     131.281 120.462 138.746  1.00  0.00     0.027 C 
BRANCH  13  14
ATOM     14  C   UNL     1     131.820 121.901 138.619  1.00  0.00     0.004 C 
BRANCH  14  15
ATOM     15  C   UNL     1     131.612 122.763 139.880  1.00  0.00     0.000 C 
BRANCH  15  16
ATOM     16  C   UNL     1     130.945 122.036 141.060  1.00  0.00     0.000 C 
BRANCH  16  17
ATOM     17  C   UNL     1     129.481 122.461 141.275  1.00  0.00    -0.000 C 
BRANCH  17  18
ATOM     18  C   UNL     1     128.521 121.262 141.303  1.00  0.00    -0.000 C 
BRANCH  18  19
ATOM     19  C   UNL     1     127.147 121.597 140.703  1.00  0.00    -0.003 C 
ATOM     20  C   UNL     1     127.290 122.441 139.440  1.00  0.00     0.004 C 
ENDBRANCH  18  19
ENDBRANCH  17  18
ENDBRANCH  16  17
ENDBRANCH  15  16
ENDBRANCH  14  15
ENDBRANCH  13  14
ENDBRANCH   2  13
TORSDOF 15
ENDMDL
MODEL 3
REMARK VINA RESULT:    -4.466      3.511      7.024
REMARK INTER + INTRA:         -10.350
REMARK INTER:                  -7.948
REMARK INTRA:                  -2.402
REMARK UNBOUND:                -1.967
REMARK SMILES CCCCCCCCC=CCCCCCCCC(=O)[O-]
REMARK SMILES IDX 10 1 9 2 11 3 12 4 13 5 14 6 15 7 16 8 17 9 18 10 19 11
REMARK SMILES IDX 20 12 8 13 7 14 6 15 5 16 4 17 3 18 2 19 1 20
REMARK H PARENT
REMARK Flexibility Score: inf
ROOT
ATOM      1  C   UNL     1     127.112 121.536 140.122  1.00  0.00    -0.031 C 
ATOM      2  C   UNL     1     128.037 121.424 141.093  1.00  0.00    -0.031 C 
ENDROOT
BRANCH   1   3
ATOM      3  C   UNL     1     127.077 122.643 139.098  1.00  0.00     0.027 C 
BRANCH   3   4
ATOM      4  C   UNL     1     127.413 122.095 137.704  1.00  0.00     0.004 C 
BRANCH   4   5
ATOM      5  C   UNL     1     126.333 121.142 137.167  1.00  0.00     0.000 C 
BRANCH   5   6
ATOM      6  C   UNL     1     125.889 121.503 135.739  1.00  0.00     0.000 C 
BRANCH   6   7
ATOM      7  C   UNL     1     126.419 122.873 135.285  1.00  0.00     0.000 C 
BRANCH   7   8
ATOM      8  C   UNL     1     126.372 123.049 133.757  1.00  0.00     0.006 C 
BRANCH   8   9
ATOM      9  C   UNL     1     125.765 124.399 133.349  1.00  0.00     0.053 C 
BRANCH   9  10
ATOM     10  C   UNL     1     124.379 124.572 133.891  1.00  0.00     0.041 C 
ATOM     11  O   UNL     1     123.524 123.658 133.751  1.00  0.00    -0.550 OA
ATOM     12  O   UNL     1     124.041 125.730 134.580  1.00  0.00    -0.550 OA
ENDBRANCH   9  10
ENDBRANCH   8   9
ENDBRANCH   7   8
ENDBRANCH   6   7
ENDBRANCH   5   6
ENDBRANCH   4   5
ENDBRANCH   3   4
ENDBRANCH   1   3
BRANCH   2  13
ATOM     13  C   UNL     1     129.128 122.435 141.359  1.00  0.00     0.027 C 
BRANCH  13  14
ATOM     14  C   UNL     1     130.515 121.936 140.907  1.00  0.00     0.004 C 
BRANCH  14  15
ATOM     15  C   UNL     1     130.950 122.459 139.523  1.00  0.00     0.000 C 
BRANCH  15  16
ATOM     16  C   UNL     1     131.252 121.369 138.482  1.00  0.00     0.000 C 
BRANCH  16  17
ATOM     17  C   UNL     1     130.856 119.960 138.957  1.00  0.00    -0.000 C 
BRANCH  17  18
ATOM     18  C   UNL     1     129.552 119.468 138.312  1.00  0.00    -0.000 C 
BRANCH  18  19
ATOM     19  C   UNL     1     128.869 118.366 139.137  1.00  0.00    -0.003 C 
ATOM     20  C   UNL     1     129.643 118.082 140.421  1.00  0.00     0.004 C 
ENDBRANCH  18  19
ENDBRANCH  17  18
ENDBRANCH  16  17
ENDBRANCH  15  16
ENDBRANCH  14  15
ENDBRANCH  13  14
ENDBRANCH   2  13
TORSDOF 15
ENDMDL
MODEL 4
REMARK VINA RESULT:    -4.416      3.091      6.387
REMARK INTER + INTRA:         -10.256
REMARK INTER:                  -7.546
REMARK INTRA:                  -2.710
REMARK UNBOUND:                -1.967
REMARK SMILES CCCCCCCCC=CCCCCCCCC(=O)[O-]
REMARK SMILES IDX 10 1 9 2 11 3 12 4 13 5 14 6 15 7 16 8 17 9 18 10 19 11
REMARK SMILES IDX 20 12 8 13 7 14 6 15 5 16 4 17 3 18 2 19 1 20
REMARK H PARENT
REMARK Flexibility Score: inf
ROOT
ATOM      1  C   UNL     1     129.613 122.169 141.374  1.00  0.00    -0.031 C 
ATOM      2  C   UNL     1     130.905 122.138 140.998  1.00  0.00    -0.031 C 
ENDROOT
BRANCH   1   3
ATOM      3  C   UNL     1     128.464 122.503 140.457  1.00  0.00     0.027 C 
BRANCH   3   4
ATOM      4  C   UNL     1     127.123 122.200 141.143  1.00  0.00     0.004 C 
BRANCH   4   5
ATOM      5  C   UNL     1     126.103 121.561 140.189  1.00  0.00     0.000 C 
BRANCH   5   6
ATOM      6  C   UNL     1     126.431 121.831 138.710  1.00  0.00     0.000 C 
BRANCH   6   7
ATOM      7  C   UNL     1     125.937 120.711 137.781  1.00  0.00     0.000 C 
BRANCH   7   8
ATOM      8  C   UNL     1     126.067 121.076 136.292  1.00  0.00     0.006 C 
BRANCH   8   9
ATOM      9  C   UNL     1     126.718 122.451 136.088  1.00  0.00     0.053 C 
BRANCH   9  10
ATOM     10  C   UNL     1     126.045 123.229 134.999  1.00  0.00     0.041 C 
ATOM     11  O   UNL     1     124.994 123.879 135.240  1.00  0.00    -0.550 OA
ATOM     12  O   UNL     1     126.598 123.263 133.725  1.00  0.00    -0.550 OA
ENDBRANCH   9  10
ENDBRANCH   8   9
ENDBRANCH   7   8
ENDBRANCH   6   7
ENDBRANCH   5   6
ENDBRANCH   4   5
ENDBRANCH   3   4
ENDBRANCH   1   3
BRANCH   2  13
ATOM     13  C   UNL     1     131.407 122.518 139.625  1.00  0.00     0.027 C 
BRANCH  13  14
ATOM     14  C   UNL     1     131.505 121.305 138.678  1.00  0.00     0.004 C 
BRANCH  14  15
ATOM     15  C   UNL     1     130.177 120.942 137.984  1.00  0.00     0.000 C 
BRANCH  15  16
ATOM     16  C   UNL     1     129.579 119.586 138.394  1.00  0.00     0.000 C 
BRANCH  16  17
ATOM     17  C   UNL     1     130.407 118.868 139.474  1.00  0.00    -0.000 C 
BRANCH  17  18
ATOM     18  C   UNL     1     129.550 117.947 140.355  1.00  0.00    -0.000 C 
BRANCH  18  19
ATOM     19  C   UNL     1     128.381 118.691 141.017  1.00  0.00    -0.003 C 
ATOM     20  C   UNL     1     127.048 118.024 140.690  1.00  0.00     0.004 C 
ENDBRANCH  18  19
ENDBRANCH  17  18
ENDBRANCH  16  17
ENDBRANCH  15  16
ENDBRANCH  14  15
ENDBRANCH  13  14
ENDBRANCH   2  13
TORSDOF 15
ENDMDL
MODEL 5
REMARK VINA RESULT:    -4.408      2.089      3.037
REMARK INTER + INTRA:         -10.241
REMARK INTER:                  -8.212
REMARK INTRA:                  -2.028
REMARK UNBOUND:                -1.967
REMARK SMILES CCCCCCCCC=CCCCCCCCC(=O)[O-]
REMARK SMILES IDX 10 1 9 2 11 3 12 4 13 5 14 6 15 7 16 8 17 9 18 10 19 11
REMARK SMILES IDX 20 12 8 13 7 14 6 15 5 16 4 17 3 18 2 19 1 20
REMARK H PARENT
REMARK Flexibility Score: inf
ROOT
ATOM      1  C   UNL     1     127.789 121.856 140.797  1.00  0.00    -0.031 C 
ATOM      2  C   UNL     1     127.686 122.400 139.570  1.00  0.00    -0.031 C 
ENDROOT
BRANCH   1   3
ATOM      3  C   UNL     1     126.873 120.787 141.337  1.00  0.00     0.027 C 
BRANCH   3   4
ATOM      4  C   UNL     1     127.296 119.405 140.820  1.00  0.00     0.004 C 
BRANCH   4   5
ATOM      5  C   UNL     1     128.816 119.288 140.622  1.00  0.00     0.000 C 
BRANCH   5   6
ATOM      6  C   UNL     1     129.184 118.681 139.257  1.00  0.00     0.000 C 
BRANCH   6   7
ATOM      7  C   UNL     1     129.757 119.723 138.282  1.00  0.00     0.000 C 
BRANCH   7   8
ATOM      8  C   UNL     1     131.101 120.303 138.758  1.00  0.00     0.006 C 
BRANCH   8   9
ATOM      9  C   UNL     1     131.197 121.815 138.511  1.00  0.00     0.053 C 
BRANCH   9  10
ATOM     10  C   UNL     1     131.701 122.544 139.719  1.00  0.00     0.041 C 
ATOM     11  O   UNL     1     132.497 123.512 139.590  1.00  0.00    -0.550 OA
ATOM     12  O   UNL     1     131.265 122.176 140.986  1.00  0.00    -0.550 OA
ENDBRANCH   9  10
ENDBRANCH   8   9
ENDBRANCH   7   8
ENDBRANCH   6   7
ENDBRANCH   5   6
ENDBRANCH   4   5
ENDBRANCH   3   4
ENDBRANCH   1   3
BRANCH   2  13
ATOM     13  C   UNL     1     126.588 122.086 138.582  1.00  0.00     0.027 C 
BRANCH  13  14
ATOM     14  C   UNL     1     127.086 122.103 137.123  1.00  0.00     0.004 C 
BRANCH  14  15
ATOM     15  C   UNL     1     126.233 121.256 136.158  1.00  0.00     0.000 C 
BRANCH  15  16
ATOM     16  C   UNL     1     124.770 121.711 136.015  1.00  0.00     0.000 C 
BRANCH  16  17
ATOM     17  C   UNL     1     124.482 122.382 134.660  1.00  0.00    -0.000 C 
BRANCH  17  18
ATOM     18  C   UNL     1     125.735 122.485 133.777  1.00  0.00    -0.000 C 
BRANCH  18  19
ATOM     19  C   UNL     1     126.095 123.938 133.437  1.00  0.00    -0.003 C 
ATOM     20  C   UNL     1     127.607 124.141 133.419  1.00  0.00     0.004 C 
ENDBRANCH  18  19
ENDBRANCH  17  18
ENDBRANCH  16  17
ENDBRANCH  15  16
ENDBRANCH  14  15
ENDBRANCH  13  14
ENDBRANCH   2  13
TORSDOF 15
ENDMDL
MODEL 6
REMARK VINA RESULT:    -4.384      2.935      5.592
REMARK INTER + INTRA:         -10.195
REMARK INTER:                  -7.085
REMARK INTRA:                  -3.110
REMARK UNBOUND:                -1.967
REMARK SMILES CCCCCCCCC=CCCCCCCCC(=O)[O-]
REMARK SMILES IDX 10 1 9 2 11 3 12 4 13 5 14 6 15 7 16 8 17 9 18 10 19 11
REMARK SMILES IDX 20 12 8 13 7 14 6 15 5 16 4 17 3 18 2 19 1 20
REMARK H PARENT
REMARK Flexibility Score: inf
ROOT
ATOM      1  C   UNL     1     130.287 119.510 138.515  1.00  0.00    -0.031 C 
ATOM      2  C   UNL     1     130.667 120.755 138.171  1.00  0.00    -0.031 C 
ENDROOT
BRANCH   1   3
ATOM      3  C   UNL     1     130.944 118.683 139.591  1.00  0.00     0.027 C 
BRANCH   3   4
ATOM      4  C   UNL     1     130.151 117.391 139.835  1.00  0.00     0.004 C 
BRANCH   4   5
ATOM      5  C   UNL     1     129.140 117.526 140.984  1.00  0.00     0.000 C 
BRANCH   5   6
ATOM      6  C   UNL     1     127.683 117.450 140.495  1.00  0.00     0.000 C 
BRANCH   6   7
ATOM      7  C   UNL     1     127.573 116.966 139.040  1.00  0.00     0.000 C 
BRANCH   7   8
ATOM      8  C   UNL     1     127.014 118.046 138.097  1.00  0.00     0.006 C 
BRANCH   8   9
ATOM      9  C   UNL     1     125.520 118.306 138.337  1.00  0.00     0.053 C 
BRANCH   9  10
ATOM     10  C   UNL     1     124.860 118.903 137.132  1.00  0.00     0.041 C 
ATOM     11  O   UNL     1     124.242 119.996 137.223  1.00  0.00    -0.550 OA
ATOM     12  O   UNL     1     124.954 118.267 135.900  1.00  0.00    -0.550 OA
ENDBRANCH   9  10
ENDBRANCH   8   9
ENDBRANCH   7   8
ENDBRANCH   6   7
ENDBRANCH   5   6
ENDBRANCH   4   5
ENDBRANCH   3   4
ENDBRANCH   1   3
BRANCH   2  13
ATOM     13  C   UNL     1     131.862 121.477 138.748  1.00  0.00     0.027 C 
BRANCH  13  14
ATOM     14  C   UNL     1     131.457 122.601 139.722  1.00  0.00     0.004 C 
BRANCH  14  15
ATOM     15  C   UNL     1     130.803 122.098 141.024  1.00  0.00     0.000 C 
BRANCH  15  16
ATOM     16  C   UNL     1     129.302 122.408 141.160  1.00  0.00     0.000 C 
BRANCH  16  17
ATOM     17  C   UNL     1     128.430 121.142 141.213  1.00  0.00    -0.000 C 
BRANCH  17  18
ATOM     18  C   UNL     1     127.365 121.116 140.107  1.00  0.00    -0.000 C 
BRANCH  18  19
ATOM     19  C   UNL     1     127.505 122.294 139.131  1.00  0.00    -0.003 C 
ATOM     20  C   UNL     1     127.237 121.853 137.695  1.00  0.00     0.004 C 
ENDBRANCH  18  19
ENDBRANCH  17  18
ENDBRANCH  16  17
ENDBRANCH  15  16
ENDBRANCH  14  15
ENDBRANCH  13  14
ENDBRANCH   2  13
TORSDOF 15
ENDMDL
MODEL 7
REMARK VINA RESULT:    -4.376      2.987      6.245
REMARK INTER + INTRA:         -10.180
REMARK INTER:                  -8.187
REMARK INTRA:                  -1.993
REMARK UNBOUND:                -1.967
REMARK SMILES CCCCCCCCC=CCCCCCCCC(=O)[O-]
REMARK SMILES IDX 10 1 9 2 11 3 12 4 13 5 14 6 15 7 16 8 17 9 18 10 19 11
REMARK SMILES IDX 20 12 8 13 7 14 6 15 5 16 4 17 3 18 2 19 1 20
REMARK H PARENT
REMARK Flexibility Score: inf
ROOT
ATOM      1  C   UNL     1     126.172 119.170 140.803  1.00  0.00    -0.031 C 
ATOM      2  C   UNL     1     126.525 118.499 139.691  1.00  0.00    -0.031 C 
ENDROOT
BRANCH   1   3
ATOM      3  C   UNL     1     126.939 120.334 141.377  1.00  0.00     0.027 C 
BRANCH   3   4
ATOM      4  C   UNL     1     126.325 121.663 140.914  1.00  0.00     0.004 C 
BRANCH   4   5
ATOM      5  C   UNL     1     127.251 122.444 139.968  1.00  0.00     0.000 C 
BRANCH   5   6
ATOM      6  C   UNL     1     126.595 122.727 138.606  1.00  0.00     0.000 C 
BRANCH   6   7
ATOM      7  C   UNL     1     127.218 121.903 137.467  1.00  0.00     0.000 C 
BRANCH   7   8
ATOM      8  C   UNL     1     126.278 121.758 136.258  1.00  0.00     0.006 C 
BRANCH   8   9
ATOM      9  C   UNL     1     126.432 122.919 135.265  1.00  0.00     0.053 C 
BRANCH   9  10
ATOM     10  C   UNL     1     125.948 122.548 133.896  1.00  0.00     0.041 C 
ATOM     11  O   UNL     1     125.203 121.545 133.736  1.00  0.00    -0.550 OA
ATOM     12  O   UNL     1     126.295 123.329 132.801  1.00  0.00    -0.550 OA
ENDBRANCH   9  10
ENDBRANCH   8   9
ENDBRANCH   7   8
ENDBRANCH   6   7
ENDBRANCH   5   6
ENDBRANCH   4   5
ENDBRANCH   3   4
ENDBRANCH   1   3
BRANCH   2  13
ATOM     13  C   UNL     1     127.787 118.752 138.900  1.00  0.00     0.027 C 
BRANCH  13  14
ATOM     14  C   UNL     1     129.038 118.167 139.586  1.00  0.00     0.004 C 
BRANCH  14  15
ATOM     15  C   UNL     1     130.270 119.093 139.538  1.00  0.00     0.000 C 
BRANCH  15  16
ATOM     16  C   UNL     1     130.438 119.883 138.229  1.00  0.00     0.000 C 
BRANCH  16  17
ATOM     17  C   UNL     1     130.412 121.407 138.441  1.00  0.00    -0.000 C 
BRANCH  17  18
ATOM     18  C   UNL     1     131.820 122.007 138.560  1.00  0.00    -0.000 C 
BRANCH  18  19
ATOM     19  C   UNL     1     131.976 122.894 139.805  1.00  0.00    -0.003 C 
ATOM     20  C   UNL     1     131.066 122.420 140.935  1.00  0.00     0.004 C 
ENDBRANCH  18  19
ENDBRANCH  17  18
ENDBRANCH  16  17
ENDBRANCH  15  16
ENDBRANCH  14  15
ENDBRANCH  13  14
ENDBRANCH   2  13
TORSDOF 15
ENDMDL
MODEL 8
REMARK VINA RESULT:    -4.329      3.507      6.629
REMARK INTER + INTRA:         -10.092
REMARK INTER:                  -7.864
REMARK INTRA:                  -2.228
REMARK UNBOUND:                -1.967
REMARK SMILES CCCCCCCCC=CCCCCCCCC(=O)[O-]
REMARK SMILES IDX 10 1 9 2 11 3 12 4 13 5 14 6 15 7 16 8 17 9 18 10 19 11
REMARK SMILES IDX 20 12 8 13 7 14 6 15 5 16 4 17 3 18 2 19 1 20
REMARK H PARENT
REMARK Flexibility Score: inf
ROOT
ATOM      1  C   UNL     1     127.175 120.783 141.069  1.00  0.00    -0.031 C 
ATOM      2  C   UNL     1     127.418 119.463 141.176  1.00  0.00    -0.031 C 
ENDROOT
BRANCH   1   3
ATOM      3  C   UNL     1     126.469 121.429 139.904  1.00  0.00     0.027 C 
BRANCH   3   4
ATOM      4  C   UNL     1     127.446 122.296 139.097  1.00  0.00     0.004 C 
BRANCH   4   5
ATOM      5  C   UNL     1     127.614 121.805 137.650  1.00  0.00     0.000 C 
BRANCH   5   6
ATOM      6  C   UNL     1     126.425 120.948 137.179  1.00  0.00     0.000 C 
BRANCH   6   7
ATOM      7  C   UNL     1     125.457 121.728 136.275  1.00  0.00     0.000 C 
BRANCH   7   8
ATOM      8  C   UNL     1     125.988 121.891 134.840  1.00  0.00     0.006 C 
BRANCH   8   9
ATOM      9  C   UNL     1     126.428 123.331 134.546  1.00  0.00     0.053 C 
BRANCH   9  10
ATOM     10  C   UNL     1     125.551 123.984 133.523  1.00  0.00     0.041 C 
ATOM     11  O   UNL     1     125.934 125.028 132.931  1.00  0.00    -0.550 OA
ATOM     12  O   UNL     1     124.323 123.421 133.198  1.00  0.00    -0.550 OA
ENDBRANCH   9  10
ENDBRANCH   8   9
ENDBRANCH   7   8
ENDBRANCH   6   7
ENDBRANCH   5   6
ENDBRANCH   4   5
ENDBRANCH   3   4
ENDBRANCH   1   3
BRANCH   2  13
ATOM     13  C   UNL     1     127.101 118.443 140.108  1.00  0.00     0.027 C 
BRANCH  13  14
ATOM     14  C   UNL     1     128.213 118.338 139.045  1.00  0.00     0.004 C 
BRANCH  14  15
ATOM     15  C   UNL     1     129.588 117.936 139.614  1.00  0.00     0.000 C 
BRANCH  15  16
ATOM     16  C   UNL     1     130.700 118.982 139.425  1.00  0.00     0.000 C 
BRANCH  16  17
ATOM     17  C   UNL     1     130.396 119.984 138.296  1.00  0.00    -0.000 C 
BRANCH  17  18
ATOM     18  C   UNL     1     131.274 121.241 138.375  1.00  0.00    -0.000 C 
BRANCH  18  19
ATOM     19  C   UNL     1     131.175 121.940 139.740  1.00  0.00    -0.003 C 
ATOM     20  C   UNL     1     132.093 123.158 139.801  1.00  0.00     0.004 C 
ENDBRANCH  18  19
ENDBRANCH  17  18
ENDBRANCH  16  17
ENDBRANCH  15  16
ENDBRANCH  14  15
ENDBRANCH  13  14
ENDBRANCH   2  13
TORSDOF 15
ENDMDL
MODEL 9
REMARK VINA RESULT:    -4.275      2.376      3.909
REMARK INTER + INTRA:          -9.991
REMARK INTER:                  -7.643
REMARK INTRA:                  -2.348
REMARK UNBOUND:                -1.967
REMARK SMILES CCCCCCCCC=CCCCCCCCC(=O)[O-]
REMARK SMILES IDX 10 1 9 2 11 3 12 4 13 5 14 6 15 7 16 8 17 9 18 10 19 11
REMARK SMILES IDX 20 12 8 13 7 14 6 15 5 16 4 17 3 18 2 19 1 20
REMARK H PARENT
REMARK Flexibility Score: inf
ROOT
ATOM      1  C   UNL     1     126.267 118.571 139.631  1.00  0.00    -0.031 C 
ATOM      2  C   UNL     1     126.040 119.308 140.733  1.00  0.00    -0.031 C 
ENDROOT
BRANCH   1   3
ATOM      3  C   UNL     1     127.609 118.429 138.959  1.00  0.00     0.027 C 
BRANCH   3   4
ATOM      4  C   UNL     1     128.410 117.283 139.595  1.00  0.00     0.004 C 
BRANCH   4   5
ATOM      5  C   UNL     1     129.919 117.568 139.636  1.00  0.00     0.000 C 
BRANCH   5   6
ATOM      6  C   UNL     1     130.229 119.058 139.867  1.00  0.00     0.000 C 
BRANCH   6   7
ATOM      7  C   UNL     1     131.117 119.655 138.763  1.00  0.00     0.000 C 
BRANCH   7   8
ATOM      8  C   UNL     1     130.684 121.074 138.356  1.00  0.00     0.006 C 
BRANCH   8   9
ATOM      9  C   UNL     1     131.859 122.061 138.363  1.00  0.00     0.053 C 
BRANCH   9  10
ATOM     10  C   UNL     1     131.930 122.834 139.644  1.00  0.00     0.041 C 
ATOM     11  O   UNL     1     131.241 122.481 140.637  1.00  0.00    -0.550 OA
ATOM     12  O   UNL     1     132.781 123.927 139.751  1.00  0.00    -0.550 OA
ENDBRANCH   9  10
ENDBRANCH   8   9
ENDBRANCH   7   8
ENDBRANCH   6   7
ENDBRANCH   5   6
ENDBRANCH   4   5
ENDBRANCH   3   4
ENDBRANCH   1   3
BRANCH   2  13
ATOM     13  C   UNL     1     127.073 120.174 141.413  1.00  0.00     0.027 C 
BRANCH  13  14
ATOM     14  C   UNL     1     126.892 121.671 141.089  1.00  0.00     0.004 C 
BRANCH  14  15
ATOM     15  C   UNL     1     127.641 122.133 139.823  1.00  0.00     0.000 C 
BRANCH  15  16
ATOM     16  C   UNL     1     126.737 122.524 138.641  1.00  0.00     0.000 C 
BRANCH  16  17
ATOM     17  C   UNL     1     127.217 121.939 137.301  1.00  0.00    -0.000 C 
BRANCH  17  18
ATOM     18  C   UNL     1     126.150 121.062 136.628  1.00  0.00    -0.000 C 
BRANCH  18  19
ATOM     19  C   UNL     1     125.667 121.648 135.293  1.00  0.00    -0.003 C 
ATOM     20  C   UNL     1     126.437 122.917 134.938  1.00  0.00     0.004 C 
ENDBRANCH  18  19
ENDBRANCH  17  18
ENDBRANCH  16  17
ENDBRANCH  15  16
ENDBRANCH  14  15
ENDBRANCH  13  14
ENDBRANCH   2  13
TORSDOF 15
ENDMDL
