MODEL 1
REMARK VINA RESULT:    -4.639      0.000      0.000
REMARK INTER + INTRA:          -5.427
REMARK INTER:                  -5.317
REMARK INTRA:                  -0.110
REMARK UNBOUND:                -0.110
REMARK SMILES COc1cc(C(C)=O)ccc1O
REMARK SMILES IDX 5 1 4 2 3 3 11 4 10 5 9 6 6 7 7 8 8 9 2 10 1 11 12 12
REMARK H PARENT 12 13
REMARK Flexibility Score: inf
ROOT
ATOM      1  C   UNL     1      13.586 -11.481  12.560  1.00  0.00     0.021 A 
ATOM      2  C   UNL     1      14.272 -10.250  12.603  1.00  0.00     0.062 A 
ATOM      3  C   UNL     1      15.673 -10.198  12.446  1.00  0.00     0.161 A 
ATOM      4  C   UNL     1      16.386 -11.387  12.245  1.00  0.00     0.157 A 
ATOM      5  C   UNL     1      15.712 -12.612  12.201  1.00  0.00     0.051 A 
ATOM      6  C   UNL     1      14.326 -12.660  12.357  1.00  0.00     0.016 A 
ENDROOT
BRANCH   1   7
ATOM      7  C   UNL     1      12.109 -11.550  12.725  1.00  0.00     0.159 C 
ATOM      8  C   UNL     1      11.258 -12.459  11.889  1.00  0.00     0.093 C 
ATOM      9  O   UNL     1      11.541 -10.828  13.589  1.00  0.00    -0.295 OA
ENDBRANCH   1   7
BRANCH   3  10
ATOM     10  O   UNL     1      16.386  -8.990  12.483  1.00  0.00    -0.493 OA
ATOM     11  C   UNL     1      15.809  -7.718  12.757  1.00  0.00     0.278 C 
ENDBRANCH   3  10
BRANCH   4  12
ATOM     12  O   UNL     1      17.771 -11.341  12.088  1.00  0.00    -0.504 OA
ATOM     13  H   UNL     1      18.392 -11.241  12.882  1.00  0.00     0.293 HD
ENDBRANCH   4  12
TORSDOF 3
ENDMDL
MODEL 2
REMARK VINA RESULT:    -4.538      1.714      4.183
REMARK INTER + INTRA:          -5.311
REMARK INTER:                  -5.201
REMARK INTRA:                  -0.110
REMARK UNBOUND:                -0.110
REMARK SMILES COc1cc(C(C)=O)ccc1O
REMARK SMILES IDX 5 1 4 2 3 3 11 4 10 5 9 6 6 7 7 8 8 9 2 10 1 11 12 12
REMARK H PARENT 12 13
REMARK Flexibility Score: inf
ROOT
ATOM      1  C   UNL     1      15.557  -8.485  12.749  1.00  0.00     0.021 A 
ATOM      2  C   UNL     1      14.584  -9.497  12.633  1.00  0.00     0.062 A 
ATOM      3  C   UNL     1      14.960 -10.852  12.518  1.00  0.00     0.161 A 
ATOM      4  C   UNL     1      16.320 -11.189  12.522  1.00  0.00     0.157 A 
ATOM      5  C   UNL     1      17.292 -10.189  12.637  1.00  0.00     0.051 A 
ATOM      6  C   UNL     1      16.915  -8.850  12.750  1.00  0.00     0.016 A 
ENDROOT
BRANCH   1   7
ATOM      7  C   UNL     1      15.173  -7.051  12.871  1.00  0.00     0.159 C 
ATOM      8  C   UNL     1      15.746  -6.163  13.934  1.00  0.00     0.093 C 
ATOM      9  O   UNL     1      14.341  -6.556  12.062  1.00  0.00    -0.295 OA
ENDBRANCH   1   7
BRANCH   3  10
ATOM     10  O   UNL     1      14.017 -11.884  12.401  1.00  0.00    -0.493 OA
ATOM     11  C   UNL     1      12.705 -11.847  12.952  1.00  0.00     0.278 C 
ENDBRANCH   3  10
BRANCH   4  12
ATOM     12  O   UNL     1      16.698 -12.526  12.410  1.00  0.00    -0.504 OA
ATOM     13  H   UNL     1      17.625 -12.791  12.097  1.00  0.00     0.293 HD
ENDBRANCH   4  12
TORSDOF 3
ENDMDL
MODEL 3
REMARK VINA RESULT:    -4.456      1.568      5.003
REMARK INTER + INTRA:          -5.217
REMARK INTER:                  -5.106
REMARK INTRA:                  -0.111
REMARK UNBOUND:                -0.110
REMARK SMILES COc1cc(C(C)=O)ccc1O
REMARK SMILES IDX 5 1 4 2 3 3 11 4 10 5 9 6 6 7 7 8 8 9 2 10 1 11 12 12
REMARK H PARENT 12 13
REMARK Flexibility Score: inf
ROOT
ATOM      1  C   UNL     1      15.837  -9.366  12.639  1.00  0.00     0.021 A 
ATOM      2  C   UNL     1      15.459 -10.722  12.582  1.00  0.00     0.062 A 
ATOM      3  C   UNL     1      14.098 -11.094  12.595  1.00  0.00     0.161 A 
ATOM      4  C   UNL     1      13.115 -10.100  12.666  1.00  0.00     0.157 A 
ATOM      5  C   UNL     1      13.482  -8.750  12.723  1.00  0.00     0.051 A 
ATOM      6  C   UNL     1      14.830  -8.386  12.710  1.00  0.00     0.016 A 
ENDROOT
BRANCH   1   7
ATOM      7  C   UNL     1      17.269  -8.959  12.626  1.00  0.00     0.159 C 
ATOM      8  C   UNL     1      17.736  -7.720  11.924  1.00  0.00     0.093 C 
ATOM      9  O   UNL     1      18.125  -9.669  13.220  1.00  0.00    -0.295 OA
ENDBRANCH   1   7
BRANCH   3  10
ATOM     10  O   UNL     1      13.688 -12.435  12.538  1.00  0.00    -0.493 OA
ATOM     11  C   UNL     1      14.572 -13.551  12.527  1.00  0.00     0.278 C 
ENDBRANCH   3  10
BRANCH   4  12
ATOM     12  O   UNL     1      11.768 -10.461  12.678  1.00  0.00    -0.504 OA
ATOM     13  H   UNL     1      11.060  -9.885  12.240  1.00  0.00     0.293 HD
ENDBRANCH   4  12
TORSDOF 3
ENDMDL
MODEL 4
REMARK VINA RESULT:    -4.432      2.014      4.805
REMARK INTER + INTRA:          -5.190
REMARK INTER:                  -5.078
REMARK INTRA:                  -0.111
REMARK UNBOUND:                -0.110
REMARK SMILES COc1cc(C(C)=O)ccc1O
REMARK SMILES IDX 5 1 4 2 3 3 11 4 10 5 9 6 6 7 7 8 8 9 2 10 1 11 12 12
REMARK H PARENT 12 13
REMARK Flexibility Score: inf
ROOT
ATOM      1  C   UNL     1      16.581  -7.615  13.486  1.00  0.00     0.021 A 
ATOM      2  C   UNL     1      15.581  -8.409  12.892  1.00  0.00     0.062 A 
ATOM      3  C   UNL     1      15.855  -9.732  12.486  1.00  0.00     0.161 A 
ATOM      4  C   UNL     1      17.139 -10.257  12.678  1.00  0.00     0.157 A 
ATOM      5  C   UNL     1      18.138  -9.474  13.267  1.00  0.00     0.051 A 
ATOM      6  C   UNL     1      17.862  -8.166  13.668  1.00  0.00     0.016 A 
ENDROOT
BRANCH   1   7
ATOM      7  C   UNL     1      16.306  -6.217  13.920  1.00  0.00     0.159 C 
ATOM      8  C   UNL     1      15.314  -5.346  13.209  1.00  0.00     0.093 C 
ATOM      9  O   UNL     1      16.918  -5.739  14.913  1.00  0.00    -0.295 OA
ENDBRANCH   1   7
BRANCH   3  10
ATOM     10  O   UNL     1      14.881 -10.550  11.891  1.00  0.00    -0.493 OA
ATOM     11  C   UNL     1      13.717 -11.033  12.554  1.00  0.00     0.278 C 
ENDBRANCH   3  10
BRANCH   4  12
ATOM     12  O   UNL     1      17.415 -11.564  12.279  1.00  0.00    -0.504 OA
ATOM     13  H   UNL     1      16.696 -12.277  12.262  1.00  0.00     0.293 HD
ENDBRANCH   4  12
TORSDOF 3
ENDMDL
MODEL 5
REMARK VINA RESULT:    -4.390      1.500      2.802
REMARK INTER + INTRA:          -5.142
REMARK INTER:                  -5.028
REMARK INTRA:                  -0.114
REMARK UNBOUND:                -0.110
REMARK SMILES COc1cc(C(C)=O)ccc1O
REMARK SMILES IDX 5 1 4 2 3 3 11 4 10 5 9 6 6 7 7 8 8 9 2 10 1 11 12 12
REMARK H PARENT 12 13
REMARK Flexibility Score: inf
ROOT
ATOM      1  C   UNL     1      13.886 -11.043  12.670  1.00  0.00     0.021 A 
ATOM      2  C   UNL     1      15.263 -10.782  12.525  1.00  0.00     0.062 A 
ATOM      3  C   UNL     1      15.749  -9.458  12.500  1.00  0.00     0.161 A 
ATOM      4  C   UNL     1      14.847  -8.393  12.622  1.00  0.00     0.157 A 
ATOM      5  C   UNL     1      13.478  -8.644  12.766  1.00  0.00     0.051 A 
ATOM      6  C   UNL     1      13.001  -9.956  12.790  1.00  0.00     0.016 A 
ENDROOT
BRANCH   1   7
ATOM      7  C   UNL     1      13.360 -12.435  12.697  1.00  0.00     0.159 C 
ATOM      8  C   UNL     1      14.266 -13.628  12.647  1.00  0.00     0.093 C 
ATOM      9  O   UNL     1      12.116 -12.632  12.764  1.00  0.00    -0.295 OA
ENDBRANCH   1   7
BRANCH   3  10
ATOM     10  O   UNL     1      17.114  -9.163  12.359  1.00  0.00    -0.493 OA
ATOM     11  C   UNL     1      18.065  -9.208  13.417  1.00  0.00     0.278 C 
ENDBRANCH   3  10
BRANCH   4  12
ATOM     12  O   UNL     1      15.322  -7.082  12.599  1.00  0.00    -0.504 OA
ATOM     13  H   UNL     1      16.176  -6.818  13.076  1.00  0.00     0.293 HD
ENDBRANCH   4  12
TORSDOF 3
ENDMDL
MODEL 6
REMARK VINA RESULT:    -4.376      1.571      2.144
REMARK INTER + INTRA:          -5.125
REMARK INTER:                  -4.988
REMARK INTRA:                  -0.137
REMARK UNBOUND:                -0.110
REMARK SMILES COc1cc(C(C)=O)ccc1O
REMARK SMILES IDX 5 1 4 2 3 3 11 4 10 5 9 6 6 7 7 8 8 9 2 10 1 11 12 12
REMARK H PARENT 12 13
REMARK Flexibility Score: inf
ROOT
ATOM      1  C   UNL     1      14.925 -10.605  12.582  1.00  0.00     0.021 A 
ATOM      2  C   UNL     1      14.848  -9.198  12.609  1.00  0.00     0.062 A 
ATOM      3  C   UNL     1      16.017  -8.410  12.618  1.00  0.00     0.161 A 
ATOM      4  C   UNL     1      17.269  -9.038  12.599  1.00  0.00     0.157 A 
ATOM      5  C   UNL     1      17.354 -10.435  12.573  1.00  0.00     0.051 A 
ATOM      6  C   UNL     1      16.194 -11.211  12.564  1.00  0.00     0.016 A 
ENDROOT
BRANCH   1   7
ATOM      7  C   UNL     1      13.699 -11.449  12.572  1.00  0.00     0.159 C 
ATOM      8  C   UNL     1      13.732 -12.893  12.173  1.00  0.00     0.093 C 
ATOM      9  O   UNL     1      12.592 -10.946  12.908  1.00  0.00    -0.295 OA
ENDBRANCH   1   7
BRANCH   3  10
ATOM     10  O   UNL     1      15.975  -7.007  12.643  1.00  0.00    -0.493 OA
ATOM     11  C   UNL     1      15.751  -6.227  13.813  1.00  0.00     0.278 C 
ENDBRANCH   3  10
BRANCH   4  12
ATOM     12  O   UNL     1      18.429  -8.264  12.607  1.00  0.00    -0.504 OA
ATOM     13  H   UNL     1      18.410  -7.282  12.855  1.00  0.00     0.293 HD
ENDBRANCH   4  12
TORSDOF 3
ENDMDL
MODEL 7
REMARK VINA RESULT:    -4.345      4.513      6.518
REMARK INTER + INTRA:          -5.089
REMARK INTER:                  -4.986
REMARK INTRA:                  -0.103
REMARK UNBOUND:                -0.110
REMARK SMILES COc1cc(C(C)=O)ccc1O
REMARK SMILES IDX 5 1 4 2 3 3 11 4 10 5 9 6 6 7 7 8 8 9 2 10 1 11 12 12
REMARK H PARENT 12 13
REMARK Flexibility Score: inf
ROOT
ATOM      1  C   UNL     1      17.112  -7.170  14.116  1.00  0.00     0.021 A 
ATOM      2  C   UNL     1      15.894  -6.536  13.796  1.00  0.00     0.062 A 
ATOM      3  C   UNL     1      15.193  -5.787  14.763  1.00  0.00     0.161 A 
ATOM      4  C   UNL     1      15.717  -5.674  16.057  1.00  0.00     0.157 A 
ATOM      5  C   UNL     1      16.925  -6.300  16.383  1.00  0.00     0.051 A 
ATOM      6  C   UNL     1      17.616  -7.041  15.423  1.00  0.00     0.016 A 
ENDROOT
BRANCH   1   7
ATOM      7  C   UNL     1      17.862  -7.963  13.105  1.00  0.00     0.159 C 
ATOM      8  C   UNL     1      17.863  -9.462  13.113  1.00  0.00     0.093 C 
ATOM      9  O   UNL     1      18.522  -7.370  12.209  1.00  0.00    -0.295 OA
ENDBRANCH   1   7
BRANCH   3  10
ATOM     10  O   UNL     1      13.979  -5.143  14.476  1.00  0.00    -0.493 OA
ATOM     11  C   UNL     1      13.659  -4.541  13.226  1.00  0.00     0.278 C 
ENDBRANCH   3  10
BRANCH   4  12
ATOM     12  O   UNL     1      15.028  -4.934  17.017  1.00  0.00    -0.504 OA
ATOM     13  H   UNL     1      14.681  -4.003  16.821  1.00  0.00     0.293 HD
ENDBRANCH   4  12
TORSDOF 3
ENDMDL
MODEL 8
REMARK VINA RESULT:    -4.278      5.006      6.930
REMARK INTER + INTRA:          -5.013
REMARK INTER:                  -4.919
REMARK INTRA:                  -0.093
REMARK UNBOUND:                -0.110
REMARK SMILES COc1cc(C(C)=O)ccc1O
REMARK SMILES IDX 5 1 4 2 3 3 11 4 10 5 9 6 6 7 7 8 8 9 2 10 1 11 12 12
REMARK H PARENT 12 13
REMARK Flexibility Score: inf
ROOT
ATOM      1  C   UNL     1      16.829  -6.768  14.166  1.00  0.00     0.021 A 
ATOM      2  C   UNL     1      16.872  -6.443  15.536  1.00  0.00     0.062 A 
ATOM      3  C   UNL     1      15.792  -5.781  16.156  1.00  0.00     0.161 A 
ATOM      4  C   UNL     1      14.665  -5.445  15.396  1.00  0.00     0.157 A 
ATOM      5  C   UNL     1      14.614  -5.765  14.034  1.00  0.00     0.051 A 
ATOM      6  C   UNL     1      15.685  -6.420  13.425  1.00  0.00     0.016 A 
ENDROOT
BRANCH   1   7
ATOM      7  C   UNL     1      17.962  -7.467  13.499  1.00  0.00     0.159 C 
ATOM      8  C   UNL     1      18.248  -8.920  13.733  1.00  0.00     0.093 C 
ATOM      9  O   UNL     1      18.712  -6.829  12.711  1.00  0.00    -0.295 OA
ENDBRANCH   1   7
BRANCH   3  10
ATOM     10  O   UNL     1      15.803  -5.442  17.518  1.00  0.00    -0.493 OA
ATOM     11  C   UNL     1      16.973  -5.388  18.328  1.00  0.00     0.278 C 
ENDBRANCH   3  10
BRANCH   4  12
ATOM     12  O   UNL     1      13.593  -4.791  16.003  1.00  0.00    -0.504 OA
ATOM     13  H   UNL     1      13.517  -4.721  17.011  1.00  0.00     0.293 HD
ENDBRANCH   4  12
TORSDOF 3
ENDMDL
MODEL 9
REMARK VINA RESULT:    -4.052      2.581      5.242
REMARK INTER + INTRA:          -4.754
REMARK INTER:                  -4.631
REMARK INTRA:                  -0.122
REMARK UNBOUND:                -0.110
REMARK SMILES COc1cc(C(C)=O)ccc1O
REMARK SMILES IDX 5 1 4 2 3 3 11 4 10 5 9 6 6 7 7 8 8 9 2 10 1 11 12 12
REMARK H PARENT 12 13
REMARK Flexibility Score: inf
ROOT
ATOM      1  C   UNL     1      15.510  -6.308  13.746  1.00  0.00     0.021 A 
ATOM      2  C   UNL     1      15.288  -7.451  12.952  1.00  0.00     0.062 A 
ATOM      3  C   UNL     1      16.298  -8.420  12.783  1.00  0.00     0.161 A 
ATOM      4  C   UNL     1      17.535  -8.240  13.414  1.00  0.00     0.157 A 
ATOM      5  C   UNL     1      17.764  -7.107  14.203  1.00  0.00     0.051 A 
ATOM      6  C   UNL     1      16.761  -6.150  14.368  1.00  0.00     0.016 A 
ENDROOT
BRANCH   1   7
ATOM      7  C   UNL     1      14.452  -5.277  13.932  1.00  0.00     0.159 C 
ATOM      8  C   UNL     1      13.795  -5.044  15.260  1.00  0.00     0.093 C 
ATOM      9  O   UNL     1      14.088  -4.570  12.953  1.00  0.00    -0.295 OA
ENDBRANCH   1   7
BRANCH   3  10
ATOM     10  O   UNL     1      16.109  -9.570  12.001  1.00  0.00    -0.493 OA
ATOM     11  C   UNL     1      15.415 -10.736  12.432  1.00  0.00     0.278 C 
ENDBRANCH   3  10
BRANCH   4  12
ATOM     12  O   UNL     1      18.538  -9.195  13.251  1.00  0.00    -0.504 OA
ATOM     13  H   UNL     1      19.353  -9.218  13.852  1.00  0.00     0.293 HD
ENDBRANCH   4  12
TORSDOF 3
ENDMDL
