MODEL 1
REMARK VINA RESULT:    -6.305      0.000      0.000
REMARK INTER + INTRA:          -7.792
REMARK INTER:                  -7.596
REMARK INTRA:                  -0.197
REMARK UNBOUND:                -0.197
REMARK SMILES O=c1c(O)c(-c2ccc(O)c(O)c2)oc2cc(O)cc(O)c12
REMARK SMILES IDX 5 1 3 2 2 3 1 4 22 5 20 6 19 7 17 8 16 9 15 10 14 11 6 12
REMARK SMILES IDX 7 13 8 14 9 15 13 16 11 17 10 18 12 20 4 22 21 24 18 26
REMARK H PARENT 10 19 12 21 4 23 21 25 18 27
REMARK Flexibility Score: inf
ROOT
ATOM      1  C   UNL     1      23.827   2.556 102.997  1.00  0.00     0.180 A 
ATOM      2  C   UNL     1      25.199   2.858 102.983  1.00  0.00     0.208 A 
ATOM      3  C   UNL     1      26.128   1.807 102.934  1.00  0.00     0.238 A 
ATOM      4  O   UNL     1      27.354   2.085 102.868  1.00  0.00    -0.285 OA
ATOM      5  C   UNL     1      25.673   0.466 102.916  1.00  0.00     0.111 A 
ATOM      6  C   UNL     1      26.526  -0.679 102.906  1.00  0.00     0.134 A 
ATOM      7  C   UNL     1      25.968  -1.954 102.756  1.00  0.00     0.093 A 
ATOM      8  C   UNL     1      24.584  -2.130 102.680  1.00  0.00     0.123 A 
ATOM      9  C   UNL     1      23.742  -1.024 102.748  1.00  0.00     0.094 A 
ATOM     10  C   UNL     1      24.270   0.264 102.861  1.00  0.00     0.146 A 
ATOM     11  O   UNL     1      23.431   1.291 102.911  1.00  0.00    -0.452 OA
ENDROOT
BRANCH   1  12
ATOM     12  C   UNL     1      22.788   3.609 103.073  1.00  0.00     0.025 A 
ATOM     13  C   UNL     1      22.569   4.446 101.966  1.00  0.00     0.016 A 
ATOM     14  C   UNL     1      21.581   5.432 102.009  1.00  0.00     0.051 A 
ATOM     15  C   UNL     1      20.787   5.588 103.149  1.00  0.00     0.157 A 
ATOM     16  C   UNL     1      21.975   3.754 104.210  1.00  0.00     0.062 A 
ATOM     17  C   UNL     1      20.981   4.743 104.255  1.00  0.00     0.158 A 
BRANCH  15  18
ATOM     18  O   UNL     1      19.810   6.583 103.164  1.00  0.00    -0.504 OA
ATOM     19  H   UNL     1      19.409   6.956 102.312  1.00  0.00     0.293 HD
ENDBRANCH  15  18
BRANCH  17  20
ATOM     20  O   UNL     1      20.183   4.884 105.389  1.00  0.00    -0.504 OA
ATOM     21  H   UNL     1      19.785   5.779 105.650  1.00  0.00     0.293 HD
ENDBRANCH  17  20
ENDBRANCH   1  12
BRANCH   2  22
ATOM     22  O   UNL     1      25.626   4.190 102.980  1.00  0.00    -0.502 OA
ATOM     23  H   UNL     1      26.026   4.635 103.797  1.00  0.00     0.293 HD
ENDBRANCH   2  22
BRANCH   6  24
ATOM     24  O   UNL     1      27.913  -0.620 103.069  1.00  0.00    -0.507 OA
ATOM     25  H   UNL     1      28.383  -0.157 103.832  1.00  0.00     0.293 HD
ENDBRANCH   6  24
BRANCH   8  26
ATOM     26  O   UNL     1      24.037  -3.405 102.546  1.00  0.00    -0.508 OA
ATOM     27  H   UNL     1      23.137  -3.639 102.949  1.00  0.00     0.293 HD
ENDBRANCH   8  26
TORSDOF 6
ENDMDL
MODEL 2
REMARK VINA RESULT:    -6.305      1.235      3.059
REMARK INTER + INTRA:          -7.791
REMARK INTER:                  -7.611
REMARK INTRA:                  -0.181
REMARK UNBOUND:                -0.197
REMARK SMILES O=c1c(O)c(-c2ccc(O)c(O)c2)oc2cc(O)cc(O)c12
REMARK SMILES IDX 5 1 3 2 2 3 1 4 22 5 20 6 19 7 17 8 16 9 15 10 14 11 6 12
REMARK SMILES IDX 7 13 8 14 9 15 13 16 11 17 10 18 12 20 4 22 21 24 18 26
REMARK H PARENT 10 19 12 21 4 23 21 25 18 27
REMARK Flexibility Score: inf
ROOT
ATOM      1  C   UNL     1      23.891   2.605 102.988  1.00  0.00     0.180 A 
ATOM      2  C   UNL     1      23.591   1.232 102.951  1.00  0.00     0.208 A 
ATOM      3  C   UNL     1      24.644   0.307 102.863  1.00  0.00     0.238 A 
ATOM      4  O   UNL     1      24.372  -0.921 102.885  1.00  0.00    -0.285 OA
ATOM      5  C   UNL     1      25.981   0.767 102.796  1.00  0.00     0.111 A 
ATOM      6  C   UNL     1      27.123  -0.080 102.664  1.00  0.00     0.134 A 
ATOM      7  C   UNL     1      28.406   0.475 102.739  1.00  0.00     0.093 A 
ATOM      8  C   UNL     1      28.588   1.853 102.876  1.00  0.00     0.123 A 
ATOM      9  C   UNL     1      27.480   2.693 102.946  1.00  0.00     0.094 A 
ATOM     10  C   UNL     1      26.186   2.166 102.910  1.00  0.00     0.146 A 
ATOM     11  O   UNL     1      25.159   3.001 102.991  1.00  0.00    -0.452 OA
ENDROOT
BRANCH   1  12
ATOM     12  C   UNL     1      22.835   3.641 103.056  1.00  0.00     0.025 A 
ATOM     13  C   UNL     1      22.610   4.472 101.947  1.00  0.00     0.016 A 
ATOM     14  C   UNL     1      21.606   5.443 101.982  1.00  0.00     0.051 A 
ATOM     15  C   UNL     1      20.802   5.587 103.116  1.00  0.00     0.157 A 
ATOM     16  C   UNL     1      22.012   3.774 104.188  1.00  0.00     0.062 A 
ATOM     17  C   UNL     1      21.002   4.747 104.225  1.00  0.00     0.158 A 
BRANCH  15  18
ATOM     18  O   UNL     1      19.808   6.566 103.123  1.00  0.00    -0.504 OA
ATOM     19  H   UNL     1      20.022   7.550 103.016  1.00  0.00     0.293 HD
ENDBRANCH  15  18
BRANCH  17  20
ATOM     20  O   UNL     1      20.194   4.876 105.353  1.00  0.00    -0.504 OA
ATOM     21  H   UNL     1      20.584   4.870 106.289  1.00  0.00     0.293 HD
ENDBRANCH  17  20
ENDBRANCH   1  12
BRANCH   2  22
ATOM     22  O   UNL     1      22.264   0.800 103.041  1.00  0.00    -0.502 OA
ATOM     23  H   UNL     1      21.716   0.900 103.887  1.00  0.00     0.293 HD
ENDBRANCH   2  22
BRANCH   6  24
ATOM     24  O   UNL     1      27.051  -1.457 102.432  1.00  0.00    -0.507 OA
ATOM     25  H   UNL     1      26.417  -1.898 101.783  1.00  0.00     0.293 HD
ENDBRANCH   6  24
BRANCH   8  26
ATOM     26  O   UNL     1      29.869   2.398 102.934  1.00  0.00    -0.508 OA
ATOM     27  H   UNL     1      30.162   2.980 103.711  1.00  0.00     0.293 HD
ENDBRANCH   8  26
TORSDOF 6
ENDMDL
MODEL 3
REMARK VINA RESULT:    -6.247      2.616      3.342
REMARK INTER + INTRA:          -7.722
REMARK INTER:                  -7.398
REMARK INTRA:                  -0.323
REMARK UNBOUND:                -0.197
REMARK SMILES O=c1c(O)c(-c2ccc(O)c(O)c2)oc2cc(O)cc(O)c12
REMARK SMILES IDX 5 1 3 2 2 3 1 4 22 5 20 6 19 7 17 8 16 9 15 10 14 11 6 12
REMARK SMILES IDX 7 13 8 14 9 15 13 16 11 17 10 18 12 20 4 22 21 24 18 26
REMARK H PARENT 10 19 12 21 4 23 21 25 18 27
REMARK Flexibility Score: inf
ROOT
ATOM      1  C   UNL     1      25.701   3.524 102.864  1.00  0.00     0.180 A 
ATOM      2  C   UNL     1      26.609   4.003 103.824  1.00  0.00     0.208 A 
ATOM      3  C   UNL     1      27.831   3.334 104.000  1.00  0.00     0.238 A 
ATOM      4  O   UNL     1      28.662   3.800 104.822  1.00  0.00    -0.285 OA
ATOM      5  C   UNL     1      28.122   2.185 103.225  1.00  0.00     0.111 A 
ATOM      6  C   UNL     1      29.312   1.406 103.348  1.00  0.00     0.134 A 
ATOM      7  C   UNL     1      29.553   0.368 102.440  1.00  0.00     0.093 A 
ATOM      8  C   UNL     1      28.618   0.039 101.457  1.00  0.00     0.123 A 
ATOM      9  C   UNL     1      27.428   0.755 101.367  1.00  0.00     0.094 A 
ATOM     10  C   UNL     1      27.174   1.821 102.235  1.00  0.00     0.146 A 
ATOM     11  O   UNL     1      26.032   2.484 102.107  1.00  0.00    -0.452 OA
ENDROOT
BRANCH   1  12
ATOM     12  C   UNL     1      24.383   4.161 102.639  1.00  0.00     0.025 A 
ATOM     13  C   UNL     1      23.277   3.747 103.397  1.00  0.00     0.016 A 
ATOM     14  C   UNL     1      22.028   4.348 103.216  1.00  0.00     0.051 A 
ATOM     15  C   UNL     1      21.870   5.380 102.286  1.00  0.00     0.157 A 
ATOM     16  C   UNL     1      24.226   5.213 101.719  1.00  0.00     0.062 A 
ATOM     17  C   UNL     1      22.975   5.819 101.536  1.00  0.00     0.158 A 
BRANCH  15  18
ATOM     18  O   UNL     1      20.612   5.960 102.124  1.00  0.00    -0.504 OA
ATOM     19  H   UNL     1      20.420   6.915 102.402  1.00  0.00     0.293 HD
ENDBRANCH  15  18
BRANCH  17  20
ATOM     20  O   UNL     1      22.826   6.857 100.618  1.00  0.00    -0.504 OA
ATOM     21  H   UNL     1      22.440   6.699  99.695  1.00  0.00     0.293 HD
ENDBRANCH  17  20
ENDBRANCH   1  12
BRANCH   2  22
ATOM     22  O   UNL     1      26.310   5.153 104.562  1.00  0.00    -0.502 OA
ATOM     23  H   UNL     1      25.765   5.124 105.416  1.00  0.00     0.293 HD
ENDBRANCH   2  22
BRANCH   6  24
ATOM     24  O   UNL     1      30.266   1.592 104.352  1.00  0.00    -0.507 OA
ATOM     25  H   UNL     1      30.345   1.024 105.182  1.00  0.00     0.293 HD
ENDBRANCH   6  24
BRANCH   8  26
ATOM     26  O   UNL     1      28.860  -1.007 100.567  1.00  0.00    -0.508 OA
ATOM     27  H   UNL     1      29.800  -1.251 100.280  1.00  0.00     0.293 HD
ENDBRANCH   8  26
TORSDOF 6
ENDMDL
MODEL 4
REMARK VINA RESULT:    -6.141      2.098      3.219
REMARK INTER + INTRA:          -7.595
REMARK INTER:                  -7.272
REMARK INTRA:                  -0.323
REMARK UNBOUND:                -0.197
REMARK SMILES O=c1c(O)c(-c2ccc(O)c(O)c2)oc2cc(O)cc(O)c12
REMARK SMILES IDX 5 1 3 2 2 3 1 4 22 5 20 6 19 7 17 8 16 9 15 10 14 11 6 12
REMARK SMILES IDX 7 13 8 14 9 15 13 16 11 17 10 18 12 20 4 22 21 24 18 26
REMARK H PARENT 10 19 12 21 4 23 21 25 18 27
REMARK Flexibility Score: inf
ROOT
ATOM      1  C   UNL     1      22.986   0.553 103.064  1.00  0.00     0.180 A 
ATOM      2  C   UNL     1      22.472  -0.192 101.988  1.00  0.00     0.208 A 
ATOM      3  C   UNL     1      23.082  -1.410 101.650  1.00  0.00     0.238 A 
ATOM      4  O   UNL     1      22.584  -2.098 100.720  1.00  0.00    -0.285 OA
ATOM      5  C   UNL     1      24.208  -1.860 102.380  1.00  0.00     0.111 A 
ATOM      6  C   UNL     1      24.929  -3.060 102.099  1.00  0.00     0.134 A 
ATOM      7  C   UNL     1      25.946  -3.473 102.968  1.00  0.00     0.093 A 
ATOM      8  C   UNL     1      26.310  -2.698 104.071  1.00  0.00     0.123 A 
ATOM      9  C   UNL     1      25.653  -1.497 104.320  1.00  0.00     0.094 A 
ATOM     10  C   UNL     1      24.609  -1.075 103.492  1.00  0.00     0.146 A 
ATOM     11  O   UNL     1      24.001   0.071 103.772  1.00  0.00    -0.452 OA
ENDROOT
BRANCH   1  12
ATOM     12  C   UNL     1      22.412   1.858 103.465  1.00  0.00     0.025 A 
ATOM     13  C   UNL     1      22.897   3.036 102.876  1.00  0.00     0.016 A 
ATOM     14  C   UNL     1      22.356   4.277 103.225  1.00  0.00     0.051 A 
ATOM     15  C   UNL     1      21.314   4.357 104.153  1.00  0.00     0.157 A 
ATOM     16  C   UNL     1      21.350   1.939 104.383  1.00  0.00     0.062 A 
ATOM     17  C   UNL     1      20.805   3.183 104.734  1.00  0.00     0.158 A 
BRANCH  15  18
ATOM     18  O   UNL     1      20.796   5.609 104.483  1.00  0.00    -0.504 OA
ATOM     19  H   UNL     1      21.272   6.239 105.117  1.00  0.00     0.293 HD
ENDBRANCH  15  18
BRANCH  17  20
ATOM     20  O   UNL     1      19.757   3.256 105.649  1.00  0.00    -0.504 OA
ATOM     21  H   UNL     1      19.487   2.457 106.212  1.00  0.00     0.293 HD
ENDBRANCH  17  20
ENDBRANCH   1  12
BRANCH   2  22
ATOM     22  O   UNL     1      21.346   0.262 101.294  1.00  0.00    -0.502 OA
ATOM     23  H   UNL     1      20.750   1.000 101.649  1.00  0.00     0.293 HD
ENDBRANCH   2  22
BRANCH   6  24
ATOM     24  O   UNL     1      24.707  -3.858 100.973  1.00  0.00    -0.507 OA
ATOM     25  H   UNL     1      23.852  -3.872 100.438  1.00  0.00     0.293 HD
ENDBRANCH   6  24
BRANCH   8  26
ATOM     26  O   UNL     1      27.335  -3.110 104.922  1.00  0.00    -0.508 OA
ATOM     27  H   UNL     1      27.767  -2.470 105.578  1.00  0.00     0.293 HD
ENDBRANCH   8  26
TORSDOF 6
ENDMDL
MODEL 5
REMARK VINA RESULT:    -5.939      6.581      8.748
REMARK INTER + INTRA:          -7.351
REMARK INTER:                  -7.028
REMARK INTRA:                  -0.323
REMARK UNBOUND:                -0.197
REMARK SMILES O=c1c(O)c(-c2ccc(O)c(O)c2)oc2cc(O)cc(O)c12
REMARK SMILES IDX 5 1 3 2 2 3 1 4 22 5 20 6 19 7 17 8 16 9 15 10 14 11 6 12
REMARK SMILES IDX 7 13 8 14 9 15 13 16 11 17 10 18 12 20 4 22 21 24 18 26
REMARK H PARENT 10 19 12 21 4 23 21 25 18 27
REMARK Flexibility Score: inf
ROOT
ATOM      1  C   UNL     1      24.271  -4.620 101.435  1.00  0.00     0.180 A 
ATOM      2  C   UNL     1      22.976  -5.031 101.078  1.00  0.00     0.208 A 
ATOM      3  C   UNL     1      22.151  -5.611 102.056  1.00  0.00     0.238 A 
ATOM      4  O   UNL     1      20.974  -5.927 101.744  1.00  0.00    -0.285 OA
ATOM      5  C   UNL     1      22.639  -5.786 103.373  1.00  0.00     0.111 A 
ATOM      6  C   UNL     1      21.905  -6.398 104.434  1.00  0.00     0.134 A 
ATOM      7  C   UNL     1      22.437  -6.401 105.729  1.00  0.00     0.093 A 
ATOM      8  C   UNL     1      23.703  -5.873 105.989  1.00  0.00     0.123 A 
ATOM      9  C   UNL     1      24.451  -5.327 104.950  1.00  0.00     0.094 A 
ATOM     10  C   UNL     1      23.933  -5.276 103.653  1.00  0.00     0.146 A 
ATOM     11  O   UNL     1      24.675  -4.737 102.694  1.00  0.00    -0.452 OA
ENDROOT
BRANCH   1  12
ATOM     12  C   UNL     1      25.207  -4.023 100.454  1.00  0.00     0.025 A 
ATOM     13  C   UNL     1      26.061  -4.859  99.717  1.00  0.00     0.016 A 
ATOM     14  C   UNL     1      26.937  -4.320  98.772  1.00  0.00     0.051 A 
ATOM     15  C   UNL     1      26.963  -2.942  98.538  1.00  0.00     0.157 A 
ATOM     16  C   UNL     1      25.220  -2.640 100.202  1.00  0.00     0.062 A 
ATOM     17  C   UNL     1      26.098  -2.096  99.253  1.00  0.00     0.158 A 
BRANCH  15  18
ATOM     18  O   UNL     1      27.850  -2.432  97.589  1.00  0.00    -0.504 OA
ATOM     19  H   UNL     1      27.909  -1.442  97.386  1.00  0.00     0.293 HD
ENDBRANCH  15  18
BRANCH  17  20
ATOM     20  O   UNL     1      26.109  -0.724  99.014  1.00  0.00    -0.504 OA
ATOM     21  H   UNL     1      26.580  -0.329  98.208  1.00  0.00     0.293 HD
ENDBRANCH  17  20
ENDBRANCH   1  12
BRANCH   2  22
ATOM     22  O   UNL     1      22.507  -4.828  99.776  1.00  0.00    -0.502 OA
ATOM     23  H   UNL     1      23.075  -4.400  99.055  1.00  0.00     0.293 HD
ENDBRANCH   2  22
BRANCH   6  24
ATOM     24  O   UNL     1      20.673  -7.037 104.263  1.00  0.00    -0.507 OA
ATOM     25  H   UNL     1      20.060  -7.315 105.015  1.00  0.00     0.293 HD
ENDBRANCH   6  24
BRANCH   8  26
ATOM     26  O   UNL     1      24.231  -5.894 107.279  1.00  0.00    -0.508 OA
ATOM     27  H   UNL     1      25.215  -5.724 107.451  1.00  0.00     0.293 HD
ENDBRANCH   8  26
TORSDOF 6
ENDMDL
MODEL 6
REMARK VINA RESULT:    -5.932      6.777      8.954
REMARK INTER + INTRA:          -7.342
REMARK INTER:                  -7.036
REMARK INTRA:                  -0.306
REMARK UNBOUND:                -0.197
REMARK SMILES O=c1c(O)c(-c2ccc(O)c(O)c2)oc2cc(O)cc(O)c12
REMARK SMILES IDX 5 1 3 2 2 3 1 4 22 5 20 6 19 7 17 8 16 9 15 10 14 11 6 12
REMARK SMILES IDX 7 13 8 14 9 15 13 16 11 17 10 18 12 20 4 22 21 24 18 26
REMARK H PARENT 10 19 12 21 4 23 21 25 18 27
REMARK Flexibility Score: inf
ROOT
ATOM      1  C   UNL     1      31.038   1.988 104.129  1.00  0.00     0.180 A 
ATOM      2  C   UNL     1      31.410   3.275 104.553  1.00  0.00     0.208 A 
ATOM      3  C   UNL     1      31.935   4.177 103.614  1.00  0.00     0.238 A 
ATOM      4  O   UNL     1      32.215   5.345 103.989  1.00  0.00    -0.285 OA
ATOM      5  C   UNL     1      32.095   3.775 102.266  1.00  0.00     0.111 A 
ATOM      6  C   UNL     1      32.654   4.593 101.238  1.00  0.00     0.134 A 
ATOM      7  C   UNL     1      32.644   4.140  99.913  1.00  0.00     0.093 A 
ATOM      8  C   UNL     1      32.156   2.872  99.590  1.00  0.00     0.123 A 
ATOM      9  C   UNL     1      31.664   2.043 100.594  1.00  0.00     0.094 A 
ATOM     10  C   UNL     1      31.626   2.481 101.921  1.00  0.00     0.146 A 
ATOM     11  O   UNL     1      31.139   1.664 102.845  1.00  0.00    -0.452 OA
ENDROOT
BRANCH   1  12
ATOM     12  C   UNL     1      30.501   0.974 105.065  1.00  0.00     0.025 A 
ATOM     13  C   UNL     1      31.372   0.037 105.643  1.00  0.00     0.016 A 
ATOM     14  C   UNL     1      30.890  -0.916 106.545  1.00  0.00     0.051 A 
ATOM     15  C   UNL     1      29.537  -0.937 106.894  1.00  0.00     0.157 A 
ATOM     16  C   UNL     1      29.144   0.963 105.434  1.00  0.00     0.062 A 
ATOM     17  C   UNL     1      28.658   0.009 106.340  1.00  0.00     0.158 A 
BRANCH  15  18
ATOM     18  O   UNL     1      29.084  -1.902 107.795  1.00  0.00    -0.504 OA
ATOM     19  H   UNL     1      29.714  -2.554 108.246  1.00  0.00     0.293 HD
ENDBRANCH  15  18
BRANCH  17  20
ATOM     20  O   UNL     1      27.311   0.002 106.694  1.00  0.00    -0.504 OA
ATOM     21  H   UNL     1      26.618  -0.486 106.138  1.00  0.00     0.293 HD
ENDBRANCH  17  20
ENDBRANCH   1  12
BRANCH   2  22
ATOM     22  O   UNL     1      31.222   3.658 105.885  1.00  0.00    -0.502 OA
ATOM     23  H   UNL     1      31.532   4.553 106.242  1.00  0.00     0.293 HD
ENDBRANCH   2  22
BRANCH   6  24
ATOM     24  O   UNL     1      33.251   5.836 101.468  1.00  0.00    -0.507 OA
ATOM     25  H   UNL     1      34.069   5.984 102.039  1.00  0.00     0.293 HD
ENDBRANCH   6  24
BRANCH   8  26
ATOM     26  O   UNL     1      32.164   2.422  98.271  1.00  0.00    -0.508 OA
ATOM     27  H   UNL     1      32.372   3.047  97.500  1.00  0.00     0.293 HD
ENDBRANCH   8  26
TORSDOF 6
ENDMDL
MODEL 7
REMARK VINA RESULT:    -5.677      4.949      7.538
REMARK INTER + INTRA:          -7.035
REMARK INTER:                  -6.981
REMARK INTRA:                  -0.054
REMARK UNBOUND:                -0.197
REMARK SMILES O=c1c(O)c(-c2ccc(O)c(O)c2)oc2cc(O)cc(O)c12
REMARK SMILES IDX 5 1 3 2 2 3 1 4 22 5 20 6 19 7 17 8 16 9 15 10 14 11 6 12
REMARK SMILES IDX 7 13 8 14 9 15 13 16 11 17 10 18 12 20 4 22 21 24 18 26
REMARK H PARENT 10 19 12 21 4 23 21 25 18 27
REMARK Flexibility Score: inf
ROOT
ATOM      1  C   UNL     1      29.573   2.219 103.680  1.00  0.00     0.180 A 
ATOM      2  C   UNL     1      29.047   1.694 104.872  1.00  0.00     0.208 A 
ATOM      3  C   UNL     1      27.972   0.793 104.804  1.00  0.00     0.238 A 
ATOM      4  O   UNL     1      27.540   0.285 105.872  1.00  0.00    -0.285 OA
ATOM      5  C   UNL     1      27.427   0.442 103.546  1.00  0.00     0.111 A 
ATOM      6  C   UNL     1      26.311  -0.430 103.361  1.00  0.00     0.134 A 
ATOM      7  C   UNL     1      25.940  -0.810 102.066  1.00  0.00     0.093 A 
ATOM      8  C   UNL     1      26.601  -0.299 100.948  1.00  0.00     0.123 A 
ATOM      9  C   UNL     1      27.652   0.599 101.116  1.00  0.00     0.094 A 
ATOM     10  C   UNL     1      28.070   0.969 102.397  1.00  0.00     0.146 A 
ATOM     11  O   UNL     1      29.083   1.818 102.512  1.00  0.00    -0.452 OA
ENDROOT
BRANCH   1  12
ATOM     12  C   UNL     1      30.690   3.192 103.672  1.00  0.00     0.025 A 
ATOM     13  C   UNL     1      30.577   4.379 104.412  1.00  0.00     0.016 A 
ATOM     14  C   UNL     1      31.626   5.302 104.435  1.00  0.00     0.051 A 
ATOM     15  C   UNL     1      32.808   5.046 103.734  1.00  0.00     0.157 A 
ATOM     16  C   UNL     1      31.887   2.927 102.984  1.00  0.00     0.062 A 
ATOM     17  C   UNL     1      32.942   3.851 103.007  1.00  0.00     0.158 A 
BRANCH  15  18
ATOM     18  O   UNL     1      33.837   5.986 103.774  1.00  0.00    -0.504 OA
ATOM     19  H   UNL     1      34.707   5.853 103.272  1.00  0.00     0.293 HD
ENDBRANCH  15  18
BRANCH  17  20
ATOM     20  O   UNL     1      34.123   3.583 102.318  1.00  0.00    -0.504 OA
ATOM     21  H   UNL     1      34.197   2.805 101.673  1.00  0.00     0.293 HD
ENDBRANCH  17  20
ENDBRANCH   1  12
BRANCH   2  22
ATOM     22  O   UNL     1      29.616   2.037 106.103  1.00  0.00    -0.502 OA
ATOM     23  H   UNL     1      29.995   1.346 106.738  1.00  0.00     0.293 HD
ENDBRANCH   2  22
BRANCH   6  24
ATOM     24  O   UNL     1      25.525  -0.923 104.407  1.00  0.00    -0.507 OA
ATOM     25  H   UNL     1      24.882  -1.697 104.327  1.00  0.00     0.293 HD
ENDBRANCH   6  24
BRANCH   8  26
ATOM     26  O   UNL     1      26.214  -0.670  99.661  1.00  0.00    -0.508 OA
ATOM     27  H   UNL     1      26.866  -1.101  99.016  1.00  0.00     0.293 HD
ENDBRANCH   8  26
TORSDOF 6
ENDMDL
MODEL 8
REMARK VINA RESULT:    -5.641      5.710      7.500
REMARK INTER + INTRA:          -6.992
REMARK INTER:                  -6.732
REMARK INTRA:                  -0.260
REMARK UNBOUND:                -0.197
REMARK SMILES O=c1c(O)c(-c2ccc(O)c(O)c2)oc2cc(O)cc(O)c12
REMARK SMILES IDX 5 1 3 2 2 3 1 4 22 5 20 6 19 7 17 8 16 9 15 10 14 11 6 12
REMARK SMILES IDX 7 13 8 14 9 15 13 16 11 17 10 18 12 20 4 22 21 24 18 26
REMARK H PARENT 10 19 12 21 4 23 21 25 18 27
REMARK Flexibility Score: inf
ROOT
ATOM      1  C   UNL     1      25.120  -3.311 103.273  1.00  0.00     0.180 A 
ATOM      2  C   UNL     1      25.018  -4.543 103.941  1.00  0.00     0.208 A 
ATOM      3  C   UNL     1      23.936  -5.389 103.649  1.00  0.00     0.238 A 
ATOM      4  O   UNL     1      23.880  -6.514 104.211  1.00  0.00    -0.285 OA
ATOM      5  C   UNL     1      22.961  -4.984 102.706  1.00  0.00     0.111 A 
ATOM      6  C   UNL     1      21.802  -5.744 102.363  1.00  0.00     0.134 A 
ATOM      7  C   UNL     1      20.974  -5.307 101.322  1.00  0.00     0.093 A 
ATOM      8  C   UNL     1      21.228  -4.106 100.655  1.00  0.00     0.123 A 
ATOM      9  C   UNL     1      22.322  -3.329 101.023  1.00  0.00     0.094 A 
ATOM     10  C   UNL     1      23.188  -3.756 102.034  1.00  0.00     0.146 A 
ATOM     11  O   UNL     1      24.226  -2.990 102.345  1.00  0.00    -0.452 OA
ENDROOT
BRANCH   1  12
ATOM     12  C   UNL     1      26.218  -2.355 103.545  1.00  0.00     0.025 A 
ATOM     13  C   UNL     1      27.199  -2.132 102.565  1.00  0.00     0.016 A 
ATOM     14  C   UNL     1      28.232  -1.219 102.792  1.00  0.00     0.051 A 
ATOM     15  C   UNL     1      28.293  -0.506 103.992  1.00  0.00     0.157 A 
ATOM     16  C   UNL     1      26.271  -1.621 104.743  1.00  0.00     0.062 A 
ATOM     17  C   UNL     1      27.306  -0.704 104.973  1.00  0.00     0.158 A 
BRANCH  15  18
ATOM     18  O   UNL     1      29.338   0.397 104.192  1.00  0.00    -0.504 OA
ATOM     19  H   UNL     1      29.393   0.982 105.016  1.00  0.00     0.293 HD
ENDBRANCH  15  18
BRANCH  17  20
ATOM     20  O   UNL     1      27.354   0.015 106.166  1.00  0.00    -0.504 OA
ATOM     21  H   UNL     1      28.124   0.638 106.380  1.00  0.00     0.293 HD
ENDBRANCH  17  20
ENDBRANCH   1  12
BRANCH   2  22
ATOM     22  O   UNL     1      26.005  -4.932 104.853  1.00  0.00    -0.502 OA
ATOM     23  H   UNL     1      26.407  -5.861 104.855  1.00  0.00     0.293 HD
ENDBRANCH   2  22
BRANCH   6  24
ATOM     24  O   UNL     1      21.407  -6.909 103.028  1.00  0.00    -0.507 OA
ATOM     25  H   UNL     1      21.653  -7.844 102.743  1.00  0.00     0.293 HD
ENDBRANCH   6  24
BRANCH   8  26
ATOM     26  O   UNL     1      20.389  -3.671  99.630  1.00  0.00    -0.508 OA
ATOM     27  H   UNL     1      20.545  -3.945  98.667  1.00  0.00     0.293 HD
ENDBRANCH   8  26
TORSDOF 6
ENDMDL
MODEL 9
REMARK VINA RESULT:    -5.549      5.837      8.826
REMARK INTER + INTRA:          -6.881
REMARK INTER:                  -6.617
REMARK INTRA:                  -0.265
REMARK UNBOUND:                -0.197
REMARK SMILES O=c1c(O)c(-c2ccc(O)c(O)c2)oc2cc(O)cc(O)c12
REMARK SMILES IDX 5 1 3 2 2 3 1 4 22 5 20 6 19 7 17 8 16 9 15 10 14 11 6 12
REMARK SMILES IDX 7 13 8 14 9 15 13 16 11 17 10 18 12 20 4 22 21 24 18 26
REMARK H PARENT 10 19 12 21 4 23 21 25 18 27
REMARK Flexibility Score: inf
ROOT
ATOM      1  C   UNL     1      30.446   2.126 102.441  1.00  0.00     0.180 A 
ATOM      2  C   UNL     1      31.443   2.675 101.617  1.00  0.00     0.208 A 
ATOM      3  C   UNL     1      32.271   3.687 102.129  1.00  0.00     0.238 A 
ATOM      4  O   UNL     1      33.196   4.136 101.403  1.00  0.00    -0.285 OA
ATOM      5  C   UNL     1      32.080   4.149 103.453  1.00  0.00     0.111 A 
ATOM      6  C   UNL     1      32.834   5.197 104.062  1.00  0.00     0.134 A 
ATOM      7  C   UNL     1      32.648   5.483 105.420  1.00  0.00     0.093 A 
ATOM      8  C   UNL     1      31.690   4.802 106.174  1.00  0.00     0.123 A 
ATOM      9  C   UNL     1      30.908   3.819 105.574  1.00  0.00     0.094 A 
ATOM     10  C   UNL     1      31.095   3.486 104.230  1.00  0.00     0.146 A 
ATOM     11  O   UNL     1      30.336   2.535 103.700  1.00  0.00    -0.452 OA
ENDROOT
BRANCH   1  12
ATOM     12  C   UNL     1      29.519   1.074 101.965  1.00  0.00     0.025 A 
ATOM     13  C   UNL     1      28.210   1.422 101.596  1.00  0.00     0.016 A 
ATOM     14  C   UNL     1      27.325   0.449 101.125  1.00  0.00     0.051 A 
ATOM     15  C   UNL     1      27.739  -0.881 100.999  1.00  0.00     0.157 A 
ATOM     16  C   UNL     1      29.939  -0.260 101.819  1.00  0.00     0.062 A 
ATOM     17  C   UNL     1      29.053  -1.238 101.344  1.00  0.00     0.158 A 
BRANCH  15  18
ATOM     18  O   UNL     1      26.833  -1.831 100.528  1.00  0.00    -0.504 OA
ATOM     19  H   UNL     1      25.871  -1.861 100.844  1.00  0.00     0.293 HD
ENDBRANCH  15  18
BRANCH  17  20
ATOM     20  O   UNL     1      29.476  -2.559 101.208  1.00  0.00    -0.504 OA
ATOM     21  H   UNL     1      29.056  -3.309 101.745  1.00  0.00     0.293 HD
ENDBRANCH  17  20
ENDBRANCH   1  12
BRANCH   2  22
ATOM     22  O   UNL     1      31.628   2.188 100.318  1.00  0.00    -0.502 OA
ATOM     23  H   UNL     1      30.935   2.307  99.590  1.00  0.00     0.293 HD
ENDBRANCH   2  22
BRANCH   6  24
ATOM     24  O   UNL     1      33.750   6.000 103.375  1.00  0.00    -0.507 OA
ATOM     25  H   UNL     1      34.569   6.420 103.787  1.00  0.00     0.293 HD
ENDBRANCH   6  24
BRANCH   8  26
ATOM     26  O   UNL     1      31.500   5.104 107.521  1.00  0.00    -0.508 OA
ATOM     27  H   UNL     1      30.823   5.797 107.819  1.00  0.00     0.293 HD
ENDBRANCH   8  26
TORSDOF 6
ENDMDL
