MODEL 1
REMARK VINA RESULT:    -3.204      0.000      0.000
REMARK INTER + INTRA:          -5.909
REMARK INTER:                  -5.077
REMARK INTRA:                  -0.832
REMARK UNBOUND:                -0.832
REMARK SMILES CCCCCCCCCCCC(=O)[O-]
REMARK SMILES IDX 7 1 8 2 9 3 10 4 11 5 12 6 13 7 14 8 6 9 5 10 4 11 3 12 2 13
REMARK SMILES IDX 1 14
REMARK H PARENT
REMARK Flexibility Score: inf
ROOT
ATOM      1  C   UNL     1      -9.225 -22.066  19.621  1.00  0.00     0.000 C 
ENDROOT
BRANCH   1   2
ATOM      2  C   UNL     1     -10.194 -21.688  20.755  1.00  0.00     0.000 C 
BRANCH   2   3
ATOM      3  C   UNL     1     -10.965 -20.389  20.464  1.00  0.00     0.000 C 
BRANCH   3   4
ATOM      4  C   UNL     1     -10.043 -19.232  20.040  1.00  0.00     0.006 C 
BRANCH   4   5
ATOM      5  C   UNL     1     -10.223 -17.943  20.860  1.00  0.00     0.053 C 
BRANCH   5   6
ATOM      6  C   UNL     1      -9.928 -18.153  22.312  1.00  0.00     0.041 C 
ATOM      7  O   UNL     1      -8.762 -17.973  22.754  1.00  0.00    -0.550 OA
ATOM      8  O   UNL     1     -10.932 -18.580  23.172  1.00  0.00    -0.550 OA
ENDBRANCH   5   6
ENDBRANCH   4   5
ENDBRANCH   3   4
ENDBRANCH   2   3
ENDBRANCH   1   2
BRANCH   1   9
ATOM      9  C   UNL     1      -9.807 -23.125  18.671  1.00  0.00     0.000 C 
BRANCH   9  10
ATOM     10  C   UNL     1     -10.577 -22.464  17.519  1.00  0.00    -0.000 C 
BRANCH  10  11
ATOM     11  C   UNL     1      -9.859 -21.228  16.947  1.00  0.00    -0.000 C 
BRANCH  11  12
ATOM     12  C   UNL     1     -10.783 -20.185  16.292  1.00  0.00    -0.000 C 
BRANCH  12  13
ATOM     13  C   UNL     1     -10.671 -20.164  14.761  1.00  0.00    -0.003 C 
ATOM     14  C   UNL     1      -9.235 -20.414  14.310  1.00  0.00     0.004 C 
ENDBRANCH  12  13
ENDBRANCH  11  12
ENDBRANCH  10  11
ENDBRANCH   9  10
ENDBRANCH   1   9
TORSDOF 10
ENDMDL
MODEL 2
REMARK VINA RESULT:    -3.099      3.239      5.537
REMARK INTER + INTRA:          -5.743
REMARK INTER:                  -4.575
REMARK INTRA:                  -1.167
REMARK UNBOUND:                -0.832
REMARK SMILES CCCCCCCCCCCC(=O)[O-]
REMARK SMILES IDX 7 1 8 2 9 3 10 4 11 5 12 6 13 7 14 8 6 9 5 10 4 11 3 12 2 13
REMARK SMILES IDX 1 14
REMARK H PARENT
REMARK Flexibility Score: inf
ROOT
ATOM      1  C   UNL     1      -8.825 -22.557  21.978  1.00  0.00     0.000 C 
ENDROOT
BRANCH   1   2
ATOM      2  C   UNL     1     -10.110 -23.060  21.298  1.00  0.00     0.000 C 
BRANCH   2   3
ATOM      3  C   UNL     1     -10.049 -22.949  19.765  1.00  0.00     0.000 C 
BRANCH   3   4
ATOM      4  C   UNL     1      -9.325 -21.677  19.289  1.00  0.00     0.006 C 
BRANCH   4   5
ATOM      5  C   UNL     1      -8.923 -21.691  17.805  1.00  0.00     0.053 C 
BRANCH   5   6
ATOM      6  C   UNL     1      -7.550 -22.252  17.600  1.00  0.00     0.041 C 
ATOM      7  O   UNL     1      -7.137 -22.506  16.437  1.00  0.00    -0.550 OA
ATOM      8  O   UNL     1      -6.738 -22.526  18.694  1.00  0.00    -0.550 OA
ENDBRANCH   5   6
ENDBRANCH   4   5
ENDBRANCH   3   4
ENDBRANCH   2   3
ENDBRANCH   1   2
BRANCH   1   9
ATOM      9  C   UNL     1      -9.099 -21.498  23.057  1.00  0.00     0.000 C 
BRANCH   9  10
ATOM     10  C   UNL     1     -10.578 -21.087  23.059  1.00  0.00    -0.000 C 
BRANCH  10  11
ATOM     11  C   UNL     1     -10.796 -19.622  22.639  1.00  0.00    -0.000 C 
BRANCH  11  12
ATOM     12  C   UNL     1      -9.507 -18.826  22.366  1.00  0.00    -0.000 C 
BRANCH  12  13
ATOM     13  C   UNL     1      -9.658 -17.817  21.219  1.00  0.00    -0.003 C 
ATOM     14  C   UNL     1     -10.637 -18.325  20.165  1.00  0.00     0.004 C 
ENDBRANCH  12  13
ENDBRANCH  11  12
ENDBRANCH  10  11
ENDBRANCH   9  10
ENDBRANCH   1   9
TORSDOF 10
ENDMDL
MODEL 3
REMARK VINA RESULT:    -2.943      3.472      5.885
REMARK INTER + INTRA:          -5.496
REMARK INTER:                  -4.781
REMARK INTRA:                  -0.715
REMARK UNBOUND:                -0.832
REMARK SMILES CCCCCCCCCCCC(=O)[O-]
REMARK SMILES IDX 7 1 8 2 9 3 10 4 11 5 12 6 13 7 14 8 6 9 5 10 4 11 3 12 2 13
REMARK SMILES IDX 1 14
REMARK H PARENT
REMARK Flexibility Score: inf
ROOT
ATOM      1  C   UNL     1      -9.547 -21.735  20.333  1.00  0.00     0.000 C 
ENDROOT
BRANCH   1   2
ATOM      2  C   UNL     1      -9.718 -22.921  19.369  1.00  0.00     0.000 C 
BRANCH   2   3
ATOM      3  C   UNL     1     -10.481 -22.536  18.090  1.00  0.00     0.000 C 
BRANCH   3   4
ATOM      4  C   UNL     1      -9.663 -21.619  17.163  1.00  0.00     0.006 C 
BRANCH   4   5
ATOM      5  C   UNL     1     -10.485 -20.520  16.469  1.00  0.00     0.053 C 
BRANCH   5   6
ATOM      6  C   UNL     1     -10.119 -20.369  15.025  1.00  0.00     0.041 C 
ATOM      7  O   UNL     1     -11.000 -20.070  14.177  1.00  0.00    -0.550 OA
ATOM      8  O   UNL     1      -8.811 -20.591  14.612  1.00  0.00    -0.550 OA
ENDBRANCH   5   6
ENDBRANCH   4   5
ENDBRANCH   3   4
ENDBRANCH   2   3
ENDBRANCH   1   2
BRANCH   1   9
ATOM      9  C   UNL     1      -9.956 -22.076  21.774  1.00  0.00     0.000 C 
BRANCH   9  10
ATOM     10  C   UNL     1      -9.546 -20.955  22.741  1.00  0.00    -0.000 C 
BRANCH  10  11
ATOM     11  C   UNL     1     -10.375 -19.671  22.558  1.00  0.00    -0.000 C 
BRANCH  11  12
ATOM     12  C   UNL     1      -9.554 -18.371  22.496  1.00  0.00    -0.000 C 
BRANCH  12  13
ATOM     13  C   UNL     1      -9.500 -17.764  21.087  1.00  0.00    -0.003 C 
ATOM     14  C   UNL     1     -10.619 -18.314  20.207  1.00  0.00     0.004 C 
ENDBRANCH  12  13
ENDBRANCH  11  12
ENDBRANCH  10  11
ENDBRANCH   9  10
ENDBRANCH   1   9
TORSDOF 10
ENDMDL
MODEL 4
REMARK VINA RESULT:    -2.835     18.229     20.323
REMARK INTER + INTRA:          -5.324
REMARK INTER:                  -4.880
REMARK INTRA:                  -0.444
REMARK UNBOUND:                -0.832
REMARK SMILES CCCCCCCCCCCC(=O)[O-]
REMARK SMILES IDX 7 1 8 2 9 3 10 4 11 5 12 6 13 7 14 8 6 9 5 10 4 11 3 12 2 13
REMARK SMILES IDX 1 14
REMARK H PARENT
REMARK Flexibility Score: inf
ROOT
ATOM      1  C   UNL     1       8.384 -19.294  12.421  1.00  0.00     0.000 C 
ENDROOT
BRANCH   1   2
ATOM      2  C   UNL     1       9.125 -20.157  11.385  1.00  0.00     0.000 C 
BRANCH   2   3
ATOM      3  C   UNL     1       8.345 -20.296  10.066  1.00  0.00     0.000 C 
BRANCH   3   4
ATOM      4  C   UNL     1       9.096 -21.138   9.018  1.00  0.00     0.006 C 
BRANCH   4   5
ATOM      5  C   UNL     1       8.727 -22.631   9.019  1.00  0.00     0.053 C 
BRANCH   5   6
ATOM      6  C   UNL     1       7.277 -22.852   9.321  1.00  0.00     0.041 C 
ATOM      7  O   UNL     1       6.428 -22.837   8.391  1.00  0.00    -0.550 OA
ATOM      8  O   UNL     1       6.860 -23.043  10.632  1.00  0.00    -0.550 OA
ENDBRANCH   5   6
ENDBRANCH   4   5
ENDBRANCH   3   4
ENDBRANCH   2   3
ENDBRANCH   1   2
BRANCH   1   9
ATOM      9  C   UNL     1       8.735 -19.670  13.869  1.00  0.00     0.000 C 
BRANCH   9  10
ATOM     10  C   UNL     1       8.812 -21.195  14.035  1.00  0.00    -0.000 C 
BRANCH  10  11
ATOM     11  C   UNL     1       7.642 -21.771  14.854  1.00  0.00    -0.000 C 
BRANCH  11  12
ATOM     12  C   UNL     1       8.048 -22.477  16.160  1.00  0.00    -0.000 C 
BRANCH  12  13
ATOM     13  C   UNL     1       7.338 -21.907  17.396  1.00  0.00    -0.003 C 
ATOM     14  C   UNL     1       6.030 -21.221  17.011  1.00  0.00     0.004 C 
ENDBRANCH  12  13
ENDBRANCH  11  12
ENDBRANCH  10  11
ENDBRANCH   9  10
ENDBRANCH   1   9
TORSDOF 10
ENDMDL
MODEL 5
REMARK VINA RESULT:    -2.823      3.211      6.151
REMARK INTER + INTRA:          -5.306
REMARK INTER:                  -4.516
REMARK INTRA:                  -0.789
REMARK UNBOUND:                -0.832
REMARK SMILES CCCCCCCCCCCC(=O)[O-]
REMARK SMILES IDX 7 1 8 2 9 3 10 4 11 5 12 6 13 7 14 8 6 9 5 10 4 11 3 12 2 13
REMARK SMILES IDX 1 14
REMARK H PARENT
REMARK Flexibility Score: inf
ROOT
ATOM      1  C   UNL     1      -9.661 -18.434  20.534  1.00  0.00     0.000 C 
ENDROOT
BRANCH   1   2
ATOM      2  C   UNL     1     -10.977 -18.704  19.785  1.00  0.00     0.000 C 
BRANCH   2   3
ATOM      3  C   UNL     1     -11.028 -20.113  19.170  1.00  0.00     0.000 C 
BRANCH   3   4
ATOM      4  C   UNL     1      -9.631 -20.741  19.009  1.00  0.00     0.006 C 
BRANCH   4   5
ATOM      5  C   UNL     1      -9.408 -21.458  17.666  1.00  0.00     0.053 C 
BRANCH   5   6
ATOM      6  C   UNL     1      -8.005 -21.961  17.523  1.00  0.00     0.041 C 
ATOM      7  O   UNL     1      -7.470 -22.027  16.385  1.00  0.00    -0.550 OA
ATOM      8  O   UNL     1      -7.300 -22.387  18.642  1.00  0.00    -0.550 OA
ENDBRANCH   5   6
ENDBRANCH   4   5
ENDBRANCH   3   4
ENDBRANCH   2   3
ENDBRANCH   1   2
BRANCH   1   9
ATOM      9  C   UNL     1      -9.825 -18.481  22.061  1.00  0.00     0.000 C 
BRANCH   9  10
ATOM     10  C   UNL     1     -11.062 -19.301  22.454  1.00  0.00    -0.000 C 
BRANCH  10  11
ATOM     11  C   UNL     1     -10.716 -20.730  22.913  1.00  0.00    -0.000 C 
BRANCH  11  12
ATOM     12  C   UNL     1      -9.240 -21.129  22.734  1.00  0.00    -0.000 C 
BRANCH  12  13
ATOM     13  C   UNL     1      -9.019 -22.647  22.796  1.00  0.00    -0.003 C 
ATOM     14  C   UNL     1      -8.879 -23.125  24.238  1.00  0.00     0.004 C 
ENDBRANCH  12  13
ENDBRANCH  11  12
ENDBRANCH  10  11
ENDBRANCH   9  10
ENDBRANCH   1   9
TORSDOF 10
ENDMDL
MODEL 6
REMARK VINA RESULT:    -2.776     18.136     20.083
REMARK INTER + INTRA:          -5.232
REMARK INTER:                  -4.453
REMARK INTRA:                  -0.779
REMARK UNBOUND:                -0.832
REMARK SMILES CCCCCCCCCCCC(=O)[O-]
REMARK SMILES IDX 7 1 8 2 9 3 10 4 11 5 12 6 13 7 14 8 6 9 5 10 4 11 3 12 2 13
REMARK SMILES IDX 1 14
REMARK H PARENT
REMARK Flexibility Score: inf
ROOT
ATOM      1  C   UNL     1       6.690 -21.434  12.452  1.00  0.00     0.000 C 
ENDROOT
BRANCH   1   2
ATOM      2  C   UNL     1       7.932 -20.543  12.625  1.00  0.00     0.000 C 
BRANCH   2   3
ATOM      3  C   UNL     1       8.221 -19.686  11.380  1.00  0.00     0.000 C 
BRANCH   3   4
ATOM      4  C   UNL     1       9.067 -20.428  10.330  1.00  0.00     0.006 C 
BRANCH   4   5
ATOM      5  C   UNL     1       8.341 -20.693   9.001  1.00  0.00     0.053 C 
BRANCH   5   6
ATOM      6  C   UNL     1       8.385 -22.139   8.613  1.00  0.00     0.041 C 
ATOM      7  O   UNL     1       8.821 -22.477   7.481  1.00  0.00    -0.550 OA
ATOM      8  O   UNL     1       7.915 -23.109   9.489  1.00  0.00    -0.550 OA
ENDBRANCH   5   6
ENDBRANCH   4   5
ENDBRANCH   3   4
ENDBRANCH   2   3
ENDBRANCH   1   2
BRANCH   1   9
ATOM      9  C   UNL     1       6.947 -22.895  12.852  1.00  0.00     0.000 C 
BRANCH   9  10
ATOM     10  C   UNL     1       6.764 -23.090  14.364  1.00  0.00    -0.000 C 
BRANCH  10  11
ATOM     11  C   UNL     1       8.098 -23.122  15.132  1.00  0.00    -0.000 C 
BRANCH  11  12
ATOM     12  C   UNL     1       8.142 -22.244  16.394  1.00  0.00    -0.000 C 
BRANCH  12  13
ATOM     13  C   UNL     1       7.102 -21.115  16.375  1.00  0.00    -0.003 C 
ATOM     14  C   UNL     1       5.910 -21.449  17.266  1.00  0.00     0.004 C 
ENDBRANCH  12  13
ENDBRANCH  11  12
ENDBRANCH  10  11
ENDBRANCH   9  10
ENDBRANCH   1   9
TORSDOF 10
ENDMDL
MODEL 7
REMARK VINA RESULT:    -2.682     17.329     19.245
REMARK INTER + INTRA:          -5.082
REMARK INTER:                  -4.426
REMARK INTRA:                  -0.656
REMARK UNBOUND:                -0.832
REMARK SMILES CCCCCCCCCCCC(=O)[O-]
REMARK SMILES IDX 7 1 8 2 9 3 10 4 11 5 12 6 13 7 14 8 6 9 5 10 4 11 3 12 2 13
REMARK SMILES IDX 1 14
REMARK H PARENT
REMARK Flexibility Score: inf
ROOT
ATOM      1  C   UNL     1       5.841 -22.191  12.543  1.00  0.00     0.000 C 
ENDROOT
BRANCH   1   2
ATOM      2  C   UNL     1       6.118 -22.857  11.184  1.00  0.00     0.000 C 
BRANCH   2   3
ATOM      3  C   UNL     1       7.615 -22.868  10.827  1.00  0.00     0.000 C 
BRANCH   3   4
ATOM      4  C   UNL     1       8.017 -21.692   9.919  1.00  0.00     0.006 C 
BRANCH   4   5
ATOM      5  C   UNL     1       9.056 -20.740  10.535  1.00  0.00     0.053 C 
BRANCH   5   6
ATOM      6  C   UNL     1       8.481 -19.926  11.653  1.00  0.00     0.041 C 
ATOM      7  O   UNL     1       8.826 -20.152  12.843  1.00  0.00    -0.550 OA
ATOM      8  O   UNL     1       7.539 -18.941  11.384  1.00  0.00    -0.550 OA
ENDBRANCH   5   6
ENDBRANCH   4   5
ENDBRANCH   3   4
ENDBRANCH   2   3
ENDBRANCH   1   2
BRANCH   1   9
ATOM      9  C   UNL     1       6.136 -23.119  13.732  1.00  0.00     0.000 C 
BRANCH   9  10
ATOM     10  C   UNL     1       7.635 -23.122  14.065  1.00  0.00    -0.000 C 
BRANCH  10  11
ATOM     11  C   UNL     1       7.916 -22.974  15.572  1.00  0.00    -0.000 C 
BRANCH  11  12
ATOM     12  C   UNL     1       7.692 -21.562  16.139  1.00  0.00    -0.000 C 
BRANCH  12  13
ATOM     13  C   UNL     1       7.001 -21.569  17.510  1.00  0.00    -0.003 C 
ATOM     14  C   UNL     1       5.500 -21.331  17.372  1.00  0.00     0.004 C 
ENDBRANCH  12  13
ENDBRANCH  11  12
ENDBRANCH  10  11
ENDBRANCH   9  10
ENDBRANCH   1   9
TORSDOF 10
ENDMDL
MODEL 8
REMARK VINA RESULT:    -2.602      2.387      3.283
REMARK INTER + INTRA:          -4.956
REMARK INTER:                  -4.329
REMARK INTRA:                  -0.627
REMARK UNBOUND:                -0.832
REMARK SMILES CCCCCCCCCCCC(=O)[O-]
REMARK SMILES IDX 7 1 8 2 9 3 10 4 11 5 12 6 13 7 14 8 6 9 5 10 4 11 3 12 2 13
REMARK SMILES IDX 1 14
REMARK H PARENT
REMARK Flexibility Score: inf
ROOT
ATOM      1  C   UNL     1     -10.007 -19.446  19.344  1.00  0.00     0.000 C 
ENDROOT
BRANCH   1   2
ATOM      2  C   UNL     1     -10.825 -18.522  20.262  1.00  0.00     0.000 C 
BRANCH   2   3
ATOM      3  C   UNL     1      -9.983 -17.926  21.403  1.00  0.00     0.000 C 
BRANCH   3   4
ATOM      4  C   UNL     1      -9.514 -18.990  22.413  1.00  0.00     0.006 C 
BRANCH   4   5
ATOM      5  C   UNL     1     -10.587 -20.027  22.787  1.00  0.00     0.053 C 
BRANCH   5   6
ATOM      6  C   UNL     1     -10.026 -21.413  22.867  1.00  0.00     0.041 C 
ATOM      7  O   UNL     1      -9.263 -21.840  21.961  1.00  0.00    -0.550 OA
ATOM      8  O   UNL     1     -10.373 -22.244  23.925  1.00  0.00    -0.550 OA
ENDBRANCH   5   6
ENDBRANCH   4   5
ENDBRANCH   3   4
ENDBRANCH   2   3
ENDBRANCH   1   2
BRANCH   1   9
ATOM      9  C   UNL     1     -10.755 -20.740  18.985  1.00  0.00     0.000 C 
BRANCH   9  10
ATOM     10  C   UNL     1     -10.257 -21.308  17.648  1.00  0.00    -0.000 C 
BRANCH  10  11
ATOM     11  C   UNL     1      -9.250 -22.459  17.821  1.00  0.00    -0.000 C 
BRANCH  11  12
ATOM     12  C   UNL     1      -7.771 -22.033  17.828  1.00  0.00    -0.000 C 
BRANCH  12  13
ATOM     13  C   UNL     1      -7.059 -22.317  16.498  1.00  0.00    -0.003 C 
ATOM     14  C   UNL     1      -5.547 -22.392  16.687  1.00  0.00     0.004 C 
ENDBRANCH  12  13
ENDBRANCH  11  12
ENDBRANCH  10  11
ENDBRANCH   9  10
ENDBRANCH   1   9
TORSDOF 10
ENDMDL
MODEL 9
REMARK VINA RESULT:    -2.438      3.553      6.164
REMARK INTER + INTRA:          -4.696
REMARK INTER:                  -4.073
REMARK INTRA:                  -0.623
REMARK UNBOUND:                -0.832
REMARK SMILES CCCCCCCCCCCC(=O)[O-]
REMARK SMILES IDX 7 1 8 2 9 3 10 4 11 5 12 6 13 7 14 8 6 9 5 10 4 11 3 12 2 13
REMARK SMILES IDX 1 14
REMARK H PARENT
REMARK Flexibility Score: inf
ROOT
ATOM      1  C   UNL     1     -10.385 -19.743  18.699  1.00  0.00     0.000 C 
ENDROOT
BRANCH   1   2
ATOM      2  C   UNL     1     -10.864 -21.096  19.251  1.00  0.00     0.000 C 
BRANCH   2   3
ATOM      3  C   UNL     1     -10.595 -22.259  18.280  1.00  0.00     0.000 C 
BRANCH   3   4
ATOM      4  C   UNL     1      -9.303 -22.065  17.466  1.00  0.00     0.006 C 
BRANCH   4   5
ATOM      5  C   UNL     1      -8.033 -22.596  18.153  1.00  0.00     0.053 C 
BRANCH   5   6
ATOM      6  C   UNL     1      -6.834 -22.514  17.260  1.00  0.00     0.041 C 
ATOM      7  O   UNL     1      -6.979 -22.424  16.012  1.00  0.00    -0.550 OA
ATOM      8  O   UNL     1      -5.556 -22.570  17.803  1.00  0.00    -0.550 OA
ENDBRANCH   5   6
ENDBRANCH   4   5
ENDBRANCH   3   4
ENDBRANCH   2   3
ENDBRANCH   1   2
BRANCH   1   9
ATOM      9  C   UNL     1     -11.124 -18.550  19.325  1.00  0.00     0.000 C 
BRANCH   9  10
ATOM     10  C   UNL     1     -11.125 -18.649  20.858  1.00  0.00    -0.000 C 
BRANCH  10  11
ATOM     11  C   UNL     1      -9.858 -18.055  21.499  1.00  0.00    -0.000 C 
BRANCH  11  12
ATOM     12  C   UNL     1      -9.317 -18.834  22.711  1.00  0.00    -0.000 C 
BRANCH  12  13
ATOM     13  C   UNL     1      -9.404 -20.356  22.531  1.00  0.00    -0.003 C 
ATOM     14  C   UNL     1     -10.679 -20.913  23.158  1.00  0.00     0.004 C 
ENDBRANCH  12  13
ENDBRANCH  11  12
ENDBRANCH  10  11
ENDBRANCH   9  10
ENDBRANCH   1   9
TORSDOF 10
ENDMDL
