MODEL 1
REMARK VINA RESULT:    -3.082      0.000      0.000
REMARK INTER + INTRA:          -7.685
REMARK INTER:                  -5.604
REMARK INTRA:                  -2.081
REMARK UNBOUND:                -2.081
REMARK SMILES CCCCCCCCCCCCCCCC(=O)[O-]
REMARK SMILES IDX 9 1 10 2 11 3 12 4 13 5 14 6 15 7 16 8 17 9 18 10 8 11 7 12
REMARK SMILES IDX 6 13 5 14 4 15 3 16 2 17 1 18
REMARK H PARENT
REMARK Flexibility Score: inf
ROOT
ATOM      1  C   UNL     1     167.789 169.337 152.840  1.00  0.00     0.000 C 
ENDROOT
BRANCH   1   2
ATOM      2  C   UNL     1     167.969 170.816 153.217  1.00  0.00     0.000 C 
BRANCH   2   3
ATOM      3  C   UNL     1     167.497 171.125 154.649  1.00  0.00     0.000 C 
BRANCH   3   4
ATOM      4  C   UNL     1     166.668 169.970 155.250  1.00  0.00     0.000 C 
BRANCH   4   5
ATOM      5  C   UNL     1     165.662 170.423 156.325  1.00  0.00     0.000 C 
BRANCH   5   6
ATOM      6  C   UNL     1     164.189 170.138 155.987  1.00  0.00     0.006 C 
BRANCH   6   7
ATOM      7  C   UNL     1     163.992 169.680 154.536  1.00  0.00     0.053 C 
BRANCH   7   8
ATOM      8  C   UNL     1     162.629 169.090 154.358  1.00  0.00     0.041 C 
ATOM      9  O   UNL     1     161.607 169.733 154.721  1.00  0.00    -0.550 OA
ATOM     10  O   UNL     1     162.487 167.812 153.833  1.00  0.00    -0.550 OA
ENDBRANCH   7   8
ENDBRANCH   6   7
ENDBRANCH   5   6
ENDBRANCH   4   5
ENDBRANCH   3   4
ENDBRANCH   2   3
ENDBRANCH   1   2
BRANCH   1  11
ATOM     11  C   UNL     1     168.624 168.935 151.610  1.00  0.00     0.000 C 
BRANCH  11  12
ATOM     12  C   UNL     1     169.177 170.149 150.850  1.00  0.00    -0.000 C 
BRANCH  12  13
ATOM     13  C   UNL     1     168.427 170.413 149.532  1.00  0.00    -0.000 C 
BRANCH  13  14
ATOM     14  C   UNL     1     167.602 169.202 149.066  1.00  0.00    -0.000 C 
BRANCH  14  15
ATOM     15  C   UNL     1     166.117 169.542 148.857  1.00  0.00    -0.000 C 
BRANCH  15  16
ATOM     16  C   UNL     1     165.643 170.710 149.741  1.00  0.00    -0.000 C 
BRANCH  16  17
ATOM     17  C   UNL     1     164.784 170.300 150.951  1.00  0.00    -0.003 C 
ATOM     18  C   UNL     1     164.479 168.803 150.986  1.00  0.00     0.004 C 
ENDBRANCH  16  17
ENDBRANCH  15  16
ENDBRANCH  14  15
ENDBRANCH  13  14
ENDBRANCH  12  13
ENDBRANCH  11  12
ENDBRANCH   1  11
TORSDOF 14
ENDMDL
MODEL 2
REMARK VINA RESULT:    -3.079      1.734      4.211
REMARK INTER + INTRA:          -7.680
REMARK INTER:                  -5.210
REMARK INTRA:                  -2.471
REMARK UNBOUND:                -2.081
REMARK SMILES CCCCCCCCCCCCCCCC(=O)[O-]
REMARK SMILES IDX 9 1 10 2 11 3 12 4 13 5 14 6 15 7 16 8 17 9 18 10 8 11 7 12
REMARK SMILES IDX 6 13 5 14 4 15 3 16 2 17 1 18
REMARK H PARENT
REMARK Flexibility Score: inf
ROOT
ATOM      1  C   UNL     1     165.329 170.557 149.533  1.00  0.00     0.000 C 
ENDROOT
BRANCH   1   2
ATOM      2  C   UNL     1     165.506 169.129 148.992  1.00  0.00     0.000 C 
BRANCH   2   3
ATOM      3  C   UNL     1     164.462 168.148 149.551  1.00  0.00     0.000 C 
BRANCH   3   4
ATOM      4  C   UNL     1     165.047 167.244 150.656  1.00  0.00     0.000 C 
BRANCH   4   5
ATOM      5  C   UNL     1     164.750 167.739 152.084  1.00  0.00     0.000 C 
BRANCH   5   6
ATOM      6  C   UNL     1     163.393 168.442 152.252  1.00  0.00     0.006 C 
BRANCH   6   7
ATOM      7  C   UNL     1     163.515 169.808 152.941  1.00  0.00     0.053 C 
BRANCH   7   8
ATOM      8  C   UNL     1     163.990 169.641 154.349  1.00  0.00     0.041 C 
ATOM      9  O   UNL     1     165.037 170.224 154.739  1.00  0.00    -0.550 OA
ATOM     10  O   UNL     1     163.304 168.804 155.220  1.00  0.00    -0.550 OA
ENDBRANCH   7   8
ENDBRANCH   6   7
ENDBRANCH   5   6
ENDBRANCH   4   5
ENDBRANCH   3   4
ENDBRANCH   2   3
ENDBRANCH   1   2
BRANCH   1  11
ATOM     11  C   UNL     1     166.625 171.125 150.140  1.00  0.00     0.000 C 
BRANCH  11  12
ATOM     12  C   UNL     1     166.716 170.895 151.656  1.00  0.00    -0.000 C 
BRANCH  12  13
ATOM     13  C   UNL     1     168.023 170.196 152.070  1.00  0.00    -0.000 C 
BRANCH  13  14
ATOM     14  C   UNL     1     168.360 168.990 151.178  1.00  0.00    -0.000 C 
BRANCH  14  15
ATOM     15  C   UNL     1     169.847 168.938 150.789  1.00  0.00    -0.000 C 
BRANCH  15  16
ATOM     16  C   UNL     1     170.062 168.813 149.270  1.00  0.00    -0.000 C 
BRANCH  16  17
ATOM     17  C   UNL     1     169.758 170.090 148.465  1.00  0.00    -0.003 C 
ATOM     18  C   UNL     1     168.732 169.866 147.355  1.00  0.00     0.004 C 
ENDBRANCH  16  17
ENDBRANCH  15  16
ENDBRANCH  14  15
ENDBRANCH  13  14
ENDBRANCH  12  13
ENDBRANCH  11  12
ENDBRANCH   1  11
TORSDOF 14
ENDMDL
MODEL 3
REMARK VINA RESULT:    -3.036      3.985      6.242
REMARK INTER + INTRA:          -7.602
REMARK INTER:                  -5.726
REMARK INTRA:                  -1.876
REMARK UNBOUND:                -2.081
REMARK SMILES CCCCCCCCCCCCCCCC(=O)[O-]
REMARK SMILES IDX 9 1 10 2 11 3 12 4 13 5 14 6 15 7 16 8 17 9 18 10 8 11 7 12
REMARK SMILES IDX 6 13 5 14 4 15 3 16 2 17 1 18
REMARK H PARENT
REMARK Flexibility Score: inf
ROOT
ATOM      1  C   UNL     1     167.199 169.238 154.099  1.00  0.00     0.000 C 
ENDROOT
BRANCH   1   2
ATOM      2  C   UNL     1     167.898 170.586 154.336  1.00  0.00     0.000 C 
BRANCH   2   3
ATOM      3  C   UNL     1     168.593 171.125 153.074  1.00  0.00     0.000 C 
BRANCH   3   4
ATOM      4  C   UNL     1     168.103 170.417 151.794  1.00  0.00     0.000 C 
BRANCH   4   5
ATOM      5  C   UNL     1     169.181 170.297 150.700  1.00  0.00     0.000 C 
BRANCH   5   6
ATOM      6  C   UNL     1     169.775 168.889 150.535  1.00  0.00     0.006 C 
BRANCH   6   7
ATOM      7  C   UNL     1     171.243 168.913 150.086  1.00  0.00     0.053 C 
BRANCH   7   8
ATOM      8  C   UNL     1     171.330 169.050 148.600  1.00  0.00     0.041 C 
ATOM      9  O   UNL     1     171.580 170.171 148.080  1.00  0.00    -0.550 OA
ATOM     10  O   UNL     1     171.090 167.952 147.784  1.00  0.00    -0.550 OA
ENDBRANCH   7   8
ENDBRANCH   6   7
ENDBRANCH   5   6
ENDBRANCH   4   5
ENDBRANCH   3   4
ENDBRANCH   2   3
ENDBRANCH   1   2
BRANCH   1  11
ATOM     11  C   UNL     1     165.795 169.181 154.728  1.00  0.00     0.000 C 
BRANCH  11  12
ATOM     12  C   UNL     1     164.906 170.357 154.293  1.00  0.00    -0.000 C 
BRANCH  12  13
ATOM     13  C   UNL     1     164.531 170.294 152.801  1.00  0.00    -0.000 C 
BRANCH  13  14
ATOM     14  C   UNL     1     163.390 169.303 152.517  1.00  0.00    -0.000 C 
BRANCH  14  15
ATOM     15  C   UNL     1     163.864 168.059 151.746  1.00  0.00    -0.000 C 
BRANCH  15  16
ATOM     16  C   UNL     1     165.183 168.296 150.987  1.00  0.00    -0.000 C 
BRANCH  16  17
ATOM     17  C   UNL     1     165.018 168.628 149.493  1.00  0.00    -0.003 C 
ATOM     18  C   UNL     1     165.335 170.087 149.167  1.00  0.00     0.004 C 
ENDBRANCH  16  17
ENDBRANCH  15  16
ENDBRANCH  14  15
ENDBRANCH  13  14
ENDBRANCH  12  13
ENDBRANCH  11  12
ENDBRANCH   1  11
TORSDOF 14
ENDMDL
MODEL 4
REMARK VINA RESULT:    -3.021     15.011     16.702
REMARK INTER + INTRA:          -7.574
REMARK INTER:                  -5.012
REMARK INTRA:                  -2.562
REMARK UNBOUND:                -2.081
REMARK SMILES CCCCCCCCCCCCCCCC(=O)[O-]
REMARK SMILES IDX 9 1 10 2 11 3 12 4 13 5 14 6 15 7 16 8 17 9 18 10 8 11 7 12
REMARK SMILES IDX 6 13 5 14 4 15 3 16 2 17 1 18
REMARK H PARENT
REMARK Flexibility Score: inf
ROOT
ATOM      1  C   UNL     1     170.789 151.670 151.659  1.00  0.00     0.000 C 
ENDROOT
BRANCH   1   2
ATOM      2  C   UNL     1     169.726 152.580 151.025  1.00  0.00     0.000 C 
BRANCH   2   3
ATOM      3  C   UNL     1     170.340 153.747 150.231  1.00  0.00     0.000 C 
BRANCH   3   4
ATOM      4  C   UNL     1     170.140 155.102 150.941  1.00  0.00     0.000 C 
BRANCH   4   5
ATOM      5  C   UNL     1     171.449 155.735 151.448  1.00  0.00     0.000 C 
BRANCH   5   6
ATOM      6  C   UNL     1     171.287 157.125 152.086  1.00  0.00     0.006 C 
BRANCH   6   7
ATOM      7  C   UNL     1     169.850 157.399 152.550  1.00  0.00     0.053 C 
BRANCH   7   8
ATOM      8  C   UNL     1     169.853 158.037 153.903  1.00  0.00     0.041 C 
ATOM      9  O   UNL     1     169.023 158.945 154.177  1.00  0.00    -0.550 OA
ATOM     10  O   UNL     1     170.802 157.665 154.846  1.00  0.00    -0.550 OA
ENDBRANCH   7   8
ENDBRANCH   6   7
ENDBRANCH   5   6
ENDBRANCH   4   5
ENDBRANCH   3   4
ENDBRANCH   2   3
ENDBRANCH   1   2
BRANCH   1  11
ATOM     11  C   UNL     1     172.214 152.001 151.179  1.00  0.00     0.000 C 
BRANCH  11  12
ATOM     12  C   UNL     1     173.125 152.477 152.322  1.00  0.00    -0.000 C 
BRANCH  12  13
ATOM     13  C   UNL     1     172.411 152.474 153.686  1.00  0.00    -0.000 C 
BRANCH  13  14
ATOM     14  C   UNL     1     172.607 153.787 154.461  1.00  0.00    -0.000 C 
BRANCH  14  15
ATOM     15  C   UNL     1     171.346 154.213 155.233  1.00  0.00    -0.000 C 
BRANCH  15  16
ATOM     16  C   UNL     1     170.056 154.031 154.413  1.00  0.00    -0.000 C 
BRANCH  16  17
ATOM     17  C   UNL     1     169.020 153.080 155.040  1.00  0.00    -0.003 C 
ATOM     18  C   UNL     1     169.625 152.142 156.083  1.00  0.00     0.004 C 
ENDBRANCH  16  17
ENDBRANCH  15  16
ENDBRANCH  14  15
ENDBRANCH  13  14
ENDBRANCH  12  13
ENDBRANCH  11  12
ENDBRANCH   1  11
TORSDOF 14
ENDMDL
MODEL 5
REMARK VINA RESULT:    -3.015      3.409      5.727
REMARK INTER + INTRA:          -7.564
REMARK INTER:                  -5.627
REMARK INTRA:                  -1.938
REMARK UNBOUND:                -2.081
REMARK SMILES CCCCCCCCCCCCCCCC(=O)[O-]
REMARK SMILES IDX 9 1 10 2 11 3 12 4 13 5 14 6 15 7 16 8 17 9 18 10 8 11 7 12
REMARK SMILES IDX 6 13 5 14 4 15 3 16 2 17 1 18
REMARK H PARENT
REMARK Flexibility Score: inf
ROOT
ATOM      1  C   UNL     1     166.688 169.563 154.930  1.00  0.00     0.000 C 
ENDROOT
BRANCH   1   2
ATOM      2  C   UNL     1     167.958 170.417 154.791  1.00  0.00     0.000 C 
BRANCH   2   3
ATOM      3  C   UNL     1     168.127 171.006 153.380  1.00  0.00     0.000 C 
BRANCH   3   4
ATOM      4  C   UNL     1     167.493 170.109 152.296  1.00  0.00     0.000 C 
BRANCH   4   5
ATOM      5  C   UNL     1     168.351 168.884 151.925  1.00  0.00     0.000 C 
BRANCH   5   6
ATOM      6  C   UNL     1     169.509 169.180 150.958  1.00  0.00     0.006 C 
BRANCH   6   7
ATOM      7  C   UNL     1     169.130 170.197 149.872  1.00  0.00     0.053 C 
BRANCH   7   8
ATOM      8  C   UNL     1     169.271 169.585 148.515  1.00  0.00     0.041 C 
ATOM      9  O   UNL     1     168.752 170.143 147.511  1.00  0.00    -0.550 OA
ATOM     10  O   UNL     1     169.935 168.375 148.362  1.00  0.00    -0.550 OA
ENDBRANCH   7   8
ENDBRANCH   6   7
ENDBRANCH   5   6
ENDBRANCH   4   5
ENDBRANCH   3   4
ENDBRANCH   2   3
ENDBRANCH   1   2
BRANCH   1  11
ATOM     11  C   UNL     1     165.477 170.379 155.420  1.00  0.00     0.000 C 
BRANCH  11  12
ATOM     12  C   UNL     1     164.144 169.833 154.886  1.00  0.00    -0.000 C 
BRANCH  12  13
ATOM     13  C   UNL     1     164.080 169.832 153.347  1.00  0.00    -0.000 C 
BRANCH  13  14
ATOM     14  C   UNL     1     163.644 168.474 152.773  1.00  0.00    -0.000 C 
BRANCH  14  15
ATOM     15  C   UNL     1     164.837 167.592 152.366  1.00  0.00    -0.000 C 
BRANCH  15  16
ATOM     16  C   UNL     1     164.967 167.432 150.841  1.00  0.00    -0.000 C 
BRANCH  16  17
ATOM     17  C   UNL     1     164.675 168.706 150.028  1.00  0.00    -0.003 C 
ATOM     18  C   UNL     1     165.682 168.942 148.904  1.00  0.00     0.004 C 
ENDBRANCH  16  17
ENDBRANCH  15  16
ENDBRANCH  14  15
ENDBRANCH  13  14
ENDBRANCH  12  13
ENDBRANCH  11  12
ENDBRANCH   1  11
TORSDOF 14
ENDMDL
MODEL 6
REMARK VINA RESULT:    -2.934     15.781     17.260
REMARK INTER + INTRA:          -7.416
REMARK INTER:                  -5.284
REMARK INTRA:                  -2.132
REMARK UNBOUND:                -2.081
REMARK SMILES CCCCCCCCCCCCCCCC(=O)[O-]
REMARK SMILES IDX 9 1 10 2 11 3 12 4 13 5 14 6 15 7 16 8 17 9 18 10 8 11 7 12
REMARK SMILES IDX 6 13 5 14 4 15 3 16 2 17 1 18
REMARK H PARENT
REMARK Flexibility Score: inf
ROOT
ATOM      1  C   UNL     1     171.779 152.043 151.033  1.00  0.00     0.000 C 
ENDROOT
BRANCH   1   2
ATOM      2  C   UNL     1     171.621 151.981 152.560  1.00  0.00     0.000 C 
BRANCH   2   3
ATOM      3  C   UNL     1     172.906 152.381 153.307  1.00  0.00     0.000 C 
BRANCH   3   4
ATOM      4  C   UNL     1     172.640 153.442 154.395  1.00  0.00     0.000 C 
BRANCH   4   5
ATOM      5  C   UNL     1     173.117 153.024 155.799  1.00  0.00     0.000 C 
BRANCH   5   6
ATOM      6  C   UNL     1     172.049 152.332 156.662  1.00  0.00     0.006 C 
BRANCH   6   7
ATOM      7  C   UNL     1     170.656 152.953 156.491  1.00  0.00     0.053 C 
BRANCH   7   8
ATOM      8  C   UNL     1     169.655 151.899 156.142  1.00  0.00     0.041 C 
ATOM      9  O   UNL     1     170.010 150.875 155.499  1.00  0.00    -0.550 OA
ATOM     10  O   UNL     1     168.319 152.067 156.485  1.00  0.00    -0.550 OA
ENDBRANCH   7   8
ENDBRANCH   6   7
ENDBRANCH   5   6
ENDBRANCH   4   5
ENDBRANCH   3   4
ENDBRANCH   2   3
ENDBRANCH   1   2
BRANCH   1  11
ATOM     11  C   UNL     1     172.000 153.477 150.518  1.00  0.00     0.000 C 
BRANCH  11  12
ATOM     12  C   UNL     1     170.688 154.266 150.390  1.00  0.00    -0.000 C 
BRANCH  12  13
ATOM     13  C   UNL     1     170.615 155.453 151.367  1.00  0.00    -0.000 C 
BRANCH  13  14
ATOM     14  C   UNL     1     171.998 155.888 151.878  1.00  0.00    -0.000 C 
BRANCH  14  15
ATOM     15  C   UNL     1     171.914 156.988 152.949  1.00  0.00    -0.000 C 
BRANCH  15  16
ATOM     16  C   UNL     1     170.642 156.887 153.809  1.00  0.00    -0.000 C 
BRANCH  16  17
ATOM     17  C   UNL     1     170.888 156.572 155.296  1.00  0.00    -0.003 C 
ATOM     18  C   UNL     1     172.309 156.904 155.749  1.00  0.00     0.004 C 
ENDBRANCH  16  17
ENDBRANCH  15  16
ENDBRANCH  14  15
ENDBRANCH  13  14
ENDBRANCH  12  13
ENDBRANCH  11  12
ENDBRANCH   1  11
TORSDOF 14
ENDMDL
MODEL 7
REMARK VINA RESULT:    -2.922      4.862      7.534
REMARK INTER + INTRA:          -7.396
REMARK INTER:                  -5.527
REMARK INTRA:                  -1.869
REMARK UNBOUND:                -2.081
REMARK SMILES CCCCCCCCCCCCCCCC(=O)[O-]
REMARK SMILES IDX 9 1 10 2 11 3 12 4 13 5 14 6 15 7 16 8 17 9 18 10 8 11 7 12
REMARK SMILES IDX 6 13 5 14 4 15 3 16 2 17 1 18
REMARK H PARENT
REMARK Flexibility Score: inf
ROOT
ATOM      1  C   UNL     1     168.652 170.693 151.894  1.00  0.00     0.000 C 
ENDROOT
BRANCH   1   2
ATOM      2  C   UNL     1     169.190 170.804 150.459  1.00  0.00     0.000 C 
BRANCH   2   3
ATOM      3  C   UNL     1     170.605 170.220 150.308  1.00  0.00     0.000 C 
BRANCH   3   4
ATOM      4  C   UNL     1     170.602 168.875 149.552  1.00  0.00     0.000 C 
BRANCH   4   5
ATOM      5  C   UNL     1     169.488 168.761 148.494  1.00  0.00     0.000 C 
BRANCH   5   6
ATOM      6  C   UNL     1     169.959 168.954 147.043  1.00  0.00     0.006 C 
BRANCH   6   7
ATOM      7  C   UNL     1     171.358 168.375 146.792  1.00  0.00     0.053 C 
BRANCH   7   8
ATOM      8  C   UNL     1     171.592 168.194 145.326  1.00  0.00     0.041 C 
ATOM      9  O   UNL     1     170.961 167.309 144.688  1.00  0.00    -0.550 OA
ATOM     10  O   UNL     1     172.540 168.970 144.671  1.00  0.00    -0.550 OA
ENDBRANCH   7   8
ENDBRANCH   6   7
ENDBRANCH   5   6
ENDBRANCH   4   5
ENDBRANCH   3   4
ENDBRANCH   2   3
ENDBRANCH   1   2
BRANCH   1  11
ATOM     11  C   UNL     1     168.187 169.268 152.243  1.00  0.00     0.000 C 
BRANCH  11  12
ATOM     12  C   UNL     1     167.181 169.244 153.404  1.00  0.00    -0.000 C 
BRANCH  12  13
ATOM     13  C   UNL     1     166.265 170.481 153.417  1.00  0.00    -0.000 C 
BRANCH  13  14
ATOM     14  C   UNL     1     164.784 170.125 153.205  1.00  0.00    -0.000 C 
BRANCH  14  15
ATOM     15  C   UNL     1     164.450 169.833 151.732  1.00  0.00    -0.000 C 
BRANCH  15  16
ATOM     16  C   UNL     1     164.752 171.025 150.805  1.00  0.00    -0.000 C 
BRANCH  16  17
ATOM     17  C   UNL     1     165.605 170.684 149.570  1.00  0.00    -0.003 C 
ATOM     18  C   UNL     1     165.780 169.180 149.362  1.00  0.00     0.004 C 
ENDBRANCH  16  17
ENDBRANCH  15  16
ENDBRANCH  14  15
ENDBRANCH  13  14
ENDBRANCH  12  13
ENDBRANCH  11  12
ENDBRANCH   1  11
TORSDOF 14
ENDMDL
MODEL 8
REMARK VINA RESULT:    -2.909     10.270     12.296
REMARK INTER + INTRA:          -7.372
REMARK INTER:                  -5.009
REMARK INTRA:                  -2.363
REMARK UNBOUND:                -2.081
REMARK SMILES CCCCCCCCCCCCCCCC(=O)[O-]
REMARK SMILES IDX 9 1 10 2 11 3 12 4 13 5 14 6 15 7 16 8 17 9 18 10 8 11 7 12
REMARK SMILES IDX 6 13 5 14 4 15 3 16 2 17 1 18
REMARK H PARENT
REMARK Flexibility Score: inf
ROOT
ATOM      1  C   UNL     1     170.577 163.161 142.709  1.00  0.00     0.000 C 
ENDROOT
BRANCH   1   2
ATOM      2  C   UNL     1     169.979 164.316 143.527  1.00  0.00     0.000 C 
BRANCH   2   3
ATOM      3  C   UNL     1     169.990 164.039 145.041  1.00  0.00     0.000 C 
BRANCH   3   4
ATOM      4  C   UNL     1     170.657 165.181 145.836  1.00  0.00     0.000 C 
BRANCH   4   5
ATOM      5  C   UNL     1     172.141 164.927 146.160  1.00  0.00     0.000 C 
BRANCH   5   6
ATOM      6  C   UNL     1     173.124 165.883 145.465  1.00  0.00     0.006 C 
BRANCH   6   7
ATOM      7  C   UNL     1     173.122 167.287 146.083  1.00  0.00     0.053 C 
BRANCH   7   8
ATOM      8  C   UNL     1     172.655 168.296 145.083  1.00  0.00     0.041 C 
ATOM      9  O   UNL     1     172.072 167.922 144.030  1.00  0.00    -0.550 OA
ATOM     10  O   UNL     1     172.905 169.647 145.287  1.00  0.00    -0.550 OA
ENDBRANCH   7   8
ENDBRANCH   6   7
ENDBRANCH   5   6
ENDBRANCH   4   5
ENDBRANCH   3   4
ENDBRANCH   2   3
ENDBRANCH   1   2
BRANCH   1  11
ATOM     11  C   UNL     1     171.930 163.527 142.072  1.00  0.00     0.000 C 
BRANCH  11  12
ATOM     12  C   UNL     1     173.124 163.126 142.952  1.00  0.00    -0.000 C 
BRANCH  12  13
ATOM     13  C   UNL     1     172.946 161.736 143.591  1.00  0.00    -0.000 C 
BRANCH  13  14
ATOM     14  C   UNL     1     173.078 161.766 145.123  1.00  0.00    -0.000 C 
BRANCH  14  15
ATOM     15  C   UNL     1     172.324 160.612 145.804  1.00  0.00    -0.000 C 
BRANCH  15  16
ATOM     16  C   UNL     1     170.891 160.437 145.268  1.00  0.00    -0.000 C 
BRANCH  16  17
ATOM     17  C   UNL     1     169.782 160.595 146.323  1.00  0.00    -0.003 C 
ATOM     18  C   UNL     1     170.259 161.301 147.591  1.00  0.00     0.004 C 
ENDBRANCH  16  17
ENDBRANCH  15  16
ENDBRANCH  14  15
ENDBRANCH  13  14
ENDBRANCH  12  13
ENDBRANCH  11  12
ENDBRANCH   1  11
TORSDOF 14
ENDMDL
MODEL 9
REMARK VINA RESULT:    -2.874      2.773      4.464
REMARK INTER + INTRA:          -7.307
REMARK INTER:                  -5.262
REMARK INTRA:                  -2.045
REMARK UNBOUND:                -2.081
REMARK SMILES CCCCCCCCCCCCCCCC(=O)[O-]
REMARK SMILES IDX 9 1 10 2 11 3 12 4 13 5 14 6 15 7 16 8 17 9 18 10 8 11 7 12
REMARK SMILES IDX 6 13 5 14 4 15 3 16 2 17 1 18
REMARK H PARENT
REMARK Flexibility Score: inf
ROOT
ATOM      1  C   UNL     1     168.806 169.252 150.998  1.00  0.00     0.000 C 
ENDROOT
BRANCH   1   2
ATOM      2  C   UNL     1     168.271 169.677 152.375  1.00  0.00     0.000 C 
BRANCH   2   3
ATOM      3  C   UNL     1     167.072 168.829 152.833  1.00  0.00     0.000 C 
BRANCH   3   4
ATOM      4  C   UNL     1     165.929 169.696 153.400  1.00  0.00     0.000 C 
BRANCH   4   5
ATOM      5  C   UNL     1     165.726 171.025 152.647  1.00  0.00     0.000 C 
BRANCH   5   6
ATOM      6  C   UNL     1     164.573 171.017 151.630  1.00  0.00     0.006 C 
BRANCH   6   7
ATOM      7  C   UNL     1     165.064 170.979 150.177  1.00  0.00     0.053 C 
BRANCH   7   8
ATOM      8  C   UNL     1     165.023 169.580 149.650  1.00  0.00     0.041 C 
ATOM      9  O   UNL     1     165.544 169.307 148.535  1.00  0.00    -0.550 OA
ATOM     10  O   UNL     1     164.369 168.586 150.365  1.00  0.00    -0.550 OA
ENDBRANCH   7   8
ENDBRANCH   6   7
ENDBRANCH   5   6
ENDBRANCH   4   5
ENDBRANCH   3   4
ENDBRANCH   2   3
ENDBRANCH   1   2
BRANCH   1  11
ATOM     11  C   UNL     1     168.808 170.408 149.981  1.00  0.00     0.000 C 
BRANCH  11  12
ATOM     12  C   UNL     1     170.182 170.613 149.324  1.00  0.00    -0.000 C 
BRANCH  12  13
ATOM     13  C   UNL     1     171.275 169.731 149.954  1.00  0.00    -0.000 C 
BRANCH  13  14
ATOM     14  C   UNL     1     171.910 168.760 148.944  1.00  0.00    -0.000 C 
BRANCH  14  15
ATOM     15  C   UNL     1     171.289 168.875 147.542  1.00  0.00    -0.000 C 
BRANCH  15  16
ATOM     16  C   UNL     1     170.658 167.557 147.059  1.00  0.00    -0.000 C 
BRANCH  16  17
ATOM     17  C   UNL     1     169.119 167.555 147.012  1.00  0.00    -0.003 C 
ATOM     18  C   UNL     1     168.536 168.872 146.503  1.00  0.00     0.004 C 
ENDBRANCH  16  17
ENDBRANCH  15  16
ENDBRANCH  14  15
ENDBRANCH  13  14
ENDBRANCH  12  13
ENDBRANCH  11  12
ENDBRANCH   1  11
TORSDOF 14
ENDMDL
