MODEL 1
REMARK VINA RESULT:    -5.023      0.000      0.000
REMARK INTER + INTRA:          -7.841
REMARK INTER:                  -7.665
REMARK INTRA:                  -0.176
REMARK UNBOUND:                -0.176
REMARK SMILES CC1=CCC[C@@H](C)C(=O)C[C@H](C(C)C)C(=O)C1
REMARK SMILES IDX 8 1 9 2 6 3 7 4 5 5 4 6 3 7 2 8 1 9 10 11 11 12 15 13 16 14
REMARK SMILES IDX 17 15 12 17 13 18 14 19
REMARK H PARENT
REMARK Flexibility Score: 70.00
ROOT
ATOM      1  C   UNL     1     -12.121 -15.975  28.230  1.00  0.00     0.136 C 
ATOM      2  O   UNL     1     -12.822 -15.384  27.420  1.00  0.00    -0.299 OA
ENDROOT
BRANCH   1   3
ATOM      3  C   UNL     1     -11.447 -17.275  27.837  1.00  0.00     0.053 C 
ATOM      4  C   UNL     1     -10.778 -17.110  26.468  1.00  0.00     0.016 C 
BRANCH   3   5
ATOM      5  C   UNL     1     -12.432 -18.464  27.811  1.00  0.00     0.015 C 
BRANCH   5   6
ATOM      6  C   UNL     1     -12.326 -19.416  29.014  1.00  0.00     0.028 C 
BRANCH   6   7
ATOM      7  C   UNL     1     -11.163 -19.122  29.935  1.00  0.00    -0.028 C 
ATOM      8  C   UNL     1     -11.195 -18.585  31.184  1.00  0.00    -0.070 CG0
ATOM      9  C   UNL     1      -9.879 -18.514  31.923  1.00  0.00     0.039 C 
ATOM     10  G   UNL     1     -12.413 -17.958  31.857  1.00  0.00     0.000 G0
ENDBRANCH   6   7
ENDBRANCH   5   6
ENDBRANCH   3   5
ENDBRANCH   1   3
BRANCH   1  11
ATOM     11  C   UNL     1     -11.895 -15.363  29.588  1.00  0.00     0.087 C 
BRANCH  11  12
ATOM     12  C   UNL     1     -13.017 -15.703  30.609  1.00  0.00     0.066 C 
BRANCH  12  13
ATOM     13  C   UNL     1     -12.482 -16.452  31.825  1.00  0.00     0.140 C 
ATOM     14  O   UNL     1     -11.952 -15.816  32.725  1.00  0.00    -0.299 OA
BRANCH  13  15
ATOM     15  C   UNL     1     -12.420 -17.959  31.859  1.00  0.00     0.106 CG0
ATOM     16  G   UNL     1     -11.206 -18.586  31.180  1.00  0.00     0.000 G0
ENDBRANCH  13  15
ENDBRANCH  12  13
BRANCH  12  17
ATOM     17  C   UNL     1     -13.796 -14.426  31.062  1.00  0.00    -0.006 C 
ATOM     18  C   UNL     1     -14.534 -13.747  29.894  1.00  0.00     0.008 C 
ATOM     19  C   UNL     1     -14.813 -14.747  32.173  1.00  0.00     0.008 C 
ENDBRANCH  12  17
ENDBRANCH  11  12
ENDBRANCH   1  11
TORSDOF 1
ENDMDL
MODEL 2
REMARK VINA RESULT:    -4.964      2.055      5.218
REMARK INTER + INTRA:          -7.751
REMARK INTER:                  -7.405
REMARK INTRA:                  -0.346
REMARK UNBOUND:                -0.176
REMARK SMILES CC1=CCC[C@@H](C)C(=O)C[C@H](C(C)C)C(=O)C1
REMARK SMILES IDX 8 1 9 2 6 3 7 4 5 5 4 6 3 7 2 8 1 9 10 11 11 12 15 13 16 14
REMARK SMILES IDX 17 15 12 17 13 18 14 19
REMARK H PARENT
REMARK Flexibility Score: 70.00
ROOT
ATOM      1  C   UNL     1     -12.959 -16.630  32.079  1.00  0.00     0.136 C 
ATOM      2  O   UNL     1     -13.724 -17.320  32.738  1.00  0.00    -0.299 OA
ENDROOT
BRANCH   1   3
ATOM      3  C   UNL     1     -13.201 -15.138  31.960  1.00  0.00     0.053 C 
ATOM      4  C   UNL     1     -13.654 -14.585  33.315  1.00  0.00     0.016 C 
BRANCH   3   5
ATOM      5  C   UNL     1     -14.239 -14.796  30.869  1.00  0.00     0.015 C 
BRANCH   5   6
ATOM      6  C   UNL     1     -13.735 -13.838  29.777  1.00  0.00     0.028 C 
BRANCH   6   7
ATOM      7  C   UNL     1     -13.631 -14.463  28.404  1.00  0.00    -0.028 C 
ATOM      8  C   UNL     1     -12.669 -15.300  27.931  1.00  0.00    -0.070 CG0
ATOM      9  C   UNL     1     -12.887 -15.868  26.548  1.00  0.00     0.039 C 
ATOM     10  G   UNL     1     -11.351 -15.630  28.626  1.00  0.00     0.000 G0
ENDBRANCH   6   7
ENDBRANCH   5   6
ENDBRANCH   3   5
ENDBRANCH   1   3
BRANCH   1  11
ATOM     11  C   UNL     1     -11.752 -17.274  31.445  1.00  0.00     0.087 C 
BRANCH  11  12
ATOM     12  C   UNL     1     -12.017 -17.786  30.002  1.00  0.00     0.066 C 
BRANCH  12  13
ATOM     13  C   UNL     1     -11.140 -17.084  28.970  1.00  0.00     0.140 C 
ATOM     14  O   UNL     1     -10.161 -17.671  28.531  1.00  0.00    -0.299 OA
BRANCH  13  15
ATOM     15  C   UNL     1     -11.337 -15.629  28.625  1.00  0.00     0.106 CG0
ATOM     16  G   UNL     1     -12.653 -15.287  27.932  1.00  0.00     0.000 G0
ENDBRANCH  13  15
ENDBRANCH  12  13
BRANCH  12  17
ATOM     17  C   UNL     1     -11.842 -19.335  29.894  1.00  0.00    -0.006 C 
ATOM     18  C   UNL     1     -12.102 -20.047  31.235  1.00  0.00     0.008 C 
ATOM     19  C   UNL     1     -12.771 -19.938  28.824  1.00  0.00     0.008 C 
ENDBRANCH  12  17
ENDBRANCH  11  12
ENDBRANCH   1  11
TORSDOF 1
ENDMDL
MODEL 3
REMARK VINA RESULT:    -4.910      1.346      2.013
REMARK INTER + INTRA:          -7.669
REMARK INTER:                  -7.351
REMARK INTRA:                  -0.318
REMARK UNBOUND:                -0.176
REMARK SMILES CC1=CCC[C@@H](C)C(=O)C[C@H](C(C)C)C(=O)C1
REMARK SMILES IDX 8 1 9 2 6 3 7 4 5 5 4 6 3 7 2 8 1 9 10 11 11 12 15 13 16 14
REMARK SMILES IDX 17 15 12 17 13 18 14 19
REMARK H PARENT
REMARK Flexibility Score: 70.00
ROOT
ATOM      1  C   UNL     1     -12.672 -15.427  27.608  1.00  0.00     0.136 C 
ATOM      2  O   UNL     1     -13.495 -15.369  26.705  1.00  0.00    -0.299 OA
ENDROOT
BRANCH   1   3
ATOM      3  C   UNL     1     -11.584 -16.483  27.570  1.00  0.00     0.053 C 
ATOM      4  C   UNL     1     -11.221 -16.790  26.114  1.00  0.00     0.016 C 
BRANCH   3   5
ATOM      5  C   UNL     1     -11.997 -17.778  28.303  1.00  0.00     0.015 C 
BRANCH   5   6
ATOM      6  C   UNL     1     -11.134 -18.129  29.527  1.00  0.00     0.028 C 
BRANCH   6   7
ATOM      7  C   UNL     1     -11.912 -18.250  30.818  1.00  0.00    -0.028 C 
ATOM      8  C   UNL     1     -12.503 -17.261  31.539  1.00  0.00    -0.070 CG0
ATOM      9  C   UNL     1     -13.319 -17.692  32.736  1.00  0.00     0.039 C 
ATOM     10  G   UNL     1     -12.331 -15.762  31.310  1.00  0.00     0.000 G0
ENDBRANCH   6   7
ENDBRANCH   5   6
ENDBRANCH   3   5
ENDBRANCH   1   3
BRANCH   1  11
ATOM     11  C   UNL     1     -12.723 -14.404  28.713  1.00  0.00     0.087 C 
BRANCH  11  12
ATOM     12  C   UNL     1     -13.969 -14.552  29.630  1.00  0.00     0.066 C 
BRANCH  12  13
ATOM     13  C   UNL     1     -13.598 -14.995  31.042  1.00  0.00     0.140 C 
ATOM     14  O   UNL     1     -14.261 -14.583  31.983  1.00  0.00    -0.299 OA
BRANCH  13  15
ATOM     15  C   UNL     1     -12.332 -15.767  31.319  1.00  0.00     0.106 CG0
ATOM     16  G   UNL     1     -12.508 -17.266  31.546  1.00  0.00     0.000 G0
ENDBRANCH  13  15
ENDBRANCH  12  13
BRANCH  12  17
ATOM     17  C   UNL     1     -14.812 -13.237  29.682  1.00  0.00    -0.006 C 
ATOM     18  C   UNL     1     -14.272 -12.160  28.724  1.00  0.00     0.008 C 
ATOM     19  C   UNL     1     -16.293 -13.500  29.348  1.00  0.00     0.008 C 
ENDBRANCH  12  17
ENDBRANCH  11  12
ENDBRANCH   1  11
TORSDOF 1
ENDMDL
MODEL 4
REMARK VINA RESULT:    -4.647      2.142      4.669
REMARK INTER + INTRA:          -7.268
REMARK INTER:                  -7.413
REMARK INTRA:                   0.145
REMARK UNBOUND:                -0.176
REMARK SMILES CC1=CCC[C@@H](C)C(=O)C[C@H](C(C)C)C(=O)C1
REMARK SMILES IDX 8 1 9 2 6 3 7 4 5 5 4 6 3 7 2 8 1 9 10 11 11 12 15 13 16 14
REMARK SMILES IDX 17 15 12 17 13 18 14 19
REMARK H PARENT
REMARK Flexibility Score: 70.00
ROOT
ATOM      1  C   UNL     1     -12.353 -19.401  29.502  1.00  0.00     0.136 C 
ATOM      2  O   UNL     1     -13.234 -20.236  29.352  1.00  0.00    -0.299 OA
ENDROOT
BRANCH   1   3
ATOM      3  C   UNL     1     -11.876 -19.052  30.899  1.00  0.00     0.053 C 
ATOM      4  C   UNL     1     -11.716 -20.336  31.719  1.00  0.00     0.016 C 
BRANCH   3   5
ATOM      5  C   UNL     1     -12.828 -18.073  31.618  1.00  0.00     0.015 C 
BRANCH   5   6
ATOM      6  C   UNL     1     -12.277 -16.647  31.789  1.00  0.00     0.028 C 
BRANCH   6   7
ATOM      7  C   UNL     1     -13.122 -15.575  31.138  1.00  0.00    -0.028 C 
ATOM      8  C   UNL     1     -12.890 -14.913  29.973  1.00  0.00    -0.070 CG0
ATOM      9  C   UNL     1     -13.974 -13.970  29.504  1.00  0.00     0.039 C 
ATOM     10  G   UNL     1     -11.599 -14.959  29.160  1.00  0.00     0.000 G0
ENDBRANCH   6   7
ENDBRANCH   5   6
ENDBRANCH   3   5
ENDBRANCH   1   3
BRANCH   1  11
ATOM     11  C   UNL     1     -11.719 -18.777  28.286  1.00  0.00     0.087 C 
BRANCH  11  12
ATOM     12  C   UNL     1     -12.152 -17.301  28.057  1.00  0.00     0.066 C 
BRANCH  12  13
ATOM     13  C   UNL     1     -11.159 -16.309  28.655  1.00  0.00     0.140 C 
ATOM     14  O   UNL     1     -10.021 -16.685  28.894  1.00  0.00    -0.299 OA
BRANCH  13  15
ATOM     15  C   UNL     1     -11.596 -14.946  29.130  1.00  0.00     0.106 CG0
ATOM     16  G   UNL     1     -12.872 -14.915  29.966  1.00  0.00     0.000 G0
ENDBRANCH  13  15
ENDBRANCH  12  13
BRANCH  12  17
ATOM     17  C   UNL     1     -12.378 -16.992  26.542  1.00  0.00    -0.006 C 
ATOM     18  C   UNL     1     -13.246 -15.738  26.325  1.00  0.00     0.008 C 
ATOM     19  C   UNL     1     -11.044 -16.806  25.796  1.00  0.00     0.008 C 
ENDBRANCH  12  17
ENDBRANCH  11  12
ENDBRANCH   1  11
TORSDOF 1
ENDMDL
MODEL 5
REMARK VINA RESULT:    -4.619      1.390      1.899
REMARK INTER + INTRA:          -7.225
REMARK INTER:                  -7.153
REMARK INTRA:                  -0.072
REMARK UNBOUND:                -0.176
REMARK SMILES CC1=CCC[C@@H](C)C(=O)C[C@H](C(C)C)C(=O)C1
REMARK SMILES IDX 8 1 9 2 6 3 7 4 5 5 4 6 3 7 2 8 1 9 10 11 11 12 15 13 16 14
REMARK SMILES IDX 17 15 12 17 13 18 14 19
REMARK H PARENT
REMARK Flexibility Score: 70.00
ROOT
ATOM      1  C   UNL     1     -11.433 -15.643  28.457  1.00  0.00     0.136 C 
ATOM      2  O   UNL     1     -10.226 -15.813  28.351  1.00  0.00    -0.299 OA
ENDROOT
BRANCH   1   3
ATOM      3  C   UNL     1     -12.352 -16.032  27.315  1.00  0.00     0.053 C 
ATOM      4  C   UNL     1     -13.545 -15.072  27.272  1.00  0.00     0.016 C 
BRANCH   3   5
ATOM      5  C   UNL     1     -12.844 -17.491  27.427  1.00  0.00     0.015 C 
BRANCH   5   6
ATOM      6  C   UNL     1     -11.754 -18.512  27.796  1.00  0.00     0.028 C 
BRANCH   6   7
ATOM      7  C   UNL     1     -12.075 -19.346  29.016  1.00  0.00    -0.028 C 
ATOM      8  C   UNL     1     -11.639 -19.173  30.292  1.00  0.00    -0.070 CG0
ATOM      9  C   UNL     1     -12.221 -20.097  31.337  1.00  0.00     0.039 C 
ATOM     10  G   UNL     1     -10.546 -18.206  30.740  1.00  0.00     0.000 G0
ENDBRANCH   6   7
ENDBRANCH   5   6
ENDBRANCH   3   5
ENDBRANCH   1   3
BRANCH   1  11
ATOM     11  C   UNL     1     -11.986 -15.103  29.751  1.00  0.00     0.087 C 
BRANCH  11  12
ATOM     12  C   UNL     1     -12.297 -16.211  30.796  1.00  0.00     0.066 C 
BRANCH  12  13
ATOM     13  C   UNL     1     -11.030 -16.881  31.319  1.00  0.00     0.140 C 
ATOM     14  O   UNL     1     -10.311 -16.263  32.091  1.00  0.00    -0.299 OA
BRANCH  13  15
ATOM     15  C   UNL     1     -10.549 -18.200  30.767  1.00  0.00     0.106 CG0
ATOM     16  G   UNL     1     -11.641 -19.160  30.302  1.00  0.00     0.000 G0
ENDBRANCH  13  15
ENDBRANCH  12  13
BRANCH  12  17
ATOM     17  C   UNL     1     -13.149 -15.664  31.986  1.00  0.00    -0.006 C 
ATOM     18  C   UNL     1     -14.257 -14.703  31.518  1.00  0.00     0.008 C 
ATOM     19  C   UNL     1     -13.791 -16.806  32.795  1.00  0.00     0.008 C 
ENDBRANCH  12  17
ENDBRANCH  11  12
ENDBRANCH   1  11
TORSDOF 1
ENDMDL
MODEL 6
REMARK VINA RESULT:    -4.550      1.847      3.286
REMARK INTER + INTRA:          -7.119
REMARK INTER:                  -7.697
REMARK INTRA:                   0.578
REMARK UNBOUND:                -0.176
REMARK SMILES CC1=CCC[C@@H](C)C(=O)C[C@H](C(C)C)C(=O)C1
REMARK SMILES IDX 8 1 9 2 6 3 7 4 5 5 4 6 3 7 2 8 1 9 10 11 11 12 15 13 16 14
REMARK SMILES IDX 17 15 12 17 13 18 14 19
REMARK H PARENT
REMARK Flexibility Score: 70.00
ROOT
ATOM      1  C   UNL     1     -11.261 -18.734  28.920  1.00  0.00     0.136 C 
ATOM      2  O   UNL     1     -10.149 -18.762  29.428  1.00  0.00    -0.299 OA
ENDROOT
BRANCH   1   3
ATOM      3  C   UNL     1     -12.239 -19.863  29.186  1.00  0.00     0.053 C 
ATOM      4  C   UNL     1     -13.411 -19.763  28.205  1.00  0.00     0.016 C 
BRANCH   3   5
ATOM      5  C   UNL     1     -12.758 -19.862  30.640  1.00  0.00     0.015 C 
BRANCH   5   6
ATOM      6  C   UNL     1     -11.982 -18.943  31.600  1.00  0.00     0.028 C 
BRANCH   6   7
ATOM      7  C   UNL     1     -12.758 -17.728  32.055  1.00  0.00    -0.028 C 
ATOM      8  C   UNL     1     -12.443 -16.416  31.882  1.00  0.00    -0.070 CG0
ATOM      9  C   UNL     1     -13.471 -15.408  32.342  1.00  0.00     0.039 C 
ATOM     10  G   UNL     1     -11.112 -15.877  31.365  1.00  0.00     0.000 G0
ENDBRANCH   6   7
ENDBRANCH   5   6
ENDBRANCH   3   5
ENDBRANCH   1   3
BRANCH   1  11
ATOM     11  C   UNL     1     -11.657 -17.545  28.085  1.00  0.00     0.087 C 
BRANCH  11  12
ATOM     12  C   UNL     1     -12.082 -16.313  28.932  1.00  0.00     0.066 C 
BRANCH  12  13
ATOM     13  C   UNL     1     -10.966 -15.835  29.856  1.00  0.00     0.140 C 
ATOM     14  O   UNL     1      -9.880 -15.551  29.371  1.00  0.00    -0.299 OA
BRANCH  13  15
ATOM     15  C   UNL     1     -11.107 -15.887  31.357  1.00  0.00     0.106 CG0
ATOM     16  G   UNL     1     -12.439 -16.419  31.877  1.00  0.00     0.000 G0
ENDBRANCH  13  15
ENDBRANCH  12  13
BRANCH  12  17
ATOM     17  C   UNL     1     -12.580 -15.134  28.035  1.00  0.00    -0.006 C 
ATOM     18  C   UNL     1     -13.250 -15.630  26.739  1.00  0.00     0.008 C 
ATOM     19  C   UNL     1     -13.570 -14.227  28.789  1.00  0.00     0.008 C 
ENDBRANCH  12  17
ENDBRANCH  11  12
ENDBRANCH   1  11
TORSDOF 1
ENDMDL
MODEL 7
REMARK VINA RESULT:    -4.444      2.022      3.711
REMARK INTER + INTRA:          -6.957
REMARK INTER:                  -6.698
REMARK INTRA:                  -0.259
REMARK UNBOUND:                -0.176
REMARK SMILES CC1=CCC[C@@H](C)C(=O)C[C@H](C(C)C)C(=O)C1
REMARK SMILES IDX 8 1 9 2 6 3 7 4 5 5 4 6 3 7 2 8 1 9 10 11 11 12 15 13 16 14
REMARK SMILES IDX 17 15 12 17 13 18 14 19
REMARK H PARENT
REMARK Flexibility Score: 70.00
ROOT
ATOM      1  C   UNL     1     -10.987 -18.410  30.789  1.00  0.00     0.136 C 
ATOM      2  O   UNL     1      -9.995 -18.547  30.087  1.00  0.00    -0.299 OA
ENDROOT
BRANCH   1   3
ATOM      3  C   UNL     1     -12.101 -19.438  30.730  1.00  0.00     0.053 C 
ATOM      4  C   UNL     1     -11.752 -20.620  31.639  1.00  0.00     0.016 C 
BRANCH   3   5
ATOM      5  C   UNL     1     -12.370 -19.930  29.292  1.00  0.00     0.015 C 
BRANCH   5   6
ATOM      6  C   UNL     1     -13.230 -18.984  28.437  1.00  0.00     0.028 C 
BRANCH   6   7
ATOM      7  C   UNL     1     -12.453 -18.217  27.390  1.00  0.00    -0.028 C 
ATOM      8  C   UNL     1     -11.978 -16.945  27.460  1.00  0.00    -0.070 CG0
ATOM      9  C   UNL     1     -11.128 -16.476  26.302  1.00  0.00     0.039 C 
ATOM     10  G   UNL     1     -12.311 -15.924  28.545  1.00  0.00     0.000 G0
ENDBRANCH   6   7
ENDBRANCH   5   6
ENDBRANCH   3   5
ENDBRANCH   1   3
BRANCH   1  11
ATOM     11  C   UNL     1     -11.054 -17.247  31.746  1.00  0.00     0.087 C 
BRANCH  11  12
ATOM     12  C   UNL     1     -11.694 -15.975  31.122  1.00  0.00     0.066 C 
BRANCH  12  13
ATOM     13  C   UNL     1     -11.300 -15.789  29.661  1.00  0.00     0.140 C 
ATOM     14  O   UNL     1     -10.180 -15.375  29.400  1.00  0.00    -0.299 OA
BRANCH  13  15
ATOM     15  C   UNL     1     -12.311 -15.919  28.548  1.00  0.00     0.106 CG0
ATOM     16  G   UNL     1     -11.975 -16.942  27.467  1.00  0.00     0.000 G0
ENDBRANCH  13  15
ENDBRANCH  12  13
BRANCH  12  17
ATOM     17  C   UNL     1     -13.250 -15.978  31.266  1.00  0.00    -0.006 C 
ATOM     18  C   UNL     1     -13.718 -16.709  32.538  1.00  0.00     0.008 C 
ATOM     19  C   UNL     1     -13.820 -14.547  31.277  1.00  0.00     0.008 C 
ENDBRANCH  12  17
ENDBRANCH  11  12
ENDBRANCH   1  11
TORSDOF 1
ENDMDL
MODEL 8
REMARK VINA RESULT:    -4.379      2.066      4.493
REMARK INTER + INTRA:          -6.859
REMARK INTER:                  -7.142
REMARK INTRA:                   0.284
REMARK UNBOUND:                -0.176
REMARK SMILES CC1=CCC[C@@H](C)C(=O)C[C@H](C(C)C)C(=O)C1
REMARK SMILES IDX 8 1 9 2 6 3 7 4 5 5 4 6 3 7 2 8 1 9 10 11 11 12 15 13 16 14
REMARK SMILES IDX 17 15 12 17 13 18 14 19
REMARK H PARENT
REMARK Flexibility Score: 70.00
ROOT
ATOM      1  C   UNL     1     -13.640 -14.652  30.565  1.00  0.00     0.136 C 
ATOM      2  O   UNL     1     -14.449 -14.913  31.444  1.00  0.00    -0.299 OA
ENDROOT
BRANCH   1   3
ATOM      3  C   UNL     1     -13.966 -13.590  29.532  1.00  0.00     0.053 C 
ATOM      4  C   UNL     1     -15.484 -13.514  29.341  1.00  0.00     0.016 C 
BRANCH   3   5
ATOM      5  C   UNL     1     -13.269 -13.852  28.179  1.00  0.00     0.015 C 
BRANCH   5   6
ATOM      6  C   UNL     1     -13.613 -15.202  27.528  1.00  0.00     0.028 C 
BRANCH   6   7
ATOM      7  C   UNL     1     -12.532 -15.744  26.619  1.00  0.00    -0.028 C 
ATOM      8  C   UNL     1     -11.866 -16.925  26.715  1.00  0.00    -0.070 CG0
ATOM      9  C   UNL     1     -10.915 -17.259  25.590  1.00  0.00     0.039 C 
ATOM     10  G   UNL     1     -11.916 -17.886  27.900  1.00  0.00     0.000 G0
ENDBRANCH   6   7
ENDBRANCH   5   6
ENDBRANCH   3   5
ENDBRANCH   1   3
BRANCH   1  11
ATOM     11  C   UNL     1     -12.307 -15.354  30.562  1.00  0.00     0.087 C 
BRANCH  11  12
ATOM     12  C   UNL     1     -12.417 -16.881  30.292  1.00  0.00     0.066 C 
BRANCH  12  13
ATOM     13  C   UNL     1     -11.438 -17.349  29.221  1.00  0.00     0.140 C 
ATOM     14  O   UNL     1     -10.246 -17.126  29.372  1.00  0.00    -0.299 OA
BRANCH  13  15
ATOM     15  C   UNL     1     -11.917 -17.906  27.903  1.00  0.00     0.106 CG0
ATOM     16  G   UNL     1     -11.868 -16.942  26.721  1.00  0.00     0.000 G0
ENDBRANCH  13  15
ENDBRANCH  12  13
BRANCH  12  17
ATOM     17  C   UNL     1     -12.227 -17.716  31.599  1.00  0.00    -0.006 C 
ATOM     18  C   UNL     1     -12.128 -19.226  31.318  1.00  0.00     0.008 C 
ATOM     19  C   UNL     1     -10.974 -17.273  32.378  1.00  0.00     0.008 C 
ENDBRANCH  12  17
ENDBRANCH  11  12
ENDBRANCH   1  11
TORSDOF 1
ENDMDL
MODEL 9
REMARK VINA RESULT:    -4.161      1.724      4.021
REMARK INTER + INTRA:          -6.525
REMARK INTER:                  -6.422
REMARK INTRA:                  -0.104
REMARK UNBOUND:                -0.176
REMARK SMILES CC1=CCC[C@@H](C)C(=O)C[C@H](C(C)C)C(=O)C1
REMARK SMILES IDX 8 1 9 2 6 3 7 4 5 5 4 6 3 7 2 8 1 9 10 11 11 12 15 13 16 14
REMARK SMILES IDX 17 15 12 17 13 18 14 19
REMARK H PARENT
REMARK Flexibility Score: 70.00
ROOT
ATOM      1  C   UNL     1     -11.675 -17.582  27.915  1.00  0.00     0.136 C 
ATOM      2  O   UNL     1     -10.481 -17.782  28.092  1.00  0.00    -0.299 OA
ENDROOT
BRANCH   1   3
ATOM      3  C   UNL     1     -12.146 -16.901  26.644  1.00  0.00     0.053 C 
ATOM      4  C   UNL     1     -10.959 -16.724  25.691  1.00  0.00     0.016 C 
BRANCH   3   5
ATOM      5  C   UNL     1     -12.817 -15.539  26.921  1.00  0.00     0.015 C 
BRANCH   5   6
ATOM      6  C   UNL     1     -12.290 -14.801  28.163  1.00  0.00     0.028 C 
BRANCH   6   7
ATOM      7  C   UNL     1     -13.323 -14.597  29.248  1.00  0.00    -0.028 C 
ATOM      8  C   UNL     1     -13.244 -14.942  30.561  1.00  0.00    -0.070 CG0
ATOM      9  C   UNL     1     -14.389 -14.505  31.445  1.00  0.00     0.039 C 
ATOM     10  G   UNL     1     -12.161 -15.812  31.192  1.00  0.00     0.000 G0
ENDBRANCH   6   7
ENDBRANCH   5   6
ENDBRANCH   3   5
ENDBRANCH   1   3
BRANCH   1  11
ATOM     11  C   UNL     1     -12.661 -18.073  28.944  1.00  0.00     0.087 C 
BRANCH  11  12
ATOM     12  C   UNL     1     -12.022 -18.316  30.340  1.00  0.00     0.066 C 
BRANCH  12  13
ATOM     13  C   UNL     1     -12.466 -17.278  31.366  1.00  0.00     0.140 C 
ATOM     14  O   UNL     1     -13.228 -17.620  32.259  1.00  0.00    -0.299 OA
BRANCH  13  15
ATOM     15  C   UNL     1     -12.144 -15.814  31.198  1.00  0.00     0.106 CG0
ATOM     16  G   UNL     1     -13.241 -14.964  30.564  1.00  0.00     0.000 G0
ENDBRANCH  13  15
ENDBRANCH  12  13
BRANCH  12  17
ATOM     17  C   UNL     1     -12.314 -19.757  30.869  1.00  0.00    -0.006 C 
ATOM     18  C   UNL     1     -12.716 -20.723  29.740  1.00  0.00     0.008 C 
ATOM     19  C   UNL     1     -11.100 -20.343  31.615  1.00  0.00     0.008 C 
ENDBRANCH  12  17
ENDBRANCH  11  12
ENDBRANCH   1  11
TORSDOF 1
ENDMDL
