MODEL 1
REMARK VINA RESULT:    -4.434      0.000      0.000
REMARK INTER + INTRA:          -6.252
REMARK INTER:                  -5.989
REMARK INTRA:                  -0.264
REMARK UNBOUND:                -0.264
REMARK SMILES CCCCCCCC(=O)[O-]
REMARK SMILES IDX 5 1 6 2 7 3 8 4 9 5 10 6 4 7 3 8 2 9 1 10
REMARK H PARENT
REMARK Flexibility Score: inf
ROOT
ATOM      1  C   UNL     1      -7.414 -19.522  -6.121  1.00  0.00     0.000 C 
ENDROOT
BRANCH   1   2
ATOM      2  C   UNL     1      -8.860 -19.379  -5.623  1.00  0.00     0.006 C 
BRANCH   2   3
ATOM      3  C   UNL     1      -9.765 -18.691  -6.653  1.00  0.00     0.053 C 
BRANCH   3   4
ATOM      4  C   UNL     1     -10.551 -19.685  -7.452  1.00  0.00     0.041 C 
ATOM      5  O   UNL     1     -11.058 -20.691  -6.890  1.00  0.00    -0.550 OA
ATOM      6  O   UNL     1     -10.694 -19.516  -8.823  1.00  0.00    -0.550 OA
ENDBRANCH   3   4
ENDBRANCH   2   3
ENDBRANCH   1   2
BRANCH   1   7
ATOM      7  C   UNL     1      -6.550 -20.266  -5.097  1.00  0.00     0.000 C 
BRANCH   7   8
ATOM      8  C   UNL     1      -7.185 -20.217  -3.702  1.00  0.00    -0.000 C 
BRANCH   8   9
ATOM      9  C   UNL     1      -6.369 -21.038  -2.697  1.00  0.00    -0.003 C 
ATOM     10  C   UNL     1      -6.337 -22.513  -3.087  1.00  0.00     0.004 C 
ENDBRANCH   8   9
ENDBRANCH   7   8
ENDBRANCH   1   7
TORSDOF 6
ENDMDL
MODEL 2
REMARK VINA RESULT:    -4.372     13.546     14.546
REMARK INTER + INTRA:          -6.169
REMARK INTER:                  -5.973
REMARK INTRA:                  -0.196
REMARK UNBOUND:                -0.264
REMARK SMILES CCCCCCCC(=O)[O-]
REMARK SMILES IDX 5 1 6 2 7 3 8 4 9 5 10 6 4 7 3 8 2 9 1 10
REMARK H PARENT
REMARK Flexibility Score: inf
ROOT
ATOM      1  C   UNL     1       1.406 -20.240 -13.920  1.00  0.00     0.000 C 
ENDROOT
BRANCH   1   2
ATOM      2  C   UNL     1       2.906 -20.399 -13.628  1.00  0.00     0.006 C 
BRANCH   2   3
ATOM      3  C   UNL     1       3.206 -20.415 -12.124  1.00  0.00     0.053 C 
BRANCH   3   4
ATOM      4  C   UNL     1       4.334 -21.345 -11.794  1.00  0.00     0.041 C 
ATOM      5  O   UNL     1       5.379 -21.349 -12.497  1.00  0.00    -0.550 OA
ATOM      6  O   UNL     1       4.216 -22.230 -10.730  1.00  0.00    -0.550 OA
ENDBRANCH   3   4
ENDBRANCH   2   3
ENDBRANCH   1   2
BRANCH   1   7
ATOM      7  C   UNL     1       0.794 -21.565 -14.389  1.00  0.00     0.000 C 
BRANCH   7   8
ATOM      8  C   UNL     1       0.241 -21.442 -15.814  1.00  0.00    -0.000 C 
BRANCH   8   9
ATOM      9  C   UNL     1       0.452 -22.740 -16.601  1.00  0.00    -0.003 C 
ATOM     10  C   UNL     1       0.332 -23.960 -15.692  1.00  0.00     0.004 C 
ENDBRANCH   8   9
ENDBRANCH   7   8
ENDBRANCH   1   7
TORSDOF 6
ENDMDL
MODEL 3
REMARK VINA RESULT:    -4.369     13.351     14.470
REMARK INTER + INTRA:          -6.164
REMARK INTER:                  -5.921
REMARK INTRA:                  -0.244
REMARK UNBOUND:                -0.264
REMARK SMILES CCCCCCCC(=O)[O-]
REMARK SMILES IDX 5 1 6 2 7 3 8 4 9 5 10 6 4 7 3 8 2 9 1 10
REMARK H PARENT
REMARK Flexibility Score: inf
ROOT
ATOM      1  C   UNL     1       2.203 -20.727 -14.065  1.00  0.00     0.000 C 
ENDROOT
BRANCH   1   2
ATOM      2  C   UNL     1       3.023 -19.847 -13.110  1.00  0.00     0.006 C 
BRANCH   2   3
ATOM      3  C   UNL     1       3.098 -20.436 -11.696  1.00  0.00     0.053 C 
BRANCH   3   4
ATOM      4  C   UNL     1       4.190 -21.455 -11.577  1.00  0.00     0.041 C 
ATOM      5  O   UNL     1       4.132 -22.346 -10.690  1.00  0.00    -0.550 OA
ATOM      6  O   UNL     1       5.288 -21.398 -12.425  1.00  0.00    -0.550 OA
ENDBRANCH   3   4
ENDBRANCH   2   3
ENDBRANCH   1   2
BRANCH   1   7
ATOM      7  C   UNL     1       0.873 -20.056 -14.427  1.00  0.00     0.000 C 
BRANCH   7   8
ATOM      8  C   UNL     1      -0.014 -20.999 -15.249  1.00  0.00    -0.000 C 
BRANCH   8   9
ATOM      9  C   UNL     1       0.822 -22.092 -15.923  1.00  0.00    -0.003 C 
ATOM     10  C   UNL     1       0.002 -22.849 -16.964  1.00  0.00     0.004 C 
ENDBRANCH   8   9
ENDBRANCH   7   8
ENDBRANCH   1   7
TORSDOF 6
ENDMDL
MODEL 4
REMARK VINA RESULT:    -3.906      9.195     10.634
REMARK INTER + INTRA:          -5.540
REMARK INTER:                  -5.241
REMARK INTRA:                  -0.299
REMARK UNBOUND:                -0.264
REMARK SMILES CCCCCCCC(=O)[O-]
REMARK SMILES IDX 5 1 6 2 7 3 8 4 9 5 10 6 4 7 3 8 2 9 1 10
REMARK H PARENT
REMARK Flexibility Score: inf
ROOT
ATOM      1  C   UNL     1      -6.387 -17.000 -14.641  1.00  0.00     0.000 C 
ENDROOT
BRANCH   1   2
ATOM      2  C   UNL     1      -6.382 -15.879 -15.691  1.00  0.00     0.006 C 
BRANCH   2   3
ATOM      3  C   UNL     1      -5.632 -16.281 -16.966  1.00  0.00     0.053 C 
BRANCH   3   4
ATOM      4  C   UNL     1      -6.419 -17.254 -17.791  1.00  0.00     0.041 C 
ATOM      5  O   UNL     1      -6.069 -18.462 -17.851  1.00  0.00    -0.550 OA
ATOM      6  O   UNL     1      -7.518 -16.817 -18.518  1.00  0.00    -0.550 OA
ENDBRANCH   3   4
ENDBRANCH   2   3
ENDBRANCH   1   2
BRANCH   1   7
ATOM      7  C   UNL     1      -6.006 -16.459 -13.258  1.00  0.00     0.000 C 
BRANCH   7   8
ATOM      8  C   UNL     1      -6.677 -15.106 -12.992  1.00  0.00    -0.000 C 
BRANCH   8   9
ATOM      9  C   UNL     1      -7.218 -15.032 -11.560  1.00  0.00    -0.003 C 
ATOM     10  C   UNL     1      -7.504 -16.425 -11.006  1.00  0.00     0.004 C 
ENDBRANCH   8   9
ENDBRANCH   7   8
ENDBRANCH   1   7
TORSDOF 6
ENDMDL
MODEL 5
REMARK VINA RESULT:    -3.869      8.763     10.231
REMARK INTER + INTRA:          -5.490
REMARK INTER:                  -5.240
REMARK INTRA:                  -0.250
REMARK UNBOUND:                -0.264
REMARK SMILES CCCCCCCC(=O)[O-]
REMARK SMILES IDX 5 1 6 2 7 3 8 4 9 5 10 6 4 7 3 8 2 9 1 10
REMARK H PARENT
REMARK Flexibility Score: inf
ROOT
ATOM      1  C   UNL     1      -6.373 -15.300 -13.762  1.00  0.00     0.000 C 
ENDROOT
BRANCH   1   2
ATOM      2  C   UNL     1      -6.672 -15.019 -15.242  1.00  0.00     0.006 C 
BRANCH   2   3
ATOM      3  C   UNL     1      -6.868 -16.307 -16.051  1.00  0.00     0.053 C 
BRANCH   3   4
ATOM      4  C   UNL     1      -7.707 -16.074 -17.271  1.00  0.00     0.041 C 
ATOM      5  O   UNL     1      -8.618 -15.206 -17.256  1.00  0.00    -0.550 OA
ATOM      6  O   UNL     1      -7.502 -16.839 -18.411  1.00  0.00    -0.550 OA
ENDBRANCH   3   4
ENDBRANCH   2   3
ENDBRANCH   1   2
BRANCH   1   7
ATOM      7  C   UNL     1      -6.743 -14.097 -12.887  1.00  0.00     0.000 C 
BRANCH   7   8
ATOM      8  C   UNL     1      -7.299 -14.552 -11.532  1.00  0.00    -0.000 C 
BRANCH   8   9
ATOM      9  C   UNL     1      -7.354 -16.081 -11.445  1.00  0.00    -0.003 C 
ATOM     10  C   UNL     1      -6.585 -16.593 -10.231  1.00  0.00     0.004 C 
ENDBRANCH   8   9
ENDBRANCH   7   8
ENDBRANCH   1   7
TORSDOF 6
ENDMDL
MODEL 6
REMARK VINA RESULT:    -3.858     10.194     11.142
REMARK INTER + INTRA:          -5.475
REMARK INTER:                  -5.232
REMARK INTRA:                  -0.243
REMARK UNBOUND:                -0.264
REMARK SMILES CCCCCCCC(=O)[O-]
REMARK SMILES IDX 5 1 6 2 7 3 8 4 9 5 10 6 4 7 3 8 2 9 1 10
REMARK H PARENT
REMARK Flexibility Score: inf
ROOT
ATOM      1  C   UNL     1      -0.512 -14.634  -6.433  1.00  0.00     0.000 C 
ENDROOT
BRANCH   1   2
ATOM      2  C   UNL     1       0.079 -14.170  -5.093  1.00  0.00     0.006 C 
BRANCH   2   3
ATOM      3  C   UNL     1      -0.566 -14.879  -3.896  1.00  0.00     0.053 C 
BRANCH   3   4
ATOM      4  C   UNL     1       0.458 -15.311  -2.890  1.00  0.00     0.041 C 
ATOM      5  O   UNL     1       1.418 -14.551  -2.596  1.00  0.00    -0.550 OA
ATOM      6  O   UNL     1       0.368 -16.566  -2.303  1.00  0.00    -0.550 OA
ENDBRANCH   3   4
ENDBRANCH   2   3
ENDBRANCH   1   2
BRANCH   1   7
ATOM      7  C   UNL     1       0.283 -14.062  -7.612  1.00  0.00     0.000 C 
BRANCH   7   8
ATOM      8  C   UNL     1       0.660 -15.166  -8.608  1.00  0.00    -0.000 C 
BRANCH   8   9
ATOM      9  C   UNL     1       0.480 -16.555  -7.985  1.00  0.00    -0.003 C 
ATOM     10  C   UNL     1       1.009 -17.647  -8.910  1.00  0.00     0.004 C 
ENDBRANCH   8   9
ENDBRANCH   7   8
ENDBRANCH   1   7
TORSDOF 6
ENDMDL
MODEL 7
REMARK VINA RESULT:    -3.631      1.589      2.259
REMARK INTER + INTRA:          -5.168
REMARK INTER:                  -4.776
REMARK INTRA:                  -0.392
REMARK UNBOUND:                -0.264
REMARK SMILES CCCCCCCC(=O)[O-]
REMARK SMILES IDX 5 1 6 2 7 3 8 4 9 5 10 6 4 7 3 8 2 9 1 10
REMARK H PARENT
REMARK Flexibility Score: inf
ROOT
ATOM      1  C   UNL     1      -9.059 -18.756  -5.941  1.00  0.00     0.000 C 
ENDROOT
BRANCH   1   2
ATOM      2  C   UNL     1      -9.821 -19.894  -6.637  1.00  0.00     0.006 C 
BRANCH   2   3
ATOM      3  C   UNL     1      -8.911 -20.735  -7.541  1.00  0.00     0.053 C 
BRANCH   3   4
ATOM      4  C   UNL     1      -9.688 -21.425  -8.622  1.00  0.00     0.041 C 
ATOM      5  O   UNL     1     -10.198 -20.758  -9.560  1.00  0.00    -0.550 OA
ATOM      6  O   UNL     1      -9.875 -22.799  -8.573  1.00  0.00    -0.550 OA
ENDBRANCH   3   4
ENDBRANCH   2   3
ENDBRANCH   1   2
BRANCH   1   7
ATOM      7  C   UNL     1      -7.604 -19.155  -5.668  1.00  0.00     0.000 C 
BRANCH   7   8
ATOM      8  C   UNL     1      -7.458 -19.786  -4.278  1.00  0.00    -0.000 C 
BRANCH   8   9
ATOM      9  C   UNL     1      -6.241 -20.717  -4.221  1.00  0.00    -0.003 C 
ATOM     10  C   UNL     1      -5.598 -20.867  -5.596  1.00  0.00     0.004 C 
ENDBRANCH   8   9
ENDBRANCH   7   8
ENDBRANCH   1   7
TORSDOF 6
ENDMDL
MODEL 8
REMARK VINA RESULT:    -3.625     12.448     13.811
REMARK INTER + INTRA:          -5.161
REMARK INTER:                  -4.940
REMARK INTRA:                  -0.220
REMARK UNBOUND:                -0.264
REMARK SMILES CCCCCCCC(=O)[O-]
REMARK SMILES IDX 5 1 6 2 7 3 8 4 9 5 10 6 4 7 3 8 2 9 1 10
REMARK H PARENT
REMARK Flexibility Score: inf
ROOT
ATOM      1  C   UNL     1       1.696 -20.634 -14.504  1.00  0.00     0.000 C 
ENDROOT
BRANCH   1   2
ATOM      2  C   UNL     1       2.956 -20.452 -13.645  1.00  0.00     0.006 C 
BRANCH   2   3
ATOM      3  C   UNL     1       2.810 -21.088 -12.257  1.00  0.00     0.053 C 
BRANCH   3   4
ATOM      4  C   UNL     1       4.125 -21.572 -11.727  1.00  0.00     0.041 C 
ATOM      5  O   UNL     1       4.178 -22.190 -10.631  1.00  0.00    -0.550 OA
ATOM      6  O   UNL     1       5.295 -21.310 -12.427  1.00  0.00    -0.550 OA
ENDBRANCH   3   4
ENDBRANCH   2   3
ENDBRANCH   1   2
BRANCH   1   7
ATOM      7  C   UNL     1       0.442 -20.191 -13.743  1.00  0.00     0.000 C 
BRANCH   7   8
ATOM      8  C   UNL     1      -0.826 -20.463 -14.562  1.00  0.00    -0.000 C 
BRANCH   8   9
ATOM      9  C   UNL     1      -1.902 -19.409 -14.278  1.00  0.00    -0.003 C 
ATOM     10  C   UNL     1      -1.294 -18.153 -13.662  1.00  0.00     0.004 C 
ENDBRANCH   8   9
ENDBRANCH   7   8
ENDBRANCH   1   7
TORSDOF 6
ENDMDL
MODEL 9
REMARK VINA RESULT:    -3.575     12.739     13.659
REMARK INTER + INTRA:          -5.093
REMARK INTER:                  -4.622
REMARK INTRA:                  -0.471
REMARK UNBOUND:                -0.264
REMARK SMILES CCCCCCCC(=O)[O-]
REMARK SMILES IDX 5 1 6 2 7 3 8 4 9 5 10 6 4 7 3 8 2 9 1 10
REMARK H PARENT
REMARK Flexibility Score: inf
ROOT
ATOM      1  C   UNL     1       1.443 -21.066 -13.813  1.00  0.00     0.000 C 
ENDROOT
BRANCH   1   2
ATOM      2  C   UNL     1       2.894 -20.581 -13.675  1.00  0.00     0.006 C 
BRANCH   2   3
ATOM      3  C   UNL     1       3.149 -19.880 -12.335  1.00  0.00     0.053 C 
BRANCH   3   4
ATOM      4  C   UNL     1       4.351 -20.440 -11.636  1.00  0.00     0.041 C 
ATOM      5  O   UNL     1       5.142 -21.203 -12.250  1.00  0.00    -0.550 OA
ATOM      6  O   UNL     1       4.576 -20.145 -10.298  1.00  0.00    -0.550 OA
ENDBRANCH   3   4
ENDBRANCH   2   3
ENDBRANCH   1   2
BRANCH   1   7
ATOM      7  C   UNL     1       0.975 -21.767 -12.533  1.00  0.00     0.000 C 
BRANCH   7   8
ATOM      8  C   UNL     1       0.567 -23.218 -12.818  1.00  0.00    -0.000 C 
BRANCH   8   9
ATOM      9  C   UNL     1       1.113 -24.164 -11.742  1.00  0.00    -0.003 C 
ATOM     10  C   UNL     1       2.327 -23.560 -11.042  1.00  0.00     0.004 C 
ENDBRANCH   8   9
ENDBRANCH   7   8
ENDBRANCH   1   7
TORSDOF 6
ENDMDL
