MODEL 1
REMARK VINA RESULT:    -5.968      0.000      0.000
REMARK INTER + INTRA:          -7.401
REMARK INTER:                  -7.189
REMARK INTRA:                  -0.212
REMARK UNBOUND:                -0.212
REMARK SMILES Oc1cc(O)c2c(c1)O[C@@H](c1ccc(O)c(O)c1)[C@H](O)C2
REMARK SMILES IDX 21 1 19 2 10 3 9 4 7 5 8 6 2 7 3 8 4 9 6 10 20 11 11 13
REMARK SMILES IDX 18 14 12 15 16 16 13 17 14 18 17 19 15 21 5 23 1 25
REMARK H PARENT 20 12 17 20 15 22 5 24 1 26
REMARK Flexibility Score: inf
ROOT
ATOM      1  C   UNL     1       4.152  40.157   6.080  1.00  0.00     0.079 C 
ATOM      2  C   UNL     1       2.820  39.387   6.045  1.00  0.00     0.164 C 
ATOM      3  C   UNL     1       3.093  37.871   6.039  1.00  0.00     0.232 C 
ATOM      4  O   UNL     1       3.884  37.517   7.173  1.00  0.00    -0.482 OA
ATOM      5  C   UNL     1       4.918  38.330   7.648  1.00  0.00     0.131 A 
ATOM      6  C   UNL     1       5.766  37.837   8.644  1.00  0.00     0.093 A 
ATOM      7  C   UNL     1       6.816  38.619   9.127  1.00  0.00     0.122 A 
ATOM      8  C   UNL     1       7.027  39.900   8.603  1.00  0.00     0.092 A 
ATOM      9  C   UNL     1       6.189  40.409   7.604  1.00  0.00     0.126 A 
ATOM     10  C   UNL     1       5.096  39.637   7.144  1.00  0.00     0.039 A 
ENDROOT
BRANCH   2  11
ATOM     11  O   UNL     1       2.109  39.762   4.892  1.00  0.00    -0.389 OA
ATOM     12  H   UNL     1       2.730  40.294   4.329  1.00  0.00     0.211 HD
ENDBRANCH   2  11
BRANCH   3  13
ATOM     13  C   UNL     1       1.806  37.079   6.055  1.00  0.00    -0.001 A 
ATOM     14  C   UNL     1       0.685  37.564   6.749  1.00  0.00     0.057 A 
ATOM     15  C   UNL     1       1.731  35.829   5.419  1.00  0.00     0.012 A 
ATOM     16  C   UNL     1      -0.503  36.819   6.792  1.00  0.00     0.157 A 
ATOM     17  C   UNL     1       0.548  35.086   5.459  1.00  0.00     0.050 A 
ATOM     18  C   UNL     1      -0.571  35.575   6.141  1.00  0.00     0.157 A 
BRANCH  16  19
ATOM     19  O   UNL     1      -1.613  37.309   7.478  1.00  0.00    -0.504 OA
ATOM     20  H   UNL     1      -1.513  37.936   8.269  1.00  0.00     0.293 HD
ENDBRANCH  16  19
BRANCH  18  21
ATOM     21  O   UNL     1      -1.738  34.812   6.165  1.00  0.00    -0.504 OA
ATOM     22  H   UNL     1      -2.414  34.886   6.914  1.00  0.00     0.293 HD
ENDBRANCH  18  21
ENDBRANCH   3  13
BRANCH   9  23
ATOM     23  O   UNL     1       6.477  41.674   7.087  1.00  0.00    -0.507 OA
ATOM     24  H   UNL     1       6.136  42.533   7.497  1.00  0.00     0.293 HD
ENDBRANCH   9  23
BRANCH   7  25
ATOM     25  O   UNL     1       7.649  38.113  10.122  1.00  0.00    -0.508 OA
ATOM     26  H   UNL     1       7.598  37.145  10.415  1.00  0.00     0.293 HD
ENDBRANCH   7  25
TORSDOF 6
ENDMDL
MODEL 2
REMARK VINA RESULT:    -5.669      3.661      6.201
REMARK INTER + INTRA:          -7.041
REMARK INTER:                  -6.751
REMARK INTRA:                  -0.290
REMARK UNBOUND:                -0.212
REMARK SMILES Oc1cc(O)c2c(c1)O[C@@H](c1ccc(O)c(O)c1)[C@H](O)C2
REMARK SMILES IDX 21 1 19 2 10 3 9 4 7 5 8 6 2 7 3 8 4 9 6 10 20 11 11 13
REMARK SMILES IDX 18 14 12 15 16 16 13 17 14 18 17 19 15 21 5 23 1 25
REMARK H PARENT 20 12 17 20 15 22 5 24 1 26
REMARK Flexibility Score: inf
ROOT
ATOM      1  C   UNL     1       1.360  39.593   6.376  1.00  0.00     0.079 C 
ATOM      2  C   UNL     1       0.310  40.225   7.307  1.00  0.00     0.164 C 
ATOM      3  C   UNL     1      -1.105  39.834   6.840  1.00  0.00     0.232 C 
ATOM      4  O   UNL     1      -1.223  38.413   6.790  1.00  0.00    -0.482 OA
ATOM      5  C   UNL     1      -0.179  37.590   6.355  1.00  0.00     0.131 A 
ATOM      6  C   UNL     1      -0.425  36.228   6.158  1.00  0.00     0.093 A 
ATOM      7  C   UNL     1       0.592  35.385   5.711  1.00  0.00     0.122 A 
ATOM      8  C   UNL     1       1.865  35.908   5.448  1.00  0.00     0.092 A 
ATOM      9  C   UNL     1       2.129  37.269   5.638  1.00  0.00     0.126 A 
ATOM     10  C   UNL     1       1.111  38.119   6.135  1.00  0.00     0.039 A 
ENDROOT
BRANCH   2  11
ATOM     11  O   UNL     1       0.466  41.621   7.286  1.00  0.00    -0.389 OA
ATOM     12  H   UNL     1       0.236  41.952   8.193  1.00  0.00     0.211 HD
ENDBRANCH   2  11
BRANCH   3  13
ATOM     13  C   UNL     1      -2.164  40.395   7.761  1.00  0.00    -0.001 A 
ATOM     14  C   UNL     1      -2.532  39.699   8.924  1.00  0.00     0.057 A 
ATOM     15  C   UNL     1      -2.825  41.592   7.440  1.00  0.00     0.012 A 
ATOM     16  C   UNL     1      -3.535  40.201   9.767  1.00  0.00     0.157 A 
ATOM     17  C   UNL     1      -3.824  42.094   8.279  1.00  0.00     0.050 A 
ATOM     18  C   UNL     1      -4.181  41.406   9.442  1.00  0.00     0.157 A 
BRANCH  16  19
ATOM     19  O   UNL     1      -3.891  39.507  10.922  1.00  0.00    -0.504 OA
ATOM     20  H   UNL     1      -4.783  39.032  11.002  1.00  0.00     0.293 HD
ENDBRANCH  16  19
BRANCH  18  21
ATOM     21  O   UNL     1      -5.181  41.931  10.260  1.00  0.00    -0.504 OA
ATOM     22  H   UNL     1      -5.694  41.358  10.918  1.00  0.00     0.293 HD
ENDBRANCH  18  21
ENDBRANCH   3  13
BRANCH   9  23
ATOM     23  O   UNL     1       3.402  37.742   5.316  1.00  0.00    -0.507 OA
ATOM     24  H   UNL     1       4.043  38.123   5.999  1.00  0.00     0.293 HD
ENDBRANCH   9  23
BRANCH   7  25
ATOM     25  O   UNL     1       0.330  34.029   5.523  1.00  0.00    -0.508 OA
ATOM     26  H   UNL     1      -0.187  33.490   6.206  1.00  0.00     0.293 HD
ENDBRANCH   7  25
TORSDOF 6
ENDMDL
MODEL 3
REMARK VINA RESULT:    -5.388      2.096      6.857
REMARK INTER + INTRA:          -6.702
REMARK INTER:                  -6.377
REMARK INTRA:                  -0.325
REMARK UNBOUND:                -0.212
REMARK SMILES Oc1cc(O)c2c(c1)O[C@@H](c1ccc(O)c(O)c1)[C@H](O)C2
REMARK SMILES IDX 21 1 19 2 10 3 9 4 7 5 8 6 2 7 3 8 4 9 6 10 20 11 11 13
REMARK SMILES IDX 18 14 12 15 16 16 13 17 14 18 17 19 15 21 5 23 1 25
REMARK H PARENT 20 12 17 20 15 22 5 24 1 26
REMARK Flexibility Score: inf
ROOT
ATOM      1  C   UNL     1       0.288  37.179   5.595  1.00  0.00     0.079 C 
ATOM      2  C   UNL     1       1.768  37.146   6.017  1.00  0.00     0.164 C 
ATOM      3  C   UNL     1       2.297  38.585   6.176  1.00  0.00     0.232 C 
ATOM      4  O   UNL     1       1.490  39.297   7.113  1.00  0.00    -0.482 OA
ATOM      5  C   UNL     1       0.102  39.138   7.179  1.00  0.00     0.131 A 
ATOM      6  C   UNL     1      -0.642  39.998   7.991  1.00  0.00     0.093 A 
ATOM      7  C   UNL     1      -2.029  39.874   8.066  1.00  0.00     0.122 A 
ATOM      8  C   UNL     1      -2.681  38.888   7.315  1.00  0.00     0.092 A 
ATOM      9  C   UNL     1      -1.952  38.018   6.495  1.00  0.00     0.126 A 
ATOM     10  C   UNL     1      -0.541  38.113   6.452  1.00  0.00     0.039 A 
ENDROOT
BRANCH   2  11
ATOM     11  O   UNL     1       2.504  36.457   5.039  1.00  0.00    -0.389 OA
ATOM     12  H   UNL     1       3.389  36.901   4.977  1.00  0.00     0.211 HD
ENDBRANCH   2  11
BRANCH   3  13
ATOM     13  C   UNL     1       3.735  38.595   6.639  1.00  0.00    -0.001 A 
ATOM     14  C   UNL     1       4.139  37.784   7.711  1.00  0.00     0.057 A 
ATOM     15  C   UNL     1       4.672  39.450   6.035  1.00  0.00     0.012 A 
ATOM     16  C   UNL     1       5.467  37.811   8.165  1.00  0.00     0.157 A 
ATOM     17  C   UNL     1       5.995  39.478   6.484  1.00  0.00     0.050 A 
ATOM     18  C   UNL     1       6.398  38.662   7.545  1.00  0.00     0.157 A 
BRANCH  16  19
ATOM     19  O   UNL     1       5.861  36.999   9.227  1.00  0.00    -0.504 OA
ATOM     20  H   UNL     1       6.166  37.392  10.111  1.00  0.00     0.293 HD
ENDBRANCH  16  19
BRANCH  18  21
ATOM     21  O   UNL     1       7.725  38.711   7.972  1.00  0.00    -0.504 OA
ATOM     22  H   UNL     1       8.366  37.941   7.826  1.00  0.00     0.293 HD
ENDBRANCH  18  21
ENDBRANCH   3  13
BRANCH   9  23
ATOM     23  O   UNL     1      -2.660  37.085   5.735  1.00  0.00    -0.507 OA
ATOM     24  H   UNL     1      -2.848  37.200   4.748  1.00  0.00     0.293 HD
ENDBRANCH   9  23
BRANCH   7  25
ATOM     25  O   UNL     1      -2.755  40.739   8.883  1.00  0.00    -0.508 OA
ATOM     26  H   UNL     1      -2.738  41.742   8.741  1.00  0.00     0.293 HD
ENDBRANCH   7  25
TORSDOF 6
ENDMDL
MODEL 4
REMARK VINA RESULT:    -5.235      4.565      7.740
REMARK INTER + INTRA:          -6.518
REMARK INTER:                  -6.274
REMARK INTRA:                  -0.244
REMARK UNBOUND:                -0.212
REMARK SMILES Oc1cc(O)c2c(c1)O[C@@H](c1ccc(O)c(O)c1)[C@H](O)C2
REMARK SMILES IDX 21 1 19 2 10 3 9 4 7 5 8 6 2 7 3 8 4 9 6 10 20 11 11 13
REMARK SMILES IDX 18 14 12 15 16 16 13 17 14 18 17 19 15 21 5 23 1 25
REMARK H PARENT 20 12 17 20 15 22 5 24 1 26
REMARK Flexibility Score: inf
ROOT
ATOM      1  C   UNL     1      -0.033  38.909   6.328  1.00  0.00     0.079 C 
ATOM      2  C   UNL     1      -0.728  40.054   7.084  1.00  0.00     0.164 C 
ATOM      3  C   UNL     1      -2.221  40.099   6.707  1.00  0.00     0.232 C 
ATOM      4  O   UNL     1      -2.827  38.836   6.978  1.00  0.00    -0.482 OA
ATOM      5  C   UNL     1      -2.168  37.624   6.748  1.00  0.00     0.131 A 
ATOM      6  C   UNL     1      -2.883  36.429   6.863  1.00  0.00     0.093 A 
ATOM      7  C   UNL     1      -2.256  35.206   6.625  1.00  0.00     0.122 A 
ATOM      8  C   UNL     1      -0.904  35.176   6.261  1.00  0.00     0.092 A 
ATOM      9  C   UNL     1      -0.172  36.363   6.140  1.00  0.00     0.126 A 
ATOM     10  C   UNL     1      -0.793  37.602   6.424  1.00  0.00     0.039 A 
ENDROOT
BRANCH   2  11
ATOM     11  O   UNL     1      -0.101  41.266   6.750  1.00  0.00    -0.389 OA
ATOM     12  H   UNL     1       0.846  41.190   7.035  1.00  0.00     0.211 HD
ENDBRANCH   2  11
BRANCH   3  13
ATOM     13  C   UNL     1      -2.950  41.181   7.469  1.00  0.00    -0.001 A 
ATOM     14  C   UNL     1      -3.545  40.896   8.709  1.00  0.00     0.057 A 
ATOM     15  C   UNL     1      -3.082  42.469   6.925  1.00  0.00     0.012 A 
ATOM     16  C   UNL     1      -4.248  41.890   9.407  1.00  0.00     0.157 A 
ATOM     17  C   UNL     1      -3.781  43.461   7.619  1.00  0.00     0.050 A 
ATOM     18  C   UNL     1      -4.363  43.179   8.858  1.00  0.00     0.157 A 
BRANCH  16  19
ATOM     19  O   UNL     1      -4.831  41.601  10.639  1.00  0.00    -0.504 OA
ATOM     20  H   UNL     1      -5.571  42.178  11.025  1.00  0.00     0.293 HD
ENDBRANCH  16  19
BRANCH  18  21
ATOM     21  O   UNL     1      -5.055  44.188   9.528  1.00  0.00    -0.504 OA
ATOM     22  H   UNL     1      -4.601  45.040   9.834  1.00  0.00     0.293 HD
ENDBRANCH  18  21
ENDBRANCH   3  13
BRANCH   9  23
ATOM     23  O   UNL     1       1.159  36.274   5.729  1.00  0.00    -0.507 OA
ATOM     24  H   UNL     1       1.622  36.989   5.184  1.00  0.00     0.293 HD
ENDBRANCH   9  23
BRANCH   7  25
ATOM     25  O   UNL     1      -2.985  34.024   6.746  1.00  0.00    -0.508 OA
ATOM     26  H   UNL     1      -3.974  33.987   6.533  1.00  0.00     0.293 HD
ENDBRANCH   7  25
TORSDOF 6
ENDMDL
MODEL 5
REMARK VINA RESULT:    -5.148      2.051      7.451
REMARK INTER + INTRA:          -6.412
REMARK INTER:                  -6.084
REMARK INTRA:                  -0.329
REMARK UNBOUND:                -0.212
REMARK SMILES Oc1cc(O)c2c(c1)O[C@@H](c1ccc(O)c(O)c1)[C@H](O)C2
REMARK SMILES IDX 21 1 19 2 10 3 9 4 7 5 8 6 2 7 3 8 4 9 6 10 20 11 11 13
REMARK SMILES IDX 18 14 12 15 16 16 13 17 14 18 17 19 15 21 5 23 1 25
REMARK H PARENT 20 12 17 20 15 22 5 24 1 26
REMARK Flexibility Score: inf
ROOT
ATOM      1  C   UNL     1      -0.622  35.089   5.930  1.00  0.00     0.079 C 
ATOM      2  C   UNL     1       0.779  35.722   5.992  1.00  0.00     0.164 C 
ATOM      3  C   UNL     1       0.692  37.218   5.637  1.00  0.00     0.232 C 
ATOM      4  O   UNL     1      -0.227  37.871   6.511  1.00  0.00    -0.482 OA
ATOM      5  C   UNL     1      -1.415  37.267   6.936  1.00  0.00     0.131 A 
ATOM      6  C   UNL     1      -2.351  38.029   7.639  1.00  0.00     0.093 A 
ATOM      7  C   UNL     1      -3.552  37.458   8.062  1.00  0.00     0.122 A 
ATOM      8  C   UNL     1      -3.824  36.116   7.772  1.00  0.00     0.092 A 
ATOM      9  C   UNL     1      -2.899  35.337   7.067  1.00  0.00     0.126 A 
ATOM     10  C   UNL     1      -1.661  35.901   6.675  1.00  0.00     0.039 A 
ENDROOT
BRANCH   2  11
ATOM     11  O   UNL     1       1.621  35.051   5.090  1.00  0.00    -0.389 OA
ATOM     12  H   UNL     1       1.331  35.308   4.177  1.00  0.00     0.211 HD
ENDBRANCH   2  11
BRANCH   3  13
ATOM     13  C   UNL     1       2.043  37.887   5.736  1.00  0.00    -0.001 A 
ATOM     14  C   UNL     1       2.850  37.689   6.868  1.00  0.00     0.057 A 
ATOM     15  C   UNL     1       2.486  38.752   4.722  1.00  0.00     0.012 A 
ATOM     16  C   UNL     1       4.093  38.331   6.979  1.00  0.00     0.157 A 
ATOM     17  C   UNL     1       3.724  39.392   4.829  1.00  0.00     0.050 A 
ATOM     18  C   UNL     1       4.531  39.185   5.952  1.00  0.00     0.157 A 
BRANCH  16  19
ATOM     19  O   UNL     1       4.890  38.125   8.104  1.00  0.00    -0.504 OA
ATOM     20  H   UNL     1       5.430  38.878   8.516  1.00  0.00     0.293 HD
ENDBRANCH  16  19
BRANCH  18  21
ATOM     21  O   UNL     1       5.762  39.836   6.032  1.00  0.00    -0.504 OA
ATOM     22  H   UNL     1       6.624  39.337   6.211  1.00  0.00     0.293 HD
ENDBRANCH  18  21
ENDBRANCH   3  13
BRANCH   9  23
ATOM     23  O   UNL     1      -3.245  34.018   6.766  1.00  0.00    -0.507 OA
ATOM     24  H   UNL     1      -2.766  33.216   7.151  1.00  0.00     0.293 HD
ENDBRANCH   9  23
BRANCH   7  25
ATOM     25  O   UNL     1      -4.473  38.233   8.765  1.00  0.00    -0.508 OA
ATOM     26  H   UNL     1      -4.220  39.134   9.153  1.00  0.00     0.293 HD
ENDBRANCH   7  25
TORSDOF 6
ENDMDL
MODEL 6
REMARK VINA RESULT:    -5.144      9.415     11.177
REMARK INTER + INTRA:          -6.408
REMARK INTER:                  -6.064
REMARK INTRA:                  -0.344
REMARK UNBOUND:                -0.212
REMARK SMILES Oc1cc(O)c2c(c1)O[C@@H](c1ccc(O)c(O)c1)[C@H](O)C2
REMARK SMILES IDX 21 1 19 2 10 3 9 4 7 5 8 6 2 7 3 8 4 9 6 10 20 11 11 13
REMARK SMILES IDX 18 14 12 15 16 16 13 17 14 18 17 19 15 21 5 23 1 25
REMARK H PARENT 20 12 17 20 15 22 5 24 1 26
REMARK Flexibility Score: inf
ROOT
ATOM      1  C   UNL     1      -6.053  46.171   7.499  1.00  0.00     0.079 C 
ATOM      2  C   UNL     1      -5.944  44.727   8.018  1.00  0.00     0.164 C 
ATOM      3  C   UNL     1      -4.462  44.349   8.204  1.00  0.00     0.232 C 
ATOM      4  O   UNL     1      -3.832  45.281   9.081  1.00  0.00    -0.482 OA
ATOM      5  C   UNL     1      -4.122  46.649   9.056  1.00  0.00     0.131 A 
ATOM      6  C   UNL     1      -3.338  47.524   9.812  1.00  0.00     0.093 A 
ATOM      7  C   UNL     1      -3.595  48.895   9.795  1.00  0.00     0.122 A 
ATOM      8  C   UNL     1      -4.638  49.398   9.008  1.00  0.00     0.092 A 
ATOM      9  C   UNL     1      -5.433  48.536   8.243  1.00  0.00     0.126 A 
ATOM     10  C   UNL     1      -5.204  47.141   8.293  1.00  0.00     0.039 A 
ENDROOT
BRANCH   2  11
ATOM     11  O   UNL     1      -6.559  43.864   7.095  1.00  0.00    -0.389 OA
ATOM     12  H   UNL     1      -7.088  44.431   6.477  1.00  0.00     0.211 HD
ENDBRANCH   2  11
BRANCH   3  13
ATOM     13  C   UNL     1      -4.315  42.953   8.762  1.00  0.00    -0.001 A 
ATOM     14  C   UNL     1      -3.488  42.017   8.121  1.00  0.00     0.057 A 
ATOM     15  C   UNL     1      -5.040  42.560   9.899  1.00  0.00     0.012 A 
ATOM     16  C   UNL     1      -3.371  40.710   8.618  1.00  0.00     0.157 A 
ATOM     17  C   UNL     1      -4.924  41.260  10.397  1.00  0.00     0.050 A 
ATOM     18  C   UNL     1      -4.092  40.332   9.764  1.00  0.00     0.157 A 
BRANCH  16  19
ATOM     19  O   UNL     1      -2.543  39.788   7.978  1.00  0.00    -0.504 OA
ATOM     20  H   UNL     1      -2.922  38.978   7.501  1.00  0.00     0.293 HD
ENDBRANCH  16  19
BRANCH  18  21
ATOM     21  O   UNL     1      -3.996  39.041  10.283  1.00  0.00    -0.504 OA
ATOM     22  H   UNL     1      -4.368  38.236   9.795  1.00  0.00     0.293 HD
ENDBRANCH  18  21
ENDBRANCH   3  13
BRANCH   9  23
ATOM     23  O   UNL     1      -6.428  49.100   7.442  1.00  0.00    -0.507 OA
ATOM     24  H   UNL     1      -6.262  49.438   6.504  1.00  0.00     0.293 HD
ENDBRANCH   9  23
BRANCH   7  25
ATOM     25  O   UNL     1      -2.804  49.753  10.558  1.00  0.00    -0.508 OA
ATOM     26  H   UNL     1      -2.151  49.399  11.247  1.00  0.00     0.293 HD
ENDBRANCH   7  25
TORSDOF 6
ENDMDL
MODEL 7
REMARK VINA RESULT:    -5.102      3.787      6.103
REMARK INTER + INTRA:          -6.358
REMARK INTER:                  -5.988
REMARK INTRA:                  -0.370
REMARK UNBOUND:                -0.212
REMARK SMILES Oc1cc(O)c2c(c1)O[C@@H](c1ccc(O)c(O)c1)[C@H](O)C2
REMARK SMILES IDX 21 1 19 2 10 3 9 4 7 5 8 6 2 7 3 8 4 9 6 10 20 11 11 13
REMARK SMILES IDX 18 14 12 15 16 16 13 17 14 18 17 19 15 21 5 23 1 25
REMARK H PARENT 20 12 17 20 15 22 5 24 1 26
REMARK Flexibility Score: inf
ROOT
ATOM      1  C   UNL     1      -0.946  37.065   5.902  1.00  0.00     0.079 C 
ATOM      2  C   UNL     1      -1.875  38.245   6.238  1.00  0.00     0.164 C 
ATOM      3  C   UNL     1      -1.448  38.881   7.575  1.00  0.00     0.232 C 
ATOM      4  O   UNL     1      -0.081  39.282   7.506  1.00  0.00    -0.482 OA
ATOM      5  C   UNL     1       0.890  38.521   6.846  1.00  0.00     0.131 A 
ATOM      6  C   UNL     1       2.235  38.878   6.974  1.00  0.00     0.093 A 
ATOM      7  C   UNL     1       3.227  38.130   6.339  1.00  0.00     0.122 A 
ATOM      8  C   UNL     1       2.873  37.010   5.577  1.00  0.00     0.092 A 
ATOM      9  C   UNL     1       1.531  36.637   5.439  1.00  0.00     0.126 A 
ATOM     10  C   UNL     1       0.519  37.420   6.044  1.00  0.00     0.039 A 
ENDROOT
BRANCH   2  11
ATOM     11  O   UNL     1      -3.196  37.775   6.318  1.00  0.00    -0.389 OA
ATOM     12  H   UNL     1      -3.289  37.319   7.195  1.00  0.00     0.211 HD
ENDBRANCH   2  11
BRANCH   3  13
ATOM     13  C   UNL     1      -2.307  40.077   7.915  1.00  0.00    -0.001 A 
ATOM     14  C   UNL     1      -3.089  40.079   9.081  1.00  0.00     0.057 A 
ATOM     15  C   UNL     1      -2.369  41.179   7.046  1.00  0.00     0.012 A 
ATOM     16  C   UNL     1      -3.911  41.175   9.386  1.00  0.00     0.157 A 
ATOM     17  C   UNL     1      -3.186  42.272   7.349  1.00  0.00     0.050 A 
ATOM     18  C   UNL     1      -3.956  42.277   8.515  1.00  0.00     0.157 A 
BRANCH  16  19
ATOM     19  O   UNL     1      -4.681  41.171  10.548  1.00  0.00    -0.504 OA
ATOM     20  H   UNL     1      -5.598  40.739  10.575  1.00  0.00     0.293 HD
ENDBRANCH  16  19
BRANCH  18  21
ATOM     21  O   UNL     1      -4.762  43.381   8.792  1.00  0.00    -0.504 OA
ATOM     22  H   UNL     1      -4.759  44.209   8.208  1.00  0.00     0.293 HD
ENDBRANCH  18  21
ENDBRANCH   3  13
BRANCH   9  23
ATOM     23  O   UNL     1       1.243  35.484   4.705  1.00  0.00    -0.507 OA
ATOM     24  H   UNL     1       1.745  35.216   3.870  1.00  0.00     0.293 HD
ENDBRANCH   9  23
BRANCH   7  25
ATOM     25  O   UNL     1       4.563  38.502   6.476  1.00  0.00    -0.508 OA
ATOM     26  H   UNL     1       5.149  38.680   5.669  1.00  0.00     0.293 HD
ENDBRANCH   7  25
TORSDOF 6
ENDMDL
MODEL 8
REMARK VINA RESULT:    -5.099      5.832      8.300
REMARK INTER + INTRA:          -6.354
REMARK INTER:                  -6.104
REMARK INTRA:                  -0.250
REMARK UNBOUND:                -0.212
REMARK SMILES Oc1cc(O)c2c(c1)O[C@@H](c1ccc(O)c(O)c1)[C@H](O)C2
REMARK SMILES IDX 21 1 19 2 10 3 9 4 7 5 8 6 2 7 3 8 4 9 6 10 20 11 11 13
REMARK SMILES IDX 18 14 12 15 16 16 13 17 14 18 17 19 15 21 5 23 1 25
REMARK H PARENT 20 12 17 20 15 22 5 24 1 26
REMARK Flexibility Score: inf
ROOT
ATOM      1  C   UNL     1      -4.540  40.190   9.876  1.00  0.00     0.079 C 
ATOM      2  C   UNL     1      -3.711  38.965   9.452  1.00  0.00     0.164 C 
ATOM      3  C   UNL     1      -3.823  38.761   7.929  1.00  0.00     0.232 C 
ATOM      4  O   UNL     1      -3.409  39.946   7.250  1.00  0.00    -0.482 OA
ATOM      5  C   UNL     1      -3.711  41.226   7.726  1.00  0.00     0.131 A 
ATOM      6  C   UNL     1      -3.436  42.333   6.919  1.00  0.00     0.093 A 
ATOM      7  C   UNL     1      -3.740  43.621   7.360  1.00  0.00     0.122 A 
ATOM      8  C   UNL     1      -4.333  43.805   8.614  1.00  0.00     0.092 A 
ATOM      9  C   UNL     1      -4.618  42.707   9.436  1.00  0.00     0.126 A 
ATOM     10  C   UNL     1      -4.270  41.403   9.011  1.00  0.00     0.039 A 
ENDROOT
BRANCH   2  11
ATOM     11  O   UNL     1      -4.189  37.835  10.136  1.00  0.00    -0.389 OA
ATOM     12  H   UNL     1      -4.561  38.154  10.999  1.00  0.00     0.211 HD
ENDBRANCH   2  11
BRANCH   3  13
ATOM     13  C   UNL     1      -2.980  37.595   7.467  1.00  0.00    -0.001 A 
ATOM     14  C   UNL     1      -3.546  36.316   7.347  1.00  0.00     0.057 A 
ATOM     15  C   UNL     1      -1.612  37.768   7.197  1.00  0.00     0.012 A 
ATOM     16  C   UNL     1      -2.761  35.224   6.946  1.00  0.00     0.157 A 
ATOM     17  C   UNL     1      -0.829  36.682   6.797  1.00  0.00     0.050 A 
ATOM     18  C   UNL     1      -1.396  35.411   6.668  1.00  0.00     0.157 A 
BRANCH  16  19
ATOM     19  O   UNL     1      -3.332  33.958   6.825  1.00  0.00    -0.504 OA
ATOM     20  H   UNL     1      -2.761  33.129   6.700  1.00  0.00     0.293 HD
ENDBRANCH  16  19
BRANCH  18  21
ATOM     21  O   UNL     1      -0.590  34.346   6.266  1.00  0.00    -0.504 OA
ATOM     22  H   UNL     1      -0.700  33.414   6.647  1.00  0.00     0.293 HD
ENDBRANCH  18  21
ENDBRANCH   3  13
BRANCH   9  23
ATOM     23  O   UNL     1      -5.253  42.948  10.656  1.00  0.00    -0.507 OA
ATOM     24  H   UNL     1      -6.120  42.506  10.929  1.00  0.00     0.293 HD
ENDBRANCH   9  23
BRANCH   7  25
ATOM     25  O   UNL     1      -3.455  44.714   6.543  1.00  0.00    -0.508 OA
ATOM     26  H   UNL     1      -2.890  45.487   6.870  1.00  0.00     0.293 HD
ENDBRANCH   7  25
TORSDOF 6
ENDMDL
MODEL 9
REMARK VINA RESULT:    -5.044      4.969      8.285
REMARK INTER + INTRA:          -6.288
REMARK INTER:                  -6.124
REMARK INTRA:                  -0.164
REMARK UNBOUND:                -0.212
REMARK SMILES Oc1cc(O)c2c(c1)O[C@@H](c1ccc(O)c(O)c1)[C@H](O)C2
REMARK SMILES IDX 21 1 19 2 10 3 9 4 7 5 8 6 2 7 3 8 4 9 6 10 20 11 11 13
REMARK SMILES IDX 18 14 12 15 16 16 13 17 14 18 17 19 15 21 5 23 1 25
REMARK H PARENT 20 12 17 20 15 22 5 24 1 26
REMARK Flexibility Score: inf
ROOT
ATOM      1  C   UNL     1      -3.899  36.689   7.878  1.00  0.00     0.079 C 
ATOM      2  C   UNL     1      -4.316  38.167   7.969  1.00  0.00     0.164 C 
ATOM      3  C   UNL     1      -3.150  39.006   8.525  1.00  0.00     0.232 C 
ATOM      4  O   UNL     1      -1.993  38.828   7.709  1.00  0.00    -0.482 OA
ATOM      5  C   UNL     1      -1.654  37.592   7.150  1.00  0.00     0.131 A 
ATOM      6  C   UNL     1      -0.416  37.449   6.517  1.00  0.00     0.093 A 
ATOM      7  C   UNL     1      -0.044  36.224   5.964  1.00  0.00     0.122 A 
ATOM      8  C   UNL     1      -0.911  35.128   6.051  1.00  0.00     0.092 A 
ATOM      9  C   UNL     1      -2.154  35.252   6.683  1.00  0.00     0.126 A 
ATOM     10  C   UNL     1      -2.554  36.505   7.206  1.00  0.00     0.039 A 
ENDROOT
BRANCH   2  11
ATOM     11  O   UNL     1      -5.439  38.271   8.807  1.00  0.00    -0.389 OA
ATOM     12  H   UNL     1      -5.125  38.659   9.665  1.00  0.00     0.211 HD
ENDBRANCH   2  11
BRANCH   3  13
ATOM     13  C   UNL     1      -3.504  40.474   8.583  1.00  0.00    -0.001 A 
ATOM     14  C   UNL     1      -4.188  40.994   9.694  1.00  0.00     0.057 A 
ATOM     15  C   UNL     1      -3.199  41.323   7.506  1.00  0.00     0.012 A 
ATOM     16  C   UNL     1      -4.545  42.350   9.739  1.00  0.00     0.157 A 
ATOM     17  C   UNL     1      -3.553  42.674   7.550  1.00  0.00     0.050 A 
ATOM     18  C   UNL     1      -4.223  43.193   8.661  1.00  0.00     0.157 A 
BRANCH  16  19
ATOM     19  O   UNL     1      -5.219  42.861  10.847  1.00  0.00    -0.504 OA
ATOM     20  H   UNL     1      -4.810  43.580  11.433  1.00  0.00     0.293 HD
ENDBRANCH  16  19
BRANCH  18  21
ATOM     21  O   UNL     1      -4.565  44.546   8.677  1.00  0.00    -0.504 OA
ATOM     22  H   UNL     1      -3.874  45.276   8.555  1.00  0.00     0.293 HD
ENDBRANCH  18  21
ENDBRANCH   3  13
BRANCH   9  23
ATOM     23  O   UNL     1      -2.957  34.114   6.781  1.00  0.00    -0.507 OA
ATOM     24  H   UNL     1      -2.739  33.239   6.324  1.00  0.00     0.293 HD
ENDBRANCH   9  23
BRANCH   7  25
ATOM     25  O   UNL     1       1.193  36.101   5.334  1.00  0.00    -0.508 OA
ATOM     26  H   UNL     1       2.020  36.563   5.694  1.00  0.00     0.293 HD
ENDBRANCH   7  25
TORSDOF 6
ENDMDL
