MODEL 1
REMARK VINA RESULT:    -2.245      0.000      0.000
REMARK INTER + INTRA:          -5.032
REMARK INTER:                  -4.869
REMARK INTRA:                  -0.163
REMARK UNBOUND:                -0.163
REMARK SMILES CCCCCCCCCCCCCCCCCCCCCC(=O)[O-]
REMARK SMILES IDX 12 1 11 2 10 3 9 4 8 5 7 6 6 7 5 8 4 9 3 10 2 11 1 12 13 13
REMARK SMILES IDX 14 14 15 15 16 16 17 17 18 18 19 19 20 20 21 21 22 22 23 23
REMARK SMILES IDX 24 24
REMARK H PARENT
REMARK Flexibility Score: inf
ROOT
ATOM      1  C   UNL     1      25.768  20.266  58.290  1.00  0.00     0.000 C 
ENDROOT
BRANCH   1   2
ATOM      2  C   UNL     1      26.202  21.738  58.177  1.00  0.00     0.000 C 
BRANCH   2   3
ATOM      3  C   UNL     1      27.428  22.067  59.043  1.00  0.00     0.000 C 
BRANCH   3   4
ATOM      4  C   UNL     1      27.934  20.855  59.844  1.00  0.00    -0.000 C 
BRANCH   4   5
ATOM      5  C   UNL     1      27.132  20.619  61.138  1.00  0.00    -0.000 C 
BRANCH   5   6
ATOM      6  C   UNL     1      26.536  21.886  61.787  1.00  0.00    -0.000 C 
BRANCH   6   7
ATOM      7  C   UNL     1      26.432  21.849  63.324  1.00  0.00    -0.000 C 
BRANCH   7   8
ATOM      8  C   UNL     1      24.989  21.990  63.827  1.00  0.00    -0.000 C 
BRANCH   8   9
ATOM      9  C   UNL     1      24.016  21.202  62.937  1.00  0.00    -0.000 C 
BRANCH   9  10
ATOM     10  C   UNL     1      23.218  22.123  61.989  1.00  0.00    -0.000 C 
BRANCH  10  11
ATOM     11  C   UNL     1      23.516  21.879  60.502  1.00  0.00    -0.003 C 
ATOM     12  C   UNL     1      22.909  20.581  59.975  1.00  0.00     0.004 C 
ENDBRANCH  10  11
ENDBRANCH   9  10
ENDBRANCH   8   9
ENDBRANCH   7   8
ENDBRANCH   6   7
ENDBRANCH   5   6
ENDBRANCH   4   5
ENDBRANCH   3   4
ENDBRANCH   2   3
ENDBRANCH   1   2
BRANCH   1  13
ATOM     13  C   UNL     1      25.338  19.676  56.938  1.00  0.00     0.000 C 
BRANCH  13  14
ATOM     14  C   UNL     1      24.081  18.794  57.051  1.00  0.00     0.000 C 
BRANCH  14  15
ATOM     15  C   UNL     1      23.942  17.822  55.860  1.00  0.00     0.000 C 
BRANCH  15  16
ATOM     16  C   UNL     1      22.892  18.261  54.824  1.00  0.00     0.000 C 
BRANCH  16  17
ATOM     17  C   UNL     1      22.883  19.781  54.593  1.00  0.00     0.000 C 
BRANCH  17  18
ATOM     18  C   UNL     1      23.729  20.201  53.381  1.00  0.00     0.000 C 
BRANCH  18  19
ATOM     19  C   UNL     1      23.936  21.724  53.305  1.00  0.00     0.000 C 
BRANCH  19  20
ATOM     20  C   UNL     1      25.415  22.125  53.438  1.00  0.00     0.006 C 
BRANCH  20  21
ATOM     21  C   UNL     1      25.922  22.046  54.884  1.00  0.00     0.053 C 
BRANCH  21  22
ATOM     22  C   UNL     1      27.211  21.289  54.944  1.00  0.00     0.041 C 
ATOM     23  O   UNL     1      27.208  20.030  54.953  1.00  0.00    -0.550 OA
ATOM     24  O   UNL     1      28.417  21.975  55.028  1.00  0.00    -0.550 OA
ENDBRANCH  21  22
ENDBRANCH  20  21
ENDBRANCH  19  20
ENDBRANCH  18  19
ENDBRANCH  17  18
ENDBRANCH  16  17
ENDBRANCH  15  16
ENDBRANCH  14  15
ENDBRANCH  13  14
ENDBRANCH   1  13
TORSDOF 20
ENDMDL
MODEL 2
REMARK VINA RESULT:    -2.172      1.583      2.977
REMARK INTER + INTRA:          -4.874
REMARK INTER:                  -5.420
REMARK INTRA:                   0.546
REMARK UNBOUND:                -0.163
REMARK SMILES CCCCCCCCCCCCCCCCCCCCCC(=O)[O-]
REMARK SMILES IDX 12 1 11 2 10 3 9 4 8 5 7 6 6 7 5 8 4 9 3 10 2 11 1 12 13 13
REMARK SMILES IDX 14 14 15 15 16 16 17 17 18 18 19 19 20 20 21 21 22 22 23 23
REMARK SMILES IDX 24 24
REMARK H PARENT
REMARK Flexibility Score: inf
ROOT
ATOM      1  C   UNL     1      27.275  21.780  57.641  1.00  0.00     0.000 C 
ENDROOT
BRANCH   1   2
ATOM      2  C   UNL     1      26.726  20.679  58.565  1.00  0.00     0.000 C 
BRANCH   2   3
ATOM      3  C   UNL     1      27.272  20.776  59.998  1.00  0.00     0.000 C 
BRANCH   3   4
ATOM      4  C   UNL     1      26.204  21.215  61.015  1.00  0.00    -0.000 C 
BRANCH   4   5
ATOM      5  C   UNL     1      26.773  22.119  62.125  1.00  0.00    -0.000 C 
BRANCH   5   6
ATOM      6  C   UNL     1      26.868  21.469  63.522  1.00  0.00    -0.000 C 
BRANCH   6   7
ATOM      7  C   UNL     1      25.522  21.266  64.243  1.00  0.00    -0.000 C 
BRANCH   7   8
ATOM      8  C   UNL     1      24.385  22.094  63.628  1.00  0.00    -0.000 C 
BRANCH   8   9
ATOM      9  C   UNL     1      23.570  21.254  62.633  1.00  0.00    -0.000 C 
BRANCH   9  10
ATOM     10  C   UNL     1      22.885  22.125  61.558  1.00  0.00    -0.000 C 
BRANCH  10  11
ATOM     11  C   UNL     1      23.553  22.033  60.178  1.00  0.00    -0.003 C 
ATOM     12  C   UNL     1      22.954  20.940  59.295  1.00  0.00     0.004 C 
ENDBRANCH  10  11
ENDBRANCH   9  10
ENDBRANCH   8   9
ENDBRANCH   7   8
ENDBRANCH   6   7
ENDBRANCH   5   6
ENDBRANCH   4   5
ENDBRANCH   3   4
ENDBRANCH   2   3
ENDBRANCH   1   2
BRANCH   1  13
ATOM     13  C   UNL     1      27.616  21.251  56.238  1.00  0.00     0.000 C 
BRANCH  13  14
ATOM     14  C   UNL     1      26.362  20.877  55.427  1.00  0.00     0.000 C 
BRANCH  14  15
ATOM     15  C   UNL     1      25.443  22.093  55.181  1.00  0.00     0.000 C 
BRANCH  15  16
ATOM     16  C   UNL     1      24.063  21.968  55.849  1.00  0.00     0.000 C 
BRANCH  16  17
ATOM     17  C   UNL     1      22.917  21.843  54.831  1.00  0.00     0.000 C 
BRANCH  17  18
ATOM     18  C   UNL     1      23.378  21.253  53.489  1.00  0.00     0.000 C 
BRANCH  18  19
ATOM     19  C   UNL     1      24.123  19.917  53.656  1.00  0.00     0.000 C 
BRANCH  19  20
ATOM     20  C   UNL     1      23.222  18.806  54.219  1.00  0.00     0.006 C 
BRANCH  20  21
ATOM     21  C   UNL     1      23.995  17.793  55.073  1.00  0.00     0.053 C 
BRANCH  21  22
ATOM     22  C   UNL     1      24.013  18.224  56.506  1.00  0.00     0.041 C 
ATOM     23  O   UNL     1      25.036  18.775  56.990  1.00  0.00    -0.550 OA
ATOM     24  O   UNL     1      22.910  17.984  57.318  1.00  0.00    -0.550 OA
ENDBRANCH  21  22
ENDBRANCH  20  21
ENDBRANCH  19  20
ENDBRANCH  18  19
ENDBRANCH  17  18
ENDBRANCH  16  17
ENDBRANCH  15  16
ENDBRANCH  14  15
ENDBRANCH  13  14
ENDBRANCH   1  13
TORSDOF 20
ENDMDL
MODEL 3
REMARK VINA RESULT:    -2.151      2.079      3.762
REMARK INTER + INTRA:          -4.828
REMARK INTER:                  -3.187
REMARK INTRA:                  -1.641
REMARK UNBOUND:                -0.163
REMARK SMILES CCCCCCCCCCCCCCCCCCCCCC(=O)[O-]
REMARK SMILES IDX 12 1 11 2 10 3 9 4 8 5 7 6 6 7 5 8 4 9 3 10 2 11 1 12 13 13
REMARK SMILES IDX 14 14 15 15 16 16 17 17 18 18 19 19 20 20 21 21 22 22 23 23
REMARK SMILES IDX 24 24
REMARK H PARENT
REMARK Flexibility Score: inf
ROOT
ATOM      1  C   UNL     1      26.974  20.130  58.274  1.00  0.00     0.000 C 
ENDROOT
BRANCH   1   2
ATOM      2  C   UNL     1      27.145  21.211  59.357  1.00  0.00     0.000 C 
BRANCH   2   3
ATOM      3  C   UNL     1      25.823  21.903  59.724  1.00  0.00     0.000 C 
BRANCH   3   4
ATOM      4  C   UNL     1      24.601  21.239  59.066  1.00  0.00    -0.000 C 
BRANCH   4   5
ATOM      5  C   UNL     1      23.296  21.482  59.849  1.00  0.00    -0.000 C 
BRANCH   5   6
ATOM      6  C   UNL     1      23.471  22.124  61.241  1.00  0.00    -0.000 C 
BRANCH   6   7
ATOM      7  C   UNL     1      24.200  21.249  62.279  1.00  0.00    -0.000 C 
BRANCH   7   8
ATOM      8  C   UNL     1      25.231  22.034  63.102  1.00  0.00    -0.000 C 
BRANCH   8   9
ATOM      9  C   UNL     1      26.488  21.190  63.358  1.00  0.00    -0.000 C 
BRANCH   9  10
ATOM     10  C   UNL     1      26.211  19.677  63.231  1.00  0.00    -0.000 C 
BRANCH  10  11
ATOM     11  C   UNL     1      25.804  19.015  64.557  1.00  0.00    -0.003 C 
ATOM     12  C   UNL     1      25.806  17.490  64.490  1.00  0.00     0.004 C 
ENDBRANCH  10  11
ENDBRANCH   9  10
ENDBRANCH   8   9
ENDBRANCH   7   8
ENDBRANCH   6   7
ENDBRANCH   5   6
ENDBRANCH   4   5
ENDBRANCH   3   4
ENDBRANCH   2   3
ENDBRANCH   1   2
BRANCH   1  13
ATOM     13  C   UNL     1      27.632  20.525  56.942  1.00  0.00     0.000 C 
BRANCH  13  14
ATOM     14  C   UNL     1      26.757  20.173  55.725  1.00  0.00     0.000 C 
BRANCH  14  15
ATOM     15  C   UNL     1      26.799  21.272  54.641  1.00  0.00     0.000 C 
BRANCH  15  16
ATOM     16  C   UNL     1      25.520  22.125  54.578  1.00  0.00     0.000 C 
BRANCH  16  17
ATOM     17  C   UNL     1      24.441  21.654  55.567  1.00  0.00     0.000 C 
BRANCH  17  18
ATOM     18  C   UNL     1      23.076  21.432  54.894  1.00  0.00     0.000 C 
BRANCH  18  19
ATOM     19  C   UNL     1      23.202  20.783  53.504  1.00  0.00     0.000 C 
BRANCH  19  20
ATOM     20  C   UNL     1      22.952  19.267  53.538  1.00  0.00     0.006 C 
BRANCH  20  21
ATOM     21  C   UNL     1      24.125  18.486  54.145  1.00  0.00     0.053 C 
BRANCH  21  22
ATOM     22  C   UNL     1      23.776  18.004  55.517  1.00  0.00     0.041 C 
ATOM     23  O   UNL     1      24.304  18.534  56.529  1.00  0.00    -0.550 OA
ATOM     24  O   UNL     1      22.894  16.941  55.678  1.00  0.00    -0.550 OA
ENDBRANCH  21  22
ENDBRANCH  20  21
ENDBRANCH  19  20
ENDBRANCH  18  19
ENDBRANCH  17  18
ENDBRANCH  16  17
ENDBRANCH  15  16
ENDBRANCH  14  15
ENDBRANCH  13  14
ENDBRANCH   1  13
TORSDOF 20
ENDMDL
MODEL 4
REMARK VINA RESULT:    -2.033      2.266      7.193
REMARK INTER + INTRA:          -4.574
REMARK INTER:                  -3.808
REMARK INTRA:                  -0.766
REMARK UNBOUND:                -0.163
REMARK SMILES CCCCCCCCCCCCCCCCCCCCCC(=O)[O-]
REMARK SMILES IDX 12 1 11 2 10 3 9 4 8 5 7 6 6 7 5 8 4 9 3 10 2 11 1 12 13 13
REMARK SMILES IDX 14 14 15 15 16 16 17 17 18 18 19 19 20 20 21 21 22 22 23 23
REMARK SMILES IDX 24 24
REMARK H PARENT
REMARK Flexibility Score: inf
ROOT
ATOM      1  C   UNL     1      27.394  21.251  57.997  1.00  0.00     0.000 C 
ENDROOT
BRANCH   1   2
ATOM      2  C   UNL     1      27.886  21.883  56.683  1.00  0.00     0.000 C 
BRANCH   2   3
ATOM      3  C   UNL     1      27.450  21.091  55.440  1.00  0.00     0.000 C 
BRANCH   3   4
ATOM      4  C   UNL     1      25.948  21.232  55.140  1.00  0.00    -0.000 C 
BRANCH   4   5
ATOM      5  C   UNL     1      25.668  22.066  53.875  1.00  0.00    -0.000 C 
BRANCH   5   6
ATOM      6  C   UNL     1      24.660  21.446  52.885  1.00  0.00    -0.000 C 
BRANCH   6   7
ATOM      7  C   UNL     1      24.286  19.978  53.163  1.00  0.00    -0.000 C 
BRANCH   7   8
ATOM      8  C   UNL     1      23.223  19.831  54.260  1.00  0.00    -0.000 C 
BRANCH   8   9
ATOM      9  C   UNL     1      23.005  18.354  54.621  1.00  0.00    -0.000 C 
BRANCH   9  10
ATOM     10  C   UNL     1      23.007  18.119  56.146  1.00  0.00    -0.000 C 
BRANCH  10  11
ATOM     11  C   UNL     1      23.957  19.055  56.909  1.00  0.00    -0.003 C 
ATOM     12  C   UNL     1      25.413  18.600  56.859  1.00  0.00     0.004 C 
ENDBRANCH  10  11
ENDBRANCH   9  10
ENDBRANCH   8   9
ENDBRANCH   7   8
ENDBRANCH   6   7
ENDBRANCH   5   6
ENDBRANCH   4   5
ENDBRANCH   3   4
ENDBRANCH   2   3
ENDBRANCH   1   2
BRANCH   1  13
ATOM     13  C   UNL     1      26.300  22.089  58.677  1.00  0.00     0.000 C 
BRANCH  13  14
ATOM     14  C   UNL     1      24.966  22.054  57.907  1.00  0.00     0.000 C 
BRANCH  14  15
ATOM     15  C   UNL     1      23.747  22.051  58.854  1.00  0.00     0.000 C 
BRANCH  15  16
ATOM     16  C   UNL     1      24.099  21.707  60.312  1.00  0.00     0.000 C 
BRANCH  16  17
ATOM     17  C   UNL     1      22.876  21.268  61.133  1.00  0.00     0.000 C 
BRANCH  17  18
ATOM     18  C   UNL     1      22.878  21.847  62.557  1.00  0.00     0.000 C 
BRANCH  18  19
ATOM     19  C   UNL     1      24.288  21.896  63.173  1.00  0.00     0.000 C 
BRANCH  19  20
ATOM     20  C   UNL     1      24.658  20.593  63.900  1.00  0.00     0.006 C 
BRANCH  20  21
ATOM     21  C   UNL     1      26.141  20.229  63.745  1.00  0.00     0.053 C 
BRANCH  21  22
ATOM     22  C   UNL     1      26.686  20.791  62.470  1.00  0.00     0.041 C 
ATOM     23  O   UNL     1      26.762  20.071  61.441  1.00  0.00    -0.550 OA
ATOM     24  O   UNL     1      27.144  22.103  62.428  1.00  0.00    -0.550 OA
ENDBRANCH  21  22
ENDBRANCH  20  21
ENDBRANCH  19  20
ENDBRANCH  18  19
ENDBRANCH  17  18
ENDBRANCH  16  17
ENDBRANCH  15  16
ENDBRANCH  14  15
ENDBRANCH  13  14
ENDBRANCH   1  13
TORSDOF 20
ENDMDL
MODEL 5
REMARK VINA RESULT:    -1.213      1.335      6.485
REMARK INTER + INTRA:          -2.795
REMARK INTER:                  -3.093
REMARK INTRA:                   0.298
REMARK UNBOUND:                -0.163
REMARK SMILES CCCCCCCCCCCCCCCCCCCCCC(=O)[O-]
REMARK SMILES IDX 12 1 11 2 10 3 9 4 8 5 7 6 6 7 5 8 4 9 3 10 2 11 1 12 13 13
REMARK SMILES IDX 14 14 15 15 16 16 17 17 18 18 19 19 20 20 21 21 22 22 23 23
REMARK SMILES IDX 24 24
REMARK H PARENT
REMARK Flexibility Score: inf
ROOT
ATOM      1  C   UNL     1      24.498  22.057  60.658  1.00  0.00     0.000 C 
ENDROOT
BRANCH   1   2
ATOM      2  C   UNL     1      23.905  21.229  59.504  1.00  0.00     0.000 C 
BRANCH   2   3
ATOM      3  C   UNL     1      23.274  22.102  58.407  1.00  0.00     0.000 C 
BRANCH   3   4
ATOM      4  C   UNL     1      23.953  21.922  57.039  1.00  0.00    -0.000 C 
BRANCH   4   5
ATOM      5  C   UNL     1      22.972  22.075  55.861  1.00  0.00    -0.000 C 
BRANCH   5   6
ATOM      6  C   UNL     1      23.621  22.123  54.462  1.00  0.00    -0.000 C 
BRANCH   6   7
ATOM      7  C   UNL     1      23.373  20.884  53.581  1.00  0.00    -0.000 C 
BRANCH   7   8
ATOM      8  C   UNL     1      22.877  19.673  54.383  1.00  0.00    -0.000 C 
BRANCH   8   9
ATOM      9  C   UNL     1      23.917  18.542  54.372  1.00  0.00    -0.000 C 
BRANCH   9  10
ATOM     10  C   UNL     1      23.906  17.726  55.681  1.00  0.00    -0.000 C 
BRANCH  10  11
ATOM     11  C   UNL     1      24.110  18.584  56.940  1.00  0.00    -0.003 C 
ATOM     12  C   UNL     1      25.581  18.814  57.276  1.00  0.00     0.004 C 
ENDBRANCH  10  11
ENDBRANCH   9  10
ENDBRANCH   8   9
ENDBRANCH   7   8
ENDBRANCH   6   7
ENDBRANCH   5   6
ENDBRANCH   4   5
ENDBRANCH   3   4
ENDBRANCH   2   3
ENDBRANCH   1   2
BRANCH   1  13
ATOM     13  C   UNL     1      23.822  21.754  62.005  1.00  0.00     0.000 C 
BRANCH  13  14
ATOM     14  C   UNL     1      24.226  20.381  62.573  1.00  0.00     0.000 C 
BRANCH  14  15
ATOM     15  C   UNL     1      25.557  20.441  63.352  1.00  0.00     0.000 C 
BRANCH  15  16
ATOM     16  C   UNL     1      26.794  20.597  62.450  1.00  0.00     0.000 C 
BRANCH  16  17
ATOM     17  C   UNL     1      26.999  22.041  61.964  1.00  0.00     0.000 C 
BRANCH  17  18
ATOM     18  C   UNL     1      27.879  22.124  60.706  1.00  0.00     0.000 C 
BRANCH  18  19
ATOM     19  C   UNL     1      27.444  21.130  59.614  1.00  0.00     0.000 C 
BRANCH  19  20
ATOM     20  C   UNL     1      27.544  21.727  58.201  1.00  0.00     0.006 C 
BRANCH  20  21
ATOM     21  C   UNL     1      27.254  20.697  57.102  1.00  0.00     0.053 C 
BRANCH  21  22
ATOM     22  C   UNL     1      27.622  21.248  55.760  1.00  0.00     0.041 C 
ATOM     23  O   UNL     1      26.732  21.707  54.997  1.00  0.00    -0.550 OA
ATOM     24  O   UNL     1      28.945  21.220  55.336  1.00  0.00    -0.550 OA
ENDBRANCH  21  22
ENDBRANCH  20  21
ENDBRANCH  19  20
ENDBRANCH  18  19
ENDBRANCH  17  18
ENDBRANCH  16  17
ENDBRANCH  15  16
ENDBRANCH  14  15
ENDBRANCH  13  14
ENDBRANCH   1  13
TORSDOF 20
ENDMDL
MODEL 6
REMARK VINA RESULT:    -0.933      2.014      3.862
REMARK INTER + INTRA:          -2.187
REMARK INTER:                   0.007
REMARK INTRA:                  -2.194
REMARK UNBOUND:                -0.163
REMARK SMILES CCCCCCCCCCCCCCCCCCCCCC(=O)[O-]
REMARK SMILES IDX 12 1 11 2 10 3 9 4 8 5 7 6 6 7 5 8 4 9 3 10 2 11 1 12 13 13
REMARK SMILES IDX 14 14 15 15 16 16 17 17 18 18 19 19 20 20 21 21 22 22 23 23
REMARK SMILES IDX 24 24
REMARK H PARENT
REMARK Flexibility Score: inf
ROOT
ATOM      1  C   UNL     1      26.626  20.183  58.060  1.00  0.00     0.000 C 
ENDROOT
BRANCH   1   2
ATOM      2  C   UNL     1      25.309  20.689  58.674  1.00  0.00     0.000 C 
BRANCH   2   3
ATOM      3  C   UNL     1      25.451  22.069  59.335  1.00  0.00     0.000 C 
BRANCH   3   4
ATOM      4  C   UNL     1      25.397  22.003  60.871  1.00  0.00    -0.000 C 
BRANCH   4   5
ATOM      5  C   UNL     1      26.789  22.107  61.522  1.00  0.00    -0.000 C 
BRANCH   5   6
ATOM      6  C   UNL     1      26.834  21.817  63.037  1.00  0.00    -0.000 C 
BRANCH   6   7
ATOM      7  C   UNL     1      25.464  21.569  63.697  1.00  0.00    -0.000 C 
BRANCH   7   8
ATOM      8  C   UNL     1      25.143  20.077  63.859  1.00  0.00    -0.000 C 
BRANCH   8   9
ATOM      9  C   UNL     1      26.429  19.246  63.978  1.00  0.00    -0.000 C 
BRANCH   9  10
ATOM     10  C   UNL     1      26.621  18.292  62.781  1.00  0.00    -0.000 C 
BRANCH  10  11
ATOM     11  C   UNL     1      27.771  18.702  61.848  1.00  0.00    -0.003 C 
ATOM     12  C   UNL     1      27.907  17.792  60.630  1.00  0.00     0.004 C 
ENDBRANCH  10  11
ENDBRANCH   9  10
ENDBRANCH   8   9
ENDBRANCH   7   8
ENDBRANCH   6   7
ENDBRANCH   5   6
ENDBRANCH   4   5
ENDBRANCH   3   4
ENDBRANCH   2   3
ENDBRANCH   1   2
BRANCH   1  13
ATOM     13  C   UNL     1      27.687  21.291  57.952  1.00  0.00     0.000 C 
BRANCH  13  14
ATOM     14  C   UNL     1      27.946  21.721  56.496  1.00  0.00     0.000 C 
BRANCH  14  15
ATOM     15  C   UNL     1      26.936  21.089  55.514  1.00  0.00     0.000 C 
BRANCH  15  16
ATOM     16  C   UNL     1      26.143  22.124  54.695  1.00  0.00     0.000 C 
BRANCH  16  17
ATOM     17  C   UNL     1      24.654  21.765  54.565  1.00  0.00     0.000 C 
BRANCH  17  18
ATOM     18  C   UNL     1      23.940  21.696  55.925  1.00  0.00     0.000 C 
BRANCH  18  19
ATOM     19  C   UNL     1      22.890  20.573  55.984  1.00  0.00     0.000 C 
BRANCH  19  20
ATOM     20  C   UNL     1      22.933  19.660  54.747  1.00  0.00     0.006 C 
BRANCH  20  21
ATOM     21  C   UNL     1      22.876  18.170  55.108  1.00  0.00     0.053 C 
BRANCH  21  22
ATOM     22  C   UNL     1      23.529  17.929  56.432  1.00  0.00     0.041 C 
ATOM     23  O   UNL     1      22.893  18.134  57.500  1.00  0.00    -0.550 OA
ATOM     24  O   UNL     1      24.853  17.511  56.489  1.00  0.00    -0.550 OA
ENDBRANCH  21  22
ENDBRANCH  20  21
ENDBRANCH  19  20
ENDBRANCH  18  19
ENDBRANCH  17  18
ENDBRANCH  16  17
ENDBRANCH  15  16
ENDBRANCH  14  15
ENDBRANCH  13  14
ENDBRANCH   1  13
TORSDOF 20
ENDMDL
MODEL 7
REMARK VINA RESULT:    -0.846      1.787      3.549
REMARK INTER + INTRA:          -1.997
REMARK INTER:                  -2.459
REMARK INTRA:                   0.462
REMARK UNBOUND:                -0.163
REMARK SMILES CCCCCCCCCCCCCCCCCCCCCC(=O)[O-]
REMARK SMILES IDX 12 1 11 2 10 3 9 4 8 5 7 6 6 7 5 8 4 9 3 10 2 11 1 12 13 13
REMARK SMILES IDX 14 14 15 15 16 16 17 17 18 18 19 19 20 20 21 21 22 22 23 23
REMARK SMILES IDX 24 24
REMARK H PARENT
REMARK Flexibility Score: inf
ROOT
ATOM      1  C   UNL     1      24.753  22.004  58.658  1.00  0.00     0.000 C 
ENDROOT
BRANCH   1   2
ATOM      2  C   UNL     1      24.668  21.129  59.921  1.00  0.00     0.000 C 
BRANCH   2   3
ATOM      3  C   UNL     1      23.222  20.789  60.315  1.00  0.00     0.000 C 
BRANCH   3   4
ATOM      4  C   UNL     1      22.881  21.215  61.753  1.00  0.00    -0.000 C 
BRANCH   4   5
ATOM      5  C   UNL     1      23.957  22.125  62.377  1.00  0.00    -0.000 C 
BRANCH   5   6
ATOM      6  C   UNL     1      24.334  21.797  63.837  1.00  0.00    -0.000 C 
BRANCH   6   7
ATOM      7  C   UNL     1      25.790  22.116  64.225  1.00  0.00    -0.000 C 
BRANCH   7   8
ATOM      8  C   UNL     1      26.760  20.975  63.888  1.00  0.00    -0.000 C 
BRANCH   8   9
ATOM      9  C   UNL     1      26.520  20.451  62.464  1.00  0.00    -0.000 C 
BRANCH   9  10
ATOM     10  C   UNL     1      27.070  21.412  61.388  1.00  0.00    -0.000 C 
BRANCH  10  11
ATOM     11  C   UNL     1      28.129  20.773  60.478  1.00  0.00    -0.003 C 
ATOM     12  C   UNL     1      28.290  21.499  59.146  1.00  0.00     0.004 C 
ENDBRANCH  10  11
ENDBRANCH   9  10
ENDBRANCH   8   9
ENDBRANCH   7   8
ENDBRANCH   6   7
ENDBRANCH   5   6
ENDBRANCH   4   5
ENDBRANCH   3   4
ENDBRANCH   2   3
ENDBRANCH   1   2
BRANCH   1  13
ATOM     13  C   UNL     1      25.561  21.335  57.534  1.00  0.00     0.000 C 
BRANCH  13  14
ATOM     14  C   UNL     1      25.417  19.802  57.535  1.00  0.00     0.000 C 
BRANCH  14  15
ATOM     15  C   UNL     1      24.702  19.283  56.270  1.00  0.00     0.000 C 
BRANCH  15  16
ATOM     16  C   UNL     1      25.300  19.823  54.958  1.00  0.00     0.000 C 
BRANCH  16  17
ATOM     17  C   UNL     1      25.062  21.331  54.772  1.00  0.00     0.000 C 
BRANCH  17  18
ATOM     18  C   UNL     1      26.275  22.052  54.165  1.00  0.00     0.000 C 
BRANCH  18  19
ATOM     19  C   UNL     1      27.469  22.118  55.134  1.00  0.00     0.000 C 
BRANCH  19  20
ATOM     20  C   UNL     1      28.819  21.954  54.417  1.00  0.00     0.006 C 
BRANCH  20  21
ATOM     21  C   UNL     1      29.915  21.402  55.338  1.00  0.00     0.053 C 
BRANCH  21  22
ATOM     22  C   UNL     1      31.175  21.164  54.567  1.00  0.00     0.041 C 
ATOM     23  O   UNL     1      31.941  22.124  54.291  1.00  0.00    -0.550 OA
ATOM     24  O   UNL     1      31.485  19.885  54.119  1.00  0.00    -0.550 OA
ENDBRANCH  21  22
ENDBRANCH  20  21
ENDBRANCH  19  20
ENDBRANCH  18  19
ENDBRANCH  17  18
ENDBRANCH  16  17
ENDBRANCH  15  16
ENDBRANCH  14  15
ENDBRANCH  13  14
ENDBRANCH   1  13
TORSDOF 20
ENDMDL
MODEL 8
REMARK VINA RESULT:    -0.750      1.884      3.604
REMARK INTER + INTRA:          -1.790
REMARK INTER:                  -1.190
REMARK INTRA:                  -0.599
REMARK UNBOUND:                -0.163
REMARK SMILES CCCCCCCCCCCCCCCCCCCCCC(=O)[O-]
REMARK SMILES IDX 12 1 11 2 10 3 9 4 8 5 7 6 6 7 5 8 4 9 3 10 2 11 1 12 13 13
REMARK SMILES IDX 14 14 15 15 16 16 17 17 18 18 19 19 20 20 21 21 22 22 23 23
REMARK SMILES IDX 24 24
REMARK H PARENT
REMARK Flexibility Score: inf
ROOT
ATOM      1  C   UNL     1      27.364  19.353  56.728  1.00  0.00     0.000 C 
ENDROOT
BRANCH   1   2
ATOM      2  C   UNL     1      27.114  20.225  55.485  1.00  0.00     0.000 C 
BRANCH   2   3
ATOM      3  C   UNL     1      28.083  21.414  55.386  1.00  0.00     0.000 C 
BRANCH   3   4
ATOM      4  C   UNL     1      28.295  22.124  56.734  1.00  0.00    -0.000 C 
BRANCH   4   5
ATOM      5  C   UNL     1      27.031  22.122  57.614  1.00  0.00    -0.000 C 
BRANCH   5   6
ATOM      6  C   UNL     1      27.286  22.090  59.136  1.00  0.00    -0.000 C 
BRANCH   6   7
ATOM      7  C   UNL     1      28.054  20.856  59.646  1.00  0.00    -0.000 C 
BRANCH   7   8
ATOM      8  C   UNL     1      27.624  20.427  61.056  1.00  0.00    -0.000 C 
BRANCH   8   9
ATOM      9  C   UNL     1      26.557  21.377  61.619  1.00  0.00    -0.000 C 
BRANCH   9  10
ATOM     10  C   UNL     1      26.406  21.244  63.149  1.00  0.00    -0.000 C 
BRANCH  10  11
ATOM     11  C   UNL     1      25.200  20.394  63.575  1.00  0.00    -0.003 C 
ATOM     12  C   UNL     1      25.589  18.995  64.043  1.00  0.00     0.004 C 
ENDBRANCH  10  11
ENDBRANCH   9  10
ENDBRANCH   8   9
ENDBRANCH   7   8
ENDBRANCH   6   7
ENDBRANCH   5   6
ENDBRANCH   4   5
ENDBRANCH   3   4
ENDBRANCH   2   3
ENDBRANCH   1   2
BRANCH   1  13
ATOM     13  C   UNL     1      26.087  18.649  57.216  1.00  0.00     0.000 C 
BRANCH  13  14
ATOM     14  C   UNL     1      24.850  19.564  57.161  1.00  0.00     0.000 C 
BRANCH  14  15
ATOM     15  C   UNL     1      24.352  19.955  58.569  1.00  0.00     0.000 C 
BRANCH  15  16
ATOM     16  C   UNL     1      23.003  20.695  58.562  1.00  0.00     0.000 C 
BRANCH  16  17
ATOM     17  C   UNL     1      23.105  22.113  57.976  1.00  0.00     0.000 C 
BRANCH  17  18
ATOM     18  C   UNL     1      23.632  22.121  56.532  1.00  0.00     0.000 C 
BRANCH  18  19
ATOM     19  C   UNL     1      22.877  21.137  55.622  1.00  0.00     0.000 C 
BRANCH  19  20
ATOM     20  C   UNL     1      23.007  21.493  54.132  1.00  0.00     0.006 C 
BRANCH  20  21
ATOM     21  C   UNL     1      24.162  20.754  53.445  1.00  0.00     0.053 C 
BRANCH  21  22
ATOM     22  C   UNL     1      23.947  19.274  53.509  1.00  0.00     0.041 C 
ATOM     23  O   UNL     1      22.931  18.757  52.976  1.00  0.00    -0.550 OA
ATOM     24  O   UNL     1      24.852  18.469  54.191  1.00  0.00    -0.550 OA
ENDBRANCH  21  22
ENDBRANCH  20  21
ENDBRANCH  19  20
ENDBRANCH  18  19
ENDBRANCH  17  18
ENDBRANCH  16  17
ENDBRANCH  15  16
ENDBRANCH  14  15
ENDBRANCH  13  14
ENDBRANCH   1  13
TORSDOF 20
ENDMDL
