MODEL 1
REMARK VINA RESULT:    -4.787      0.000      0.000
REMARK INTER + INTRA:          -7.769
REMARK INTER:                  -7.305
REMARK INTRA:                  -0.464
REMARK UNBOUND:                -0.464
REMARK SMILES O=C([O-])CCCCCCCCC(=O)[O-]
REMARK SMILES IDX 7 1 6 2 5 3 4 4 2 5 1 6 3 7 8 8 9 9 10 10 11 11 12 12 13 13
REMARK SMILES IDX 14 14
REMARK H PARENT
REMARK Flexibility Score: inf
ROOT
ATOM      1  C   UNL     1     116.773 165.303 121.548  1.00  0.00     0.000 C 
ENDROOT
BRANCH   1   2
ATOM      2  C   UNL     1     117.268 165.103 120.106  1.00  0.00     0.000 C 
BRANCH   2   3
ATOM      3  C   UNL     1     117.560 163.628 119.782  1.00  0.00     0.006 C 
BRANCH   3   4
ATOM      4  C   UNL     1     117.498 162.726 121.023  1.00  0.00     0.053 C 
BRANCH   4   5
ATOM      5  C   UNL     1     118.878 162.389 121.491  1.00  0.00     0.041 C 
ATOM      6  O   UNL     1     119.418 161.304 121.149  1.00  0.00    -0.550 OA
ATOM      7  O   UNL     1     119.552 163.251 122.349  1.00  0.00    -0.550 OA
ENDBRANCH   4   5
ENDBRANCH   3   4
ENDBRANCH   2   3
ENDBRANCH   1   2
BRANCH   1   8
ATOM      8  C   UNL     1     115.516 166.184 121.624  1.00  0.00     0.000 C 
BRANCH   8   9
ATOM      9  C   UNL     1     115.550 167.167 122.805  1.00  0.00     0.000 C 
BRANCH   9  10
ATOM     10  C   UNL     1     116.493 166.668 123.907  1.00  0.00     0.006 C 
BRANCH  10  11
ATOM     11  C   UNL     1     115.705 166.036 125.058  1.00  0.00     0.053 C 
BRANCH  11  12
ATOM     12  C   UNL     1     115.523 167.020 126.171  1.00  0.00     0.041 C 
ATOM     13  O   UNL     1     114.371 167.272 126.612  1.00  0.00    -0.550 OA
ATOM     14  O   UNL     1     116.622 167.696 126.687  1.00  0.00    -0.550 OA
ENDBRANCH  11  12
ENDBRANCH  10  11
ENDBRANCH   9  10
ENDBRANCH   8   9
ENDBRANCH   1   8
TORSDOF 9
ENDMDL
MODEL 2
REMARK VINA RESULT:    -4.746     14.231     15.403
REMARK INTER + INTRA:          -7.707
REMARK INTER:                  -6.777
REMARK INTRA:                  -0.930
REMARK UNBOUND:                -0.464
REMARK SMILES O=C([O-])CCCCCCCCC(=O)[O-]
REMARK SMILES IDX 7 1 6 2 5 3 4 4 2 5 1 6 3 7 8 8 9 9 10 10 11 11 12 12 13 13
REMARK SMILES IDX 14 14
REMARK H PARENT
REMARK Flexibility Score: inf
ROOT
ATOM      1  C   UNL     1     122.995 179.402 126.609  1.00  0.00     0.000 C 
ENDROOT
BRANCH   1   2
ATOM      2  C   UNL     1     123.863 178.679 127.654  1.00  0.00     0.000 C 
BRANCH   2   3
ATOM      3  C   UNL     1     123.454 179.018 129.097  1.00  0.00     0.006 C 
BRANCH   3   4
ATOM      4  C   UNL     1     121.937 178.932 129.318  1.00  0.00     0.053 C 
BRANCH   4   5
ATOM      5  C   UNL     1     121.518 177.509 129.510  1.00  0.00     0.041 C 
ATOM      6  O   UNL     1     120.802 176.936 128.646  1.00  0.00    -0.550 OA
ATOM      7  O   UNL     1     121.876 176.828 130.667  1.00  0.00    -0.550 OA
ENDBRANCH   4   5
ENDBRANCH   3   4
ENDBRANCH   2   3
ENDBRANCH   1   2
BRANCH   1   8
ATOM      8  C   UNL     1     122.323 178.431 125.626  1.00  0.00     0.000 C 
BRANCH   8   9
ATOM      9  C   UNL     1     121.060 179.022 124.979  1.00  0.00     0.000 C 
BRANCH   9  10
ATOM     10  C   UNL     1     120.376 180.019 125.921  1.00  0.00     0.006 C 
BRANCH  10  11
ATOM     11  C   UNL     1     119.186 179.373 126.635  1.00  0.00     0.053 C 
BRANCH  11  12
ATOM     12  C   UNL     1     118.119 179.007 125.651  1.00  0.00     0.041 C 
ATOM     13  O   UNL     1     117.512 179.906 125.012  1.00  0.00    -0.550 OA
ATOM     14  O   UNL     1     117.762 177.676 125.476  1.00  0.00    -0.550 OA
ENDBRANCH  11  12
ENDBRANCH  10  11
ENDBRANCH   9  10
ENDBRANCH   8   9
ENDBRANCH   1   8
TORSDOF 9
ENDMDL
MODEL 3
REMARK VINA RESULT:    -4.724     14.074     15.306
REMARK INTER + INTRA:          -7.673
REMARK INTER:                  -6.795
REMARK INTRA:                  -0.878
REMARK UNBOUND:                -0.464
REMARK SMILES O=C([O-])CCCCCCCCC(=O)[O-]
REMARK SMILES IDX 7 1 6 2 5 3 4 4 2 5 1 6 3 7 8 8 9 9 10 10 11 11 12 12 13 13
REMARK SMILES IDX 14 14
REMARK H PARENT
REMARK Flexibility Score: inf
ROOT
ATOM      1  C   UNL     1     121.494 178.263 125.727  1.00  0.00     0.000 C 
ENDROOT
BRANCH   1   2
ATOM      2  C   UNL     1     120.847 179.656 125.815  1.00  0.00     0.000 C 
BRANCH   2   3
ATOM      3  C   UNL     1     119.604 179.672 126.720  1.00  0.00     0.006 C 
BRANCH   3   4
ATOM      4  C   UNL     1     118.325 180.057 125.964  1.00  0.00     0.053 C 
BRANCH   4   5
ATOM      5  C   UNL     1     117.913 178.952 125.042  1.00  0.00     0.041 C 
ATOM      6  O   UNL     1     117.640 179.200 123.838  1.00  0.00    -0.550 OA
ATOM      7  O   UNL     1     117.782 177.656 125.525  1.00  0.00    -0.550 OA
ENDBRANCH   4   5
ENDBRANCH   3   4
ENDBRANCH   2   3
ENDBRANCH   1   2
BRANCH   1   8
ATOM      8  C   UNL     1     122.976 178.274 126.137  1.00  0.00     0.000 C 
BRANCH   8   9
ATOM      9  C   UNL     1     123.323 179.441 127.075  1.00  0.00     0.000 C 
BRANCH   9  10
ATOM     10  C   UNL     1     123.566 178.942 128.504  1.00  0.00     0.006 C 
BRANCH  10  11
ATOM     11  C   UNL     1     122.273 178.979 129.325  1.00  0.00     0.053 C 
BRANCH  11  12
ATOM     12  C   UNL     1     121.791 177.591 129.607  1.00  0.00     0.041 C 
ATOM     13  O   UNL     1     120.654 177.223 129.211  1.00  0.00    -0.550 OA
ATOM     14  O   UNL     1     122.578 176.720 130.350  1.00  0.00    -0.550 OA
ENDBRANCH  11  12
ENDBRANCH  10  11
ENDBRANCH   9  10
ENDBRANCH   8   9
ENDBRANCH   1   8
TORSDOF 9
ENDMDL
MODEL 4
REMARK VINA RESULT:    -4.659     13.255     15.074
REMARK INTER + INTRA:          -7.574
REMARK INTER:                  -6.586
REMARK INTRA:                  -0.988
REMARK UNBOUND:                -0.464
REMARK SMILES O=C([O-])CCCCCCCCC(=O)[O-]
REMARK SMILES IDX 7 1 6 2 5 3 4 4 2 5 1 6 3 7 8 8 9 9 10 10 11 11 12 12 13 13
REMARK SMILES IDX 14 14
REMARK H PARENT
REMARK Flexibility Score: inf
ROOT
ATOM      1  C   UNL     1     119.069 176.056 128.695  1.00  0.00     0.000 C 
ENDROOT
BRANCH   1   2
ATOM      2  C   UNL     1     119.074 176.139 130.231  1.00  0.00     0.000 C 
BRANCH   2   3
ATOM      3  C   UNL     1     120.444 175.790 130.836  1.00  0.00     0.006 C 
BRANCH   3   4
ATOM      4  C   UNL     1     121.439 176.956 130.761  1.00  0.00     0.053 C 
BRANCH   4   5
ATOM      5  C   UNL     1     122.663 176.549 130.002  1.00  0.00     0.041 C 
ATOM      6  O   UNL     1     122.559 175.856 128.955  1.00  0.00    -0.550 OA
ATOM      7  O   UNL     1     123.923 176.892 130.477  1.00  0.00    -0.550 OA
ENDBRANCH   4   5
ENDBRANCH   3   4
ENDBRANCH   2   3
ENDBRANCH   1   2
BRANCH   1   8
ATOM      8  C   UNL     1     119.010 177.440 128.030  1.00  0.00     0.000 C 
BRANCH   8   9
ATOM      9  C   UNL     1     120.217 177.714 127.119  1.00  0.00     0.000 C 
BRANCH   9  10
ATOM     10  C   UNL     1     120.975 178.966 127.576  1.00  0.00     0.006 C 
BRANCH  10  11
ATOM     11  C   UNL     1     122.084 179.330 126.584  1.00  0.00     0.053 C 
BRANCH  11  12
ATOM     12  C   UNL     1     123.424 178.955 127.134  1.00  0.00     0.041 C 
ATOM     13  O   UNL     1     124.148 178.124 126.526  1.00  0.00    -0.550 OA
ATOM     14  O   UNL     1     123.851 179.486 128.344  1.00  0.00    -0.550 OA
ENDBRANCH  11  12
ENDBRANCH  10  11
ENDBRANCH   9  10
ENDBRANCH   8   9
ENDBRANCH   1   8
TORSDOF 9
ENDMDL
MODEL 5
REMARK VINA RESULT:    -4.644     14.352     15.480
REMARK INTER + INTRA:          -7.551
REMARK INTER:                  -6.734
REMARK INTRA:                  -0.817
REMARK UNBOUND:                -0.464
REMARK SMILES O=C([O-])CCCCCCCCC(=O)[O-]
REMARK SMILES IDX 7 1 6 2 5 3 4 4 2 5 1 6 3 7 8 8 9 9 10 10 11 11 12 12 13 13
REMARK SMILES IDX 14 14
REMARK H PARENT
REMARK Flexibility Score: inf
ROOT
ATOM      1  C   UNL     1     123.306 178.450 125.937  1.00  0.00     0.000 C 
ENDROOT
BRANCH   1   2
ATOM      2  C   UNL     1     121.868 178.366 125.398  1.00  0.00     0.000 C 
BRANCH   2   3
ATOM      3  C   UNL     1     120.952 179.450 125.991  1.00  0.00     0.006 C 
BRANCH   3   4
ATOM      4  C   UNL     1     120.070 180.124 124.931  1.00  0.00     0.053 C 
BRANCH   4   5
ATOM      5  C   UNL     1     118.757 179.416 124.818  1.00  0.00     0.041 C 
ATOM      6  O   UNL     1     118.088 179.151 125.851  1.00  0.00    -0.550 OA
ATOM      7  O   UNL     1     118.295 179.002 123.574  1.00  0.00    -0.550 OA
ENDBRANCH   4   5
ENDBRANCH   3   4
ENDBRANCH   2   3
ENDBRANCH   1   2
BRANCH   1   8
ATOM      8  C   UNL     1     123.431 179.396 127.141  1.00  0.00     0.000 C 
BRANCH   8   9
ATOM      9  C   UNL     1     124.124 178.738 128.345  1.00  0.00     0.000 C 
BRANCH   9  10
ATOM     10  C   UNL     1     123.350 179.012 129.640  1.00  0.00     0.006 C 
BRANCH  10  11
ATOM     11  C   UNL     1     121.843 178.842 129.426  1.00  0.00     0.053 C 
BRANCH  11  12
ATOM     12  C   UNL     1     121.451 177.406 129.578  1.00  0.00     0.041 C 
ATOM     13  O   UNL     1     121.312 176.905 130.725  1.00  0.00    -0.550 OA
ATOM     14  O   UNL     1     121.287 176.607 128.453  1.00  0.00    -0.550 OA
ENDBRANCH  11  12
ENDBRANCH  10  11
ENDBRANCH   9  10
ENDBRANCH   8   9
ENDBRANCH   1   8
TORSDOF 9
ENDMDL
MODEL 6
REMARK VINA RESULT:    -4.598     11.419     14.106
REMARK INTER + INTRA:          -7.481
REMARK INTER:                  -6.705
REMARK INTRA:                  -0.776
REMARK UNBOUND:                -0.464
REMARK SMILES O=C([O-])CCCCCCCCC(=O)[O-]
REMARK SMILES IDX 7 1 6 2 5 3 4 4 2 5 1 6 3 7 8 8 9 9 10 10 11 11 12 12 13 13
REMARK SMILES IDX 14 14
REMARK H PARENT
REMARK Flexibility Score: inf
ROOT
ATOM      1  C   UNL     1     118.828 176.205 128.478  1.00  0.00     0.000 C 
ENDROOT
BRANCH   1   2
ATOM      2  C   UNL     1     118.551 176.304 129.988  1.00  0.00     0.000 C 
BRANCH   2   3
ATOM      3  C   UNL     1     119.536 175.469 130.823  1.00  0.00     0.006 C 
BRANCH   3   4
ATOM      4  C   UNL     1     120.262 174.403 129.992  1.00  0.00     0.053 C 
BRANCH   4   5
ATOM      5  C   UNL     1     119.597 173.073 130.154  1.00  0.00     0.041 C 
ATOM      6  O   UNL     1     118.601 172.771 129.444  1.00  0.00    -0.550 OA
ATOM      7  O   UNL     1     120.043 172.184 131.125  1.00  0.00    -0.550 OA
ENDBRANCH   4   5
ENDBRANCH   3   4
ENDBRANCH   2   3
ENDBRANCH   1   2
BRANCH   1   8
ATOM      8  C   UNL     1     119.430 177.498 127.904  1.00  0.00     0.000 C 
BRANCH   8   9
ATOM      9  C   UNL     1     120.966 177.507 127.946  1.00  0.00     0.000 C 
BRANCH   9  10
ATOM     10  C   UNL     1     121.491 178.827 128.524  1.00  0.00     0.006 C 
BRANCH  10  11
ATOM     11  C   UNL     1     122.179 178.601 129.873  1.00  0.00     0.053 C 
BRANCH  11  12
ATOM     12  C   UNL     1     123.577 178.107 129.672  1.00  0.00     0.041 C 
ATOM     13  O   UNL     1     124.276 178.550 128.723  1.00  0.00    -0.550 OA
ATOM     14  O   UNL     1     124.091 177.120 130.503  1.00  0.00    -0.550 OA
ENDBRANCH  11  12
ENDBRANCH  10  11
ENDBRANCH   9  10
ENDBRANCH   8   9
ENDBRANCH   1   8
TORSDOF 9
ENDMDL
MODEL 7
REMARK VINA RESULT:    -4.519     13.904     15.581
REMARK INTER + INTRA:          -7.361
REMARK INTER:                  -6.720
REMARK INTRA:                  -0.641
REMARK UNBOUND:                -0.464
REMARK SMILES O=C([O-])CCCCCCCCC(=O)[O-]
REMARK SMILES IDX 7 1 6 2 5 3 4 4 2 5 1 6 3 7 8 8 9 9 10 10 11 11 12 12 13 13
REMARK SMILES IDX 14 14
REMARK H PARENT
REMARK Flexibility Score: inf
ROOT
ATOM      1  C   UNL     1     123.579 179.067 129.242  1.00  0.00     0.000 C 
ENDROOT
BRANCH   1   2
ATOM      2  C   UNL     1     122.316 178.879 130.100  1.00  0.00     0.000 C 
BRANCH   2   3
ATOM      3  C   UNL     1     122.463 177.742 131.125  1.00  0.00     0.006 C 
BRANCH   3   4
ATOM      4  C   UNL     1     121.297 176.746 131.074  1.00  0.00     0.053 C 
BRANCH   4   5
ATOM      5  C   UNL     1     121.170 176.161 129.703  1.00  0.00     0.041 C 
ATOM      6  O   UNL     1     122.110 175.478 129.215  1.00  0.00    -0.550 OA
ATOM      7  O   UNL     1     120.035 176.410 128.942  1.00  0.00    -0.550 OA
ENDBRANCH   4   5
ENDBRANCH   3   4
ENDBRANCH   2   3
ENDBRANCH   1   2
BRANCH   1   8
ATOM      8  C   UNL     1     123.322 178.805 127.750  1.00  0.00     0.000 C 
BRANCH   8   9
ATOM      9  C   UNL     1     121.860 179.055 127.346  1.00  0.00     0.000 C 
BRANCH   9  10
ATOM     10  C   UNL     1     121.726 179.180 125.823  1.00  0.00     0.006 C 
BRANCH  10  11
ATOM     11  C   UNL     1     120.415 179.873 125.442  1.00  0.00     0.053 C 
BRANCH  11  12
ATOM     12  C   UNL     1     119.961 179.428 124.088  1.00  0.00     0.041 C 
ATOM     13  O   UNL     1     118.772 179.055 123.909  1.00  0.00    -0.550 OA
ATOM     14  O   UNL     1     120.865 179.379 123.033  1.00  0.00    -0.550 OA
ENDBRANCH  11  12
ENDBRANCH  10  11
ENDBRANCH   9  10
ENDBRANCH   8   9
ENDBRANCH   1   8
TORSDOF 9
ENDMDL
MODEL 8
REMARK VINA RESULT:    -4.457     13.352     15.111
REMARK INTER + INTRA:          -7.266
REMARK INTER:                  -6.351
REMARK INTRA:                  -0.915
REMARK UNBOUND:                -0.464
REMARK SMILES O=C([O-])CCCCCCCCC(=O)[O-]
REMARK SMILES IDX 7 1 6 2 5 3 4 4 2 5 1 6 3 7 8 8 9 9 10 10 11 11 12 12 13 13
REMARK SMILES IDX 14 14
REMARK H PARENT
REMARK Flexibility Score: inf
ROOT
ATOM      1  C   UNL     1     123.430 178.255 126.098  1.00  0.00     0.000 C 
ENDROOT
BRANCH   1   2
ATOM      2  C   UNL     1     123.381 179.420 127.100  1.00  0.00     0.000 C 
BRANCH   2   3
ATOM      3  C   UNL     1     123.720 178.979 128.534  1.00  0.00     0.006 C 
BRANCH   3   4
ATOM      4  C   UNL     1     122.474 178.611 129.351  1.00  0.00     0.053 C 
BRANCH   4   5
ATOM      5  C   UNL     1     122.749 177.421 130.214  1.00  0.00     0.041 C 
ATOM      6  O   UNL     1     121.797 176.774 130.725  1.00  0.00    -0.550 OA
ATOM      7  O   UNL     1     124.060 177.053 130.495  1.00  0.00    -0.550 OA
ENDBRANCH   4   5
ENDBRANCH   3   4
ENDBRANCH   2   3
ENDBRANCH   1   2
BRANCH   1   8
ATOM      8  C   UNL     1     122.253 178.277 125.109  1.00  0.00     0.000 C 
BRANCH   8   9
ATOM      9  C   UNL     1     121.173 179.301 125.494  1.00  0.00     0.000 C 
BRANCH   9  10
ATOM     10  C   UNL     1     119.821 178.613 125.717  1.00  0.00     0.006 C 
BRANCH  10  11
ATOM     11  C   UNL     1     119.451 178.598 127.204  1.00  0.00     0.053 C 
BRANCH  11  12
ATOM     12  C   UNL     1     119.349 177.192 127.705  1.00  0.00     0.041 C 
ATOM     13  O   UNL     1     119.011 176.968 128.897  1.00  0.00    -0.550 OA
ATOM     14  O   UNL     1     119.676 176.131 126.870  1.00  0.00    -0.550 OA
ENDBRANCH  11  12
ENDBRANCH  10  11
ENDBRANCH   9  10
ENDBRANCH   8   9
ENDBRANCH   1   8
TORSDOF 9
ENDMDL
MODEL 9
REMARK VINA RESULT:    -4.414     12.734     15.011
REMARK INTER + INTRA:          -7.200
REMARK INTER:                  -6.163
REMARK INTRA:                  -1.037
REMARK UNBOUND:                -0.464
REMARK SMILES O=C([O-])CCCCCCCCC(=O)[O-]
REMARK SMILES IDX 7 1 6 2 5 3 4 4 2 5 1 6 3 7 8 8 9 9 10 10 11 11 12 12 13 13
REMARK SMILES IDX 14 14
REMARK H PARENT
REMARK Flexibility Score: inf
ROOT
ATOM      1  C   UNL     1     122.562 178.494 130.425  1.00  0.00     0.000 C 
ENDROOT
BRANCH   1   2
ATOM      2  C   UNL     1     121.873 177.156 130.746  1.00  0.00     0.000 C 
BRANCH   2   3
ATOM      3  C   UNL     1     120.853 176.745 129.671  1.00  0.00     0.006 C 
BRANCH   3   4
ATOM      4  C   UNL     1     121.287 175.498 128.890  1.00  0.00     0.053 C 
BRANCH   4   5
ATOM      5  C   UNL     1     121.249 175.765 127.418  1.00  0.00     0.041 C 
ATOM      6  O   UNL     1     120.146 175.901 126.826  1.00  0.00    -0.550 OA
ATOM      7  O   UNL     1     122.431 175.815 126.690  1.00  0.00    -0.550 OA
ENDBRANCH   4   5
ENDBRANCH   3   4
ENDBRANCH   2   3
ENDBRANCH   1   2
BRANCH   1   8
ATOM      8  C   UNL     1     122.232 179.003 129.013  1.00  0.00     0.000 C 
BRANCH   8   9
ATOM      9  C   UNL     1     123.448 178.974 128.072  1.00  0.00     0.000 C 
BRANCH   9  10
ATOM     10  C   UNL     1     123.051 179.390 126.651  1.00  0.00     0.006 C 
BRANCH  10  11
ATOM     11  C   UNL     1     121.528 179.380 126.481  1.00  0.00     0.053 C 
BRANCH  11  12
ATOM     12  C   UNL     1     121.154 178.828 125.141  1.00  0.00     0.041 C 
ATOM     13  O   UNL     1     122.021 178.263 124.424  1.00  0.00    -0.550 OA
ATOM     14  O   UNL     1     119.859 178.982 124.663  1.00  0.00    -0.550 OA
ENDBRANCH  11  12
ENDBRANCH  10  11
ENDBRANCH   9  10
ENDBRANCH   8   9
ENDBRANCH   1   8
TORSDOF 9
ENDMDL
