MODEL 1
REMARK VINA RESULT:     0.018      0.000      0.000
REMARK INTER + INTRA:          -0.026
REMARK INTER:                   0.019
REMARK INTRA:                  -0.045
REMARK UNBOUND:                -0.045
REMARK SMILES CC1(C)CC[C@@]2(C(=O)[O-])CC[C@]3(C)C(=CC[C@@H]4[C@@]5(C)CC[C@H](O)C(C)(C)[C@H]5CC[C@@]43C)[C@H]2C1
REMARK SMILES IDX 6 1 5 2 10 3 32 4 4 5 11 6 14 7 33 8 2 9 12 10 15 11 1 12
REMARK SMILES IDX 3 13 13 14 30 15 16 16 17 17 29 18 31 19 18 20 28 21 27 22
REMARK SMILES IDX 20 23 19 24 24 25 21 26 22 27 25 28 26 29 7 30 8 31 9 32
REMARK SMILES IDX 23 33
REMARK H PARENT 23 34
REMARK Flexibility Score: inf
ROOT
ATOM      1  C   UNL     1      -7.979  -6.971   0.478  1.00  0.00     0.017 C 
ATOM      2  C   UNL     1      -7.251  -5.584   0.536  1.00  0.00     0.014 C 
ATOM      3  C   UNL     1      -6.928  -8.099   0.328  1.00  0.00     0.014 C 
ATOM      4  C   UNL     1      -8.854  -7.193   1.758  1.00  0.00     0.028 C 
ATOM      5  C   UNL     1      -8.169  -4.380   0.831  1.00  0.00     0.007 C 
ATOM      6  C   UNL     1      -6.088  -8.328   1.587  1.00  0.00     0.013 C 
ATOM      7  C   UNL     1      -8.055  -7.663   3.009  1.00  0.00    -0.064 C 
ATOM      8  C   UNL     1      -9.787  -5.952   1.962  1.00  0.00     0.015 C 
ATOM      9  C   UNL     1      -9.060  -4.583   2.077  1.00  0.00    -0.035 C 
ATOM     10  C   UNL     1      -6.921  -8.698   2.861  1.00  0.00    -0.006 C 
ATOM     11  C   UNL     1      -8.628  -7.555   4.218  1.00  0.00    -0.027 C 
ATOM     12  C   UNL     1      -8.228  -4.468   3.373  1.00  0.00     0.011 C 
ATOM     13  C   UNL     1     -10.125  -3.463   2.112  1.00  0.00     0.011 C 
ATOM     14  C   UNL     1      -7.629 -10.072   2.610  1.00  0.00     0.017 C 
ATOM     15  C   UNL     1      -5.961  -8.805   4.176  1.00  0.00    -0.020 C 
ATOM     16  C   UNL     1      -7.905  -7.759   5.496  1.00  0.00     0.032 C 
ATOM     17  C   UNL     1      -6.817  -8.875   5.515  1.00  0.00     0.006 C 
ATOM     18  C   UNL     1      -5.030  -7.565   4.307  1.00  0.00     0.008 C 
ATOM     19  C   UNL     1      -5.074 -10.089   4.010  1.00  0.00     0.012 C 
ATOM     20  C   UNL     1      -6.007  -8.809   6.912  1.00  0.00    -0.025 C 
ATOM     21  C   UNL     1      -4.199  -7.508   5.599  1.00  0.00     0.005 C 
ATOM     22  C   UNL     1      -5.009  -7.578   6.926  1.00  0.00     0.003 C 
ATOM     23  C   UNL     1      -5.212 -10.125   7.205  1.00  0.00     0.010 C 
ATOM     24  C   UNL     1      -7.075  -8.684   8.052  1.00  0.00     0.012 C 
ATOM     25  C   UNL     1      -4.051  -7.517   8.205  1.00  0.00    -0.006 C 
ATOM     26  C   UNL     1      -4.346 -10.074   8.478  1.00  0.00     0.033 C 
ATOM     27  C   UNL     1      -3.359  -8.894   8.454  1.00  0.00     0.120 C 
ATOM     28  C   UNL     1      -2.924  -6.463   7.998  1.00  0.00     0.014 C 
ATOM     29  C   UNL     1      -4.829  -7.046   9.473  1.00  0.00     0.014 C 
ENDROOT
BRANCH   1  30
ATOM     30  C   UNL     1      -8.871  -7.063  -0.760  1.00  0.00     0.048 C 
ATOM     31  O   UNL     1      -8.477  -6.583  -1.858  1.00  0.00    -0.550 OA
ATOM     32  O   UNL     1     -10.122  -7.673  -0.723  1.00  0.00    -0.550 OA
ENDBRANCH   1  30
BRANCH  27  33
ATOM     33  O   UNL     1      -2.651  -8.862   9.671  1.00  0.00    -0.393 OA
ATOM     34  H   UNL     1      -2.600  -9.805  10.004  1.00  0.00     0.210 HD
ENDBRANCH  27  33
TORSDOF 2
ENDMDL
MODEL 2
REMARK VINA RESULT:     1.384      1.639      8.099
REMARK INTER + INTRA:           1.460
REMARK INTER:                   1.287
REMARK INTRA:                   0.174
REMARK UNBOUND:                -0.045
REMARK SMILES CC1(C)CC[C@@]2(C(=O)[O-])CC[C@]3(C)C(=CC[C@@H]4[C@@]5(C)CC[C@H](O)C(C)(C)[C@H]5CC[C@@]43C)[C@H]2C1
REMARK SMILES IDX 6 1 5 2 10 3 32 4 4 5 11 6 14 7 33 8 2 9 12 10 15 11 1 12
REMARK SMILES IDX 3 13 13 14 30 15 16 16 17 17 29 18 31 19 18 20 28 21 27 22
REMARK SMILES IDX 20 23 19 24 24 25 21 26 22 27 25 28 26 29 7 30 8 31 9 32
REMARK SMILES IDX 23 33
REMARK H PARENT 23 34
REMARK Flexibility Score: inf
ROOT
ATOM      1  C   UNL     1      -3.566  -8.750   8.065  1.00  0.00     0.017 C 
ATOM      2  C   UNL     1      -2.741  -7.506   7.586  1.00  0.00     0.014 C 
ATOM      3  C   UNL     1      -4.967  -8.289   8.539  1.00  0.00     0.014 C 
ATOM      4  C   UNL     1      -3.689  -9.810   6.918  1.00  0.00     0.028 C 
ATOM      5  C   UNL     1      -1.376  -7.838   6.949  1.00  0.00     0.007 C 
ATOM      6  C   UNL     1      -5.880  -7.826   7.402  1.00  0.00     0.013 C 
ATOM      7  C   UNL     1      -4.785  -9.487   5.860  1.00  0.00    -0.064 C 
ATOM      8  C   UNL     1      -2.261 -10.125   6.357  1.00  0.00     0.015 C 
ATOM      9  C   UNL     1      -1.467  -8.898   5.830  1.00  0.00    -0.035 C 
ATOM     10  C   UNL     1      -6.146  -8.912   6.304  1.00  0.00    -0.006 C 
ATOM     11  C   UNL     1      -4.749 -10.125   4.679  1.00  0.00    -0.027 C 
ATOM     12  C   UNL     1      -2.094  -8.297   4.553  1.00  0.00     0.011 C 
ATOM     13  C   UNL     1      -0.036  -9.358   5.466  1.00  0.00     0.011 C 
ATOM     14  C   UNL     1      -6.918 -10.104   6.962  1.00  0.00     0.017 C 
ATOM     15  C   UNL     1      -7.026  -8.298   5.075  1.00  0.00    -0.020 C 
ATOM     16  C   UNL     1      -5.592  -9.758   3.516  1.00  0.00     0.032 C 
ATOM     17  C   UNL     1      -7.044  -9.282   3.826  1.00  0.00     0.006 C 
ATOM     18  C   UNL     1      -6.438  -6.948   4.570  1.00  0.00     0.008 C 
ATOM     19  C   UNL     1      -8.478  -8.048   5.613  1.00  0.00     0.012 C 
ATOM     20  C   UNL     1      -7.730  -8.737   2.468  1.00  0.00    -0.025 C 
ATOM     21  C   UNL     1      -7.114  -6.373   3.315  1.00  0.00     0.005 C 
ATOM     22  C   UNL     1      -7.150  -7.315   2.077  1.00  0.00     0.003 C 
ATOM     23  C   UNL     1      -9.289  -8.649   2.579  1.00  0.00     0.010 C 
ATOM     24  C   UNL     1      -7.433  -9.796   1.351  1.00  0.00     0.012 C 
ATOM     25  C   UNL     1      -7.876  -6.624   0.831  1.00  0.00    -0.006 C 
ATOM     26  C   UNL     1      -9.981  -8.043   1.343  1.00  0.00     0.033 C 
ATOM     27  C   UNL     1      -9.428  -6.648   1.003  1.00  0.00     0.120 C 
ATOM     28  C   UNL     1      -7.448  -5.132   0.703  1.00  0.00     0.014 C 
ATOM     29  C   UNL     1      -7.454  -7.292  -0.514  1.00  0.00     0.014 C 
ENDROOT
BRANCH   1  30
ATOM     30  C   UNL     1      -2.907  -9.403   9.279  1.00  0.00     0.048 C 
ATOM     31  O   UNL     1      -3.595 -10.108  10.068  1.00  0.00    -0.550 OA
ATOM     32  O   UNL     1      -1.550  -9.252   9.551  1.00  0.00    -0.550 OA
ENDBRANCH   1  30
BRANCH  27  33
ATOM     33  O   UNL     1     -10.048  -6.182  -0.173  1.00  0.00    -0.393 OA
ATOM     34  H   UNL     1      -9.420  -6.371  -0.929  1.00  0.00     0.210 HD
ENDBRANCH  27  33
TORSDOF 2
ENDMDL
