MODEL 1
REMARK VINA RESULT:    -3.980      0.000      0.000
REMARK INTER + INTRA:          -4.652
REMARK INTER:                  -4.445
REMARK INTRA:                  -0.207
REMARK UNBOUND:                -0.207
REMARK SMILES CC(C)c1ccc(C(=O)[O-])cc1
REMARK SMILES IDX 7 1 6 2 11 3 5 4 12 5 4 6 8 7 9 8 10 9 2 10 1 11 3 12
REMARK H PARENT
REMARK Flexibility Score: inf
ROOT
ATOM      1  C   UNL     1     135.333 127.159 120.551  1.00  0.00    -0.003 A 
ATOM      2  C   UNL     1     134.594 128.215 119.992  1.00  0.00     0.010 A 
ATOM      3  C   UNL     1     135.645 126.049 119.749  1.00  0.00     0.010 A 
ATOM      4  C   UNL     1     134.176 128.163 118.659  1.00  0.00     0.004 A 
ATOM      5  C   UNL     1     135.228 125.996 118.416  1.00  0.00     0.004 A 
ATOM      6  C   UNL     1     134.487 127.053 117.856  1.00  0.00    -0.045 A 
ENDROOT
BRANCH   1   7
ATOM      7  C   UNL     1     135.773 127.220 121.962  1.00  0.00     0.071 C 
ATOM      8  O   UNL     1     136.323 128.257 122.418  1.00  0.00    -0.545 OA
ATOM      9  O   UNL     1     135.584 126.131 122.806  1.00  0.00    -0.545 OA
ENDBRANCH   1   7
BRANCH   6  10
ATOM     10  C   UNL     1     134.029 127.009 116.411  1.00  0.00     0.013 C 
ATOM     11  C   UNL     1     134.078 128.402 115.773  1.00  0.00     0.012 C 
ATOM     12  C   UNL     1     132.627 126.398 116.293  1.00  0.00     0.012 C 
ENDBRANCH   6  10
TORSDOF 2
ENDMDL
MODEL 2
REMARK VINA RESULT:    -3.949      1.910      3.025
REMARK INTER + INTRA:          -4.617
REMARK INTER:                  -4.417
REMARK INTRA:                  -0.199
REMARK UNBOUND:                -0.207
REMARK SMILES CC(C)c1ccc(C(=O)[O-])cc1
REMARK SMILES IDX 7 1 6 2 11 3 5 4 12 5 4 6 8 7 9 8 10 9 2 10 1 11 3 12
REMARK H PARENT
REMARK Flexibility Score: inf
ROOT
ATOM      1  C   UNL     1     134.256 126.916 118.290  1.00  0.00    -0.003 A 
ATOM      2  C   UNL     1     133.209 125.982 118.227  1.00  0.00     0.010 A 
ATOM      3  C   UNL     1     134.493 127.749 117.183  1.00  0.00     0.010 A 
ATOM      4  C   UNL     1     132.414 125.883 117.081  1.00  0.00     0.004 A 
ATOM      5  C   UNL     1     133.697 127.650 116.038  1.00  0.00     0.004 A 
ATOM      6  C   UNL     1     132.649 126.714 115.974  1.00  0.00    -0.045 A 
ENDROOT
BRANCH   1   7
ATOM      7  C   UNL     1     135.095 127.017 119.504  1.00  0.00     0.071 C 
ATOM      8  O   UNL     1     134.712 127.698 120.493  1.00  0.00    -0.545 OA
ATOM      9  O   UNL     1     136.319 126.361 119.572  1.00  0.00    -0.545 OA
ENDBRANCH   1   7
BRANCH   6  10
ATOM     10  C   UNL     1     131.778 126.597 114.737  1.00  0.00     0.013 C 
ATOM     11  C   UNL     1     132.521 125.875 113.606  1.00  0.00     0.012 C 
ATOM     12  C   UNL     1     131.277 127.971 114.280  1.00  0.00     0.012 C 
ENDBRANCH   6  10
TORSDOF 2
ENDMDL
MODEL 3
REMARK VINA RESULT:    -3.924      1.647      2.569
REMARK INTER + INTRA:          -4.589
REMARK INTER:                  -4.372
REMARK INTRA:                  -0.217
REMARK UNBOUND:                -0.207
REMARK SMILES CC(C)c1ccc(C(=O)[O-])cc1
REMARK SMILES IDX 7 1 6 2 11 3 5 4 12 5 4 6 8 7 9 8 10 9 2 10 1 11 3 12
REMARK H PARENT
REMARK Flexibility Score: inf
ROOT
ATOM      1  C   UNL     1     134.297 127.591 118.664  1.00  0.00    -0.003 A 
ATOM      2  C   UNL     1     134.527 128.266 117.453  1.00  0.00     0.010 A 
ATOM      3  C   UNL     1     133.498 126.435 118.656  1.00  0.00     0.010 A 
ATOM      4  C   UNL     1     133.972 127.794 116.260  1.00  0.00     0.004 A 
ATOM      5  C   UNL     1     132.943 125.963 117.463  1.00  0.00     0.004 A 
ATOM      6  C   UNL     1     133.173 126.639 116.251  1.00  0.00    -0.045 A 
ENDROOT
BRANCH   1   7
ATOM      7  C   UNL     1     134.886 128.095 119.924  1.00  0.00     0.071 C 
ATOM      8  O   UNL     1     134.838 127.401 120.975  1.00  0.00    -0.545 OA
ATOM      9  O   UNL     1     135.501 129.340 119.966  1.00  0.00    -0.545 OA
ENDBRANCH   1   7
BRANCH   6  10
ATOM     10  C   UNL     1     132.578 126.138 114.949  1.00  0.00     0.013 C 
ATOM     11  C   UNL     1     133.029 127.002 113.766  1.00  0.00     0.012 C 
ATOM     12  C   UNL     1     131.048 126.069 115.030  1.00  0.00     0.012 C 
ENDBRANCH   6  10
TORSDOF 2
ENDMDL
MODEL 4
REMARK VINA RESULT:    -3.920      3.988      5.528
REMARK INTER + INTRA:          -4.585
REMARK INTER:                  -4.379
REMARK INTRA:                  -0.206
REMARK UNBOUND:                -0.207
REMARK SMILES CC(C)c1ccc(C(=O)[O-])cc1
REMARK SMILES IDX 7 1 6 2 11 3 5 4 12 5 4 6 8 7 9 8 10 9 2 10 1 11 3 12
REMARK H PARENT
REMARK Flexibility Score: inf
ROOT
ATOM      1  C   UNL     1     132.865 126.669 116.075  1.00  0.00    -0.003 A 
ATOM      2  C   UNL     1     133.739 127.765 116.177  1.00  0.00     0.010 A 
ATOM      3  C   UNL     1     132.634 125.876 117.212  1.00  0.00     0.010 A 
ATOM      4  C   UNL     1     134.366 128.063 117.390  1.00  0.00     0.004 A 
ATOM      5  C   UNL     1     133.262 126.175 118.425  1.00  0.00     0.004 A 
ATOM      6  C   UNL     1     134.136 127.272 118.527  1.00  0.00    -0.045 A 
ENDROOT
BRANCH   1   7
ATOM      7  C   UNL     1     132.204 126.357 114.790  1.00  0.00     0.071 C 
ATOM      8  O   UNL     1     132.863 125.875 113.830  1.00  0.00    -0.545 OA
ATOM      9  O   UNL     1     130.844 126.592 114.622  1.00  0.00    -0.545 OA
ENDBRANCH   1   7
BRANCH   6  10
ATOM     10  C   UNL     1     134.823 127.607 119.837  1.00  0.00     0.013 C 
ATOM     11  C   UNL     1     135.352 129.046 119.832  1.00  0.00     0.012 C 
ATOM     12  C   UNL     1     135.946 126.608 120.145  1.00  0.00     0.012 C 
ENDBRANCH   6  10
TORSDOF 2
ENDMDL
MODEL 5
REMARK VINA RESULT:    -3.890      0.906      1.959
REMARK INTER + INTRA:          -4.551
REMARK INTER:                  -4.346
REMARK INTRA:                  -0.205
REMARK UNBOUND:                -0.207
REMARK SMILES CC(C)c1ccc(C(=O)[O-])cc1
REMARK SMILES IDX 7 1 6 2 11 3 5 4 12 5 4 6 8 7 9 8 10 9 2 10 1 11 3 12
REMARK H PARENT
REMARK Flexibility Score: inf
ROOT
ATOM      1  C   UNL     1     135.499 126.929 120.155  1.00  0.00    -0.003 A 
ATOM      2  C   UNL     1     135.551 125.930 119.169  1.00  0.00     0.010 A 
ATOM      3  C   UNL     1     134.786 128.111 119.888  1.00  0.00     0.010 A 
ATOM      4  C   UNL     1     134.903 126.106 117.943  1.00  0.00     0.004 A 
ATOM      5  C   UNL     1     134.138 128.287 118.662  1.00  0.00     0.004 A 
ATOM      6  C   UNL     1     134.190 127.287 117.675  1.00  0.00    -0.045 A 
ENDROOT
BRANCH   1   7
ATOM      7  C   UNL     1     136.185 126.738 121.451  1.00  0.00     0.071 C 
ATOM      8  O   UNL     1     135.572 126.929 122.535  1.00  0.00    -0.545 OA
ATOM      9  O   UNL     1     137.518 126.344 121.491  1.00  0.00    -0.545 OA
ENDBRANCH   1   7
BRANCH   6  10
ATOM     10  C   UNL     1     133.492 127.465 116.340  1.00  0.00     0.013 C 
ATOM     11  C   UNL     1     132.489 126.334 116.086  1.00  0.00     0.012 C 
ATOM     12  C   UNL     1     134.505 127.572 115.194  1.00  0.00     0.012 C 
ENDBRANCH   6  10
TORSDOF 2
ENDMDL
MODEL 6
REMARK VINA RESULT:    -3.884      4.451      6.195
REMARK INTER + INTRA:          -4.545
REMARK INTER:                  -4.338
REMARK INTRA:                  -0.207
REMARK UNBOUND:                -0.207
REMARK SMILES CC(C)c1ccc(C(=O)[O-])cc1
REMARK SMILES IDX 7 1 6 2 11 3 5 4 12 5 4 6 8 7 9 8 10 9 2 10 1 11 3 12
REMARK H PARENT
REMARK Flexibility Score: inf
ROOT
ATOM      1  C   UNL     1     133.025 126.997 114.786  1.00  0.00    -0.003 A 
ATOM      2  C   UNL     1     132.392 126.155 115.716  1.00  0.00     0.010 A 
ATOM      3  C   UNL     1     134.046 127.854 115.230  1.00  0.00     0.010 A 
ATOM      4  C   UNL     1     132.773 126.168 117.060  1.00  0.00     0.004 A 
ATOM      5  C   UNL     1     134.427 127.867 116.575  1.00  0.00     0.004 A 
ATOM      6  C   UNL     1     133.793 127.024 117.506  1.00  0.00    -0.045 A 
ENDROOT
BRANCH   1   7
ATOM      7  C   UNL     1     132.618 126.980 113.364  1.00  0.00     0.071 C 
ATOM      8  O   UNL     1     132.220 125.913 112.825  1.00  0.00    -0.545 OA
ATOM      9  O   UNL     1     132.670 128.141 112.602  1.00  0.00    -0.545 OA
ENDBRANCH   1   7
BRANCH   6  10
ATOM     10  C   UNL     1     134.197 127.028 118.968  1.00  0.00     0.013 C 
ATOM     11  C   UNL     1     134.466 128.455 119.463  1.00  0.00     0.012 C 
ATOM     12  C   UNL     1     135.410 126.122 119.211  1.00  0.00     0.012 C 
ENDBRANCH   6  10
TORSDOF 2
ENDMDL
MODEL 7
REMARK VINA RESULT:    -3.774      3.037      4.944
REMARK INTER + INTRA:          -4.422
REMARK INTER:                  -4.220
REMARK INTRA:                  -0.201
REMARK UNBOUND:                -0.207
REMARK SMILES CC(C)c1ccc(C(=O)[O-])cc1
REMARK SMILES IDX 7 1 6 2 11 3 5 4 12 5 4 6 8 7 9 8 10 9 2 10 1 11 3 12
REMARK H PARENT
REMARK Flexibility Score: inf
ROOT
ATOM      1  C   UNL     1     134.262 126.904 117.915  1.00  0.00    -0.003 A 
ATOM      2  C   UNL     1     134.124 128.072 118.683  1.00  0.00     0.010 A 
ATOM      3  C   UNL     1     135.192 125.931 118.319  1.00  0.00     0.010 A 
ATOM      4  C   UNL     1     134.899 128.264 119.830  1.00  0.00     0.004 A 
ATOM      5  C   UNL     1     135.967 126.122 119.466  1.00  0.00     0.004 A 
ATOM      6  C   UNL     1     135.830 127.292 120.235  1.00  0.00    -0.045 A 
ENDROOT
BRANCH   1   7
ATOM      7  C   UNL     1     133.439 126.706 116.702  1.00  0.00     0.071 C 
ATOM      8  O   UNL     1     133.829 127.143 115.586  1.00  0.00    -0.545 OA
ATOM      9  O   UNL     1     132.225 126.034 116.775  1.00  0.00    -0.545 OA
ENDBRANCH   1   7
BRANCH   6  10
ATOM     10  C   UNL     1     136.664 127.512 121.482  1.00  0.00     0.013 C 
ATOM     11  C   UNL     1     138.063 126.904 121.326  1.00  0.00     0.012 C 
ATOM     12  C   UNL     1     135.958 126.960 122.726  1.00  0.00     0.012 C 
ENDBRANCH   6  10
TORSDOF 2
ENDMDL
MODEL 8
REMARK VINA RESULT:    -3.772      2.983      4.552
REMARK INTER + INTRA:          -4.420
REMARK INTER:                  -4.209
REMARK INTRA:                  -0.211
REMARK UNBOUND:                -0.207
REMARK SMILES CC(C)c1ccc(C(=O)[O-])cc1
REMARK SMILES IDX 7 1 6 2 11 3 5 4 12 5 4 6 8 7 9 8 10 9 2 10 1 11 3 12
REMARK H PARENT
REMARK Flexibility Score: inf
ROOT
ATOM      1  C   UNL     1     133.563 126.894 116.573  1.00  0.00    -0.003 A 
ATOM      2  C   UNL     1     132.359 126.170 116.582  1.00  0.00     0.010 A 
ATOM      3  C   UNL     1     134.066 127.362 115.347  1.00  0.00     0.010 A 
ATOM      4  C   UNL     1     131.672 125.920 115.391  1.00  0.00     0.004 A 
ATOM      5  C   UNL     1     133.378 127.112 114.156  1.00  0.00     0.004 A 
ATOM      6  C   UNL     1     132.173 126.387 114.165  1.00  0.00    -0.045 A 
ENDROOT
BRANCH   1   7
ATOM      7  C   UNL     1     134.288 127.156 117.836  1.00  0.00     0.071 C 
ATOM      8  O   UNL     1     134.049 128.195 118.508  1.00  0.00    -0.545 OA
ATOM      9  O   UNL     1     135.242 126.258 118.300  1.00  0.00    -0.545 OA
ENDBRANCH   1   7
BRANCH   6  10
ATOM     10  C   UNL     1     131.416 126.110 112.880  1.00  0.00     0.013 C 
ATOM     11  C   UNL     1     131.967 126.950 111.721  1.00  0.00     0.012 C 
ATOM     12  C   UNL     1     129.911 126.340 113.061  1.00  0.00     0.012 C 
ENDBRANCH   6  10
TORSDOF 2
ENDMDL
MODEL 9
REMARK VINA RESULT:    -3.762      3.050      5.204
REMARK INTER + INTRA:          -4.409
REMARK INTER:                  -4.206
REMARK INTRA:                  -0.203
REMARK UNBOUND:                -0.207
REMARK SMILES CC(C)c1ccc(C(=O)[O-])cc1
REMARK SMILES IDX 7 1 6 2 11 3 5 4 12 5 4 6 8 7 9 8 10 9 2 10 1 11 3 12
REMARK H PARENT
REMARK Flexibility Score: inf
ROOT
ATOM      1  C   UNL     1     134.192 126.911 117.909  1.00  0.00    -0.003 A 
ATOM      2  C   UNL     1     135.042 125.892 118.372  1.00  0.00     0.010 A 
ATOM      3  C   UNL     1     134.102 128.107 118.641  1.00  0.00     0.010 A 
ATOM      4  C   UNL     1     135.787 126.066 119.541  1.00  0.00     0.004 A 
ATOM      5  C   UNL     1     134.848 128.281 119.811  1.00  0.00     0.004 A 
ATOM      6  C   UNL     1     135.699 127.261 120.274  1.00  0.00    -0.045 A 
ENDROOT
BRANCH   1   7
ATOM      7  C   UNL     1     133.404 126.722 116.671  1.00  0.00     0.071 C 
ATOM      8  O   UNL     1     132.291 126.132 116.704  1.00  0.00    -0.545 OA
ATOM      9  O   UNL     1     133.881 127.194 115.454  1.00  0.00    -0.545 OA
ENDBRANCH   1   7
BRANCH   6  10
ATOM     10  C   UNL     1     136.514 127.437 121.541  1.00  0.00     0.013 C 
ATOM     11  C   UNL     1     137.956 126.954 121.342  1.00  0.00     0.012 C 
ATOM     12  C   UNL     1     135.853 126.726 122.729  1.00  0.00     0.012 C 
ENDBRANCH   6  10
TORSDOF 2
ENDMDL
