MODEL 1
REMARK VINA RESULT:    -3.758      0.000      0.000
REMARK INTER + INTRA:          -5.933
REMARK INTER:                  -5.076
REMARK INTRA:                  -0.857
REMARK UNBOUND:                -0.857
REMARK SMILES CC[C@@H](CC[C@@H](C)[C@@H]1CC[C@@H]2[C@H]3CC(=O)C4=CC(=O)CC[C@@]4(C)[C@@H]3CC[C@@]21C)C(C)C
REMARK SMILES IDX 4 1 3 2 2 3 1 4 29 5 30 6 31 7 5 8 6 9 7 10 8 11 9 12 27 13
REMARK SMILES IDX 10 14 11 15 26 16 28 17 12 18 25 19 24 20 13 21 22 22 14 23
REMARK SMILES IDX 16 24 21 25 23 26 15 27 17 28 20 29 18 30 19 31
REMARK H PARENT
REMARK Flexibility Score: inf
ROOT
ATOM      1  C   UNL     1     -22.829  11.198 -29.836  1.00  0.00     0.004 C 
ENDROOT
BRANCH   1   2
ATOM      2  C   UNL     1     -24.078  11.531 -28.951  1.00  0.00    -0.009 C 
BRANCH   2   3
ATOM      3  C   UNL     1     -24.691  10.269 -28.274  1.00  0.00     0.000 C 
ATOM      4  C   UNL     1     -25.887  10.532 -27.349  1.00  0.00     0.004 C 
ENDBRANCH   2   3
BRANCH   2   5
ATOM      5  C   UNL     1     -25.133  12.512 -29.573  1.00  0.00    -0.014 C 
ATOM      6  C   UNL     1     -24.456  13.789 -30.108  1.00  0.00     0.007 C 
ATOM      7  C   UNL     1     -25.916  11.867 -30.733  1.00  0.00     0.007 C 
ENDBRANCH   2   5
ENDBRANCH   1   2
BRANCH   1   8
ATOM      8  C   UNL     1     -21.421  11.208 -29.186  1.00  0.00     0.004 C 
BRANCH   8   9
ATOM      9  C   UNL     1     -20.349  12.068 -29.910  1.00  0.00    -0.011 C 
ATOM     10  C   UNL     1     -20.847  13.514 -30.106  1.00  0.00     0.008 C 
BRANCH   9  11
ATOM     11  C   UNL     1     -18.892  12.047 -29.297  1.00  0.00    -0.002 C 
ATOM     12  C   UNL     1     -18.585  13.189 -28.318  1.00  0.00     0.005 C 
ATOM     13  C   UNL     1     -17.601  11.915 -30.177  1.00  0.00    -0.026 C 
ATOM     14  C   UNL     1     -17.061  13.251 -28.198  1.00  0.00     0.005 C 
ATOM     15  C   UNL     1     -16.496  12.150 -29.112  1.00  0.00    -0.001 C 
ATOM     16  C   UNL     1     -17.535  13.004 -31.304  1.00  0.00     0.007 C 
ATOM     17  C   UNL     1     -17.470  10.481 -30.762  1.00  0.00     0.012 C 
ATOM     18  C   UNL     1     -15.053  12.477 -29.640  1.00  0.00     0.004 C 
ATOM     19  C   UNL     1     -16.161  13.654 -31.559  1.00  0.00     0.005 C 
ATOM     20  C   UNL     1     -14.986  12.744 -31.169  1.00  0.00     0.003 C 
ATOM     21  C   UNL     1     -14.060  11.367 -29.265  1.00  0.00     0.085 C 
ATOM     22  C   UNL     1     -13.568  13.268 -31.633  1.00  0.00    -0.000 C 
ATOM     23  C   UNL     1     -12.678  11.703 -29.734  1.00  0.00     0.159 C 
ATOM     24  C   UNL     1     -12.470  12.368 -31.046  1.00  0.00     0.005 C 
ATOM     25  C   UNL     1     -13.483  13.215 -33.194  1.00  0.00     0.020 C 
ATOM     26  C   UNL     1     -13.309  14.723 -31.158  1.00  0.00     0.017 C 
ATOM     27  O   UNL     1     -11.692  11.349 -29.033  1.00  0.00    -0.295 OA
ATOM     28  C   UNL     1     -11.283  12.223 -31.669  1.00  0.00     0.055 C 
ATOM     29  C   UNL     1     -12.087  13.545 -33.737  1.00  0.00     0.081 C 
ATOM     30  C   UNL     1     -11.022  12.800 -32.996  1.00  0.00     0.156 C 
ATOM     31  O   UNL     1      -9.876  12.684 -33.506  1.00  0.00    -0.295 OA
ENDBRANCH   9  11
ENDBRANCH   8   9
ENDBRANCH   1   8
TORSDOF 6
ENDMDL
MODEL 2
REMARK VINA RESULT:    -3.397      1.561      2.281
REMARK INTER + INTRA:          -5.445
REMARK INTER:                  -4.507
REMARK INTRA:                  -0.938
REMARK UNBOUND:                -0.857
REMARK SMILES CC[C@@H](CC[C@@H](C)[C@@H]1CC[C@@H]2[C@H]3CC(=O)C4=CC(=O)CC[C@@]4(C)[C@@H]3CC[C@@]21C)C(C)C
REMARK SMILES IDX 4 1 3 2 2 3 1 4 29 5 30 6 31 7 5 8 6 9 7 10 8 11 9 12 27 13
REMARK SMILES IDX 10 14 11 15 26 16 28 17 12 18 25 19 24 20 13 21 22 22 14 23
REMARK SMILES IDX 16 24 21 25 23 26 15 27 17 28 20 29 18 30 19 31
REMARK H PARENT
REMARK Flexibility Score: inf
ROOT
ATOM      1  C   UNL     1     -22.678  11.263 -29.850  1.00  0.00     0.004 C 
ENDROOT
BRANCH   1   2
ATOM      2  C   UNL     1     -24.112  11.327 -29.224  1.00  0.00    -0.009 C 
BRANCH   2   3
ATOM      3  C   UNL     1     -24.524   9.999 -28.522  1.00  0.00     0.000 C 
ATOM      4  C   UNL     1     -25.099  10.151 -27.107  1.00  0.00     0.004 C 
ENDBRANCH   2   3
BRANCH   2   5
ATOM      5  C   UNL     1     -25.235  11.965 -30.116  1.00  0.00    -0.014 C 
ATOM      6  C   UNL     1     -26.229  10.895 -30.608  1.00  0.00     0.007 C 
ATOM      7  C   UNL     1     -26.035  13.046 -29.363  1.00  0.00     0.007 C 
ENDBRANCH   2   5
ENDBRANCH   1   2
BRANCH   1   8
ATOM      8  C   UNL     1     -21.697  10.159 -29.375  1.00  0.00     0.004 C 
BRANCH   8   9
ATOM      9  C   UNL     1     -20.846  10.505 -28.123  1.00  0.00    -0.011 C 
ATOM     10  C   UNL     1     -21.455   9.875 -26.855  1.00  0.00     0.008 C 
BRANCH   9  11
ATOM     11  C   UNL     1     -19.296  10.209 -28.216  1.00  0.00    -0.002 C 
ATOM     12  C   UNL     1     -18.559  10.182 -26.870  1.00  0.00     0.005 C 
ATOM     13  C   UNL     1     -18.338  10.989 -29.182  1.00  0.00    -0.026 C 
ATOM     14  C   UNL     1     -17.072  10.330 -27.193  1.00  0.00     0.005 C 
ATOM     15  C   UNL     1     -16.957  10.448 -28.723  1.00  0.00    -0.001 C 
ATOM     16  C   UNL     1     -18.427  12.542 -28.982  1.00  0.00     0.007 C 
ATOM     17  C   UNL     1     -18.593  10.589 -30.663  1.00  0.00     0.012 C 
ATOM     18  C   UNL     1     -15.687  11.254 -29.179  1.00  0.00     0.004 C 
ATOM     19  C   UNL     1     -17.098  13.323 -29.015  1.00  0.00     0.005 C 
ATOM     20  C   UNL     1     -16.011  12.620 -29.843  1.00  0.00     0.003 C 
ATOM     21  C   UNL     1     -14.807  10.418 -30.119  1.00  0.00     0.085 C 
ATOM     22  C   UNL     1     -14.718  13.492 -30.103  1.00  0.00    -0.000 C 
ATOM     23  C   UNL     1     -13.578  11.174 -30.517  1.00  0.00     0.159 C 
ATOM     24  C   UNL     1     -13.648  12.632 -30.792  1.00  0.00     0.005 C 
ATOM     25  C   UNL     1     -15.082  14.690 -31.040  1.00  0.00     0.020 C 
ATOM     26  C   UNL     1     -14.121  14.043 -28.780  1.00  0.00     0.017 C 
ATOM     27  O   UNL     1     -12.499  10.543 -30.685  1.00  0.00    -0.295 OA
ATOM     28  C   UNL     1     -12.719  13.190 -31.594  1.00  0.00     0.055 C 
ATOM     29  C   UNL     1     -13.861  15.503 -31.488  1.00  0.00     0.081 C 
ATOM     30  C   UNL     1     -12.756  14.613 -31.961  1.00  0.00     0.156 C 
ATOM     31  O   UNL     1     -11.829  15.095 -32.666  1.00  0.00    -0.295 OA
ENDBRANCH   9  11
ENDBRANCH   8   9
ENDBRANCH   1   8
TORSDOF 6
ENDMDL
MODEL 3
REMARK VINA RESULT:    -3.233      1.651      2.622
REMARK INTER + INTRA:          -5.224
REMARK INTER:                  -4.420
REMARK INTRA:                  -0.804
REMARK UNBOUND:                -0.857
REMARK SMILES CC[C@@H](CC[C@@H](C)[C@@H]1CC[C@@H]2[C@H]3CC(=O)C4=CC(=O)CC[C@@]4(C)[C@@H]3CC[C@@]21C)C(C)C
REMARK SMILES IDX 4 1 3 2 2 3 1 4 29 5 30 6 31 7 5 8 6 9 7 10 8 11 9 12 27 13
REMARK SMILES IDX 10 14 11 15 26 16 28 17 12 18 25 19 24 20 13 21 22 22 14 23
REMARK SMILES IDX 16 24 21 25 23 26 15 27 17 28 20 29 18 30 19 31
REMARK H PARENT
REMARK Flexibility Score: inf
ROOT
ATOM      1  C   UNL     1     -23.584   9.875 -29.418  1.00  0.00     0.004 C 
ENDROOT
BRANCH   1   2
ATOM      2  C   UNL     1     -24.659  10.955 -29.781  1.00  0.00    -0.009 C 
BRANCH   2   3
ATOM      3  C   UNL     1     -24.516  12.256 -28.936  1.00  0.00     0.000 C 
ATOM      4  C   UNL     1     -24.721  13.568 -29.706  1.00  0.00     0.004 C 
ENDBRANCH   2   3
BRANCH   2   5
ATOM      5  C   UNL     1     -26.134  10.444 -29.942  1.00  0.00    -0.014 C 
ATOM      6  C   UNL     1     -26.993  10.832 -28.722  1.00  0.00     0.007 C 
ATOM      7  C   UNL     1     -26.814  11.012 -31.203  1.00  0.00     0.007 C 
ENDBRANCH   2   5
ENDBRANCH   1   2
BRANCH   1   8
ATOM      8  C   UNL     1     -22.083  10.202 -29.640  1.00  0.00     0.004 C 
BRANCH   8   9
ATOM      9  C   UNL     1     -21.262  10.509 -28.358  1.00  0.00    -0.011 C 
ATOM     10  C   UNL     1     -21.924   9.875 -27.118  1.00  0.00     0.008 C 
BRANCH   9  11
ATOM     11  C   UNL     1     -19.718  10.178 -28.410  1.00  0.00    -0.002 C 
ATOM     12  C   UNL     1     -19.035  10.053 -27.040  1.00  0.00     0.005 C 
ATOM     13  C   UNL     1     -18.703  10.986 -29.290  1.00  0.00    -0.026 C 
ATOM     14  C   UNL     1     -17.533  10.180 -27.297  1.00  0.00     0.005 C 
ATOM     15  C   UNL     1     -17.355  10.383 -28.812  1.00  0.00    -0.001 C 
ATOM     16  C   UNL     1     -18.763  12.527 -29.004  1.00  0.00     0.007 C 
ATOM     17  C   UNL     1     -18.909  10.680 -30.801  1.00  0.00     0.012 C 
ATOM     18  C   UNL     1     -16.049  11.179 -29.171  1.00  0.00     0.004 C 
ATOM     19  C   UNL     1     -17.415  13.272 -28.940  1.00  0.00     0.005 C 
ATOM     20  C   UNL     1     -16.314  12.590 -29.766  1.00  0.00     0.003 C 
ATOM     21  C   UNL     1     -15.153  10.376 -30.125  1.00  0.00     0.085 C 
ATOM     22  C   UNL     1     -14.990  13.441 -29.925  1.00  0.00    -0.000 C 
ATOM     23  C   UNL     1     -13.891  11.121 -30.431  1.00  0.00     0.159 C 
ATOM     24  C   UNL     1     -13.915  12.594 -30.622  1.00  0.00     0.005 C 
ATOM     25  C   UNL     1     -15.288  14.700 -30.803  1.00  0.00     0.020 C 
ATOM     26  C   UNL     1     -14.432  13.898 -28.550  1.00  0.00     0.017 C 
ATOM     27  O   UNL     1     -12.823  10.472 -30.595  1.00  0.00    -0.295 OA
ATOM     28  C   UNL     1     -12.941  13.172 -31.355  1.00  0.00     0.055 C 
ATOM     29  C   UNL     1     -14.030  15.505 -31.156  1.00  0.00     0.081 C 
ATOM     30  C   UNL     1     -12.929  14.614 -31.638  1.00  0.00     0.156 C 
ATOM     31  O   UNL     1     -11.964  15.111 -32.277  1.00  0.00    -0.295 OA
ENDBRANCH   9  11
ENDBRANCH   8   9
ENDBRANCH   1   8
TORSDOF 6
ENDMDL
MODEL 4
REMARK VINA RESULT:    -2.498      1.449      2.368
REMARK INTER + INTRA:          -4.230
REMARK INTER:                  -3.490
REMARK INTRA:                  -0.741
REMARK UNBOUND:                -0.857
REMARK SMILES CC[C@@H](CC[C@@H](C)[C@@H]1CC[C@@H]2[C@H]3CC(=O)C4=CC(=O)CC[C@@]4(C)[C@@H]3CC[C@@]21C)C(C)C
REMARK SMILES IDX 4 1 3 2 2 3 1 4 29 5 30 6 31 7 5 8 6 9 7 10 8 11 9 12 27 13
REMARK SMILES IDX 10 14 11 15 26 16 28 17 12 18 25 19 24 20 13 21 22 22 14 23
REMARK SMILES IDX 16 24 21 25 23 26 15 27 17 28 20 29 18 30 19 31
REMARK H PARENT
REMARK Flexibility Score: inf
ROOT
ATOM      1  C   UNL     1     -21.834  13.045 -29.671  1.00  0.00     0.004 C 
ENDROOT
BRANCH   1   2
ATOM      2  C   UNL     1     -23.337  12.967 -30.104  1.00  0.00    -0.009 C 
BRANCH   2   3
ATOM      3  C   UNL     1     -23.941  14.363 -30.442  1.00  0.00     0.000 C 
ATOM      4  C   UNL     1     -23.158  15.188 -31.473  1.00  0.00     0.004 C 
ENDBRANCH   2   3
BRANCH   2   5
ATOM      5  C   UNL     1     -24.268  12.051 -29.233  1.00  0.00    -0.014 C 
ATOM      6  C   UNL     1     -25.670  12.673 -29.076  1.00  0.00     0.007 C 
ATOM      7  C   UNL     1     -24.436  10.645 -29.839  1.00  0.00     0.007 C 
ENDBRANCH   2   5
ENDBRANCH   1   2
BRANCH   1   8
ATOM      8  C   UNL     1     -20.917  11.817 -29.909  1.00  0.00     0.004 C 
BRANCH   8   9
ATOM      9  C   UNL     1     -20.368  11.126 -28.630  1.00  0.00    -0.011 C 
ATOM     10  C   UNL     1     -21.199   9.875 -28.283  1.00  0.00     0.008 C 
BRANCH   9  11
ATOM     11  C   UNL     1     -18.821  10.804 -28.608  1.00  0.00    -0.002 C 
ATOM     12  C   UNL     1     -18.160  10.894 -27.226  1.00  0.00     0.005 C 
ATOM     13  C   UNL     1     -17.797  11.480 -29.586  1.00  0.00    -0.026 C 
ATOM     14  C   UNL     1     -16.654  10.994 -27.476  1.00  0.00     0.005 C 
ATOM     15  C   UNL     1     -16.454  10.968 -29.002  1.00  0.00    -0.001 C 
ATOM     16  C   UNL     1     -17.871  13.046 -29.536  1.00  0.00     0.007 C 
ATOM     17  C   UNL     1     -17.977  10.947 -31.036  1.00  0.00     0.012 C 
ATOM     18  C   UNL     1     -15.147  11.712 -29.458  1.00  0.00     0.004 C 
ATOM     19  C   UNL     1     -16.530  13.804 -29.565  1.00  0.00     0.005 C 
ATOM     20  C   UNL     1     -15.411  13.014 -30.263  1.00  0.00     0.003 C 
ATOM     21  C   UNL     1     -14.231  10.782 -30.266  1.00  0.00     0.085 C 
ATOM     22  C   UNL     1     -14.090  13.843 -30.529  1.00  0.00    -0.000 C 
ATOM     23  C   UNL     1     -12.969  11.483 -30.662  1.00  0.00     0.159 C 
ATOM     24  C   UNL     1     -12.998  12.910 -31.073  1.00  0.00     0.005 C 
ATOM     25  C   UNL     1     -14.382  14.953 -31.591  1.00  0.00     0.020 C 
ATOM     26  C   UNL     1     -13.558  14.508 -29.230  1.00  0.00     0.017 C 
ATOM     27  O   UNL     1     -11.893  10.827 -30.710  1.00  0.00    -0.295 OA
ATOM     28  C   UNL     1     -12.017  13.379 -31.870  1.00  0.00     0.055 C 
ATOM     29  C   UNL     1     -13.124  15.706 -32.043  1.00  0.00     0.081 C 
ATOM     30  C   UNL     1     -12.010  14.762 -32.368  1.00  0.00     0.156 C 
ATOM     31  O   UNL     1     -11.037  15.165 -33.061  1.00  0.00    -0.295 OA
ENDBRANCH   9  11
ENDBRANCH   8   9
ENDBRANCH   1   8
TORSDOF 6
ENDMDL
MODEL 5
REMARK VINA RESULT:    -2.232      1.717      2.851
REMARK INTER + INTRA:          -3.872
REMARK INTER:                  -4.663
REMARK INTRA:                   0.791
REMARK UNBOUND:                -0.857
REMARK SMILES CC[C@@H](CC[C@@H](C)[C@@H]1CC[C@@H]2[C@H]3CC(=O)C4=CC(=O)CC[C@@]4(C)[C@@H]3CC[C@@]21C)C(C)C
REMARK SMILES IDX 4 1 3 2 2 3 1 4 29 5 30 6 31 7 5 8 6 9 7 10 8 11 9 12 27 13
REMARK SMILES IDX 10 14 11 15 26 16 28 17 12 18 25 19 24 20 13 21 22 22 14 23
REMARK SMILES IDX 16 24 21 25 23 26 15 27 17 28 20 29 18 30 19 31
REMARK H PARENT
REMARK Flexibility Score: inf
ROOT
ATOM      1  C   UNL     1     -22.185  10.256 -28.379  1.00  0.00     0.004 C 
ENDROOT
BRANCH   1   2
ATOM      2  C   UNL     1     -23.448  10.421 -29.291  1.00  0.00    -0.009 C 
BRANCH   2   3
ATOM      3  C   UNL     1     -23.531  11.826 -29.957  1.00  0.00     0.000 C 
ATOM      4  C   UNL     1     -24.507  12.812 -29.300  1.00  0.00     0.004 C 
ENDBRANCH   2   3
BRANCH   2   5
ATOM      5  C   UNL     1     -24.807   9.900 -28.702  1.00  0.00    -0.014 C 
ATOM      6  C   UNL     1     -25.051  10.462 -27.288  1.00  0.00     0.007 C 
ATOM      7  C   UNL     1     -26.011  10.286 -29.582  1.00  0.00     0.007 C 
ENDBRANCH   2   5
ENDBRANCH   1   2
BRANCH   1   8
ATOM      8  C   UNL     1     -20.783  10.192 -29.039  1.00  0.00     0.004 C 
BRANCH   8   9
ATOM      9  C   UNL     1     -19.635  10.884 -28.254  1.00  0.00    -0.011 C 
ATOM     10  C   UNL     1     -18.520   9.876 -27.911  1.00  0.00     0.008 C 
BRANCH   9  11
ATOM     11  C   UNL     1     -19.035  12.200 -28.891  1.00  0.00    -0.002 C 
ATOM     12  C   UNL     1     -19.696  12.645 -30.203  1.00  0.00     0.005 C 
ATOM     13  C   UNL     1     -17.498  12.407 -29.126  1.00  0.00    -0.026 C 
ATOM     14  C   UNL     1     -18.723  13.623 -30.862  1.00  0.00     0.005 C 
ATOM     15  C   UNL     1     -17.502  13.734 -29.932  1.00  0.00    -0.001 C 
ATOM     16  C   UNL     1     -16.862  11.243 -29.964  1.00  0.00     0.007 C 
ATOM     17  C   UNL     1     -16.751  12.613 -27.778  1.00  0.00     0.012 C 
ATOM     18  C   UNL     1     -16.182  14.107 -30.699  1.00  0.00     0.004 C 
ATOM     19  C   UNL     1     -15.836  11.645 -31.041  1.00  0.00     0.005 C 
ATOM     20  C   UNL     1     -15.124  12.970 -30.726  1.00  0.00     0.003 C 
ATOM     21  C   UNL     1     -15.552  15.386 -30.129  1.00  0.00     0.085 C 
ATOM     22  C   UNL     1     -13.901  13.299 -31.672  1.00  0.00    -0.000 C 
ATOM     23  C   UNL     1     -14.318  15.761 -30.890  1.00  0.00     0.159 C 
ATOM     24  C   UNL     1     -13.381  14.712 -31.367  1.00  0.00     0.005 C 
ATOM     25  C   UNL     1     -12.753  12.271 -31.409  1.00  0.00     0.020 C 
ATOM     26  C   UNL     1     -14.302  13.242 -33.171  1.00  0.00     0.017 C 
ATOM     27  O   UNL     1     -14.050  16.982 -31.058  1.00  0.00    -0.295 OA
ATOM     28  C   UNL     1     -12.093  15.042 -31.591  1.00  0.00     0.055 C 
ATOM     29  C   UNL     1     -11.456  12.604 -32.158  1.00  0.00     0.081 C 
ATOM     30  C   UNL     1     -11.093  14.047 -32.006  1.00  0.00     0.156 C 
ATOM     31  O   UNL     1      -9.916  14.421 -32.259  1.00  0.00    -0.295 OA
ENDBRANCH   9  11
ENDBRANCH   8   9
ENDBRANCH   1   8
TORSDOF 6
ENDMDL
MODEL 6
REMARK VINA RESULT:    -1.455      3.302      9.545
REMARK INTER + INTRA:          -2.822
REMARK INTER:                  -1.369
REMARK INTRA:                  -1.452
REMARK UNBOUND:                -0.857
REMARK SMILES CC[C@@H](CC[C@@H](C)[C@@H]1CC[C@@H]2[C@H]3CC(=O)C4=CC(=O)CC[C@@]4(C)[C@@H]3CC[C@@]21C)C(C)C
REMARK SMILES IDX 4 1 3 2 2 3 1 4 29 5 30 6 31 7 5 8 6 9 7 10 8 11 9 12 27 13
REMARK SMILES IDX 10 14 11 15 26 16 28 17 12 18 25 19 24 20 13 21 22 22 14 23
REMARK SMILES IDX 16 24 21 25 23 26 15 27 17 28 20 29 18 30 19 31
REMARK H PARENT
REMARK Flexibility Score: inf
ROOT
ATOM      1  C   UNL     1      -9.894  12.204 -31.595  1.00  0.00     0.004 C 
ENDROOT
BRANCH   1   2
ATOM      2  C   UNL     1     -10.588  12.662 -32.922  1.00  0.00    -0.009 C 
BRANCH   2   3
ATOM      3  C   UNL     1      -9.931  12.042 -34.191  1.00  0.00     0.000 C 
ATOM      4  C   UNL     1     -10.721  10.906 -34.855  1.00  0.00     0.004 C 
ENDBRANCH   2   3
BRANCH   2   5
ATOM      5  C   UNL     1     -10.921  14.191 -33.044  1.00  0.00    -0.014 C 
ATOM      6  C   UNL     1     -12.345  14.492 -32.536  1.00  0.00     0.007 C 
ATOM      7  C   UNL     1      -9.936  15.068 -32.247  1.00  0.00     0.007 C 
ENDBRANCH   2   5
ENDBRANCH   1   2
BRANCH   1   8
ATOM      8  C   UNL     1      -9.912  10.700 -31.215  1.00  0.00     0.004 C 
BRANCH   8   9
ATOM      9  C   UNL     1     -10.775  10.326 -29.978  1.00  0.00    -0.011 C 
ATOM     10  C   UNL     1      -9.883   9.876 -28.804  1.00  0.00     0.008 C 
BRANCH   9  11
ATOM     11  C   UNL     1     -11.838  11.397 -29.506  1.00  0.00    -0.002 C 
ATOM     12  C   UNL     1     -11.805  11.725 -28.007  1.00  0.00     0.005 C 
ATOM     13  C   UNL     1     -13.362  11.296 -29.861  1.00  0.00    -0.026 C 
ATOM     14  C   UNL     1     -13.140  12.399 -27.687  1.00  0.00     0.005 C 
ATOM     15  C   UNL     1     -13.939  12.452 -29.001  1.00  0.00    -0.001 C 
ATOM     16  C   UNL     1     -13.981   9.918 -29.439  1.00  0.00     0.007 C 
ATOM     17  C   UNL     1     -13.604  11.591 -31.369  1.00  0.00     0.012 C 
ATOM     18  C   UNL     1     -15.493  12.462 -28.769  1.00  0.00     0.004 C 
ATOM     19  C   UNL     1     -15.386   9.955 -28.807  1.00  0.00     0.005 C 
ATOM     20  C   UNL     1     -16.212  11.172 -29.252  1.00  0.00     0.003 C 
ATOM     21  C   UNL     1     -16.144  13.690 -29.421  1.00  0.00     0.085 C 
ATOM     22  C   UNL     1     -17.733  11.126 -28.822  1.00  0.00    -0.000 C 
ATOM     23  C   UNL     1     -17.619  13.718 -29.161  1.00  0.00     0.159 C 
ATOM     24  C   UNL     1     -18.408  12.459 -29.176  1.00  0.00     0.005 C 
ATOM     25  C   UNL     1     -18.454   9.974 -29.597  1.00  0.00     0.020 C 
ATOM     26  C   UNL     1     -17.892  10.891 -27.296  1.00  0.00     0.017 C 
ATOM     27  O   UNL     1     -18.191  14.829 -29.002  1.00  0.00    -0.295 OA
ATOM     28  C   UNL     1     -19.730  12.522 -29.436  1.00  0.00     0.055 C 
ATOM     29  C   UNL     1     -19.972   9.952 -29.376  1.00  0.00     0.081 C 
ATOM     30  C   UNL     1     -20.566  11.317 -29.527  1.00  0.00     0.156 C 
ATOM     31  O   UNL     1     -21.807  11.437 -29.712  1.00  0.00    -0.295 OA
ENDBRANCH   9  11
ENDBRANCH   8   9
ENDBRANCH   1   8
TORSDOF 6
ENDMDL
MODEL 7
REMARK VINA RESULT:    -0.999      3.622      9.182
REMARK INTER + INTRA:          -2.207
REMARK INTER:                  -3.988
REMARK INTRA:                   1.782
REMARK UNBOUND:                -0.857
REMARK SMILES CC[C@@H](CC[C@@H](C)[C@@H]1CC[C@@H]2[C@H]3CC(=O)C4=CC(=O)CC[C@@]4(C)[C@@H]3CC[C@@]21C)C(C)C
REMARK SMILES IDX 4 1 3 2 2 3 1 4 29 5 30 6 31 7 5 8 6 9 7 10 8 11 9 12 27 13
REMARK SMILES IDX 10 14 11 15 26 16 28 17 12 18 25 19 24 20 13 21 22 22 14 23
REMARK SMILES IDX 16 24 21 25 23 26 15 27 17 28 20 29 18 30 19 31
REMARK H PARENT
REMARK Flexibility Score: inf
ROOT
ATOM      1  C   UNL     1     -11.589  11.977 -31.198  1.00  0.00     0.004 C 
ENDROOT
BRANCH   1   2
ATOM      2  C   UNL     1     -10.789  11.136 -30.146  1.00  0.00    -0.009 C 
BRANCH   2   3
ATOM      3  C   UNL     1      -9.877  10.058 -30.802  1.00  0.00     0.000 C 
ATOM      4  C   UNL     1      -9.894  10.024 -32.336  1.00  0.00     0.004 C 
ENDBRANCH   2   3
BRANCH   2   5
ATOM      5  C   UNL     1     -11.596  10.632 -28.897  1.00  0.00    -0.014 C 
ATOM      6  C   UNL     1     -10.676   9.900 -27.900  1.00  0.00     0.007 C 
ATOM      7  C   UNL     1     -12.290  11.784 -28.147  1.00  0.00     0.007 C 
ENDBRANCH   2   5
ENDBRANCH   1   2
BRANCH   1   8
ATOM      8  C   UNL     1     -10.856  13.100 -31.978  1.00  0.00     0.004 C 
BRANCH   8   9
ATOM      9  C   UNL     1     -11.704  13.843 -33.047  1.00  0.00    -0.011 C 
ATOM     10  C   UNL     1     -11.832  12.998 -34.330  1.00  0.00     0.008 C 
BRANCH   9  11
ATOM     11  C   UNL     1     -13.113  14.386 -32.581  1.00  0.00    -0.002 C 
ATOM     12  C   UNL     1     -13.062  15.483 -31.508  1.00  0.00     0.005 C 
ATOM     13  C   UNL     1     -14.283  13.443 -32.134  1.00  0.00    -0.026 C 
ATOM     14  C   UNL     1     -14.461  15.545 -30.893  1.00  0.00     0.005 C 
ATOM     15  C   UNL     1     -15.310  14.481 -31.608  1.00  0.00    -0.001 C 
ATOM     16  C   UNL     1     -13.849  12.455 -30.995  1.00  0.00     0.007 C 
ATOM     17  C   UNL     1     -14.881  12.681 -33.351  1.00  0.00     0.012 C 
ATOM     18  C   UNL     1     -16.483  13.935 -30.715  1.00  0.00     0.004 C 
ATOM     19  C   UNL     1     -14.862  12.223 -29.856  1.00  0.00     0.005 C 
ATOM     20  C   UNL     1     -16.317  12.449 -30.294  1.00  0.00     0.003 C 
ATOM     21  C   UNL     1     -17.842  14.129 -31.403  1.00  0.00     0.085 C 
ATOM     22  C   UNL     1     -17.400  11.992 -29.236  1.00  0.00    -0.000 C 
ATOM     23  C   UNL     1     -18.959  13.646 -30.531  1.00  0.00     0.159 C 
ATOM     24  C   UNL     1     -18.796  12.418 -29.712  1.00  0.00     0.005 C 
ATOM     25  C   UNL     1     -17.365  10.435 -29.101  1.00  0.00     0.020 C 
ATOM     26  C   UNL     1     -17.146  12.630 -27.843  1.00  0.00     0.017 C 
ATOM     27  O   UNL     1     -20.062  14.256 -30.557  1.00  0.00    -0.295 OA
ATOM     28  C   UNL     1     -19.896  11.732 -29.342  1.00  0.00     0.055 C 
ATOM     29  C   UNL     1     -18.492   9.876 -28.221  1.00  0.00     0.081 C 
ATOM     30  C   UNL     1     -19.814  10.475 -28.582  1.00  0.00     0.156 C 
ATOM     31  O   UNL     1     -20.875   9.907 -28.210  1.00  0.00    -0.295 OA
ENDBRANCH   9  11
ENDBRANCH   8   9
ENDBRANCH   1   8
TORSDOF 6
ENDMDL
MODEL 8
REMARK VINA RESULT:    -0.913      1.700      2.935
REMARK INTER + INTRA:          -2.089
REMARK INTER:                  -1.454
REMARK INTRA:                  -0.635
REMARK UNBOUND:                -0.857
REMARK SMILES CC[C@@H](CC[C@@H](C)[C@@H]1CC[C@@H]2[C@H]3CC(=O)C4=CC(=O)CC[C@@]4(C)[C@@H]3CC[C@@]21C)C(C)C
REMARK SMILES IDX 4 1 3 2 2 3 1 4 29 5 30 6 31 7 5 8 6 9 7 10 8 11 9 12 27 13
REMARK SMILES IDX 10 14 11 15 26 16 28 17 12 18 25 19 24 20 13 21 22 22 14 23
REMARK SMILES IDX 16 24 21 25 23 26 15 27 17 28 20 29 18 30 19 31
REMARK H PARENT
REMARK Flexibility Score: inf
ROOT
ATOM      1  C   UNL     1     -24.396  10.358 -29.218  1.00  0.00     0.004 C 
ENDROOT
BRANCH   1   2
ATOM      2  C   UNL     1     -25.271  11.436 -29.943  1.00  0.00    -0.009 C 
BRANCH   2   3
ATOM      3  C   UNL     1     -25.400  11.179 -31.474  1.00  0.00     0.000 C 
ATOM      4  C   UNL     1     -26.755  11.549 -32.093  1.00  0.00     0.004 C 
ENDBRANCH   2   3
BRANCH   2   5
ATOM      5  C   UNL     1     -24.996  12.932 -29.556  1.00  0.00    -0.014 C 
ATOM      6  C   UNL     1     -23.809  13.503 -30.357  1.00  0.00     0.007 C 
ATOM      7  C   UNL     1     -26.219  13.835 -29.809  1.00  0.00     0.007 C 
ENDBRANCH   2   5
ENDBRANCH   1   2
BRANCH   1   8
ATOM      8  C   UNL     1     -22.867  10.328 -29.479  1.00  0.00     0.004 C 
BRANCH   8   9
ATOM      9  C   UNL     1     -21.967  10.656 -28.257  1.00  0.00    -0.011 C 
ATOM     10  C   UNL     1     -22.630  10.188 -26.946  1.00  0.00     0.008 C 
BRANCH   9  11
ATOM     11  C   UNL     1     -20.463  10.176 -28.335  1.00  0.00    -0.002 C 
ATOM     12  C   UNL     1     -19.805   9.881 -26.980  1.00  0.00     0.005 C 
ATOM     13  C   UNL     1     -19.367  10.942 -29.155  1.00  0.00    -0.026 C 
ATOM     14  C   UNL     1     -18.296   9.875 -27.229  1.00  0.00     0.005 C 
ATOM     15  C   UNL     1     -18.090  10.172 -28.724  1.00  0.00    -0.001 C 
ATOM     16  C   UNL     1     -19.273  12.455 -28.753  1.00  0.00     0.007 C 
ATOM     17  C   UNL     1     -19.594  10.771 -30.684  1.00  0.00     0.012 C 
ATOM     18  C   UNL     1     -16.708  10.857 -29.025  1.00  0.00     0.004 C 
ATOM     19  C   UNL     1     -17.858  13.054 -28.635  1.00  0.00     0.005 C 
ATOM     20  C   UNL     1     -16.826  12.328 -29.512  1.00  0.00     0.003 C 
ATOM     21  C   UNL     1     -15.892  10.042 -30.038  1.00  0.00     0.085 C 
ATOM     22  C   UNL     1     -15.422  13.051 -29.608  1.00  0.00    -0.000 C 
ATOM     23  C   UNL     1     -14.559  10.677 -30.289  1.00  0.00     0.159 C 
ATOM     24  C   UNL     1     -14.433  12.155 -30.368  1.00  0.00     0.005 C 
ATOM     25  C   UNL     1     -15.587  14.396 -30.389  1.00  0.00     0.020 C 
ATOM     26  C   UNL     1     -14.830  13.346 -28.204  1.00  0.00     0.017 C 
ATOM     27  O   UNL     1     -13.560   9.938 -30.502  1.00  0.00    -0.295 OA
ATOM     28  C   UNL     1     -13.403  12.685 -31.057  1.00  0.00     0.055 C 
ATOM     29  C   UNL     1     -14.253  15.094 -30.683  1.00  0.00     0.081 C 
ATOM     30  C   UNL     1     -13.244  14.136 -31.232  1.00  0.00     0.156 C 
ATOM     31  O   UNL     1     -12.229  14.579 -31.833  1.00  0.00    -0.295 OA
ENDBRANCH   9  11
ENDBRANCH   8   9
ENDBRANCH   1   8
TORSDOF 6
ENDMDL
MODEL 9
REMARK VINA RESULT:    -0.836      1.940      3.259
REMARK INTER + INTRA:          -1.986
REMARK INTER:                  -1.295
REMARK INTRA:                  -0.691
REMARK UNBOUND:                -0.857
REMARK SMILES CC[C@@H](CC[C@@H](C)[C@@H]1CC[C@@H]2[C@H]3CC(=O)C4=CC(=O)CC[C@@]4(C)[C@@H]3CC[C@@]21C)C(C)C
REMARK SMILES IDX 4 1 3 2 2 3 1 4 29 5 30 6 31 7 5 8 6 9 7 10 8 11 9 12 27 13
REMARK SMILES IDX 10 14 11 15 26 16 28 17 12 18 25 19 24 20 13 21 22 22 14 23
REMARK SMILES IDX 16 24 21 25 23 26 15 27 17 28 20 29 18 30 19 31
REMARK H PARENT
REMARK Flexibility Score: inf
ROOT
ATOM      1  C   UNL     1     -22.206  11.006 -29.934  1.00  0.00     0.004 C 
ENDROOT
BRANCH   1   2
ATOM      2  C   UNL     1     -23.677  11.509 -29.745  1.00  0.00    -0.009 C 
BRANCH   2   3
ATOM      3  C   UNL     1     -23.752  12.990 -29.269  1.00  0.00     0.000 C 
ATOM      4  C   UNL     1     -23.686  14.044 -30.383  1.00  0.00     0.004 C 
ENDBRANCH   2   3
BRANCH   2   5
ATOM      5  C   UNL     1     -24.656  10.536 -28.997  1.00  0.00    -0.014 C 
ATOM      6  C   UNL     1     -24.707  10.851 -27.488  1.00  0.00     0.007 C 
ATOM      7  C   UNL     1     -26.093  10.616 -29.548  1.00  0.00     0.007 C 
ENDBRANCH   2   5
ENDBRANCH   1   2
BRANCH   1   8
ATOM      8  C   UNL     1     -21.034  11.940 -29.535  1.00  0.00     0.004 C 
BRANCH   8   9
ATOM      9  C   UNL     1     -19.870  11.267 -28.756  1.00  0.00    -0.011 C 
ATOM     10  C   UNL     1     -20.287   9.875 -28.241  1.00  0.00     0.008 C 
BRANCH   9  11
ATOM     11  C   UNL     1     -18.470  11.206 -29.489  1.00  0.00    -0.002 C 
ATOM     12  C   UNL     1     -17.351  10.524 -28.690  1.00  0.00     0.005 C 
ATOM     13  C   UNL     1     -17.793  12.464 -30.134  1.00  0.00    -0.026 C 
ATOM     14  C   UNL     1     -16.036  10.953 -29.344  1.00  0.00     0.005 C 
ATOM     15  C   UNL     1     -16.402  11.885 -30.511  1.00  0.00    -0.001 C 
ATOM     16  C   UNL     1     -17.651  13.651 -29.119  1.00  0.00     0.007 C 
ATOM     17  C   UNL     1     -18.546  12.903 -31.422  1.00  0.00     0.012 C 
ATOM     18  C   UNL     1     -15.266  12.918 -30.847  1.00  0.00     0.004 C 
ATOM     19  C   UNL     1     -16.327  14.439 -29.156  1.00  0.00     0.005 C 
ATOM     20  C   UNL     1     -15.640  14.392 -30.529  1.00  0.00     0.003 C 
ATOM     21  C   UNL     1     -14.824  12.801 -32.312  1.00  0.00     0.085 C 
ATOM     22  C   UNL     1     -14.412  15.377 -30.684  1.00  0.00    -0.000 C 
ATOM     23  C   UNL     1     -13.713  13.758 -32.616  1.00  0.00     0.159 C 
ATOM     24  C   UNL     1     -13.713  15.122 -32.027  1.00  0.00     0.005 C 
ATOM     25  C   UNL     1     -14.928  16.853 -30.656  1.00  0.00     0.020 C 
ATOM     26  C   UNL     1     -13.371  15.180 -29.549  1.00  0.00     0.017 C 
ATOM     27  O   UNL     1     -12.816  13.415 -33.433  1.00  0.00    -0.295 OA
ATOM     28  C   UNL     1     -13.035  16.103 -32.655  1.00  0.00     0.055 C 
ATOM     29  C   UNL     1     -13.835  17.884 -30.966  1.00  0.00     0.081 C 
ATOM     30  C   UNL     1     -13.037  17.490 -32.168  1.00  0.00     0.156 C 
ATOM     31  O   UNL     1     -12.337  18.355 -32.760  1.00  0.00    -0.295 OA
ENDBRANCH   9  11
ENDBRANCH   8   9
ENDBRANCH   1   8
TORSDOF 6
ENDMDL
