MODEL 1
REMARK VINA RESULT:    -4.037      0.000      0.000
REMARK INTER + INTRA:          -6.078
REMARK INTER:                  -5.690
REMARK INTRA:                  -0.388
REMARK UNBOUND:                -0.388
REMARK SMILES C=CCCCCCCC(=O)[O-]
REMARK SMILES IDX 6 1 7 2 8 3 9 4 10 5 11 6 5 7 4 8 3 9 2 10 1 11
REMARK H PARENT
REMARK Flexibility Score: inf
ROOT
ATOM      1  C   UNL     1      -7.457  -2.513 -39.852  1.00  0.00     0.000 C 
ENDROOT
BRANCH   1   2
ATOM      2  C   UNL     1      -8.666  -1.948 -39.086  1.00  0.00     0.006 C 
BRANCH   2   3
ATOM      3  C   UNL     1      -8.442  -0.496 -38.641  1.00  0.00     0.053 C 
BRANCH   3   4
ATOM      4  C   UNL     1      -9.278  -0.145 -37.449  1.00  0.00     0.041 C 
ATOM      5  O   UNL     1      -8.844   0.661 -36.584  1.00  0.00    -0.550 OA
ATOM      6  O   UNL     1     -10.550  -0.686 -37.307  1.00  0.00    -0.550 OA
ENDBRANCH   3   4
ENDBRANCH   2   3
ENDBRANCH   1   2
BRANCH   1   7
ATOM      7  C   UNL     1      -7.633  -3.994 -40.224  1.00  0.00     0.000 C 
BRANCH   7   8
ATOM      8  C   UNL     1      -6.291  -4.731 -40.374  1.00  0.00     0.004 C 
BRANCH   8   9
ATOM      9  C   UNL     1      -5.160  -4.029 -39.612  1.00  0.00     0.027 C 
BRANCH   9  10
ATOM     10  C   UNL     1      -4.598  -4.906 -38.524  1.00  0.00    -0.035 C 
ATOM     11  C   UNL     1      -5.299  -5.207 -37.428  1.00  0.00     0.004 C 
ENDBRANCH   9  10
ENDBRANCH   8   9
ENDBRANCH   7   8
ENDBRANCH   1   7
TORSDOF 7
ENDMDL
MODEL 2
REMARK VINA RESULT:    -3.861      3.326      5.673
REMARK INTER + INTRA:          -5.829
REMARK INTER:                  -5.545
REMARK INTRA:                  -0.284
REMARK UNBOUND:                -0.388
REMARK SMILES C=CCCCCCCC(=O)[O-]
REMARK SMILES IDX 6 1 7 2 8 3 9 4 10 5 11 6 5 7 4 8 3 9 2 10 1 11
REMARK H PARENT
REMARK Flexibility Score: inf
ROOT
ATOM      1  C   UNL     1      -7.258  -2.627 -39.699  1.00  0.00     0.000 C 
ENDROOT
BRANCH   1   2
ATOM      2  C   UNL     1      -6.651  -4.017 -39.954  1.00  0.00     0.006 C 
BRANCH   2   3
ATOM      3  C   UNL     1      -5.140  -4.045 -39.694  1.00  0.00     0.053 C 
BRANCH   3   4
ATOM      4  C   UNL     1      -4.778  -5.032 -38.627  1.00  0.00     0.041 C 
ATOM      5  O   UNL     1      -3.891  -5.901 -38.840  1.00  0.00    -0.550 OA
ATOM      6  O   UNL     1      -5.401  -4.976 -37.386  1.00  0.00    -0.550 OA
ENDBRANCH   3   4
ENDBRANCH   2   3
ENDBRANCH   1   2
BRANCH   1   7
ATOM      7  C   UNL     1      -8.793  -2.628 -39.775  1.00  0.00     0.000 C 
BRANCH   7   8
ATOM      8  C   UNL     1      -9.436  -1.616 -38.811  1.00  0.00     0.004 C 
BRANCH   8   9
ATOM      9  C   UNL     1      -8.507  -0.431 -38.517  1.00  0.00     0.027 C 
BRANCH   9  10
ATOM     10  C   UNL     1      -8.990   0.371 -37.337  1.00  0.00    -0.035 C 
ATOM     11  C   UNL     1     -10.290   0.516 -37.066  1.00  0.00     0.004 C 
ENDBRANCH   9  10
ENDBRANCH   8   9
ENDBRANCH   7   8
ENDBRANCH   1   7
TORSDOF 7
ENDMDL
MODEL 3
REMARK VINA RESULT:    -3.699      1.479      2.320
REMARK INTER + INTRA:          -5.601
REMARK INTER:                  -5.113
REMARK INTRA:                  -0.488
REMARK UNBOUND:                -0.388
REMARK SMILES C=CCCCCCCC(=O)[O-]
REMARK SMILES IDX 6 1 7 2 8 3 9 4 10 5 11 6 5 7 4 8 3 9 2 10 1 11
REMARK H PARENT
REMARK Flexibility Score: inf
ROOT
ATOM      1  C   UNL     1      -8.422  -0.872 -39.316  1.00  0.00     0.000 C 
ENDROOT
BRANCH   1   2
ATOM      2  C   UNL     1      -9.185  -1.348 -38.068  1.00  0.00     0.006 C 
BRANCH   2   3
ATOM      3  C   UNL     1     -10.452  -0.522 -37.813  1.00  0.00     0.053 C 
BRANCH   3   4
ATOM      4  C   UNL     1     -10.155   0.729 -37.046  1.00  0.00     0.041 C 
ATOM      5  O   UNL     1     -10.874   1.752 -37.197  1.00  0.00    -0.550 OA
ATOM      6  O   UNL     1      -9.100   0.758 -36.142  1.00  0.00    -0.550 OA
ENDBRANCH   3   4
ENDBRANCH   2   3
ENDBRANCH   1   2
BRANCH   1   7
ATOM      7  C   UNL     1      -8.842  -1.623 -40.589  1.00  0.00     0.000 C 
BRANCH   7   8
ATOM      8  C   UNL     1      -7.734  -2.544 -41.128  1.00  0.00     0.004 C 
BRANCH   8   9
ATOM      9  C   UNL     1      -7.707  -3.897 -40.405  1.00  0.00     0.027 C 
BRANCH   9  10
ATOM     10  C   UNL     1      -6.493  -4.030 -39.524  1.00  0.00    -0.035 C 
ATOM     11  C   UNL     1      -5.300  -3.550 -39.888  1.00  0.00     0.004 C 
ENDBRANCH   9  10
ENDBRANCH   8   9
ENDBRANCH   7   8
ENDBRANCH   1   7
TORSDOF 7
ENDMDL
MODEL 4
REMARK VINA RESULT:    -3.686      4.202      6.563
REMARK INTER + INTRA:          -5.583
REMARK INTER:                  -5.353
REMARK INTRA:                  -0.230
REMARK UNBOUND:                -0.388
REMARK SMILES C=CCCCCCCC(=O)[O-]
REMARK SMILES IDX 6 1 7 2 8 3 9 4 10 5 11 6 5 7 4 8 3 9 2 10 1 11
REMARK H PARENT
REMARK Flexibility Score: inf
ROOT
ATOM      1  C   UNL     1     -11.473   1.942 -35.528  1.00  0.00     0.000 C 
ENDROOT
BRANCH   1   2
ATOM      2  C   UNL     1     -10.289   2.382 -34.650  1.00  0.00     0.006 C 
BRANCH   2   3
ATOM      3  C   UNL     1     -10.738   2.805 -33.244  1.00  0.00     0.053 C 
BRANCH   3   4
ATOM      4  C   UNL     1      -9.959   3.982 -32.743  1.00  0.00     0.041 C 
ATOM      5  O   UNL     1      -9.895   5.038 -33.426  1.00  0.00    -0.550 OA
ATOM      6  O   UNL     1      -9.325   3.923 -31.508  1.00  0.00    -0.550 OA
ENDBRANCH   3   4
ENDBRANCH   2   3
ENDBRANCH   1   2
BRANCH   1   7
ATOM      7  C   UNL     1     -11.025   1.382 -36.888  1.00  0.00     0.000 C 
BRANCH   7   8
ATOM      8  C   UNL     1      -9.640   0.716 -36.827  1.00  0.00     0.004 C 
BRANCH   8   9
ATOM      9  C   UNL     1      -9.586  -0.577 -37.651  1.00  0.00     0.027 C 
BRANCH   9  10
ATOM     10  C   UNL     1      -8.422  -0.576 -38.607  1.00  0.00    -0.035 C 
ATOM     11  C   UNL     1      -8.506  -1.118 -39.824  1.00  0.00     0.004 C 
ENDBRANCH   9  10
ENDBRANCH   8   9
ENDBRANCH   7   8
ENDBRANCH   1   7
TORSDOF 7
ENDMDL
MODEL 5
REMARK VINA RESULT:    -3.677      3.446      7.268
REMARK INTER + INTRA:          -5.571
REMARK INTER:                  -5.314
REMARK INTRA:                  -0.257
REMARK UNBOUND:                -0.388
REMARK SMILES C=CCCCCCCC(=O)[O-]
REMARK SMILES IDX 6 1 7 2 8 3 9 4 10 5 11 6 5 7 4 8 3 9 2 10 1 11
REMARK H PARENT
REMARK Flexibility Score: inf
ROOT
ATOM      1  C   UNL     1      -9.778   0.776 -36.855  1.00  0.00     0.000 C 
ENDROOT
BRANCH   1   2
ATOM      2  C   UNL     1      -9.766  -0.550 -37.636  1.00  0.00     0.006 C 
BRANCH   2   3
ATOM      3  C   UNL     1      -8.509  -0.701 -38.501  1.00  0.00     0.053 C 
BRANCH   3   4
ATOM      4  C   UNL     1      -8.384  -2.083 -39.064  1.00  0.00     0.041 C 
ATOM      5  O   UNL     1      -9.270  -2.537 -39.835  1.00  0.00    -0.550 OA
ATOM      6  O   UNL     1      -7.274  -2.862 -38.759  1.00  0.00    -0.550 OA
ENDBRANCH   3   4
ENDBRANCH   2   3
ENDBRANCH   1   2
BRANCH   1   7
ATOM      7  C   UNL     1     -11.102   1.541 -37.010  1.00  0.00     0.000 C 
BRANCH   7   8
ATOM      8  C   UNL     1     -11.534   2.247 -35.713  1.00  0.00     0.004 C 
BRANCH   8   9
ATOM      9  C   UNL     1     -10.420   2.245 -34.657  1.00  0.00     0.027 C 
BRANCH   9  10
ATOM     10  C   UNL     1     -10.606   3.353 -33.655  1.00  0.00    -0.035 C 
ATOM     11  C   UNL     1     -10.351   4.629 -33.957  1.00  0.00     0.004 C 
ENDBRANCH   9  10
ENDBRANCH   8   9
ENDBRANCH   7   8
ENDBRANCH   1   7
TORSDOF 7
ENDMDL
MODEL 6
REMARK VINA RESULT:    -3.604      5.170      8.067
REMARK INTER + INTRA:          -5.468
REMARK INTER:                  -5.091
REMARK INTRA:                  -0.377
REMARK UNBOUND:                -0.388
REMARK SMILES C=CCCCCCCC(=O)[O-]
REMARK SMILES IDX 6 1 7 2 8 3 9 4 10 5 11 6 5 7 4 8 3 9 2 10 1 11
REMARK H PARENT
REMARK Flexibility Score: inf
ROOT
ATOM      1  C   UNL     1     -11.520   2.502 -33.624  1.00  0.00     0.000 C 
ENDROOT
BRANCH   1   2
ATOM      2  C   UNL     1     -11.607   3.991 -33.249  1.00  0.00     0.006 C 
BRANCH   2   3
ATOM      3  C   UNL     1     -10.301   4.739 -33.547  1.00  0.00     0.053 C 
BRANCH   3   4
ATOM      4  C   UNL     1      -9.541   5.052 -32.294  1.00  0.00     0.041 C 
ATOM      5  O   UNL     1      -9.190   6.235 -32.043  1.00  0.00    -0.550 OA
ATOM      6  O   UNL     1      -9.245   4.040 -31.389  1.00  0.00    -0.550 OA
ENDBRANCH   3   4
ENDBRANCH   2   3
ENDBRANCH   1   2
BRANCH   1   7
ATOM      7  C   UNL     1     -10.633   2.252 -34.854  1.00  0.00     0.000 C 
BRANCH   7   8
ATOM      8  C   UNL     1     -11.425   2.285 -36.173  1.00  0.00     0.004 C 
BRANCH   8   9
ATOM      9  C   UNL     1     -10.946   1.211 -37.159  1.00  0.00     0.027 C 
BRANCH   9  10
ATOM     10  C   UNL     1      -9.561   0.727 -36.820  1.00  0.00    -0.035 C 
ATOM     11  C   UNL     1      -8.839  -0.002 -37.675  1.00  0.00     0.004 C 
ENDBRANCH   9  10
ENDBRANCH   8   9
ENDBRANCH   7   8
ENDBRANCH   1   7
TORSDOF 7
ENDMDL
MODEL 7
REMARK VINA RESULT:    -3.597     10.517     11.885
REMARK INTER + INTRA:          -5.457
REMARK INTER:                  -4.802
REMARK INTRA:                  -0.655
REMARK UNBOUND:                -0.388
REMARK SMILES C=CCCCCCCC(=O)[O-]
REMARK SMILES IDX 6 1 7 2 8 3 9 4 10 5 11 6 5 7 4 8 3 9 2 10 1 11
REMARK H PARENT
REMARK Flexibility Score: inf
ROOT
ATOM      1  C   UNL     1       0.965  -7.728 -31.102  1.00  0.00     0.000 C 
ENDROOT
BRANCH   1   2
ATOM      2  C   UNL     1       2.129  -7.049 -31.843  1.00  0.00     0.006 C 
BRANCH   2   3
ATOM      3  C   UNL     1       2.162  -7.419 -33.332  1.00  0.00     0.053 C 
BRANCH   3   4
ATOM      4  C   UNL     1       1.841  -6.243 -34.204  1.00  0.00     0.041 C 
ATOM      5  O   UNL     1       0.849  -5.512 -33.944  1.00  0.00    -0.550 OA
ATOM      6  O   UNL     1       2.654  -5.939 -35.289  1.00  0.00    -0.550 OA
ENDBRANCH   3   4
ENDBRANCH   2   3
ENDBRANCH   1   2
BRANCH   1   7
ATOM      7  C   UNL     1       0.042  -6.719 -30.400  1.00  0.00     0.000 C 
BRANCH   7   8
ATOM      8  C   UNL     1      -1.206  -6.377 -31.232  1.00  0.00     0.004 C 
BRANCH   8   9
ATOM      9  C   UNL     1      -1.539  -7.476 -32.249  1.00  0.00     0.027 C 
BRANCH   9  10
ATOM     10  C   UNL     1      -2.707  -8.313 -31.797  1.00  0.00    -0.035 C 
ATOM     11  C   UNL     1      -2.540  -9.514 -31.236  1.00  0.00     0.004 C 
ENDBRANCH   9  10
ENDBRANCH   8   9
ENDBRANCH   7   8
ENDBRANCH   1   7
TORSDOF 7
ENDMDL
MODEL 8
REMARK VINA RESULT:    -3.560     11.611     13.258
REMARK INTER + INTRA:          -5.406
REMARK INTER:                  -4.973
REMARK INTRA:                  -0.433
REMARK UNBOUND:                -0.388
REMARK SMILES C=CCCCCCCC(=O)[O-]
REMARK SMILES IDX 6 1 7 2 8 3 9 4 10 5 11 6 5 7 4 8 3 9 2 10 1 11
REMARK H PARENT
REMARK Flexibility Score: inf
ROOT
ATOM      1  C   UNL     1       6.360  -3.909 -38.495  1.00  0.00     0.000 C 
ENDROOT
BRANCH   1   2
ATOM      2  C   UNL     1       6.455  -5.167 -37.615  1.00  0.00     0.006 C 
BRANCH   2   3
ATOM      3  C   UNL     1       5.088  -5.832 -37.406  1.00  0.00     0.053 C 
BRANCH   3   4
ATOM      4  C   UNL     1       4.604  -5.676 -35.997  1.00  0.00     0.041 C 
ATOM      5  O   UNL     1       3.373  -5.742 -35.737  1.00  0.00    -0.550 OA
ATOM      6  O   UNL     1       5.515  -5.484 -34.965  1.00  0.00    -0.550 OA
ENDBRANCH   3   4
ENDBRANCH   2   3
ENDBRANCH   1   2
BRANCH   1   7
ATOM      7  C   UNL     1       5.619  -4.167 -39.817  1.00  0.00     0.000 C 
BRANCH   7   8
ATOM      8  C   UNL     1       4.409  -3.236 -40.011  1.00  0.00     0.004 C 
BRANCH   8   9
ATOM      9  C   UNL     1       4.230  -2.272 -38.831  1.00  0.00     0.027 C 
BRANCH   9  10
ATOM     10  C   UNL     1       4.259  -0.836 -39.281  1.00  0.00    -0.035 C 
ATOM     11  C   UNL     1       3.160  -0.076 -39.293  1.00  0.00     0.004 C 
ENDBRANCH   9  10
ENDBRANCH   8   9
ENDBRANCH   7   8
ENDBRANCH   1   7
TORSDOF 7
ENDMDL
MODEL 9
REMARK VINA RESULT:    -3.407     10.722     12.281
REMARK INTER + INTRA:          -5.190
REMARK INTER:                  -4.747
REMARK INTRA:                  -0.443
REMARK UNBOUND:                -0.388
REMARK SMILES C=CCCCCCCC(=O)[O-]
REMARK SMILES IDX 6 1 7 2 8 3 9 4 10 5 11 6 5 7 4 8 3 9 2 10 1 11
REMARK H PARENT
REMARK Flexibility Score: inf
ROOT
ATOM      1  C   UNL     1       1.257  -6.779 -32.283  1.00  0.00     0.000 C 
ENDROOT
BRANCH   1   2
ATOM      2  C   UNL     1       2.448  -7.265 -33.127  1.00  0.00     0.006 C 
BRANCH   2   3
ATOM      3  C   UNL     1       2.341  -6.816 -34.590  1.00  0.00     0.053 C 
BRANCH   3   4
ATOM      4  C   UNL     1       3.640  -6.270 -35.099  1.00  0.00     0.041 C 
ATOM      5  O   UNL     1       3.655  -5.477 -36.078  1.00  0.00    -0.550 OA
ATOM      6  O   UNL     1       4.833  -6.614 -34.476  1.00  0.00    -0.550 OA
ENDBRANCH   3   4
ENDBRANCH   2   3
ENDBRANCH   1   2
BRANCH   1   7
ATOM      7  C   UNL     1       0.086  -6.280 -33.145  1.00  0.00     0.000 C 
BRANCH   7   8
ATOM      8  C   UNL     1      -1.257  -6.306 -32.394  1.00  0.00     0.004 C 
BRANCH   8   9
ATOM      9  C   UNL     1      -1.397  -7.550 -31.507  1.00  0.00     0.027 C 
BRANCH   9  10
ATOM     10  C   UNL     1      -1.792  -7.185 -30.101  1.00  0.00    -0.035 C 
ATOM     11  C   UNL     1      -1.219  -6.171 -29.446  1.00  0.00     0.004 C 
ENDBRANCH   9  10
ENDBRANCH   8   9
ENDBRANCH   7   8
ENDBRANCH   1   7
TORSDOF 7
ENDMDL
