MODEL 1
REMARK VINA RESULT:    -6.317      0.000      0.000
REMARK INTER + INTRA:         -10.177
REMARK INTER:                  -8.902
REMARK INTRA:                  -1.275
REMARK UNBOUND:                -1.275
REMARK SMILES OC[C@H]1O[C@@H](O[C@@H]2OC=C[C@@H]3[C@H](O)[C@H]4O[C@@]4(CO)[C@@H]23)[C@H](O)[C@H](O)[C@H]1O
REMARK SMILES IDX 6 1 7 2 10 3 9 4 11 5 8 6 19 7 12 8 16 9 14 10 15 11 13 12
REMARK SMILES IDX 17 14 18 15 5 17 20 18 4 19 22 20 3 21 24 22 21 23 23 25
REMARK SMILES IDX 2 27 1 28 25 30
REMARK H PARENT 13 13 18 16 21 24 23 26 1 29 25 31
REMARK Flexibility Score: inf
ROOT
ATOM      1  O   UNL     1       3.885   7.686 -22.603  1.00  0.00    -0.310 OA
ENDROOT
BRANCH   1   2
ATOM      2  C   UNL     1       5.198   7.972 -23.058  1.00  0.00     0.315 C 
ATOM      3  C   UNL     1       7.609   9.551 -22.627  1.00  0.00     0.018 C 
ATOM      4  C   UNL     1       7.354   8.491 -21.843  1.00  0.00     0.186 C 
ATOM      5  C   UNL     1       6.715   9.770 -23.809  1.00  0.00     0.059 C 
ATOM      6  O   UNL     1       6.190   7.709 -22.036  1.00  0.00    -0.472 OA
ATOM      7  C   UNL     1       5.278   9.463 -23.419  1.00  0.00     0.105 C 
ATOM      8  C   UNL     1       6.622  11.148 -24.464  1.00  0.00     0.154 C 
ATOM      9  C   UNL     1       4.437  10.006 -24.577  1.00  0.00     0.130 C 
ATOM     10  C   UNL     1       5.232  11.137 -25.127  1.00  0.00     0.183 C 
ATOM     11  O   UNL     1       4.983   9.964 -25.881  1.00  0.00    -0.360 OA
BRANCH   8  12
ATOM     12  O   UNL     1       6.663  12.173 -23.503  1.00  0.00    -0.390 OA
ATOM     13  H   UNL     1       6.150  12.934 -23.878  1.00  0.00     0.211 HD
ENDBRANCH   8  12
BRANCH   9  14
ATOM     14  C   UNL     1       2.933  10.277 -24.470  1.00  0.00     0.195 C 
BRANCH  14  15
ATOM     15  O   UNL     1       2.533  10.278 -23.127  1.00  0.00    -0.393 OA
ATOM     16  H   UNL     1       1.540  10.332 -23.127  1.00  0.00     0.210 HD
ENDBRANCH  14  15
ENDBRANCH   9  14
ENDBRANCH   1   2
BRANCH   1  17
ATOM     17  C   UNL     1       3.327   6.466 -23.080  1.00  0.00     0.286 C 
ATOM     18  C   UNL     1       2.332   6.632 -24.268  1.00  0.00     0.202 C 
ATOM     19  O   UNL     1       4.333   5.518 -23.392  1.00  0.00    -0.341 OA
ATOM     20  C   UNL     1       2.224   5.311 -25.072  1.00  0.00     0.179 C 
ATOM     21  C   UNL     1       3.805   4.195 -23.405  1.00  0.00     0.178 C 
ATOM     22  C   UNL     1       2.424   4.097 -24.149  1.00  0.00     0.177 C 
BRANCH  18  23
ATOM     23  O   UNL     1       1.069   7.004 -23.775  1.00  0.00    -0.385 OA
ATOM     24  H   UNL     1       0.401   6.688 -24.439  1.00  0.00     0.211 HD
ENDBRANCH  18  23
BRANCH  20  25
ATOM     25  O   UNL     1       0.977   5.223 -25.715  1.00  0.00    -0.387 OA
ATOM     26  H   UNL     1       0.299   5.076 -25.003  1.00  0.00     0.211 HD
ENDBRANCH  20  25
BRANCH  21  27
ATOM     27  C   UNL     1       4.871   3.264 -24.008  1.00  0.00     0.191 C 
BRANCH  27  28
ATOM     28  O   UNL     1       5.101   3.608 -25.345  1.00  0.00    -0.394 OA
ATOM     29  H   UNL     1       4.540   2.992 -25.889  1.00  0.00     0.210 HD
ENDBRANCH  27  28
ENDBRANCH  21  27
BRANCH  22  30
ATOM     30  O   UNL     1       2.316   2.902 -24.887  1.00  0.00    -0.387 OA
ATOM     31  H   UNL     1       1.460   2.944 -25.386  1.00  0.00     0.211 HD
ENDBRANCH  22  30
ENDBRANCH   1  17
TORSDOF 10
ENDMDL
MODEL 2
REMARK VINA RESULT:    -6.280      1.811      6.163
REMARK INTER + INTRA:         -10.125
REMARK INTER:                  -8.726
REMARK INTRA:                  -1.398
REMARK UNBOUND:                -1.275
REMARK SMILES OC[C@H]1O[C@@H](O[C@@H]2OC=C[C@@H]3[C@H](O)[C@H]4O[C@@]4(CO)[C@@H]23)[C@H](O)[C@H](O)[C@H]1O
REMARK SMILES IDX 6 1 7 2 10 3 9 4 11 5 8 6 19 7 12 8 16 9 14 10 15 11 13 12
REMARK SMILES IDX 17 14 18 15 5 17 20 18 4 19 22 20 3 21 24 22 21 23 23 25
REMARK SMILES IDX 2 27 1 28 25 30
REMARK H PARENT 13 13 18 16 21 24 23 26 1 29 25 31
REMARK Flexibility Score: inf
ROOT
ATOM      1  O   UNL     1       3.154   7.409 -24.317  1.00  0.00    -0.310 OA
ENDROOT
BRANCH   1   2
ATOM      2  C   UNL     1       4.018   6.402 -24.822  1.00  0.00     0.315 C 
ATOM      3  C   UNL     1       4.263   3.607 -25.608  1.00  0.00     0.018 C 
ATOM      4  C   UNL     1       3.652   4.481 -26.424  1.00  0.00     0.186 C 
ATOM      5  C   UNL     1       4.946   4.155 -24.392  1.00  0.00     0.059 C 
ATOM      6  O   UNL     1       3.525   5.844 -26.064  1.00  0.00    -0.472 OA
ATOM      7  C   UNL     1       4.098   5.264 -23.793  1.00  0.00     0.105 C 
ATOM      8  C   UNL     1       5.246   3.248 -23.199  1.00  0.00     0.154 C 
ATOM      9  C   UNL     1       4.720   5.530 -22.420  1.00  0.00     0.130 C 
ATOM     10  C   UNL     1       5.313   4.227 -22.013  1.00  0.00     0.183 C 
ATOM     11  O   UNL     1       6.117   5.364 -22.272  1.00  0.00    -0.360 OA
BRANCH   8  12
ATOM     12  O   UNL     1       4.203   2.332 -22.980  1.00  0.00    -0.390 OA
ATOM     13  H   UNL     1       3.356   2.834 -23.102  1.00  0.00     0.211 HD
ENDBRANCH   8  12
BRANCH   9  14
ATOM     14  C   UNL     1       3.994   6.278 -21.298  1.00  0.00     0.195 C 
BRANCH  14  15
ATOM     15  O   UNL     1       4.569   7.540 -21.102  1.00  0.00    -0.393 OA
ATOM     16  H   UNL     1       3.941   8.203 -21.496  1.00  0.00     0.210 HD
ENDBRANCH  14  15
ENDBRANCH   9  14
ENDBRANCH   1   2
BRANCH   1  17
ATOM     17  C   UNL     1       3.697   8.725 -24.299  1.00  0.00     0.286 C 
ATOM     18  C   UNL     1       2.715   9.822 -23.788  1.00  0.00     0.202 C 
ATOM     19  O   UNL     1       4.924   8.774 -23.589  1.00  0.00    -0.341 OA
ATOM     20  C   UNL     1       3.502  11.051 -23.266  1.00  0.00     0.179 C 
ATOM     21  C   UNL     1       5.684   9.921 -23.959  1.00  0.00     0.178 C 
ATOM     22  C   UNL     1       4.815  11.227 -24.049  1.00  0.00     0.177 C 
BRANCH  18  23
ATOM     23  O   UNL     1       1.854  10.203 -24.831  1.00  0.00    -0.385 OA
ATOM     24  H   UNL     1       2.072  11.148 -25.048  1.00  0.00     0.211 HD
ENDBRANCH  18  23
BRANCH  20  25
ATOM     25  O   UNL     1       2.724  12.218 -23.371  1.00  0.00    -0.387 OA
ATOM     26  H   UNL     1       3.352  12.962 -23.572  1.00  0.00     0.211 HD
ENDBRANCH  20  25
BRANCH  21  27
ATOM     27  C   UNL     1       6.855  10.052 -22.970  1.00  0.00     0.191 C 
BRANCH  27  28
ATOM     28  O   UNL     1       6.978   8.877 -22.219  1.00  0.00    -0.394 OA
ATOM     29  H   UNL     1       6.776   8.129 -22.842  1.00  0.00     0.210 HD
ENDBRANCH  27  28
ENDBRANCH  21  27
BRANCH  22  30
ATOM     30  O   UNL     1       5.518  12.350 -23.572  1.00  0.00    -0.387 OA
ATOM     31  H   UNL     1       5.577  12.997 -24.322  1.00  0.00     0.211 HD
ENDBRANCH  22  30
ENDBRANCH   1  17
TORSDOF 10
ENDMDL
MODEL 3
REMARK VINA RESULT:    -6.245      4.966      8.835
REMARK INTER + INTRA:         -10.075
REMARK INTER:                  -8.637
REMARK INTRA:                  -1.439
REMARK UNBOUND:                -1.275
REMARK SMILES OC[C@H]1O[C@@H](O[C@@H]2OC=C[C@@H]3[C@H](O)[C@H]4O[C@@]4(CO)[C@@H]23)[C@H](O)[C@H](O)[C@H]1O
REMARK SMILES IDX 6 1 7 2 10 3 9 4 11 5 8 6 19 7 12 8 16 9 14 10 15 11 13 12
REMARK SMILES IDX 17 14 18 15 5 17 20 18 4 19 22 20 3 21 24 22 21 23 23 25
REMARK SMILES IDX 2 27 1 28 25 30
REMARK H PARENT 13 13 18 16 21 24 23 26 1 29 25 31
REMARK Flexibility Score: inf
ROOT
ATOM      1  O   UNL     1       4.101  -0.552 -25.393  1.00  0.00    -0.310 OA
ENDROOT
BRANCH   1   2
ATOM      2  C   UNL     1       3.065   0.378 -25.115  1.00  0.00     0.315 C 
ATOM      3  C   UNL     1       1.872   2.940 -25.825  1.00  0.00     0.018 C 
ATOM      4  C   UNL     1       1.660   1.865 -26.601  1.00  0.00     0.186 C 
ATOM      5  C   UNL     1       2.584   2.726 -24.523  1.00  0.00     0.059 C 
ATOM      6  O   UNL     1       2.227   0.610 -26.273  1.00  0.00    -0.472 OA
ATOM      7  C   UNL     1       3.704   1.718 -24.721  1.00  0.00     0.105 C 
ATOM      8  C   UNL     1       3.273   3.894 -23.818  1.00  0.00     0.154 C 
ATOM      9  C   UNL     1       4.538   1.809 -23.440  1.00  0.00     0.130 C 
ATOM     10  C   UNL     1       4.360   3.209 -22.969  1.00  0.00     0.183 C 
ATOM     11  O   UNL     1       3.875   2.105 -22.226  1.00  0.00    -0.360 OA
BRANCH   8  12
ATOM     12  O   UNL     1       3.888   4.757 -24.741  1.00  0.00    -0.390 OA
ATOM     13  H   UNL     1       4.173   5.559 -24.232  1.00  0.00     0.211 HD
ENDBRANCH   8  12
BRANCH   9  14
ATOM     14  C   UNL     1       5.970   1.276 -23.328  1.00  0.00     0.195 C 
BRANCH  14  15
ATOM     15  O   UNL     1       5.970  -0.008 -22.770  1.00  0.00    -0.393 OA
ATOM     16  H   UNL     1       5.424   0.042 -21.941  1.00  0.00     0.210 HD
ENDBRANCH  14  15
ENDBRANCH   9  14
ENDBRANCH   1   2
BRANCH   1  17
ATOM     17  C   UNL     1       4.017  -1.786 -24.686  1.00  0.00     0.286 C 
ATOM     18  C   UNL     1       5.215  -2.752 -24.929  1.00  0.00     0.202 C 
ATOM     19  O   UNL     1       3.806  -1.581 -23.299  1.00  0.00    -0.341 OA
ATOM     20  C   UNL     1       5.349  -3.754 -23.754  1.00  0.00     0.179 C 
ATOM     21  C   UNL     1       3.260  -2.745 -22.686  1.00  0.00     0.178 C 
ATOM     22  C   UNL     1       3.969  -4.068 -23.150  1.00  0.00     0.177 C 
BRANCH  18  23
ATOM     23  O   UNL     1       5.023  -3.444 -26.138  1.00  0.00    -0.385 OA
ATOM     24  H   UNL     1       4.130  -3.174 -26.481  1.00  0.00     0.211 HD
ENDBRANCH  18  23
BRANCH  20  25
ATOM     25  O   UNL     1       5.963  -4.943 -24.184  1.00  0.00    -0.387 OA
ATOM     26  H   UNL     1       5.372  -5.335 -24.881  1.00  0.00     0.211 HD
ENDBRANCH  20  25
BRANCH  21  27
ATOM     27  C   UNL     1       3.312  -2.546 -21.162  1.00  0.00     0.191 C 
BRANCH  27  28
ATOM     28  O   UNL     1       4.229  -1.536 -20.845  1.00  0.00    -0.394 OA
ATOM     29  H   UNL     1       3.738  -0.890 -20.269  1.00  0.00     0.210 HD
ENDBRANCH  27  28
ENDBRANCH  21  27
BRANCH  22  30
ATOM     30  O   UNL     1       4.100  -4.985 -22.089  1.00  0.00    -0.387 OA
ATOM     31  H   UNL     1       5.043  -5.296 -22.087  1.00  0.00     0.211 HD
ENDBRANCH  22  30
ENDBRANCH   1  17
TORSDOF 10
ENDMDL
MODEL 4
REMARK VINA RESULT:    -6.188      5.223      8.553
REMARK INTER + INTRA:          -9.995
REMARK INTER:                  -9.451
REMARK INTRA:                  -0.544
REMARK UNBOUND:                -1.275
REMARK SMILES OC[C@H]1O[C@@H](O[C@@H]2OC=C[C@@H]3[C@H](O)[C@H]4O[C@@]4(CO)[C@@H]23)[C@H](O)[C@H](O)[C@H]1O
REMARK SMILES IDX 6 1 7 2 10 3 9 4 11 5 8 6 19 7 12 8 16 9 14 10 15 11 13 12
REMARK SMILES IDX 17 14 18 15 5 17 20 18 4 19 22 20 3 21 24 22 21 23 23 25
REMARK SMILES IDX 2 27 1 28 25 30
REMARK H PARENT 13 13 18 16 21 24 23 26 1 29 25 31
REMARK Flexibility Score: inf
ROOT
ATOM      1  O   UNL     1       3.396  -0.521 -24.339  1.00  0.00    -0.310 OA
ENDROOT
BRANCH   1   2
ATOM      2  C   UNL     1       4.407   0.332 -23.823  1.00  0.00     0.315 C 
ATOM      3  C   UNL     1       5.015   2.519 -21.996  1.00  0.00     0.018 C 
ATOM      4  C   UNL     1       4.833   1.277 -21.517  1.00  0.00     0.186 C 
ATOM      5  C   UNL     1       5.063   2.688 -23.484  1.00  0.00     0.059 C 
ATOM      6  O   UNL     1       4.540   0.200 -22.387  1.00  0.00    -0.472 OA
ATOM      7  C   UNL     1       4.022   1.787 -24.128  1.00  0.00     0.105 C 
ATOM      8  C   UNL     1       4.796   4.053 -24.116  1.00  0.00     0.154 C 
ATOM      9  C   UNL     1       3.947   2.259 -25.583  1.00  0.00     0.130 C 
ATOM     10  C   UNL     1       4.304   3.703 -25.533  1.00  0.00     0.183 C 
ATOM     11  O   UNL     1       5.124   2.754 -26.190  1.00  0.00    -0.360 OA
BRANCH   8  12
ATOM     12  O   UNL     1       3.778   4.741 -23.434  1.00  0.00    -0.390 OA
ATOM     13  H   UNL     1       3.610   5.576 -23.942  1.00  0.00     0.211 HD
ENDBRANCH   8  12
BRANCH   9  14
ATOM     14  C   UNL     1       2.781   1.923 -26.517  1.00  0.00     0.195 C 
BRANCH  14  15
ATOM     15  O   UNL     1       2.914   0.620 -27.014  1.00  0.00    -0.393 OA
ATOM     16  H   UNL     1       2.344   0.039 -26.444  1.00  0.00     0.210 HD
ENDBRANCH  14  15
ENDBRANCH   9  14
ENDBRANCH   1   2
BRANCH   1  17
ATOM     17  C   UNL     1       3.489  -1.885 -23.940  1.00  0.00     0.286 C 
ATOM     18  C   UNL     1       4.840  -2.573 -24.303  1.00  0.00     0.202 C 
ATOM     19  O   UNL     1       3.192  -2.049 -22.563  1.00  0.00    -0.341 OA
ATOM     20  C   UNL     1       5.090  -3.793 -23.380  1.00  0.00     0.179 C 
ATOM     21  C   UNL     1       2.822  -3.394 -22.275  1.00  0.00     0.178 C 
ATOM     22  C   UNL     1       3.758  -4.447 -22.972  1.00  0.00     0.177 C 
BRANCH  18  23
ATOM     23  O   UNL     1       4.814  -2.980 -25.648  1.00  0.00    -0.385 OA
ATOM     24  H   UNL     1       4.596  -3.949 -25.648  1.00  0.00     0.211 HD
ENDBRANCH  18  23
BRANCH  20  25
ATOM     25  O   UNL     1       5.909  -4.740 -24.020  1.00  0.00    -0.387 OA
ATOM     26  H   UNL     1       6.732  -4.825 -23.468  1.00  0.00     0.211 HD
ENDBRANCH  20  25
BRANCH  21  27
ATOM     27  C   UNL     1       2.780  -3.557 -20.747  1.00  0.00     0.191 C 
BRANCH  27  28
ATOM     28  O   UNL     1       2.134  -4.754 -20.413  1.00  0.00    -0.394 OA
ATOM     29  H   UNL     1       2.095  -4.778 -19.419  1.00  0.00     0.210 HD
ENDBRANCH  27  28
ENDBRANCH  21  27
BRANCH  22  30
ATOM     30  O   UNL     1       3.996  -5.558 -22.141  1.00  0.00    -0.387 OA
ATOM     31  H   UNL     1       4.280  -6.306 -22.728  1.00  0.00     0.211 HD
ENDBRANCH  22  30
ENDBRANCH   1  17
TORSDOF 10
ENDMDL
MODEL 5
REMARK VINA RESULT:    -6.176      1.598      6.319
REMARK INTER + INTRA:          -9.978
REMARK INTER:                  -9.091
REMARK INTRA:                  -0.887
REMARK UNBOUND:                -1.275
REMARK SMILES OC[C@H]1O[C@@H](O[C@@H]2OC=C[C@@H]3[C@H](O)[C@H]4O[C@@]4(CO)[C@@H]23)[C@H](O)[C@H](O)[C@H]1O
REMARK SMILES IDX 6 1 7 2 10 3 9 4 11 5 8 6 19 7 12 8 16 9 14 10 15 11 13 12
REMARK SMILES IDX 17 14 18 15 5 17 20 18 4 19 22 20 3 21 24 22 21 23 23 25
REMARK SMILES IDX 2 27 1 28 25 30
REMARK H PARENT 13 13 18 16 21 24 23 26 1 29 25 31
REMARK Flexibility Score: inf
ROOT
ATOM      1  O   UNL     1       4.607   7.643 -24.921  1.00  0.00    -0.310 OA
ENDROOT
BRANCH   1   2
ATOM      2  C   UNL     1       4.187   6.888 -23.795  1.00  0.00     0.315 C 
ATOM      3  C   UNL     1       4.762   4.613 -22.068  1.00  0.00     0.018 C 
ATOM      4  C   UNL     1       5.457   5.753 -21.927  1.00  0.00     0.186 C 
ATOM      5  C   UNL     1       3.593   4.624 -23.007  1.00  0.00     0.059 C 
ATOM      6  O   UNL     1       5.192   6.871 -22.753  1.00  0.00    -0.472 OA
ATOM      7  C   UNL     1       3.947   5.438 -24.241  1.00  0.00     0.105 C 
ATOM      8  C   UNL     1       3.050   3.317 -23.581  1.00  0.00     0.154 C 
ATOM      9  C   UNL     1       2.829   5.130 -25.241  1.00  0.00     0.130 C 
ATOM     10  C   UNL     1       2.377   3.755 -24.895  1.00  0.00     0.183 C 
ATOM     11  O   UNL     1       1.530   4.879 -24.741  1.00  0.00    -0.360 OA
BRANCH   8  12
ATOM     12  O   UNL     1       4.090   2.419 -23.876  1.00  0.00    -0.390 OA
ATOM     13  H   UNL     1       4.858   2.677 -23.304  1.00  0.00     0.211 HD
ENDBRANCH   8  12
BRANCH   9  14
ATOM     14  C   UNL     1       2.946   5.404 -26.744  1.00  0.00     0.195 C 
BRANCH  14  15
ATOM     15  O   UNL     1       2.701   6.756 -27.013  1.00  0.00    -0.393 OA
ATOM     16  H   UNL     1       2.096   6.784 -27.802  1.00  0.00     0.210 HD
ENDBRANCH  14  15
ENDBRANCH   9  14
ENDBRANCH   1   2
BRANCH   1  17
ATOM     17  C   UNL     1       4.757   9.041 -24.694  1.00  0.00     0.286 C 
ATOM     18  C   UNL     1       3.546   9.713 -23.980  1.00  0.00     0.202 C 
ATOM     19  O   UNL     1       5.969   9.335 -24.018  1.00  0.00    -0.341 OA
ATOM     20  C   UNL     1       3.989  11.022 -23.278  1.00  0.00     0.179 C 
ATOM     21  C   UNL     1       6.345  10.695 -24.208  1.00  0.00     0.178 C 
ATOM     22  C   UNL     1       5.139  11.690 -24.053  1.00  0.00     0.177 C 
BRANCH  18  23
ATOM     23  O   UNL     1       2.537   9.984 -24.921  1.00  0.00    -0.385 OA
ATOM     24  H   UNL     1       1.826   9.305 -24.779  1.00  0.00     0.211 HD
ENDBRANCH  18  23
BRANCH  20  25
ATOM     25  O   UNL     1       2.909  11.914 -23.164  1.00  0.00    -0.387 OA
ATOM     26  H   UNL     1       2.332  11.768 -23.961  1.00  0.00     0.211 HD
ENDBRANCH  20  25
BRANCH  21  27
ATOM     27  C   UNL     1       7.500  11.007 -23.242  1.00  0.00     0.191 C 
BRANCH  27  28
ATOM     28  O   UNL     1       8.132  12.197 -23.622  1.00  0.00    -0.394 OA
ATOM     29  H   UNL     1       7.403  12.842 -23.828  1.00  0.00     0.210 HD
ENDBRANCH  27  28
ENDBRANCH  21  27
BRANCH  22  30
ATOM     30  O   UNL     1       5.528  12.882 -23.412  1.00  0.00    -0.387 OA
ATOM     31  H   UNL     1       4.759  13.182 -22.862  1.00  0.00     0.211 HD
ENDBRANCH  22  30
ENDBRANCH   1  17
TORSDOF 10
ENDMDL
MODEL 6
REMARK VINA RESULT:    -6.076      1.703      6.673
REMARK INTER + INTRA:          -9.838
REMARK INTER:                  -8.462
REMARK INTRA:                  -1.375
REMARK UNBOUND:                -1.275
REMARK SMILES OC[C@H]1O[C@@H](O[C@@H]2OC=C[C@@H]3[C@H](O)[C@H]4O[C@@]4(CO)[C@@H]23)[C@H](O)[C@H](O)[C@H]1O
REMARK SMILES IDX 6 1 7 2 10 3 9 4 11 5 8 6 19 7 12 8 16 9 14 10 15 11 13 12
REMARK SMILES IDX 17 14 18 15 5 17 20 18 4 19 22 20 3 21 24 22 21 23 23 25
REMARK SMILES IDX 2 27 1 28 25 30
REMARK H PARENT 13 13 18 16 21 24 23 26 1 29 25 31
REMARK Flexibility Score: inf
ROOT
ATOM      1  O   UNL     1       4.611   7.501 -24.371  1.00  0.00    -0.310 OA
ENDROOT
BRANCH   1   2
ATOM      2  C   UNL     1       3.941   6.973 -25.506  1.00  0.00     0.315 C 
ATOM      3  C   UNL     1       1.408   6.769 -26.931  1.00  0.00     0.018 C 
ATOM      4  C   UNL     1       2.128   7.899 -27.005  1.00  0.00     0.186 C 
ATOM      5  C   UNL     1       2.033   5.591 -26.246  1.00  0.00     0.059 C 
ATOM      6  O   UNL     1       3.363   8.019 -26.324  1.00  0.00    -0.472 OA
ATOM      7  C   UNL     1       2.799   6.068 -25.022  1.00  0.00     0.105 C 
ATOM      8  C   UNL     1       1.162   4.458 -25.706  1.00  0.00     0.154 C 
ATOM      9  C   UNL     1       3.125   4.789 -24.247  1.00  0.00     0.130 C 
ATOM     10  C   UNL     1       2.023   3.848 -24.584  1.00  0.00     0.183 C 
ATOM     11  O   UNL     1       3.360   3.602 -24.978  1.00  0.00    -0.360 OA
BRANCH   8  12
ATOM     12  O   UNL     1      -0.031   4.952 -25.152  1.00  0.00    -0.390 OA
ATOM     13  H   UNL     1      -0.090   4.584 -24.233  1.00  0.00     0.211 HD
ENDBRANCH   8  12
BRANCH   9  14
ATOM     14  C   UNL     1       3.540   4.782 -22.772  1.00  0.00     0.195 C 
BRANCH  14  15
ATOM     15  O   UNL     1       3.384   6.058 -22.216  1.00  0.00    -0.393 OA
ATOM     16  H   UNL     1       4.140   6.609 -22.551  1.00  0.00     0.210 HD
ENDBRANCH  14  15
ENDBRANCH   9  14
ENDBRANCH   1   2
BRANCH   1  17
ATOM     17  C   UNL     1       4.682   8.922 -24.314  1.00  0.00     0.286 C 
ATOM     18  C   UNL     1       3.644   9.582 -23.358  1.00  0.00     0.202 C 
ATOM     19  O   UNL     1       5.996   9.369 -24.019  1.00  0.00    -0.341 OA
ATOM     20  C   UNL     1       4.130  10.986 -22.917  1.00  0.00     0.179 C 
ATOM     21  C   UNL     1       6.178  10.724 -24.419  1.00  0.00     0.178 C 
ATOM     22  C   UNL     1       4.967  11.644 -24.028  1.00  0.00     0.177 C 
BRANCH  18  23
ATOM     23  O   UNL     1       2.402   9.682 -24.009  1.00  0.00    -0.385 OA
ATOM     24  H   UNL     1       1.716   9.364 -23.364  1.00  0.00     0.211 HD
ENDBRANCH  18  23
BRANCH  20  25
ATOM     25  O   UNL     1       3.039  11.810 -22.590  1.00  0.00    -0.387 OA
ATOM     26  H   UNL     1       3.250  12.230 -21.714  1.00  0.00     0.211 HD
ENDBRANCH  20  25
BRANCH  21  27
ATOM     27  C   UNL     1       7.512  11.215 -23.832  1.00  0.00     0.191 C 
BRANCH  27  28
ATOM     28  O   UNL     1       7.989  12.301 -24.577  1.00  0.00    -0.394 OA
ATOM     29  H   UNL     1       7.203  12.668 -25.063  1.00  0.00     0.210 HD
ENDBRANCH  27  28
ENDBRANCH  21  27
BRANCH  22  30
ATOM     30  O   UNL     1       5.397  12.922 -23.620  1.00  0.00    -0.387 OA
ATOM     31  H   UNL     1       6.114  12.787 -22.948  1.00  0.00     0.211 HD
ENDBRANCH  22  30
ENDBRANCH   1  17
TORSDOF 10
ENDMDL
MODEL 7
REMARK VINA RESULT:    -6.034      3.577      8.431
REMARK INTER + INTRA:          -9.778
REMARK INTER:                  -8.248
REMARK INTRA:                  -1.529
REMARK UNBOUND:                -1.275
REMARK SMILES OC[C@H]1O[C@@H](O[C@@H]2OC=C[C@@H]3[C@H](O)[C@H]4O[C@@]4(CO)[C@@H]23)[C@H](O)[C@H](O)[C@H]1O
REMARK SMILES IDX 6 1 7 2 10 3 9 4 11 5 8 6 19 7 12 8 16 9 14 10 15 11 13 12
REMARK SMILES IDX 17 14 18 15 5 17 20 18 4 19 22 20 3 21 24 22 21 23 23 25
REMARK SMILES IDX 2 27 1 28 25 30
REMARK H PARENT 13 13 18 16 21 24 23 26 1 29 25 31
REMARK Flexibility Score: inf
ROOT
ATOM      1  O   UNL     1       5.221   2.080 -23.729  1.00  0.00    -0.310 OA
ENDROOT
BRANCH   1   2
ATOM      2  C   UNL     1       4.773   0.929 -23.029  1.00  0.00     0.315 C 
ATOM      3  C   UNL     1       5.537  -1.620 -21.842  1.00  0.00     0.018 C 
ATOM      4  C   UNL     1       5.815  -0.474 -21.201  1.00  0.00     0.186 C 
ATOM      5  C   UNL     1       4.685  -1.538 -23.072  1.00  0.00     0.059 C 
ATOM      6  O   UNL     1       5.451   0.776 -21.758  1.00  0.00    -0.472 OA
ATOM      7  C   UNL     1       5.081  -0.312 -23.879  1.00  0.00     0.105 C 
ATOM      8  C   UNL     1       4.703  -2.667 -24.102  1.00  0.00     0.154 C 
ATOM      9  C   UNL     1       4.383  -0.495 -25.229  1.00  0.00     0.130 C 
ATOM     10  C   UNL     1       4.278  -1.968 -25.407  1.00  0.00     0.183 C 
ATOM     11  O   UNL     1       3.131  -1.152 -25.255  1.00  0.00    -0.360 OA
BRANCH   8  12
ATOM     12  O   UNL     1       5.998  -3.190 -24.262  1.00  0.00    -0.390 OA
ATOM     13  H   UNL     1       6.625  -2.427 -24.171  1.00  0.00     0.211 HD
ENDBRANCH   8  12
BRANCH   9  14
ATOM     14  C   UNL     1       4.782   0.273 -26.493  1.00  0.00     0.195 C 
BRANCH  14  15
ATOM     15  O   UNL     1       4.223   1.557 -26.481  1.00  0.00    -0.393 OA
ATOM     16  H   UNL     1       3.939   1.752 -27.414  1.00  0.00     0.210 HD
ENDBRANCH  14  15
ENDBRANCH   9  14
ENDBRANCH   1   2
BRANCH   1  17
ATOM     17  C   UNL     1       4.521   3.284 -23.432  1.00  0.00     0.286 C 
ATOM     18  C   UNL     1       5.283   4.255 -22.481  1.00  0.00     0.202 C 
ATOM     19  O   UNL     1       4.107   3.953 -24.612  1.00  0.00    -0.341 OA
ATOM     20  C   UNL     1       4.764   5.705 -22.660  1.00  0.00     0.179 C 
ATOM     21  C   UNL     1       3.039   4.856 -24.341  1.00  0.00     0.178 C 
ATOM     22  C   UNL     1       3.273   5.704 -23.039  1.00  0.00     0.177 C 
BRANCH  18  23
ATOM     23  O   UNL     1       5.111   3.840 -21.149  1.00  0.00    -0.385 OA
ATOM     24  H   UNL     1       4.148   3.617 -21.043  1.00  0.00     0.211 HD
ENDBRANCH  18  23
BRANCH  20  25
ATOM     25  O   UNL     1       4.957   6.450 -21.484  1.00  0.00    -0.387 OA
ATOM     26  H   UNL     1       4.568   7.350 -21.649  1.00  0.00     0.211 HD
ENDBRANCH  20  25
BRANCH  21  27
ATOM     27  C   UNL     1       2.829   5.728 -25.590  1.00  0.00     0.191 C 
BRANCH  27  28
ATOM     28  O   UNL     1       4.020   6.389 -25.915  1.00  0.00    -0.394 OA
ATOM     29  H   UNL     1       4.627   5.696 -26.289  1.00  0.00     0.210 HD
ENDBRANCH  27  28
ENDBRANCH  21  27
BRANCH  22  30
ATOM     30  O   UNL     1       2.810   7.026 -23.192  1.00  0.00    -0.387 OA
ATOM     31  H   UNL     1       3.579   7.570 -23.504  1.00  0.00     0.211 HD
ENDBRANCH  22  30
ENDBRANCH   1  17
TORSDOF 10
ENDMDL
MODEL 8
REMARK VINA RESULT:    -6.022      4.437      9.151
REMARK INTER + INTRA:          -9.761
REMARK INTER:                  -8.445
REMARK INTRA:                  -1.316
REMARK UNBOUND:                -1.275
REMARK SMILES OC[C@H]1O[C@@H](O[C@@H]2OC=C[C@@H]3[C@H](O)[C@H]4O[C@@]4(CO)[C@@H]23)[C@H](O)[C@H](O)[C@H]1O
REMARK SMILES IDX 6 1 7 2 10 3 9 4 11 5 8 6 19 7 12 8 16 9 14 10 15 11 13 12
REMARK SMILES IDX 17 14 18 15 5 17 20 18 4 19 22 20 3 21 24 22 21 23 23 25
REMARK SMILES IDX 2 27 1 28 25 30
REMARK H PARENT 13 13 18 16 21 24 23 26 1 29 25 31
REMARK Flexibility Score: inf
ROOT
ATOM      1  O   UNL     1       3.991   0.855 -24.688  1.00  0.00    -0.310 OA
ENDROOT
BRANCH   1   2
ATOM      2  C   UNL     1       4.074   0.134 -23.468  1.00  0.00     0.315 C 
ATOM      3  C   UNL     1       5.845  -1.123 -21.525  1.00  0.00     0.018 C 
ATOM      4  C   UNL     1       5.711   0.213 -21.543  1.00  0.00     0.186 C 
ATOM      5  C   UNL     1       4.934  -1.923 -22.407  1.00  0.00     0.059 C 
ATOM      6  O   UNL     1       4.854   0.844 -22.476  1.00  0.00    -0.472 OA
ATOM      7  C   UNL     1       4.767  -1.209 -23.739  1.00  0.00     0.105 C 
ATOM      8  C   UNL     1       5.304  -3.350 -22.809  1.00  0.00     0.154 C 
ATOM      9  C   UNL     1       4.091  -2.239 -24.648  1.00  0.00     0.130 C 
ATOM     10  C   UNL     1       4.545  -3.559 -24.132  1.00  0.00     0.183 C 
ATOM     11  O   UNL     1       3.188  -3.159 -24.066  1.00  0.00    -0.360 OA
BRANCH   8  12
ATOM     12  O   UNL     1       6.684  -3.471 -23.047  1.00  0.00    -0.390 OA
ATOM     13  H   UNL     1       7.115  -3.587 -22.162  1.00  0.00     0.211 HD
ENDBRANCH   8  12
BRANCH   9  14
ATOM     14  C   UNL     1       4.067  -2.126 -26.175  1.00  0.00     0.195 C 
BRANCH  14  15
ATOM     15  O   UNL     1       3.118  -1.178 -26.580  1.00  0.00    -0.393 OA
ATOM     16  H   UNL     1       3.612  -0.331 -26.740  1.00  0.00     0.210 HD
ENDBRANCH  14  15
ENDBRANCH   9  14
ENDBRANCH   1   2
BRANCH   1  17
ATOM     17  C   UNL     1       3.405   2.149 -24.593  1.00  0.00     0.286 C 
ATOM     18  C   UNL     1       4.364   3.320 -24.962  1.00  0.00     0.202 C 
ATOM     19  O   UNL     1       2.198   2.232 -25.331  1.00  0.00    -0.341 OA
ATOM     20  C   UNL     1       3.552   4.572 -25.383  1.00  0.00     0.179 C 
ATOM     21  C   UNL     1       1.390   3.312 -24.872  1.00  0.00     0.178 C 
ATOM     22  C   UNL     1       2.212   4.628 -24.627  1.00  0.00     0.177 C 
BRANCH  18  23
ATOM     23  O   UNL     1       5.183   3.622 -23.860  1.00  0.00    -0.385 OA
ATOM     24  H   UNL     1       6.058   3.916 -24.229  1.00  0.00     0.211 HD
ENDBRANCH  18  23
BRANCH  20  25
ATOM     25  O   UNL     1       4.287   5.745 -25.139  1.00  0.00    -0.387 OA
ATOM     26  H   UNL     1       3.648   6.503 -25.217  1.00  0.00     0.211 HD
ENDBRANCH  20  25
BRANCH  21  27
ATOM     27  C   UNL     1       0.243   3.507 -25.879  1.00  0.00     0.191 C 
BRANCH  27  28
ATOM     28  O   UNL     1      -0.894   3.987 -25.218  1.00  0.00    -0.394 OA
ATOM     29  H   UNL     1      -1.662   3.808 -25.825  1.00  0.00     0.210 HD
ENDBRANCH  27  28
ENDBRANCH  21  27
BRANCH  22  30
ATOM     30  O   UNL     1       1.486   5.772 -25.011  1.00  0.00    -0.387 OA
ATOM     31  H   UNL     1       2.138   6.418 -25.388  1.00  0.00     0.211 HD
ENDBRANCH  22  30
ENDBRANCH   1  17
TORSDOF 10
ENDMDL
MODEL 9
REMARK VINA RESULT:    -5.898      3.969      7.277
REMARK INTER + INTRA:          -9.587
REMARK INTER:                  -8.157
REMARK INTRA:                  -1.430
REMARK UNBOUND:                -1.275
REMARK SMILES OC[C@H]1O[C@@H](O[C@@H]2OC=C[C@@H]3[C@H](O)[C@H]4O[C@@]4(CO)[C@@H]23)[C@H](O)[C@H](O)[C@H]1O
REMARK SMILES IDX 6 1 7 2 10 3 9 4 11 5 8 6 19 7 12 8 16 9 14 10 15 11 13 12
REMARK SMILES IDX 17 14 18 15 5 17 20 18 4 19 22 20 3 21 24 22 21 23 23 25
REMARK SMILES IDX 2 27 1 28 25 30
REMARK H PARENT 13 13 18 16 21 24 23 26 1 29 25 31
REMARK Flexibility Score: inf
ROOT
ATOM      1  O   UNL     1       4.844   1.443 -24.994  1.00  0.00    -0.310 OA
ENDROOT
BRANCH   1   2
ATOM      2  C   UNL     1       3.748   2.320 -24.783  1.00  0.00     0.315 C 
ATOM      3  C   UNL     1       2.677   4.991 -25.236  1.00  0.00     0.018 C 
ATOM      4  C   UNL     1       2.673   4.091 -26.232  1.00  0.00     0.186 C 
ATOM      5  C   UNL     1       3.083   4.517 -23.874  1.00  0.00     0.059 C 
ATOM      6  O   UNL     1       3.186   2.787 -26.033  1.00  0.00    -0.472 OA
ATOM      7  C   UNL     1       4.245   3.546 -24.004  1.00  0.00     0.105 C 
ATOM      8  C   UNL     1       3.563   5.513 -22.819  1.00  0.00     0.154 C 
ATOM      9  C   UNL     1       4.766   3.372 -22.575  1.00  0.00     0.130 C 
ATOM     10  C   UNL     1       4.449   4.658 -21.895  1.00  0.00     0.183 C 
ATOM     11  O   UNL     1       3.840   3.439 -21.509  1.00  0.00    -0.360 OA
BRANCH   8  12
ATOM     12  O   UNL     1       4.347   6.528 -23.396  1.00  0.00    -0.390 OA
ATOM     13  H   UNL     1       5.164   6.605 -22.839  1.00  0.00     0.211 HD
ENDBRANCH   8  12
BRANCH   9  14
ATOM     14  C   UNL     1       6.151   2.803 -22.247  1.00  0.00     0.195 C 
BRANCH  14  15
ATOM     15  O   UNL     1       6.072   1.421 -22.037  1.00  0.00    -0.393 OA
ATOM     16  H   UNL     1       5.943   1.004 -22.930  1.00  0.00     0.210 HD
ENDBRANCH  14  15
ENDBRANCH   9  14
ENDBRANCH   1   2
BRANCH   1  17
ATOM     17  C   UNL     1       4.545   0.055 -24.876  1.00  0.00     0.286 C 
ATOM     18  C   UNL     1       5.009  -0.810 -26.086  1.00  0.00     0.202 C 
ATOM     19  O   UNL     1       5.028  -0.482 -23.655  1.00  0.00    -0.341 OA
ATOM     20  C   UNL     1       5.175  -2.291 -25.659  1.00  0.00     0.179 C 
ATOM     21  C   UNL     1       4.346  -1.687 -23.320  1.00  0.00     0.178 C 
ATOM     22  C   UNL     1       4.173  -2.651 -24.549  1.00  0.00     0.177 C 
BRANCH  18  23
ATOM     23  O   UNL     1       4.069  -0.707 -27.125  1.00  0.00    -0.385 OA
ATOM     24  H   UNL     1       4.427  -0.039 -27.767  1.00  0.00     0.211 HD
ENDBRANCH  18  23
BRANCH  20  25
ATOM     25  O   UNL     1       4.996  -3.147 -26.760  1.00  0.00    -0.387 OA
ATOM     26  H   UNL     1       4.032  -3.105 -27.001  1.00  0.00     0.211 HD
ENDBRANCH  20  25
BRANCH  21  27
ATOM     27  C   UNL     1       5.095  -2.345 -22.150  1.00  0.00     0.191 C 
BRANCH  27  28
ATOM     28  O   UNL     1       6.254  -1.615 -21.855  1.00  0.00    -0.394 OA
ATOM     29  H   UNL     1       6.331  -0.923 -22.565  1.00  0.00     0.210 HD
ENDBRANCH  27  28
ENDBRANCH  21  27
BRANCH  22  30
ATOM     30  O   UNL     1       4.326  -4.000 -24.175  1.00  0.00    -0.387 OA
ATOM     31  H   UNL     1       5.297  -4.156 -24.038  1.00  0.00     0.211 HD
ENDBRANCH  22  30
ENDBRANCH   1  17
TORSDOF 10
ENDMDL
