MODEL 1
REMARK VINA RESULT:    -5.318      0.000      0.000
REMARK INTER + INTRA:          -6.188
REMARK INTER:                  -6.096
REMARK INTRA:                  -0.092
REMARK UNBOUND:                -0.092
REMARK SMILES COc1cc(C(C)=O)ccc1O
REMARK SMILES IDX 5 1 4 2 3 3 11 4 10 5 9 6 6 7 7 8 8 9 2 10 1 11 12 12
REMARK H PARENT 12 13
REMARK Flexibility Score: inf
ROOT
ATOM      1  C   UNL     1       6.701  -1.942  48.403  1.00  0.00     0.021 A 
ATOM      2  C   UNL     1       6.092  -3.030  47.748  1.00  0.00     0.062 A 
ATOM      3  C   UNL     1       5.533  -2.881  46.462  1.00  0.00     0.161 A 
ATOM      4  C   UNL     1       5.588  -1.625  45.832  1.00  0.00     0.157 A 
ATOM      5  C   UNL     1       6.191  -0.544  46.478  1.00  0.00     0.051 A 
ATOM      6  C   UNL     1       6.743  -0.697  47.751  1.00  0.00     0.016 A 
ENDROOT
BRANCH   1   7
ATOM      7  C   UNL     1       7.285  -2.123  49.762  1.00  0.00     0.159 C 
ATOM      8  C   UNL     1       6.458  -1.981  51.005  1.00  0.00     0.093 C 
ATOM      9  O   UNL     1       8.508  -2.405  49.886  1.00  0.00    -0.295 OA
ENDBRANCH   1   7
BRANCH   3  10
ATOM     10  O   UNL     1       4.922  -3.949  45.788  1.00  0.00    -0.493 OA
ATOM     11  C   UNL     1       4.813  -5.274  46.299  1.00  0.00     0.278 C 
ENDBRANCH   3  10
BRANCH   4  12
ATOM     12  O   UNL     1       5.049  -1.434  44.560  1.00  0.00    -0.504 OA
ATOM     13  H   UNL     1       4.986  -2.182  43.881  1.00  0.00     0.293 HD
ENDBRANCH   4  12
TORSDOF 3
ENDMDL
MODEL 2
REMARK VINA RESULT:    -5.000      2.055      2.552
REMARK INTER + INTRA:          -5.823
REMARK INTER:                  -5.716
REMARK INTRA:                  -0.106
REMARK UNBOUND:                -0.092
REMARK SMILES COc1cc(C(C)=O)ccc1O
REMARK SMILES IDX 5 1 4 2 3 3 11 4 10 5 9 6 6 7 7 8 8 9 2 10 1 11 12 12
REMARK H PARENT 12 13
REMARK Flexibility Score: inf
ROOT
ATOM      1  C   UNL     1       5.845  -2.931  49.236  1.00  0.00     0.021 A 
ATOM      2  C   UNL     1       5.194  -2.753  48.000  1.00  0.00     0.062 A 
ATOM      3  C   UNL     1       5.763  -1.953  46.989  1.00  0.00     0.161 A 
ATOM      4  C   UNL     1       6.999  -1.326  47.225  1.00  0.00     0.157 A 
ATOM      5  C   UNL     1       7.649  -1.500  48.449  1.00  0.00     0.051 A 
ATOM      6  C   UNL     1       7.081  -2.294  49.447  1.00  0.00     0.016 A 
ENDROOT
BRANCH   1   7
ATOM      7  C   UNL     1       5.225  -3.781  50.290  1.00  0.00     0.159 C 
ATOM      8  C   UNL     1       4.107  -4.733  49.983  1.00  0.00     0.093 C 
ATOM      9  O   UNL     1       5.642  -3.711  51.478  1.00  0.00    -0.295 OA
ENDBRANCH   1   7
BRANCH   3  10
ATOM     10  O   UNL     1       5.134  -1.761  45.749  1.00  0.00    -0.493 OA
ATOM     11  C   UNL     1       4.817  -2.803  44.831  1.00  0.00     0.278 C 
ENDBRANCH   3  10
BRANCH   4  12
ATOM     12  O   UNL     1       7.599  -0.526  46.252  1.00  0.00    -0.504 OA
ATOM     13  H   UNL     1       8.578  -0.613  46.009  1.00  0.00     0.293 HD
ENDBRANCH   4  12
TORSDOF 3
ENDMDL
MODEL 3
REMARK VINA RESULT:    -4.818      2.057      2.683
REMARK INTER + INTRA:          -5.614
REMARK INTER:                  -5.499
REMARK INTRA:                  -0.115
REMARK UNBOUND:                -0.092
REMARK SMILES COc1cc(C(C)=O)ccc1O
REMARK SMILES IDX 5 1 4 2 3 3 11 4 10 5 9 6 6 7 7 8 8 9 2 10 1 11 12 12
REMARK H PARENT 12 13
REMARK Flexibility Score: inf
ROOT
ATOM      1  C   UNL     1       7.337  -3.587  47.641  1.00  0.00     0.021 A 
ATOM      2  C   UNL     1       6.296  -3.425  46.706  1.00  0.00     0.062 A 
ATOM      3  C   UNL     1       5.906  -2.143  46.271  1.00  0.00     0.161 A 
ATOM      4  C   UNL     1       6.568  -1.013  46.783  1.00  0.00     0.157 A 
ATOM      5  C   UNL     1       7.601  -1.169  47.711  1.00  0.00     0.051 A 
ATOM      6  C   UNL     1       7.984  -2.442  48.138  1.00  0.00     0.016 A 
ENDROOT
BRANCH   1   7
ATOM      7  C   UNL     1       7.733  -4.953  48.086  1.00  0.00     0.159 C 
ATOM      8  C   UNL     1       8.460  -5.186  49.377  1.00  0.00     0.093 C 
ATOM      9  O   UNL     1       7.456  -5.951  47.367  1.00  0.00    -0.295 OA
ENDBRANCH   1   7
BRANCH   3  10
ATOM     10  O   UNL     1       4.872  -1.955  45.339  1.00  0.00    -0.493 OA
ATOM     11  C   UNL     1       4.577  -2.845  44.267  1.00  0.00     0.278 C 
ENDBRANCH   3  10
BRANCH   4  12
ATOM     12  O   UNL     1       6.214   0.274  46.380  1.00  0.00    -0.504 OA
ATOM     13  H   UNL     1       6.832   1.067  46.500  1.00  0.00     0.293 HD
ENDBRANCH   4  12
TORSDOF 3
ENDMDL
MODEL 4
REMARK VINA RESULT:    -4.811      2.375      4.325
REMARK INTER + INTRA:          -5.606
REMARK INTER:                  -5.503
REMARK INTRA:                  -0.103
REMARK UNBOUND:                -0.092
REMARK SMILES COc1cc(C(C)=O)ccc1O
REMARK SMILES IDX 5 1 4 2 3 3 11 4 10 5 9 6 6 7 7 8 8 9 2 10 1 11 12 12
REMARK H PARENT 12 13
REMARK Flexibility Score: inf
ROOT
ATOM      1  C   UNL     1       5.697  -2.090  47.967  1.00  0.00     0.021 A 
ATOM      2  C   UNL     1       4.808  -3.077  48.433  1.00  0.00     0.062 A 
ATOM      3  C   UNL     1       4.846  -3.514  49.773  1.00  0.00     0.161 A 
ATOM      4  C   UNL     1       5.789  -2.950  50.651  1.00  0.00     0.157 A 
ATOM      5  C   UNL     1       6.672  -1.970  50.193  1.00  0.00     0.051 A 
ATOM      6  C   UNL     1       6.629  -1.541  48.866  1.00  0.00     0.016 A 
ENDROOT
BRANCH   1   7
ATOM      7  C   UNL     1       5.637  -1.644  46.547  1.00  0.00     0.159 C 
ATOM      8  C   UNL     1       5.134  -2.541  45.456  1.00  0.00     0.093 C 
ATOM      9  O   UNL     1       6.017  -0.481  46.239  1.00  0.00    -0.295 OA
ENDBRANCH   1   7
BRANCH   3  10
ATOM     10  O   UNL     1       3.971  -4.496  50.262  1.00  0.00    -0.493 OA
ATOM     11  C   UNL     1       4.230  -5.897  50.236  1.00  0.00     0.278 C 
ENDBRANCH   3  10
BRANCH   4  12
ATOM     12  O   UNL     1       5.861  -3.352  51.985  1.00  0.00    -0.504 OA
ATOM     13  H   UNL     1       5.337  -2.891  52.718  1.00  0.00     0.293 HD
ENDBRANCH   4  12
TORSDOF 3
ENDMDL
MODEL 5
REMARK VINA RESULT:    -4.790      2.313      3.493
REMARK INTER + INTRA:          -5.582
REMARK INTER:                  -5.468
REMARK INTRA:                  -0.113
REMARK UNBOUND:                -0.092
REMARK SMILES COc1cc(C(C)=O)ccc1O
REMARK SMILES IDX 5 1 4 2 3 3 11 4 10 5 9 6 6 7 7 8 8 9 2 10 1 11 12 12
REMARK H PARENT 12 13
REMARK Flexibility Score: inf
ROOT
ATOM      1  C   UNL     1       5.640  -3.398  49.020  1.00  0.00     0.021 A 
ATOM      2  C   UNL     1       7.004  -3.068  49.133  1.00  0.00     0.062 A 
ATOM      3  C   UNL     1       7.653  -2.314  48.134  1.00  0.00     0.161 A 
ATOM      4  C   UNL     1       6.921  -1.890  47.011  1.00  0.00     0.157 A 
ATOM      5  C   UNL     1       5.568  -2.215  46.895  1.00  0.00     0.051 A 
ATOM      6  C   UNL     1       4.930  -2.961  47.888  1.00  0.00     0.016 A 
ENDROOT
BRANCH   1   7
ATOM      7  C   UNL     1       4.975  -4.195  50.089  1.00  0.00     0.159 C 
ATOM      8  C   UNL     1       3.726  -4.983  49.828  1.00  0.00     0.093 C 
ATOM      9  O   UNL     1       5.465  -4.218  51.250  1.00  0.00    -0.295 OA
ENDBRANCH   1   7
BRANCH   3  10
ATOM     10  O   UNL     1       9.012  -1.972  48.224  1.00  0.00    -0.493 OA
ATOM     11  C   UNL     1       9.981  -2.694  48.978  1.00  0.00     0.278 C 
ENDBRANCH   3  10
BRANCH   4  12
ATOM     12  O   UNL     1       7.523  -1.142  45.999  1.00  0.00    -0.504 OA
ATOM     13  H   UNL     1       8.519  -1.179  45.819  1.00  0.00     0.293 HD
ENDBRANCH   4  12
TORSDOF 3
ENDMDL
MODEL 6
REMARK VINA RESULT:    -4.759      1.629      4.316
REMARK INTER + INTRA:          -5.546
REMARK INTER:                  -5.449
REMARK INTRA:                  -0.097
REMARK UNBOUND:                -0.092
REMARK SMILES COc1cc(C(C)=O)ccc1O
REMARK SMILES IDX 5 1 4 2 3 3 11 4 10 5 9 6 6 7 7 8 8 9 2 10 1 11 12 12
REMARK H PARENT 12 13
REMARK Flexibility Score: inf
ROOT
ATOM      1  C   UNL     1       5.432  -1.940  46.005  1.00  0.00     0.021 A 
ATOM      2  C   UNL     1       5.283  -3.003  46.916  1.00  0.00     0.062 A 
ATOM      3  C   UNL     1       5.903  -2.966  48.181  1.00  0.00     0.161 A 
ATOM      4  C   UNL     1       6.681  -1.848  48.531  1.00  0.00     0.157 A 
ATOM      5  C   UNL     1       6.831  -0.791  47.630  1.00  0.00     0.051 A 
ATOM      6  C   UNL     1       6.215  -0.833  46.379  1.00  0.00     0.016 A 
ENDROOT
BRANCH   1   7
ATOM      7  C   UNL     1       4.767  -2.001  44.673  1.00  0.00     0.159 C 
ATOM      8  C   UNL     1       4.417  -3.306  44.022  1.00  0.00     0.093 C 
ATOM      9  O   UNL     1       4.482  -0.934  44.065  1.00  0.00    -0.295 OA
ENDBRANCH   1   7
BRANCH   3  10
ATOM     10  O   UNL     1       5.770  -4.012  49.108  1.00  0.00    -0.493 OA
ATOM     11  C   UNL     1       4.754  -4.087  50.104  1.00  0.00     0.278 C 
ENDBRANCH   3  10
BRANCH   4  12
ATOM     12  O   UNL     1       7.312  -1.769  49.772  1.00  0.00    -0.504 OA
ATOM     13  H   UNL     1       7.254  -0.944  50.357  1.00  0.00     0.293 HD
ENDBRANCH   4  12
TORSDOF 3
ENDMDL
MODEL 7
REMARK VINA RESULT:    -4.700      8.269      9.180
REMARK INTER + INTRA:          -5.479
REMARK INTER:                  -5.364
REMARK INTRA:                  -0.115
REMARK UNBOUND:                -0.092
REMARK SMILES COc1cc(C(C)=O)ccc1O
REMARK SMILES IDX 5 1 4 2 3 3 11 4 10 5 9 6 6 7 7 8 8 9 2 10 1 11 12 12
REMARK H PARENT 12 13
REMARK Flexibility Score: inf
ROOT
ATOM      1  C   UNL     1       8.491   2.418  54.151  1.00  0.00     0.021 A 
ATOM      2  C   UNL     1       8.850   3.655  53.581  1.00  0.00     0.062 A 
ATOM      3  C   UNL     1       7.888   4.470  52.951  1.00  0.00     0.161 A 
ATOM      4  C   UNL     1       6.552   4.035  52.895  1.00  0.00     0.157 A 
ATOM      5  C   UNL     1       6.191   2.809  53.459  1.00  0.00     0.051 A 
ATOM      6  C   UNL     1       7.149   2.006  54.081  1.00  0.00     0.016 A 
ENDROOT
BRANCH   1   7
ATOM      7  C   UNL     1       9.525   1.574  54.812  1.00  0.00     0.159 C 
ATOM      8  C   UNL     1       9.175   0.589  55.887  1.00  0.00     0.093 C 
ATOM      9  O   UNL     1      10.734   1.679  54.467  1.00  0.00    -0.295 OA
ENDBRANCH   1   7
BRANCH   3  10
ATOM     10  O   UNL     1       8.220   5.707  52.377  1.00  0.00    -0.493 OA
ATOM     11  C   UNL     1       8.166   6.957  53.058  1.00  0.00     0.278 C 
ENDBRANCH   3  10
BRANCH   4  12
ATOM     12  O   UNL     1       5.567   4.810  52.282  1.00  0.00    -0.504 OA
ATOM     13  H   UNL     1       4.807   4.399  51.755  1.00  0.00     0.293 HD
ENDBRANCH   4  12
TORSDOF 3
ENDMDL
MODEL 8
REMARK VINA RESULT:    -4.657     12.797     14.322
REMARK INTER + INTRA:          -5.429
REMARK INTER:                  -5.310
REMARK INTRA:                  -0.119
REMARK UNBOUND:                -0.092
REMARK SMILES COc1cc(C(C)=O)ccc1O
REMARK SMILES IDX 5 1 4 2 3 3 11 4 10 5 9 6 6 7 7 8 8 9 2 10 1 11 12 12
REMARK H PARENT 12 13
REMARK Flexibility Score: inf
ROOT
ATOM      1  C   UNL     1       4.988  11.249  47.608  1.00  0.00     0.021 A 
ATOM      2  C   UNL     1       3.605  11.044  47.439  1.00  0.00     0.062 A 
ATOM      3  C   UNL     1       2.674  11.601  48.339  1.00  0.00     0.161 A 
ATOM      4  C   UNL     1       3.141  12.370  49.420  1.00  0.00     0.157 A 
ATOM      5  C   UNL     1       4.512  12.576  49.591  1.00  0.00     0.051 A 
ATOM      6  C   UNL     1       5.429  12.023  48.696  1.00  0.00     0.016 A 
ENDROOT
BRANCH   1   7
ATOM      7  C   UNL     1       5.953  10.652  46.643  1.00  0.00     0.159 C 
ATOM      8  C   UNL     1       7.216   9.983  47.097  1.00  0.00     0.093 C 
ATOM      9  O   UNL     1       5.714  10.701  45.406  1.00  0.00    -0.295 OA
ENDBRANCH   1   7
BRANCH   3  10
ATOM     10  O   UNL     1       1.291  11.412  48.192  1.00  0.00    -0.493 OA
ATOM     11  C   UNL     1       0.648  10.142  48.141  1.00  0.00     0.278 C 
ENDBRANCH   3  10
BRANCH   4  12
ATOM     12  O   UNL     1       2.256  12.940  50.335  1.00  0.00    -0.504 OA
ATOM     13  H   UNL     1       2.571  13.376  51.192  1.00  0.00     0.293 HD
ENDBRANCH   4  12
TORSDOF 3
ENDMDL
MODEL 9
REMARK VINA RESULT:    -4.579      2.373      4.344
REMARK INTER + INTRA:          -5.340
REMARK INTER:                  -5.214
REMARK INTRA:                  -0.126
REMARK UNBOUND:                -0.092
REMARK SMILES COc1cc(C(C)=O)ccc1O
REMARK SMILES IDX 5 1 4 2 3 3 11 4 10 5 9 6 6 7 7 8 8 9 2 10 1 11 12 12
REMARK H PARENT 12 13
REMARK Flexibility Score: inf
ROOT
ATOM      1  C   UNL     1       7.131  -2.609  47.424  1.00  0.00     0.021 A 
ATOM      2  C   UNL     1       6.354  -3.551  48.125  1.00  0.00     0.062 A 
ATOM      3  C   UNL     1       6.961  -4.556  48.904  1.00  0.00     0.161 A 
ATOM      4  C   UNL     1       8.364  -4.612  48.978  1.00  0.00     0.157 A 
ATOM      5  C   UNL     1       9.139  -3.679  48.285  1.00  0.00     0.051 A 
ATOM      6  C   UNL     1       8.532  -2.686  47.515  1.00  0.00     0.016 A 
ENDROOT
BRANCH   1   7
ATOM      7  C   UNL     1       6.466  -1.555  46.607  1.00  0.00     0.159 C 
ATOM      8  C   UNL     1       6.745  -0.096  46.818  1.00  0.00     0.093 C 
ATOM      9  O   UNL     1       5.645  -1.883  45.709  1.00  0.00    -0.295 OA
ENDBRANCH   1   7
BRANCH   3  10
ATOM     10  O   UNL     1       6.209  -5.507  49.612  1.00  0.00    -0.493 OA
ATOM     11  C   UNL     1       5.592  -5.274  50.875  1.00  0.00     0.278 C 
ENDBRANCH   3  10
BRANCH   4  12
ATOM     12  O   UNL     1       9.007  -5.590  49.738  1.00  0.00    -0.504 OA
ATOM     13  H   UNL     1       9.011  -5.572  50.750  1.00  0.00     0.293 HD
ENDBRANCH   4  12
TORSDOF 3
ENDMDL
