MODEL 1
REMARK VINA RESULT:    -2.895      0.000      0.000
REMARK INTER + INTRA:          -3.966
REMARK INTER:                  -3.826
REMARK INTRA:                  -0.141
REMARK UNBOUND:                -0.141
REMARK SMILES CCCCCCCO
REMARK SMILES IDX 5 1 4 2 3 3 2 4 1 5 6 6 7 7 8 8
REMARK H PARENT 8 9
REMARK Flexibility Score: inf
ROOT
ATOM      1  C   UNL     1     171.981 161.812 172.142  1.00  0.00     0.002 C 
ENDROOT
BRANCH   1   2
ATOM      2  C   UNL     1     170.808 162.519 172.845  1.00  0.00     0.000 C 
BRANCH   2   3
ATOM      3  C   UNL     1     169.638 162.908 171.922  1.00  0.00    -0.000 C 
BRANCH   3   4
ATOM      4  C   UNL     1     169.853 162.473 170.466  1.00  0.00    -0.003 C 
ATOM      5  C   UNL     1     169.350 163.536 169.494  1.00  0.00     0.004 C 
ENDBRANCH   3   4
ENDBRANCH   2   3
ENDBRANCH   1   2
BRANCH   1   6
ATOM      6  C   UNL     1     173.339 162.118 172.793  1.00  0.00     0.028 C 
BRANCH   6   7
ATOM      7  C   UNL     1     174.494 161.644 171.905  1.00  0.00     0.156 C 
BRANCH   7   8
ATOM      8  O   UNL     1     174.772 162.602 170.921  1.00  0.00    -0.396 OA
ATOM      9  H   UNL     1     175.584 163.089 171.220  1.00  0.00     0.210 HD
ENDBRANCH   7   8
ENDBRANCH   6   7
ENDBRANCH   1   6
TORSDOF 6
ENDMDL
MODEL 2
REMARK VINA RESULT:    -2.889     12.156     13.896
REMARK INTER + INTRA:          -3.958
REMARK INTER:                  -3.828
REMARK INTRA:                  -0.131
REMARK UNBOUND:                -0.141
REMARK SMILES CCCCCCCO
REMARK SMILES IDX 5 1 4 2 3 3 2 4 1 5 6 6 7 7 8 8
REMARK H PARENT 8 9
REMARK Flexibility Score: inf
ROOT
ATOM      1  C   UNL     1     163.493 173.791 172.237  1.00  0.00     0.002 C 
ENDROOT
BRANCH   1   2
ATOM      2  C   UNL     1     164.802 173.288 172.871  1.00  0.00     0.000 C 
BRANCH   2   3
ATOM      3  C   UNL     1     165.628 172.335 171.986  1.00  0.00    -0.000 C 
BRANCH   3   4
ATOM      4  C   UNL     1     165.570 172.701 170.496  1.00  0.00    -0.003 C 
ATOM      5  C   UNL     1     166.308 171.671 169.648  1.00  0.00     0.004 C 
ENDBRANCH   3   4
ENDBRANCH   2   3
ENDBRANCH   1   2
BRANCH   1   6
ATOM      6  C   UNL     1     162.245 173.111 172.821  1.00  0.00     0.028 C 
BRANCH   6   7
ATOM      7  C   UNL     1     160.971 173.620 172.139  1.00  0.00     0.156 C 
BRANCH   7   8
ATOM      8  O   UNL     1     160.638 172.793 171.057  1.00  0.00    -0.396 OA
ATOM      9  H   UNL     1     160.702 171.858 171.385  1.00  0.00     0.210 HD
ENDBRANCH   7   8
ENDBRANCH   6   7
ENDBRANCH   1   6
TORSDOF 6
ENDMDL
MODEL 3
REMARK VINA RESULT:    -2.823      9.479     10.094
REMARK INTER + INTRA:          -3.871
REMARK INTER:                  -3.721
REMARK INTRA:                  -0.149
REMARK UNBOUND:                -0.141
REMARK SMILES CCCCCCCO
REMARK SMILES IDX 5 1 4 2 3 3 2 4 1 5 6 6 7 7 8 8
REMARK H PARENT 8 9
REMARK Flexibility Score: inf
ROOT
ATOM      1  C   UNL     1     162.028 162.996 172.807  1.00  0.00     0.002 C 
ENDROOT
BRANCH   1   2
ATOM      2  C   UNL     1     161.794 164.386 172.187  1.00  0.00     0.000 C 
BRANCH   2   3
ATOM      3  C   UNL     1     162.815 165.462 172.602  1.00  0.00    -0.000 C 
BRANCH   3   4
ATOM      4  C   UNL     1     163.483 166.149 171.403  1.00  0.00    -0.003 C 
ATOM      5  C   UNL     1     162.876 165.672 170.088  1.00  0.00     0.004 C 
ENDBRANCH   3   4
ENDBRANCH   2   3
ENDBRANCH   1   2
BRANCH   1   6
ATOM      6  C   UNL     1     160.963 161.969 172.391  1.00  0.00     0.028 C 
BRANCH   6   7
ATOM      7  C   UNL     1     161.592 160.597 172.134  1.00  0.00     0.156 C 
BRANCH   7   8
ATOM      8  O   UNL     1     162.562 160.690 171.126  1.00  0.00    -0.396 OA
ATOM      9  H   UNL     1     163.441 160.758 171.584  1.00  0.00     0.210 HD
ENDBRANCH   7   8
ENDBRANCH   6   7
ENDBRANCH   1   6
TORSDOF 6
ENDMDL
MODEL 4
REMARK VINA RESULT:    -2.810      9.887     10.164
REMARK INTER + INTRA:          -3.854
REMARK INTER:                  -3.745
REMARK INTRA:                  -0.109
REMARK UNBOUND:                -0.141
REMARK SMILES CCCCCCCO
REMARK SMILES IDX 5 1 4 2 3 3 2 4 1 5 6 6 7 7 8 8
REMARK H PARENT 8 9
REMARK Flexibility Score: inf
ROOT
ATOM      1  C   UNL     1     173.041 172.568 172.684  1.00  0.00     0.002 C 
ENDROOT
BRANCH   1   2
ATOM      2  C   UNL     1     173.851 171.317 172.298  1.00  0.00     0.000 C 
BRANCH   2   3
ATOM      3  C   UNL     1     173.005 170.078 171.949  1.00  0.00    -0.000 C 
BRANCH   3   4
ATOM      4  C   UNL     1     172.854 169.861 170.437  1.00  0.00    -0.003 C 
ATOM      5  C   UNL     1     171.557 169.127 170.114  1.00  0.00     0.004 C 
ENDBRANCH   3   4
ENDBRANCH   2   3
ENDBRANCH   1   2
BRANCH   1   6
ATOM      6  C   UNL     1     173.929 173.781 173.001  1.00  0.00     0.028 C 
BRANCH   6   7
ATOM      7  C   UNL     1     173.944 174.772 171.834  1.00  0.00     0.156 C 
BRANCH   7   8
ATOM      8  O   UNL     1     172.741 174.696 171.118  1.00  0.00    -0.396 OA
ATOM      9  H   UNL     1     172.939 174.193 170.285  1.00  0.00     0.210 HD
ENDBRANCH   7   8
ENDBRANCH   6   7
ENDBRANCH   1   6
TORSDOF 6
ENDMDL
MODEL 5
REMARK VINA RESULT:    -2.796      4.545      6.043
REMARK INTER + INTRA:          -3.836
REMARK INTER:                  -3.573
REMARK INTRA:                  -0.263
REMARK UNBOUND:                -0.141
REMARK SMILES CCCCCCCO
REMARK SMILES IDX 5 1 4 2 3 3 2 4 1 5 6 6 7 7 8 8
REMARK H PARENT 8 9
REMARK Flexibility Score: inf
ROOT
ATOM      1  C   UNL     1     167.839 165.229 168.907  1.00  0.00     0.002 C 
ENDROOT
BRANCH   1   2
ATOM      2  C   UNL     1     168.447 166.586 168.508  1.00  0.00     0.000 C 
BRANCH   2   3
ATOM      3  C   UNL     1     169.849 166.508 167.875  1.00  0.00    -0.000 C 
BRANCH   3   4
ATOM      4  C   UNL     1     170.655 167.803 168.044  1.00  0.00    -0.003 C 
ATOM      5  C   UNL     1     170.496 168.371 169.450  1.00  0.00     0.004 C 
ENDBRANCH   3   4
ENDBRANCH   2   3
ENDBRANCH   1   2
BRANCH   1   6
ATOM      6  C   UNL     1     168.759 164.407 169.823  1.00  0.00     0.028 C 
BRANCH   6   7
ATOM      7  C   UNL     1     169.086 163.048 169.198  1.00  0.00     0.156 C 
BRANCH   7   8
ATOM      8  O   UNL     1     168.394 162.892 167.989  1.00  0.00    -0.396 OA
ATOM      9  H   UNL     1     169.080 162.723 167.290  1.00  0.00     0.210 HD
ENDBRANCH   7   8
ENDBRANCH   6   7
ENDBRANCH   1   6
TORSDOF 6
ENDMDL
MODEL 6
REMARK VINA RESULT:    -2.778      8.951     10.177
REMARK INTER + INTRA:          -3.812
REMARK INTER:                  -3.670
REMARK INTRA:                  -0.142
REMARK UNBOUND:                -0.141
REMARK SMILES CCCCCCCO
REMARK SMILES IDX 5 1 4 2 3 3 2 4 1 5 6 6 7 7 8 8
REMARK H PARENT 8 9
REMARK Flexibility Score: inf
ROOT
ATOM      1  C   UNL     1     166.432 168.306 169.035  1.00  0.00     0.002 C 
ENDROOT
BRANCH   1   2
ATOM      2  C   UNL     1     166.651 169.462 168.042  1.00  0.00     0.000 C 
BRANCH   2   3
ATOM      3  C   UNL     1     167.101 170.790 168.680  1.00  0.00    -0.000 C 
BRANCH   3   4
ATOM      4  C   UNL     1     166.529 171.002 170.089  1.00  0.00    -0.003 C 
ATOM      5  C   UNL     1     165.814 172.344 170.196  1.00  0.00     0.004 C 
ENDBRANCH   3   4
ENDBRANCH   2   3
ENDBRANCH   1   2
BRANCH   1   6
ATOM      6  C   UNL     1     165.714 167.104 168.403  1.00  0.00     0.028 C 
BRANCH   6   7
ATOM      7  C   UNL     1     164.280 166.981 168.929  1.00  0.00     0.156 C 
BRANCH   7   8
ATOM      8  O   UNL     1     163.365 167.129 167.877  1.00  0.00    -0.396 OA
ATOM      9  H   UNL     1     162.520 167.460 168.282  1.00  0.00     0.210 HD
ENDBRANCH   7   8
ENDBRANCH   6   7
ENDBRANCH   1   6
TORSDOF 6
ENDMDL
MODEL 7
REMARK VINA RESULT:    -2.752      8.572      9.998
REMARK INTER + INTRA:          -3.777
REMARK INTER:                  -3.472
REMARK INTRA:                  -0.305
REMARK UNBOUND:                -0.141
REMARK SMILES CCCCCCCO
REMARK SMILES IDX 5 1 4 2 3 3 2 4 1 5 6 6 7 7 8 8
REMARK H PARENT 8 9
REMARK Flexibility Score: inf
ROOT
ATOM      1  C   UNL     1     167.485 170.029 168.676  1.00  0.00     0.002 C 
ENDROOT
BRANCH   1   2
ATOM      2  C   UNL     1     166.847 168.750 168.104  1.00  0.00     0.000 C 
BRANCH   2   3
ATOM      3  C   UNL     1     165.310 168.698 168.186  1.00  0.00    -0.000 C 
BRANCH   3   4
ATOM      4  C   UNL     1     164.787 167.389 168.792  1.00  0.00    -0.003 C 
ATOM      5  C   UNL     1     165.684 166.912 169.929  1.00  0.00     0.004 C 
ENDBRANCH   3   4
ENDBRANCH   2   3
ENDBRANCH   1   2
BRANCH   1   6
ATOM      6  C   UNL     1     166.606 170.713 169.735  1.00  0.00     0.028 C 
BRANCH   6   7
ATOM      7  C   UNL     1     166.304 172.163 169.346  1.00  0.00     0.156 C 
BRANCH   7   8
ATOM      8  O   UNL     1     166.983 172.499 168.166  1.00  0.00    -0.396 OA
ATOM      9  H   UNL     1     167.924 172.208 168.288  1.00  0.00     0.210 HD
ENDBRANCH   7   8
ENDBRANCH   6   7
ENDBRANCH   1   6
TORSDOF 6
ENDMDL
MODEL 8
REMARK VINA RESULT:    -2.706      5.580      8.052
REMARK INTER + INTRA:          -3.717
REMARK INTER:                  -3.576
REMARK INTRA:                  -0.141
REMARK UNBOUND:                -0.141
REMARK SMILES CCCCCCCO
REMARK SMILES IDX 5 1 4 2 3 3 2 4 1 5 6 6 7 7 8 8
REMARK H PARENT 8 9
REMARK Flexibility Score: inf
ROOT
ATOM      1  C   UNL     1     166.753 166.161 169.136  1.00  0.00     0.002 C 
ENDROOT
BRANCH   1   2
ATOM      2  C   UNL     1     167.053 165.158 168.007  1.00  0.00     0.000 C 
BRANCH   2   3
ATOM      3  C   UNL     1     168.278 164.257 168.248  1.00  0.00    -0.000 C 
BRANCH   3   4
ATOM      4  C   UNL     1     168.806 164.336 169.688  1.00  0.00    -0.003 C 
ATOM      5  C   UNL     1     169.508 163.042 170.088  1.00  0.00     0.004 C 
ENDBRANCH   3   4
ENDBRANCH   2   3
ENDBRANCH   1   2
BRANCH   1   6
ATOM      6  C   UNL     1     165.753 167.250 168.717  1.00  0.00     0.028 C 
BRANCH   6   7
ATOM      7  C   UNL     1     164.313 166.819 169.014  1.00  0.00     0.156 C 
BRANCH   7   8
ATOM      8  O   UNL     1     163.486 167.108 167.920  1.00  0.00    -0.396 OA
ATOM      9  H   UNL     1     163.894 167.883 167.453  1.00  0.00     0.210 HD
ENDBRANCH   7   8
ENDBRANCH   6   7
ENDBRANCH   1   6
TORSDOF 6
ENDMDL
MODEL 9
REMARK VINA RESULT:     0.023      8.871     10.192
REMARK INTER + INTRA:          -0.110
REMARK INTER:                  -0.035
REMARK INTRA:                  -0.075
REMARK UNBOUND:                -0.141
REMARK SMILES CCCCCCCO
REMARK SMILES IDX 5 1 4 2 3 3 2 4 1 5 6 6 7 7 8 8
REMARK H PARENT 8 9
REMARK Flexibility Score: inf
ROOT
ATOM      1  C   UNL     1     168.782 169.151 178.895  1.00  0.00     0.002 C 
ENDROOT
BRANCH   1   2
ATOM      2  C   UNL     1     169.607 168.223 179.805  1.00  0.00     0.000 C 
BRANCH   2   3
ATOM      3  C   UNL     1     170.845 167.593 179.138  1.00  0.00    -0.000 C 
BRANCH   3   4
ATOM      4  C   UNL     1     171.207 166.220 179.721  1.00  0.00    -0.003 C 
ATOM      5  C   UNL     1     172.633 165.824 179.353  1.00  0.00     0.004 C 
ENDBRANCH   3   4
ENDBRANCH   2   3
ENDBRANCH   1   2
BRANCH   1   6
ATOM      6  C   UNL     1     167.389 168.589 178.574  1.00  0.00     0.028 C 
BRANCH   6   7
ATOM      7  C   UNL     1     167.407 167.058 178.542  1.00  0.00     0.156 C 
BRANCH   7   8
ATOM      8  O   UNL     1     167.127 166.597 177.248  1.00  0.00    -0.396 OA
ATOM      9  H   UNL     1     166.154 166.734 177.103  1.00  0.00     0.210 HD
ENDBRANCH   7   8
ENDBRANCH   6   7
ENDBRANCH   1   6
TORSDOF 6
ENDMDL
