MODEL 1
REMARK VINA RESULT:    40.178      0.000      0.000
REMARK INTER + INTRA:          62.477
REMARK INTER:                  54.271
REMARK INTRA:                   8.206
REMARK UNBOUND:                 8.206
REMARK SMILES O=c1c(-c2ccc(O)cc2)coc2c([C@H]3O[C@H](CO)[C@@H](O)[C@@H](O)[C@H]3O)c(O)ccc12
REMARK SMILES IDX 3 1 11 2 12 3 13 4 30 5 2 6 1 7 29 8 28 9 26 10 14 11 4 12
REMARK SMILES IDX 5 13 6 14 7 15 10 16 9 17 8 18 15 20 24 21 16 22 22 23 17 24
REMARK SMILES IDX 20 25 25 26 23 28 18 30 19 31 21 33 27 35
REMARK H PARENT 8 19 25 27 23 29 19 32 21 34 27 36
REMARK Flexibility Score: inf
ROOT
ATOM      1  C   UNL     1      11.510  15.991  -2.923  1.00  0.00     0.065 A 
ATOM      2  C   UNL     1      11.865  16.244  -1.592  1.00  0.00     0.208 A 
ATOM      3  O   UNL     1      11.096  15.834  -0.592  1.00  0.00    -0.463 OA
ATOM      4  C   UNL     1       9.956  15.167  -0.766  1.00  0.00     0.147 A 
ATOM      5  C   UNL     1       9.538  14.848  -2.078  1.00  0.00     0.066 A 
ATOM      6  C   UNL     1      10.328  15.269  -3.164  1.00  0.00     0.200 A 
ATOM      7  O   UNL     1       9.992  14.981  -4.347  1.00  0.00    -0.288 OA
ATOM      8  C   UNL     1       8.365  14.112  -2.271  1.00  0.00     0.020 A 
ATOM      9  C   UNL     1       7.634  13.670  -1.178  1.00  0.00     0.047 A 
ATOM     10  C   UNL     1       8.033  13.971   0.133  1.00  0.00     0.125 A 
ATOM     11  C   UNL     1       9.179  14.785   0.366  1.00  0.00     0.069 A 
ENDROOT
BRANCH   1  12
ATOM     12  C   UNL     1      12.377  16.474  -4.026  1.00  0.00    -0.011 A 
ATOM     13  C   UNL     1      11.889  16.542  -5.343  1.00  0.00     0.013 A 
ATOM     14  C   UNL     1      12.706  17.007  -6.378  1.00  0.00     0.047 A 
ATOM     15  C   UNL     1      14.018  17.413  -6.111  1.00  0.00     0.115 A 
ATOM     16  C   UNL     1      13.694  16.890  -3.764  1.00  0.00     0.013 A 
ATOM     17  C   UNL     1      14.510  17.354  -4.801  1.00  0.00     0.047 A 
BRANCH  15  18
ATOM     18  O   UNL     1      14.821  17.873  -7.152  1.00  0.00    -0.508 OA
ATOM     19  H   UNL     1      15.238  18.796  -7.129  1.00  0.00     0.293 HD
ENDBRANCH  15  18
ENDBRANCH   1  12
BRANCH  11  20
ATOM     20  C   UNL     1       9.706  15.236   1.756  1.00  0.00     0.188 C 
ATOM     21  C   UNL     1       9.974  16.723   2.124  1.00  0.00     0.179 C 
ATOM     22  O   UNL     1      10.851  14.477   2.125  1.00  0.00    -0.362 OA
ATOM     23  C   UNL     1      11.260  17.270   1.464  1.00  0.00     0.177 C 
ATOM     24  C   UNL     1      11.998  14.855   1.376  1.00  0.00     0.176 C 
ATOM     25  C   UNL     1      12.423  16.295   1.738  1.00  0.00     0.177 C 
BRANCH  21  26
ATOM     26  O   UNL     1       8.858  17.544   1.916  1.00  0.00    -0.387 OA
ATOM     27  H   UNL     1       8.665  17.531   0.941  1.00  0.00     0.211 HD
ENDBRANCH  21  26
BRANCH  23  28
ATOM     28  O   UNL     1      11.082  17.437   0.082  1.00  0.00    -0.387 OA
ATOM     29  H   UNL     1      10.245  16.963  -0.164  1.00  0.00     0.211 HD
ENDBRANCH  23  28
BRANCH  24  30
ATOM     30  C   UNL     1      13.122  13.860   1.682  1.00  0.00     0.191 C 
BRANCH  30  31
ATOM     31  O   UNL     1      13.344  13.044   0.565  1.00  0.00    -0.394 OA
ATOM     32  H   UNL     1      12.567  12.428   0.513  1.00  0.00     0.210 HD
ENDBRANCH  30  31
ENDBRANCH  24  30
BRANCH  25  33
ATOM     33  O   UNL     1      13.554  16.667   0.991  1.00  0.00    -0.388 OA
ATOM     34  H   UNL     1      13.239  16.844   0.067  1.00  0.00     0.211 HD
ENDBRANCH  25  33
ENDBRANCH  11  20
BRANCH  10  35
ATOM     35  O   UNL     1       7.281  13.432   1.169  1.00  0.00    -0.507 OA
ATOM     36  H   UNL     1       6.308  13.171   1.053  1.00  0.00     0.293 HD
ENDBRANCH  10  35
TORSDOF 9
ENDMDL
MODEL 2
REMARK VINA RESULT:    42.894      1.613      2.760
REMARK INTER + INTRA:          66.146
REMARK INTER:                  65.551
REMARK INTRA:                   0.594
REMARK UNBOUND:                 8.206
REMARK SMILES O=c1c(-c2ccc(O)cc2)coc2c([C@H]3O[C@H](CO)[C@@H](O)[C@@H](O)[C@H]3O)c(O)ccc12
REMARK SMILES IDX 3 1 11 2 12 3 13 4 30 5 2 6 1 7 29 8 28 9 26 10 14 11 4 12
REMARK SMILES IDX 5 13 6 14 7 15 10 16 9 17 8 18 15 20 24 21 16 22 22 23 17 24
REMARK SMILES IDX 20 25 25 26 23 28 18 30 19 31 21 33 27 35
REMARK H PARENT 8 19 25 27 23 29 19 32 21 34 27 36
REMARK Flexibility Score: inf
ROOT
ATOM      1  C   UNL     1      12.230  16.141  -4.281  1.00  0.00     0.065 A 
ATOM      2  C   UNL     1      12.699  16.221  -2.964  1.00  0.00     0.208 A 
ATOM      3  O   UNL     1      12.037  15.647  -1.969  1.00  0.00    -0.463 OA
ATOM      4  C   UNL     1      10.903  14.965  -2.136  1.00  0.00     0.147 A 
ATOM      5  C   UNL     1      10.376  14.815  -3.438  1.00  0.00     0.066 A 
ATOM      6  C   UNL     1      11.052  15.413  -4.518  1.00  0.00     0.200 A 
ATOM      7  O   UNL     1      10.616  15.279  -5.696  1.00  0.00    -0.288 OA
ATOM      8  C   UNL     1       9.210  14.068  -3.631  1.00  0.00     0.020 A 
ATOM      9  C   UNL     1       8.594  13.450  -2.551  1.00  0.00     0.047 A 
ATOM     10  C   UNL     1       9.104  13.581  -1.251  1.00  0.00     0.125 A 
ATOM     11  C   UNL     1      10.245  14.400  -1.005  1.00  0.00     0.069 A 
ENDROOT
BRANCH   1  12
ATOM     12  C   UNL     1      12.980  16.806  -5.376  1.00  0.00    -0.011 A 
ATOM     13  C   UNL     1      13.572  16.047  -6.402  1.00  0.00     0.013 A 
ATOM     14  C   UNL     1      14.267  16.678  -7.438  1.00  0.00     0.047 A 
ATOM     15  C   UNL     1      14.378  18.071  -7.465  1.00  0.00     0.115 A 
ATOM     16  C   UNL     1      13.088  18.207  -5.415  1.00  0.00     0.013 A 
ATOM     17  C   UNL     1      13.786  18.835  -6.451  1.00  0.00     0.047 A 
BRANCH  15  18
ATOM     18  O   UNL     1      15.075  18.686  -8.502  1.00  0.00    -0.508 OA
ATOM     19  H   UNL     1      15.187  18.236  -9.404  1.00  0.00     0.293 HD
ENDBRANCH  15  18
ENDBRANCH   1  12
BRANCH  11  20
ATOM     20  C   UNL     1      10.884  14.674   0.383  1.00  0.00     0.188 C 
ATOM     21  C   UNL     1      10.202  14.285   1.726  1.00  0.00     0.179 C 
ATOM     22  O   UNL     1      11.306  16.029   0.479  1.00  0.00    -0.362 OA
ATOM     23  C   UNL     1       9.031  15.225   2.085  1.00  0.00     0.177 C 
ATOM     24  C   UNL     1      10.204  16.915   0.620  1.00  0.00     0.176 C 
ATOM     25  C   UNL     1       9.504  16.689   1.978  1.00  0.00     0.177 C 
BRANCH  21  26
ATOM     26  O   UNL     1       9.857  12.928   1.787  1.00  0.00    -0.387 OA
ATOM     27  H   UNL     1      10.587  12.464   2.275  1.00  0.00     0.211 HD
ENDBRANCH  21  26
BRANCH  23  28
ATOM     28  O   UNL     1       7.934  15.006   1.236  1.00  0.00    -0.387 OA
ATOM     29  H   UNL     1       7.494  15.884   1.095  1.00  0.00     0.211 HD
ENDBRANCH  23  28
BRANCH  24  30
ATOM     30  C   UNL     1      10.725  18.352   0.506  1.00  0.00     0.191 C 
BRANCH  30  31
ATOM     31  O   UNL     1      11.808  18.530   1.378  1.00  0.00    -0.394 OA
ATOM     32  H   UNL     1      11.463  19.063   2.141  1.00  0.00     0.210 HD
ENDBRANCH  30  31
ENDBRANCH  24  30
BRANCH  25  33
ATOM     33  O   UNL     1       8.412  17.563   2.110  1.00  0.00    -0.388 OA
ATOM     34  H   UNL     1       8.699  18.436   1.735  1.00  0.00     0.211 HD
ENDBRANCH  25  33
ENDBRANCH  11  20
BRANCH  10  35
ATOM     35  O   UNL     1       8.465  12.875  -0.240  1.00  0.00    -0.507 OA
ATOM     36  H   UNL     1       8.056  11.961  -0.393  1.00  0.00     0.293 HD
ENDBRANCH  10  35
TORSDOF 9
ENDMDL
