MODEL 1
REMARK VINA RESULT:    -5.089      0.000      0.000
REMARK INTER + INTRA:          -8.996
REMARK INTER:                  -8.065
REMARK INTRA:                  -0.931
REMARK UNBOUND:                -0.931
REMARK SMILES CCCCCCCCCCCC(=O)[O-]
REMARK SMILES IDX 7 1 8 2 9 3 10 4 11 5 12 6 13 7 14 8 6 9 5 10 4 11 3 12 2 13
REMARK SMILES IDX 1 14
REMARK H PARENT
REMARK Flexibility Score: inf
ROOT
ATOM      1  C   UNL     1       4.697 -33.571  22.473  1.00  0.00     0.000 C 
ENDROOT
BRANCH   1   2
ATOM      2  C   UNL     1       4.349 -34.629  21.414  1.00  0.00     0.000 C 
BRANCH   2   3
ATOM      3  C   UNL     1       5.017 -34.349  20.057  1.00  0.00     0.000 C 
BRANCH   3   4
ATOM      4  C   UNL     1       4.520 -35.291  18.944  1.00  0.00     0.006 C 
BRANCH   4   5
ATOM      5  C   UNL     1       4.059 -36.669  19.444  1.00  0.00     0.053 C 
BRANCH   5   6
ATOM      6  C   UNL     1       3.038 -37.283  18.537  1.00  0.00     0.041 C 
ATOM      7  O   UNL     1       3.200 -37.256  17.289  1.00  0.00    -0.550 OA
ATOM      8  O   UNL     1       1.888 -37.852  19.070  1.00  0.00    -0.550 OA
ENDBRANCH   5   6
ENDBRANCH   4   5
ENDBRANCH   3   4
ENDBRANCH   2   3
ENDBRANCH   1   2
BRANCH   1   9
ATOM      9  C   UNL     1       5.830 -34.022  23.407  1.00  0.00     0.000 C 
BRANCH   9  10
ATOM     10  C   UNL     1       5.992 -35.547  23.379  1.00  0.00    -0.000 C 
BRANCH  10  11
ATOM     11  C   UNL     1       5.461 -36.181  24.671  1.00  0.00    -0.000 C 
BRANCH  11  12
ATOM     12  C   UNL     1       4.676 -37.466  24.369  1.00  0.00    -0.000 C 
BRANCH  12  13
ATOM     13  C   UNL     1       4.821 -37.917  22.907  1.00  0.00    -0.003 C 
ATOM     14  C   UNL     1       4.947 -39.433  22.765  1.00  0.00     0.004 C 
ENDBRANCH  12  13
ENDBRANCH  11  12
ENDBRANCH  10  11
ENDBRANCH   9  10
ENDBRANCH   1   9
TORSDOF 10
ENDMDL
MODEL 2
REMARK VINA RESULT:    -5.073      2.548      5.167
REMARK INTER + INTRA:          -8.971
REMARK INTER:                  -8.101
REMARK INTRA:                  -0.869
REMARK UNBOUND:                -0.931
REMARK SMILES CCCCCCCCCCCC(=O)[O-]
REMARK SMILES IDX 7 1 8 2 9 3 10 4 11 5 12 6 13 7 14 8 6 9 5 10 4 11 3 12 2 13
REMARK SMILES IDX 1 14
REMARK H PARENT
REMARK Flexibility Score: inf
ROOT
ATOM      1  C   UNL     1       4.179 -33.861  21.016  1.00  0.00     0.000 C 
ENDROOT
BRANCH   1   2
ATOM      2  C   UNL     1       4.700 -33.795  22.460  1.00  0.00     0.000 C 
BRANCH   2   3
ATOM      3  C   UNL     1       6.059 -34.495  22.631  1.00  0.00     0.000 C 
BRANCH   3   4
ATOM      4  C   UNL     1       5.980 -35.729  23.549  1.00  0.00     0.006 C 
BRANCH   4   5
ATOM      5  C   UNL     1       5.113 -36.871  22.996  1.00  0.00     0.053 C 
BRANCH   5   6
ATOM      6  C   UNL     1       4.747 -37.862  24.058  1.00  0.00     0.041 C 
ATOM      7  O   UNL     1       4.747 -39.096  23.801  1.00  0.00    -0.550 OA
ATOM      8  O   UNL     1       4.369 -37.422  25.320  1.00  0.00    -0.550 OA
ENDBRANCH   5   6
ENDBRANCH   4   5
ENDBRANCH   3   4
ENDBRANCH   2   3
ENDBRANCH   1   2
BRANCH   1   9
ATOM      9  C   UNL     1       5.231 -34.397  20.033  1.00  0.00     0.000 C 
BRANCH   9  10
ATOM     10  C   UNL     1       4.570 -35.198  18.904  1.00  0.00    -0.000 C 
BRANCH  10  11
ATOM     11  C   UNL     1       4.077 -36.559  19.410  1.00  0.00    -0.000 C 
BRANCH  11  12
ATOM     12  C   UNL     1       3.117 -37.205  18.400  1.00  0.00    -0.000 C 
BRANCH  12  13
ATOM     13  C   UNL     1       3.022 -36.414  17.087  1.00  0.00    -0.003 C 
ATOM     14  C   UNL     1       3.085 -37.311  15.850  1.00  0.00     0.004 C 
ENDBRANCH  12  13
ENDBRANCH  11  12
ENDBRANCH  10  11
ENDBRANCH   9  10
ENDBRANCH   1   9
TORSDOF 10
ENDMDL
MODEL 3
REMARK VINA RESULT:    -4.980      2.874      6.057
REMARK INTER + INTRA:          -8.822
REMARK INTER:                  -8.287
REMARK INTRA:                  -0.535
REMARK UNBOUND:                -0.931
REMARK SMILES CCCCCCCCCCCC(=O)[O-]
REMARK SMILES IDX 7 1 8 2 9 3 10 4 11 5 12 6 13 7 14 8 6 9 5 10 4 11 3 12 2 13
REMARK SMILES IDX 1 14
REMARK H PARENT
REMARK Flexibility Score: inf
ROOT
ATOM      1  C   UNL     1       4.937 -35.562  20.593  1.00  0.00     0.000 C 
ENDROOT
BRANCH   1   2
ATOM      2  C   UNL     1       4.332 -34.348  21.314  1.00  0.00     0.000 C 
BRANCH   2   3
ATOM      3  C   UNL     1       4.978 -34.093  22.687  1.00  0.00     0.000 C 
BRANCH   3   4
ATOM      4  C   UNL     1       5.982 -35.191  23.084  1.00  0.00     0.006 C 
BRANCH   4   5
ATOM      5  C   UNL     1       5.824 -35.698  24.527  1.00  0.00     0.053 C 
BRANCH   5   6
ATOM      6  C   UNL     1       4.925 -36.893  24.607  1.00  0.00     0.041 C 
ATOM      7  O   UNL     1       4.383 -37.207  25.700  1.00  0.00    -0.550 OA
ATOM      8  O   UNL     1       4.716 -37.684  23.484  1.00  0.00    -0.550 OA
ENDBRANCH   5   6
ENDBRANCH   4   5
ENDBRANCH   3   4
ENDBRANCH   2   3
ENDBRANCH   1   2
BRANCH   1   9
ATOM      9  C   UNL     1       4.338 -35.777  19.194  1.00  0.00     0.000 C 
BRANCH   9  10
ATOM     10  C   UNL     1       3.274 -36.882  19.217  1.00  0.00    -0.000 C 
BRANCH  10  11
ATOM     11  C   UNL     1       2.945 -37.358  17.797  1.00  0.00    -0.000 C 
BRANCH  11  12
ATOM     12  C   UNL     1       3.049 -36.201  16.792  1.00  0.00    -0.000 C 
BRANCH  12  13
ATOM     13  C   UNL     1       2.382 -36.525  15.447  1.00  0.00    -0.003 C 
ATOM     14  C   UNL     1       3.394 -36.854  14.349  1.00  0.00     0.004 C 
ENDBRANCH  12  13
ENDBRANCH  11  12
ENDBRANCH  10  11
ENDBRANCH   9  10
ENDBRANCH   1   9
TORSDOF 10
ENDMDL
MODEL 4
REMARK VINA RESULT:    -4.866      1.363      1.879
REMARK INTER + INTRA:          -8.642
REMARK INTER:                  -7.873
REMARK INTRA:                  -0.769
REMARK UNBOUND:                -0.931
REMARK SMILES CCCCCCCCCCCC(=O)[O-]
REMARK SMILES IDX 7 1 8 2 9 3 10 4 11 5 12 6 13 7 14 8 6 9 5 10 4 11 3 12 2 13
REMARK SMILES IDX 1 14
REMARK H PARENT
REMARK Flexibility Score: inf
ROOT
ATOM      1  C   UNL     1       4.237 -33.969  21.131  1.00  0.00     0.000 C 
ENDROOT
BRANCH   1   2
ATOM      2  C   UNL     1       4.964 -35.025  20.283  1.00  0.00     0.000 C 
BRANCH   2   3
ATOM      3  C   UNL     1       4.020 -36.130  19.778  1.00  0.00     0.000 C 
BRANCH   3   4
ATOM      4  C   UNL     1       3.869 -36.128  18.246  1.00  0.00     0.006 C 
BRANCH   4   5
ATOM      5  C   UNL     1       2.792 -37.089  17.717  1.00  0.00     0.053 C 
BRANCH   5   6
ATOM      6  C   UNL     1       2.589 -36.947  16.240  1.00  0.00     0.041 C 
ATOM      7  O   UNL     1       1.611 -36.291  15.795  1.00  0.00    -0.550 OA
ATOM      8  O   UNL     1       3.459 -37.572  15.355  1.00  0.00    -0.550 OA
ENDBRANCH   5   6
ENDBRANCH   4   5
ENDBRANCH   3   4
ENDBRANCH   2   3
ENDBRANCH   1   2
BRANCH   1   9
ATOM      9  C   UNL     1       4.887 -33.770  22.509  1.00  0.00     0.000 C 
BRANCH   9  10
ATOM     10  C   UNL     1       6.042 -34.758  22.720  1.00  0.00    -0.000 C 
BRANCH  10  11
ATOM     11  C   UNL     1       6.079 -35.261  24.168  1.00  0.00    -0.000 C 
BRANCH  11  12
ATOM     12  C   UNL     1       5.078 -36.406  24.378  1.00  0.00    -0.000 C 
BRANCH  12  13
ATOM     13  C   UNL     1       5.036 -37.378  23.189  1.00  0.00    -0.003 C 
ATOM     14  C   UNL     1       4.653 -38.800  23.601  1.00  0.00     0.004 C 
ENDBRANCH  12  13
ENDBRANCH  11  12
ENDBRANCH  10  11
ENDBRANCH   9  10
ENDBRANCH   1   9
TORSDOF 10
ENDMDL
MODEL 5
REMARK VINA RESULT:    -4.850      1.470      3.346
REMARK INTER + INTRA:          -8.617
REMARK INTER:                  -7.792
REMARK INTRA:                  -0.824
REMARK UNBOUND:                -0.931
REMARK SMILES CCCCCCCCCCCC(=O)[O-]
REMARK SMILES IDX 7 1 8 2 9 3 10 4 11 5 12 6 13 7 14 8 6 9 5 10 4 11 3 12 2 13
REMARK SMILES IDX 1 14
REMARK H PARENT
REMARK Flexibility Score: inf
ROOT
ATOM      1  C   UNL     1       4.772 -37.926  22.203  1.00  0.00     0.000 C 
ENDROOT
BRANCH   1   2
ATOM      2  C   UNL     1       5.001 -37.119  20.915  1.00  0.00     0.000 C 
BRANCH   2   3
ATOM      3  C   UNL     1       4.351 -37.773  19.684  1.00  0.00     0.000 C 
BRANCH   3   4
ATOM      4  C   UNL     1       3.691 -36.747  18.744  1.00  0.00     0.006 C 
BRANCH   4   5
ATOM      5  C   UNL     1       2.513 -37.303  17.930  1.00  0.00     0.053 C 
BRANCH   5   6
ATOM      6  C   UNL     1       2.575 -36.884  16.493  1.00  0.00     0.041 C 
ATOM      7  O   UNL     1       1.973 -35.846  16.109  1.00  0.00    -0.550 OA
ATOM      8  O   UNL     1       3.266 -37.659  15.571  1.00  0.00    -0.550 OA
ENDBRANCH   5   6
ENDBRANCH   4   5
ENDBRANCH   3   4
ENDBRANCH   2   3
ENDBRANCH   1   2
BRANCH   1   9
ATOM      9  C   UNL     1       4.973 -37.083  23.471  1.00  0.00     0.000 C 
BRANCH   9  10
ATOM     10  C   UNL     1       6.032 -35.997  23.246  1.00  0.00    -0.000 C 
BRANCH  10  11
ATOM     11  C   UNL     1       5.653 -34.699  23.971  1.00  0.00    -0.000 C 
BRANCH  11  12
ATOM     12  C   UNL     1       5.438 -33.554  22.970  1.00  0.00    -0.000 C 
BRANCH  12  13
ATOM     13  C   UNL     1       4.156 -33.726  22.142  1.00  0.00    -0.003 C 
ATOM     14  C   UNL     1       4.418 -33.716  20.636  1.00  0.00     0.004 C 
ENDBRANCH  12  13
ENDBRANCH  11  12
ENDBRANCH  10  11
ENDBRANCH   9  10
ENDBRANCH   1   9
TORSDOF 10
ENDMDL
MODEL 6
REMARK VINA RESULT:    -4.755      3.094      6.248
REMARK INTER + INTRA:          -8.466
REMARK INTER:                  -7.709
REMARK INTRA:                  -0.756
REMARK UNBOUND:                -0.931
REMARK SMILES CCCCCCCCCCCC(=O)[O-]
REMARK SMILES IDX 7 1 8 2 9 3 10 4 11 5 12 6 13 7 14 8 6 9 5 10 4 11 3 12 2 13
REMARK SMILES IDX 1 14
REMARK H PARENT
REMARK Flexibility Score: inf
ROOT
ATOM      1  C   UNL     1       4.905 -36.491  19.818  1.00  0.00     0.000 C 
ENDROOT
BRANCH   1   2
ATOM      2  C   UNL     1       4.405 -37.680  20.653  1.00  0.00     0.000 C 
BRANCH   2   3
ATOM      3  C   UNL     1       4.737 -37.534  22.148  1.00  0.00     0.000 C 
BRANCH   3   4
ATOM      4  C   UNL     1       5.654 -36.331  22.438  1.00  0.00     0.006 C 
BRANCH   4   5
ATOM      5  C   UNL     1       5.062 -35.310  23.423  1.00  0.00     0.053 C 
BRANCH   5   6
ATOM      6  C   UNL     1       4.949 -33.945  22.817  1.00  0.00     0.041 C 
ATOM      7  O   UNL     1       5.694 -33.011  23.214  1.00  0.00    -0.550 OA
ATOM      8  O   UNL     1       3.995 -33.696  21.838  1.00  0.00    -0.550 OA
ENDBRANCH   5   6
ENDBRANCH   4   5
ENDBRANCH   3   4
ENDBRANCH   2   3
ENDBRANCH   1   2
BRANCH   1   9
ATOM      9  C   UNL     1       3.942 -36.124  18.678  1.00  0.00     0.000 C 
BRANCH   9  10
ATOM     10  C   UNL     1       2.863 -37.201  18.503  1.00  0.00    -0.000 C 
BRANCH  10  11
ATOM     11  C   UNL     1       2.256 -37.147  17.096  1.00  0.00    -0.000 C 
BRANCH  11  12
ATOM     12  C   UNL     1       2.888 -36.019  16.267  1.00  0.00    -0.000 C 
BRANCH  12  13
ATOM     13  C   UNL     1       2.967 -36.358  14.771  1.00  0.00    -0.003 C 
ATOM     14  C   UNL     1       3.738 -37.649  14.496  1.00  0.00     0.004 C 
ENDBRANCH  12  13
ENDBRANCH  11  12
ENDBRANCH  10  11
ENDBRANCH   9  10
ENDBRANCH   1   9
TORSDOF 10
ENDMDL
MODEL 7
REMARK VINA RESULT:    -4.660      1.391      3.129
REMARK INTER + INTRA:          -8.315
REMARK INTER:                  -7.548
REMARK INTRA:                  -0.767
REMARK UNBOUND:                -0.931
REMARK SMILES CCCCCCCCCCCC(=O)[O-]
REMARK SMILES IDX 7 1 8 2 9 3 10 4 11 5 12 6 13 7 14 8 6 9 5 10 4 11 3 12 2 13
REMARK SMILES IDX 1 14
REMARK H PARENT
REMARK Flexibility Score: inf
ROOT
ATOM      1  C   UNL     1       4.361 -37.860  21.670  1.00  0.00     0.000 C 
ENDROOT
BRANCH   1   2
ATOM      2  C   UNL     1       5.000 -37.233  20.421  1.00  0.00     0.000 C 
BRANCH   2   3
ATOM      3  C   UNL     1       4.200 -36.032  19.888  1.00  0.00     0.000 C 
BRANCH   3   4
ATOM      4  C   UNL     1       4.014 -36.074  18.360  1.00  0.00     0.006 C 
BRANCH   4   5
ATOM      5  C   UNL     1       2.918 -37.041  17.884  1.00  0.00     0.053 C 
BRANCH   5   6
ATOM      6  C   UNL     1       2.607 -36.867  16.430  1.00  0.00     0.041 C 
ATOM      7  O   UNL     1       3.377 -37.347  15.555  1.00  0.00    -0.550 OA
ATOM      8  O   UNL     1       1.488 -36.144  16.038  1.00  0.00    -0.550 OA
ENDBRANCH   5   6
ENDBRANCH   4   5
ENDBRANCH   3   4
ENDBRANCH   2   3
ENDBRANCH   1   2
BRANCH   1   9
ATOM      9  C   UNL     1       5.337 -37.943  22.854  1.00  0.00     0.000 C 
BRANCH   9  10
ATOM     10  C   UNL     1       4.659 -37.505  24.158  1.00  0.00    -0.000 C 
BRANCH  10  11
ATOM     11  C   UNL     1       5.309 -36.232  24.716  1.00  0.00    -0.000 C 
BRANCH  11  12
ATOM     12  C   UNL     1       6.124 -35.512  23.632  1.00  0.00    -0.000 C 
BRANCH  12  13
ATOM     13  C   UNL     1       5.920 -33.990  23.653  1.00  0.00    -0.003 C 
ATOM     14  C   UNL     1       4.967 -33.505  22.561  1.00  0.00     0.004 C 
ENDBRANCH  12  13
ENDBRANCH  11  12
ENDBRANCH  10  11
ENDBRANCH   9  10
ENDBRANCH   1   9
TORSDOF 10
ENDMDL
MODEL 8
REMARK VINA RESULT:    -4.659      2.007      4.489
REMARK INTER + INTRA:          -8.313
REMARK INTER:                  -7.376
REMARK INTRA:                  -0.937
REMARK UNBOUND:                -0.931
REMARK SMILES CCCCCCCCCCCC(=O)[O-]
REMARK SMILES IDX 7 1 8 2 9 3 10 4 11 5 12 6 13 7 14 8 6 9 5 10 4 11 3 12 2 13
REMARK SMILES IDX 1 14
REMARK H PARENT
REMARK Flexibility Score: inf
ROOT
ATOM      1  C   UNL     1       4.809 -33.502  22.503  1.00  0.00     0.000 C 
ENDROOT
BRANCH   1   2
ATOM      2  C   UNL     1       6.125 -34.068  23.060  1.00  0.00     0.000 C 
BRANCH   2   3
ATOM      3  C   UNL     1       5.906 -34.987  24.274  1.00  0.00     0.000 C 
BRANCH   3   4
ATOM      4  C   UNL     1       5.980 -36.481  23.909  1.00  0.00     0.006 C 
BRANCH   4   5
ATOM      5  C   UNL     1       4.613 -37.181  23.837  1.00  0.00     0.053 C 
BRANCH   5   6
ATOM      6  C   UNL     1       4.670 -38.442  23.032  1.00  0.00     0.041 C 
ATOM      7  O   UNL     1       4.349 -38.432  21.815  1.00  0.00    -0.550 OA
ATOM      8  O   UNL     1       5.041 -39.637  23.636  1.00  0.00    -0.550 OA
ENDBRANCH   5   6
ENDBRANCH   4   5
ENDBRANCH   3   4
ENDBRANCH   2   3
ENDBRANCH   1   2
BRANCH   1   9
ATOM      9  C   UNL     1       4.540 -33.948  21.057  1.00  0.00     0.000 C 
BRANCH   9  10
ATOM     10  C   UNL     1       5.754 -34.683  20.474  1.00  0.00    -0.000 C 
BRANCH  10  11
ATOM     11  C   UNL     1       5.324 -35.948  19.722  1.00  0.00    -0.000 C 
BRANCH  11  12
ATOM     12  C   UNL     1       3.848 -35.863  19.305  1.00  0.00    -0.000 C 
BRANCH  12  13
ATOM     13  C   UNL     1       3.294 -37.211  18.819  1.00  0.00    -0.003 C 
ATOM     14  C   UNL     1       3.077 -37.250  17.306  1.00  0.00     0.004 C 
ENDBRANCH  12  13
ENDBRANCH  11  12
ENDBRANCH  10  11
ENDBRANCH   9  10
ENDBRANCH   1   9
TORSDOF 10
ENDMDL
MODEL 9
REMARK VINA RESULT:    -4.306      2.854      5.276
REMARK INTER + INTRA:          -7.755
REMARK INTER:                  -6.695
REMARK INTRA:                  -1.060
REMARK UNBOUND:                -0.931
REMARK SMILES CCCCCCCCCCCC(=O)[O-]
REMARK SMILES IDX 7 1 8 2 9 3 10 4 11 5 12 6 13 7 14 8 6 9 5 10 4 11 3 12 2 13
REMARK SMILES IDX 1 14
REMARK H PARENT
REMARK Flexibility Score: inf
ROOT
ATOM      1  C   UNL     1       3.594 -36.861  18.849  1.00  0.00     0.000 C 
ENDROOT
BRANCH   1   2
ATOM      2  C   UNL     1       4.532 -37.684  19.746  1.00  0.00     0.000 C 
BRANCH   2   3
ATOM      3  C   UNL     1       4.030 -37.778  21.197  1.00  0.00     0.000 C 
BRANCH   3   4
ATOM      4  C   UNL     1       5.078 -38.383  22.150  1.00  0.00     0.006 C 
BRANCH   4   5
ATOM      5  C   UNL     1       4.571 -38.607  23.584  1.00  0.00     0.053 C 
BRANCH   5   6
ATOM      6  C   UNL     1       4.943 -37.477  24.494  1.00  0.00     0.041 C 
ATOM      7  O   UNL     1       5.928 -36.742  24.222  1.00  0.00    -0.550 OA
ATOM      8  O   UNL     1       4.224 -37.260  25.663  1.00  0.00    -0.550 OA
ENDBRANCH   5   6
ENDBRANCH   4   5
ENDBRANCH   3   4
ENDBRANCH   2   3
ENDBRANCH   1   2
BRANCH   1   9
ATOM      9  C   UNL     1       4.295 -35.648  18.218  1.00  0.00     0.000 C 
BRANCH   9  10
ATOM     10  C   UNL     1       4.478 -34.524  19.246  1.00  0.00    -0.000 C 
BRANCH  10  11
ATOM     11  C   UNL     1       5.946 -34.399  19.670  1.00  0.00    -0.000 C 
BRANCH  11  12
ATOM     12  C   UNL     1       6.125 -34.780  21.147  1.00  0.00    -0.000 C 
BRANCH  12  13
ATOM     13  C   UNL     1       5.086 -34.110  22.060  1.00  0.00    -0.003 C 
ATOM     14  C   UNL     1       5.719 -33.411  23.263  1.00  0.00     0.004 C 
ENDBRANCH  12  13
ENDBRANCH  11  12
ENDBRANCH  10  11
ENDBRANCH   9  10
ENDBRANCH   1   9
TORSDOF 10
ENDMDL
