MODEL 1
REMARK VINA RESULT:    -6.231      0.000      0.000
REMARK INTER + INTRA:          -6.413
REMARK INTER:                  -6.413
REMARK INTRA:                   0.000
REMARK UNBOUND:                 0.000
REMARK SMILES Cc1ccccc1O
REMARK SMILES IDX 1 1 2 2 3 3 4 4 5 5 6 6 7 7 8 8
REMARK H PARENT 8 9
REMARK Flexibility Score: inf
ROOT
ATOM      1  C   UNL     1     -36.582  72.785 -18.633  1.00  0.00     0.048 C 
ATOM      2  C   UNL     1     -35.937  71.431 -18.726  1.00  0.00    -0.009 A 
ATOM      3  C   UNL     1     -34.567  71.317 -19.019  1.00  0.00     0.007 A 
ATOM      4  C   UNL     1     -33.967  70.057 -19.105  1.00  0.00     0.001 A 
ATOM      5  C   UNL     1     -34.726  68.904 -18.898  1.00  0.00     0.004 A 
ATOM      6  C   UNL     1     -36.089  69.007 -18.606  1.00  0.00     0.046 A 
ATOM      7  C   UNL     1     -36.700  70.266 -18.517  1.00  0.00     0.118 A 
ENDROOT
BRANCH   7   8
ATOM      8  O   UNL     1     -38.061  70.364 -18.225  1.00  0.00    -0.508 OA
ATOM      9  H   UNL     1     -38.720  69.653 -18.520  1.00  0.00     0.293 HD
ENDBRANCH   7   8
TORSDOF 1
ENDMDL
MODEL 2
REMARK VINA RESULT:    -5.958      1.669      2.389
REMARK INTER + INTRA:          -6.132
REMARK INTER:                  -6.132
REMARK INTRA:                   0.000
REMARK UNBOUND:                 0.000
REMARK SMILES Cc1ccccc1O
REMARK SMILES IDX 1 1 2 2 3 3 4 4 5 5 6 6 7 7 8 8
REMARK H PARENT 8 9
REMARK Flexibility Score: inf
ROOT
ATOM      1  C   UNL     1     -36.655  72.663 -18.683  1.00  0.00     0.048 C 
ATOM      2  C   UNL     1     -36.138  71.252 -18.699  1.00  0.00    -0.009 A 
ATOM      3  C   UNL     1     -36.995  70.179 -18.399  1.00  0.00     0.007 A 
ATOM      4  C   UNL     1     -36.514  68.867 -18.415  1.00  0.00     0.001 A 
ATOM      5  C   UNL     1     -35.178  68.614 -18.731  1.00  0.00     0.004 A 
ATOM      6  C   UNL     1     -34.318  69.673 -19.030  1.00  0.00     0.046 A 
ATOM      7  C   UNL     1     -34.791  70.994 -19.017  1.00  0.00     0.118 A 
ENDROOT
BRANCH   7   8
ATOM      8  O   UNL     1     -33.928  72.048 -19.318  1.00  0.00    -0.508 OA
ATOM      9  H   UNL     1     -34.064  72.974 -18.928  1.00  0.00     0.293 HD
ENDBRANCH   7   8
TORSDOF 1
ENDMDL
MODEL 3
REMARK VINA RESULT:    -5.198      1.831      3.432
REMARK INTER + INTRA:          -5.350
REMARK INTER:                  -5.350
REMARK INTRA:                   0.000
REMARK UNBOUND:                 0.000
REMARK SMILES Cc1ccccc1O
REMARK SMILES IDX 1 1 2 2 3 3 4 4 5 5 6 6 7 7 8 8
REMARK H PARENT 8 9
REMARK Flexibility Score: inf
ROOT
ATOM      1  C   UNL     1     -36.181  68.431 -18.630  1.00  0.00     0.048 C 
ATOM      2  C   UNL     1     -36.100  69.931 -18.674  1.00  0.00    -0.009 A 
ATOM      3  C   UNL     1     -37.272  70.705 -18.630  1.00  0.00     0.007 A 
ATOM      4  C   UNL     1     -37.197  72.101 -18.671  1.00  0.00     0.001 A 
ATOM      5  C   UNL     1     -35.955  72.734 -18.756  1.00  0.00     0.004 A 
ATOM      6  C   UNL     1     -34.784  71.972 -18.801  1.00  0.00     0.046 A 
ATOM      7  C   UNL     1     -34.849  70.572 -18.759  1.00  0.00     0.118 A 
ENDROOT
BRANCH   7   8
ATOM      8  O   UNL     1     -33.677  69.817 -18.804  1.00  0.00    -0.508 OA
ATOM      9  H   UNL     1     -32.997  69.847 -18.054  1.00  0.00     0.293 HD
ENDBRANCH   7   8
TORSDOF 1
ENDMDL
MODEL 4
REMARK VINA RESULT:    -5.169      1.275      2.728
REMARK INTER + INTRA:          -5.321
REMARK INTER:                  -5.321
REMARK INTRA:                   0.000
REMARK UNBOUND:                 0.000
REMARK SMILES Cc1ccccc1O
REMARK SMILES IDX 1 1 2 2 3 3 4 4 5 5 6 6 7 7 8 8
REMARK H PARENT 8 9
REMARK Flexibility Score: inf
ROOT
ATOM      1  C   UNL     1     -33.692  69.416 -19.000  1.00  0.00     0.048 C 
ATOM      2  C   UNL     1     -34.961  70.216 -18.902  1.00  0.00    -0.009 A 
ATOM      3  C   UNL     1     -34.924  71.618 -18.993  1.00  0.00     0.007 A 
ATOM      4  C   UNL     1     -36.105  72.361 -18.902  1.00  0.00     0.001 A 
ATOM      5  C   UNL     1     -37.328  71.715 -18.719  1.00  0.00     0.004 A 
ATOM      6  C   UNL     1     -37.376  70.321 -18.627  1.00  0.00     0.046 A 
ATOM      7  C   UNL     1     -36.197  69.566 -18.718  1.00  0.00     0.118 A 
ENDROOT
BRANCH   7   8
ATOM      8  O   UNL     1     -36.249  68.175 -18.625  1.00  0.00    -0.508 OA
ATOM      9  H   UNL     1     -36.681  67.610 -19.347  1.00  0.00     0.293 HD
ENDBRANCH   7   8
TORSDOF 1
ENDMDL
MODEL 5
REMARK VINA RESULT:    -5.082      1.066      1.599
REMARK INTER + INTRA:          -5.230
REMARK INTER:                  -5.230
REMARK INTRA:                   0.000
REMARK UNBOUND:                 0.000
REMARK SMILES Cc1ccccc1O
REMARK SMILES IDX 1 1 2 2 3 3 4 4 5 5 6 6 7 7 8 8
REMARK H PARENT 8 9
REMARK Flexibility Score: inf
ROOT
ATOM      1  C   UNL     1     -34.374  72.776 -18.594  1.00  0.00     0.048 C 
ATOM      2  C   UNL     1     -35.057  71.439 -18.676  1.00  0.00    -0.009 A 
ATOM      3  C   UNL     1     -34.298  70.261 -18.780  1.00  0.00     0.007 A 
ATOM      4  C   UNL     1     -34.932  69.018 -18.857  1.00  0.00     0.001 A 
ATOM      5  C   UNL     1     -36.326  68.939 -18.829  1.00  0.00     0.004 A 
ATOM      6  C   UNL     1     -37.090  70.105 -18.726  1.00  0.00     0.046 A 
ATOM      7  C   UNL     1     -36.462  71.357 -18.648  1.00  0.00     0.118 A 
ENDROOT
BRANCH   7   8
ATOM      8  O   UNL     1     -37.229  72.518 -18.545  1.00  0.00    -0.508 OA
ATOM      9  H   UNL     1     -37.074  73.194 -17.806  1.00  0.00     0.293 HD
ENDBRANCH   7   8
TORSDOF 1
ENDMDL
MODEL 6
REMARK VINA RESULT:    -4.913      1.840      3.514
REMARK INTER + INTRA:          -5.057
REMARK INTER:                  -5.057
REMARK INTRA:                   0.000
REMARK UNBOUND:                 0.000
REMARK SMILES Cc1ccccc1O
REMARK SMILES IDX 1 1 2 2 3 3 4 4 5 5 6 6 7 7 8 8
REMARK H PARENT 8 9
REMARK Flexibility Score: inf
ROOT
ATOM      1  C   UNL     1     -34.355  69.447 -18.988  1.00  0.00     0.048 C 
ATOM      2  C   UNL     1     -35.530  70.383 -18.966  1.00  0.00    -0.009 A 
ATOM      3  C   UNL     1     -36.840  69.875 -18.953  1.00  0.00     0.007 A 
ATOM      4  C   UNL     1     -37.934  70.746 -18.933  1.00  0.00     0.001 A 
ATOM      5  C   UNL     1     -37.730  72.128 -18.924  1.00  0.00     0.004 A 
ATOM      6  C   UNL     1     -36.430  72.642 -18.938  1.00  0.00     0.046 A 
ATOM      7  C   UNL     1     -35.327  71.777 -18.958  1.00  0.00     0.118 A 
ENDROOT
BRANCH   7   8
ATOM      8  O   UNL     1     -34.032  72.295 -18.971  1.00  0.00    -0.508 OA
ATOM      9  H   UNL     1     -33.231  71.720 -19.202  1.00  0.00     0.293 HD
ENDBRANCH   7   8
TORSDOF 1
ENDMDL
MODEL 7
REMARK VINA RESULT:    -4.886      0.662      2.459
REMARK INTER + INTRA:          -5.029
REMARK INTER:                  -5.029
REMARK INTRA:                   0.000
REMARK UNBOUND:                 0.000
REMARK SMILES Cc1ccccc1O
REMARK SMILES IDX 1 1 2 2 3 3 4 4 5 5 6 6 7 7 8 8
REMARK H PARENT 8 9
REMARK Flexibility Score: inf
ROOT
ATOM      1  C   UNL     1     -36.235  68.168 -18.625  1.00  0.00     0.048 C 
ATOM      2  C   UNL     1     -35.741  69.584 -18.720  1.00  0.00    -0.009 A 
ATOM      3  C   UNL     1     -34.384  69.846 -18.972  1.00  0.00     0.007 A 
ATOM      4  C   UNL     1     -33.925  71.163 -19.060  1.00  0.00     0.001 A 
ATOM      5  C   UNL     1     -34.814  72.228 -18.899  1.00  0.00     0.004 A 
ATOM      6  C   UNL     1     -36.165  71.978 -18.648  1.00  0.00     0.046 A 
ATOM      7  C   UNL     1     -36.636  70.659 -18.558  1.00  0.00     0.118 A 
ENDROOT
BRANCH   7   8
ATOM      8  O   UNL     1     -37.986  70.415 -18.308  1.00  0.00    -0.508 OA
ATOM      9  H   UNL     1     -38.569  71.093 -17.831  1.00  0.00     0.293 HD
ENDBRANCH   7   8
TORSDOF 1
ENDMDL
MODEL 8
REMARK VINA RESULT:    -4.829      1.567      2.215
REMARK INTER + INTRA:          -4.970
REMARK INTER:                  -4.970
REMARK INTRA:                   0.000
REMARK UNBOUND:                 0.000
REMARK SMILES Cc1ccccc1O
REMARK SMILES IDX 1 1 2 2 3 3 4 4 5 5 6 6 7 7 8 8
REMARK H PARENT 8 9
REMARK Flexibility Score: inf
ROOT
ATOM      1  C   UNL     1     -38.175  73.989 -19.709  1.00  0.00     0.048 C 
ATOM      2  C   UNL     1     -37.534  72.681 -19.335  1.00  0.00    -0.009 A 
ATOM      3  C   UNL     1     -36.221  72.653 -18.836  1.00  0.00     0.007 A 
ATOM      4  C   UNL     1     -35.626  71.437 -18.488  1.00  0.00     0.001 A 
ATOM      5  C   UNL     1     -36.334  70.242 -18.634  1.00  0.00     0.004 A 
ATOM      6  C   UNL     1     -37.640  70.260 -19.131  1.00  0.00     0.046 A 
ATOM      7  C   UNL     1     -38.247  71.476 -19.482  1.00  0.00     0.118 A 
ENDROOT
BRANCH   7   8
ATOM      8  O   UNL     1     -39.551  71.488 -19.977  1.00  0.00    -0.508 OA
ATOM      9  H   UNL     1     -39.812  70.957 -20.799  1.00  0.00     0.293 HD
ENDBRANCH   7   8
TORSDOF 1
ENDMDL
MODEL 9
REMARK VINA RESULT:    -4.797      2.010      3.110
REMARK INTER + INTRA:          -4.937
REMARK INTER:                  -4.937
REMARK INTRA:                   0.000
REMARK UNBOUND:                 0.000
REMARK SMILES Cc1ccccc1O
REMARK SMILES IDX 1 1 2 2 3 3 4 4 5 5 6 6 7 7 8 8
REMARK H PARENT 8 9
REMARK Flexibility Score: inf
ROOT
ATOM      1  C   UNL     1     -39.665  71.121 -19.838  1.00  0.00     0.048 C 
ATOM      2  C   UNL     1     -38.242  71.293 -19.386  1.00  0.00    -0.009 A 
ATOM      3  C   UNL     1     -37.497  70.182 -18.955  1.00  0.00     0.007 A 
ATOM      4  C   UNL     1     -36.174  70.342 -18.533  1.00  0.00     0.001 A 
ATOM      5  C   UNL     1     -35.584  71.607 -18.540  1.00  0.00     0.004 A 
ATOM      6  C   UNL     1     -36.317  72.718 -18.967  1.00  0.00     0.046 A 
ATOM      7  C   UNL     1     -37.645  72.568 -19.392  1.00  0.00     0.118 A 
ENDROOT
BRANCH   7   8
ATOM      8  O   UNL     1     -38.372  73.680 -19.817  1.00  0.00    -0.508 OA
ATOM      9  H   UNL     1     -39.265  73.921 -19.403  1.00  0.00     0.293 HD
ENDBRANCH   7   8
TORSDOF 1
ENDMDL
