MODEL 1
REMARK VINA RESULT:    -6.662      0.000      0.000
REMARK INTER + INTRA:         -11.376
REMARK INTER:                  -9.777
REMARK INTRA:                  -1.599
REMARK UNBOUND:                -1.599
REMARK SMILES O=c1c(O[C@@H]2O[C@H](CO)[C@@H](O)[C@@H](O)[C@@H]2O)c(-c2ccc(O)c(O)c2)oc2cc(O)cc(O)c12
REMARK SMILES IDX 4 1 3 2 16 3 25 4 2 5 26 6 1 7 33 8 27 9 31 10 28 11 30 12
REMARK SMILES IDX 17 13 18 14 19 15 20 16 24 17 22 18 21 19 23 21 32 23 29 25
REMARK SMILES IDX 5 27 14 28 6 29 12 30 7 31 10 32 15 33 13 35 8 37 9 38 11 40
REMARK H PARENT 21 20 23 22 32 24 29 26 15 34 13 36 9 39 11 41
REMARK Flexibility Score: inf
ROOT
ATOM      1  O   UNL     1     138.058 146.980 126.639  1.00  0.00    -0.454 OA
ENDROOT
BRANCH   1   2
ATOM      2  C   UNL     1     137.118 146.943 127.678  1.00  0.00     0.214 A 
ATOM      3  C   UNL     1     137.504 147.060 129.024  1.00  0.00     0.180 A 
ATOM      4  O   UNL     1     136.595 146.958 129.985  1.00  0.00    -0.452 OA
ATOM      5  C   UNL     1     135.761 146.784 127.375  1.00  0.00     0.239 A 
ATOM      6  C   UNL     1     135.304 146.750 129.749  1.00  0.00     0.146 A 
ATOM      7  O   UNL     1     135.416 146.789 126.164  1.00  0.00    -0.285 OA
ATOM      8  C   UNL     1     134.816 146.630 128.419  1.00  0.00     0.111 A 
ATOM      9  C   UNL     1     134.432 146.658 130.836  1.00  0.00     0.094 A 
ATOM     10  C   UNL     1     133.421 146.392 128.225  1.00  0.00     0.134 A 
ATOM     11  C   UNL     1     133.066 146.470 130.632  1.00  0.00     0.123 A 
ATOM     12  C   UNL     1     132.569 146.343 129.333  1.00  0.00     0.093 A 
BRANCH   3  13
ATOM     13  C   UNL     1     138.886 147.394 129.403  1.00  0.00     0.025 A 
ATOM     14  C   UNL     1     139.361 148.709 129.310  1.00  0.00     0.016 A 
ATOM     15  C   UNL     1     140.677 149.006 129.680  1.00  0.00     0.051 A 
ATOM     16  C   UNL     1     141.550 147.986 130.084  1.00  0.00     0.157 A 
ATOM     17  C   UNL     1     139.753 146.371 129.809  1.00  0.00     0.062 A 
ATOM     18  C   UNL     1     141.088 146.648 130.130  1.00  0.00     0.158 A 
BRANCH  16  19
ATOM     19  O   UNL     1     142.859 148.341 130.416  1.00  0.00    -0.504 OA
ATOM     20  H   UNL     1     143.614 148.395 129.746  1.00  0.00     0.293 HD
ENDBRANCH  16  19
BRANCH  18  21
ATOM     21  O   UNL     1     141.914 145.571 130.471  1.00  0.00    -0.504 OA
ATOM     22  H   UNL     1     142.863 145.456 130.141  1.00  0.00     0.293 HD
ENDBRANCH  18  21
ENDBRANCH   3  13
BRANCH  10  23
ATOM     23  O   UNL     1     132.836 146.147 126.977  1.00  0.00    -0.507 OA
ATOM     24  H   UNL     1     132.190 145.400 126.780  1.00  0.00     0.293 HD
ENDBRANCH  10  23
BRANCH  11  25
ATOM     25  O   UNL     1     132.210 146.402 131.730  1.00  0.00    -0.508 OA
ATOM     26  H   UNL     1     131.201 146.422 131.621  1.00  0.00     0.293 HD
ENDBRANCH  11  25
ENDBRANCH   1   2
BRANCH   1  27
ATOM     27  C   UNL     1     138.818 145.833 126.249  1.00  0.00     0.339 C 
ATOM     28  C   UNL     1     138.559 145.434 124.779  1.00  0.00     0.214 C 
ATOM     29  O   UNL     1     140.197 146.013 126.540  1.00  0.00    -0.332 OA
ATOM     30  C   UNL     1     139.182 146.460 123.834  1.00  0.00     0.180 C 
ATOM     31  C   UNL     1     140.862 146.937 125.681  1.00  0.00     0.179 C 
ATOM     32  C   UNL     1     140.673 146.629 124.177  1.00  0.00     0.177 C 
BRANCH  28  33
ATOM     33  O   UNL     1     137.183 145.328 124.519  1.00  0.00    -0.384 OA
ATOM     34  H   UNL     1     137.012 145.807 123.668  1.00  0.00     0.211 HD
ENDBRANCH  28  33
BRANCH  30  35
ATOM     35  O   UNL     1     139.036 146.021 122.507  1.00  0.00    -0.387 OA
ATOM     36  H   UNL     1     139.557 146.646 121.941  1.00  0.00     0.211 HD
ENDBRANCH  30  35
BRANCH  31  37
ATOM     37  C   UNL     1     140.554 148.401 126.055  1.00  0.00     0.191 C 
BRANCH  37  38
ATOM     38  O   UNL     1     141.751 149.125 126.166  1.00  0.00    -0.394 OA
ATOM     39  H   UNL     1     141.513 150.072 126.354  1.00  0.00     0.210 HD
ENDBRANCH  37  38
ENDBRANCH  31  37
BRANCH  32  40
ATOM     40  O   UNL     1     141.377 145.453 123.865  1.00  0.00    -0.387 OA
ATOM     41  H   UNL     1     141.688 145.064 124.723  1.00  0.00     0.211 HD
ENDBRANCH  32  40
ENDBRANCH   1  27
TORSDOF 12
ENDMDL
MODEL 2
REMARK VINA RESULT:    -6.633      7.744      9.760
REMARK INTER + INTRA:         -11.334
REMARK INTER:                  -9.771
REMARK INTRA:                  -1.563
REMARK UNBOUND:                -1.599
REMARK SMILES O=c1c(O[C@@H]2O[C@H](CO)[C@@H](O)[C@@H](O)[C@@H]2O)c(-c2ccc(O)c(O)c2)oc2cc(O)cc(O)c12
REMARK SMILES IDX 4 1 3 2 16 3 25 4 2 5 26 6 1 7 33 8 27 9 31 10 28 11 30 12
REMARK SMILES IDX 17 13 18 14 19 15 20 16 24 17 22 18 21 19 23 21 32 23 29 25
REMARK SMILES IDX 5 27 14 28 6 29 12 30 7 31 10 32 15 33 13 35 8 37 9 38 11 40
REMARK H PARENT 21 20 23 22 32 24 29 26 15 34 13 36 9 39 11 41
REMARK Flexibility Score: inf
ROOT
ATOM      1  O   UNL     1     140.626 141.154 122.445  1.00  0.00    -0.454 OA
ENDROOT
BRANCH   1   2
ATOM      2  C   UNL     1     139.494 140.334 122.550  1.00  0.00     0.214 A 
ATOM      3  C   UNL     1     138.412 140.458 121.661  1.00  0.00     0.180 A 
ATOM      4  O   UNL     1     137.329 139.709 121.826  1.00  0.00    -0.452 OA
ATOM      5  C   UNL     1     139.432 139.368 123.559  1.00  0.00     0.239 A 
ATOM      6  C   UNL     1     137.201 138.818 122.804  1.00  0.00     0.146 A 
ATOM      7  O   UNL     1     140.449 139.193 124.280  1.00  0.00    -0.285 OA
ATOM      8  C   UNL     1     138.247 138.613 123.745  1.00  0.00     0.111 A 
ATOM      9  C   UNL     1     136.018 138.081 122.886  1.00  0.00     0.094 A 
ATOM     10  C   UNL     1     138.049 137.654 124.785  1.00  0.00     0.134 A 
ATOM     11  C   UNL     1     135.853 137.116 123.879  1.00  0.00     0.123 A 
ATOM     12  C   UNL     1     136.868 136.905 124.816  1.00  0.00     0.093 A 
BRANCH   3  13
ATOM     13  C   UNL     1     138.480 141.334 120.481  1.00  0.00     0.025 A 
ATOM     14  C   UNL     1     139.003 140.869 119.267  1.00  0.00     0.016 A 
ATOM     15  C   UNL     1     139.055 141.716 118.155  1.00  0.00     0.051 A 
ATOM     16  C   UNL     1     138.647 143.054 118.261  1.00  0.00     0.157 A 
ATOM     17  C   UNL     1     138.069 142.669 120.591  1.00  0.00     0.062 A 
ATOM     18  C   UNL     1     138.166 143.542 119.501  1.00  0.00     0.158 A 
BRANCH  16  19
ATOM     19  O   UNL     1     138.747 143.858 117.123  1.00  0.00    -0.504 OA
ATOM     20  H   UNL     1     139.359 144.658 117.053  1.00  0.00     0.293 HD
ENDBRANCH  16  19
BRANCH  18  21
ATOM     21  O   UNL     1     137.793 144.876 119.697  1.00  0.00    -0.504 OA
ATOM     22  H   UNL     1     137.824 145.349 120.590  1.00  0.00     0.293 HD
ENDBRANCH  18  21
ENDBRANCH   3  13
BRANCH  10  23
ATOM     23  O   UNL     1     138.952 137.437 125.831  1.00  0.00    -0.507 OA
ATOM     24  H   UNL     1     139.629 138.109 126.157  1.00  0.00     0.293 HD
ENDBRANCH  10  23
BRANCH  11  25
ATOM     25  O   UNL     1     134.673 136.377 123.931  1.00  0.00    -0.508 OA
ATOM     26  H   UNL     1     134.250 136.110 124.814  1.00  0.00     0.293 HD
ENDBRANCH  11  25
ENDBRANCH   1   2
BRANCH   1  27
ATOM     27  C   UNL     1     140.777 142.355 123.208  1.00  0.00     0.339 C 
ATOM     28  C   UNL     1     142.065 142.345 124.062  1.00  0.00     0.214 C 
ATOM     29  O   UNL     1     140.672 143.502 122.377  1.00  0.00    -0.332 OA
ATOM     30  C   UNL     1     143.295 142.479 123.167  1.00  0.00     0.180 C 
ATOM     31  C   UNL     1     141.798 143.716 121.527  1.00  0.00     0.179 C 
ATOM     32  C   UNL     1     143.148 143.729 122.283  1.00  0.00     0.177 C 
BRANCH  28  33
ATOM     33  O   UNL     1     142.159 141.167 124.821  1.00  0.00    -0.384 OA
ATOM     34  H   UNL     1     141.697 140.455 124.307  1.00  0.00     0.211 HD
ENDBRANCH  28  33
BRANCH  30  35
ATOM     35  O   UNL     1     144.445 142.583 123.968  1.00  0.00    -0.387 OA
ATOM     36  H   UNL     1     144.694 141.660 124.232  1.00  0.00     0.211 HD
ENDBRANCH  30  35
BRANCH  31  37
ATOM     37  C   UNL     1     141.786 142.780 120.301  1.00  0.00     0.191 C 
BRANCH  37  38
ATOM     38  O   UNL     1     142.802 143.155 119.408  1.00  0.00    -0.394 OA
ATOM     39  H   UNL     1     143.646 142.729 119.717  1.00  0.00     0.210 HD
ENDBRANCH  37  38
ENDBRANCH  31  37
BRANCH  32  40
ATOM     40  O   UNL     1     143.212 144.890 123.072  1.00  0.00    -0.387 OA
ATOM     41  H   UNL     1     142.648 145.576 122.628  1.00  0.00     0.211 HD
ENDBRANCH  32  40
ENDBRANCH   1  27
TORSDOF 12
ENDMDL
MODEL 3
REMARK VINA RESULT:    -6.529      2.170      7.030
REMARK INTER + INTRA:         -11.181
REMARK INTER:                  -9.561
REMARK INTRA:                  -1.620
REMARK UNBOUND:                -1.599
REMARK SMILES O=c1c(O[C@@H]2O[C@H](CO)[C@@H](O)[C@@H](O)[C@@H]2O)c(-c2ccc(O)c(O)c2)oc2cc(O)cc(O)c12
REMARK SMILES IDX 4 1 3 2 16 3 25 4 2 5 26 6 1 7 33 8 27 9 31 10 28 11 30 12
REMARK SMILES IDX 17 13 18 14 19 15 20 16 24 17 22 18 21 19 23 21 32 23 29 25
REMARK SMILES IDX 5 27 14 28 6 29 12 30 7 31 10 32 15 33 13 35 8 37 9 38 11 40
REMARK H PARENT 21 20 23 22 32 24 29 26 15 34 13 36 9 39 11 41
REMARK Flexibility Score: inf
ROOT
ATOM      1  O   UNL     1     134.911 146.602 126.720  1.00  0.00    -0.454 OA
ENDROOT
BRANCH   1   2
ATOM      2  C   UNL     1     136.110 146.921 127.373  1.00  0.00     0.214 A 
ATOM      3  C   UNL     1     136.300 146.641 128.737  1.00  0.00     0.180 A 
ATOM      4  O   UNL     1     137.423 147.013 129.339  1.00  0.00    -0.452 OA
ATOM      5  C   UNL     1     137.144 147.534 126.658  1.00  0.00     0.239 A 
ATOM      6  C   UNL     1     138.410 147.648 128.715  1.00  0.00     0.146 A 
ATOM      7  O   UNL     1     137.004 147.682 125.415  1.00  0.00    -0.285 OA
ATOM      8  C   UNL     1     138.314 147.964 127.332  1.00  0.00     0.111 A 
ATOM      9  C   UNL     1     139.549 147.993 129.445  1.00  0.00     0.094 A 
ATOM     10  C   UNL     1     139.397 148.661 126.716  1.00  0.00     0.134 A 
ATOM     11  C   UNL     1     140.619 148.635 128.822  1.00  0.00     0.123 A 
ATOM     12  C   UNL     1     140.540 148.959 127.466  1.00  0.00     0.093 A 
BRANCH   3  13
ATOM     13  C   UNL     1     135.325 145.853 129.506  1.00  0.00     0.025 A 
ATOM     14  C   UNL     1     135.329 144.452 129.455  1.00  0.00     0.016 A 
ATOM     15  C   UNL     1     134.396 143.721 130.197  1.00  0.00     0.051 A 
ATOM     16  C   UNL     1     133.409 144.379 130.945  1.00  0.00     0.157 A 
ATOM     17  C   UNL     1     134.342 146.515 130.253  1.00  0.00     0.062 A 
ATOM     18  C   UNL     1     133.369 145.795 130.957  1.00  0.00     0.158 A 
BRANCH  16  19
ATOM     19  O   UNL     1     132.489 143.595 131.644  1.00  0.00    -0.504 OA
ATOM     20  H   UNL     1     132.339 143.659 132.641  1.00  0.00     0.293 HD
ENDBRANCH  16  19
BRANCH  18  21
ATOM     21  O   UNL     1     132.383 146.520 131.635  1.00  0.00    -0.504 OA
ATOM     22  H   UNL     1     131.867 147.290 131.232  1.00  0.00     0.293 HD
ENDBRANCH  18  21
ENDBRANCH   3  13
BRANCH  10  23
ATOM     23  O   UNL     1     139.379 149.125 125.396  1.00  0.00    -0.507 OA
ATOM     24  H   UNL     1     139.479 150.090 125.123  1.00  0.00     0.293 HD
ENDBRANCH  10  23
BRANCH  11  25
ATOM     25  O   UNL     1     141.756 148.952 129.564  1.00  0.00    -0.508 OA
ATOM     26  H   UNL     1     142.541 148.314 129.635  1.00  0.00     0.293 HD
ENDBRANCH  11  25
ENDBRANCH   1   2
BRANCH   1  27
ATOM     27  C   UNL     1     133.797 147.499 126.676  1.00  0.00     0.339 C 
ATOM     28  C   UNL     1     133.440 147.916 125.232  1.00  0.00     0.214 C 
ATOM     29  O   UNL     1     132.690 146.970 127.391  1.00  0.00    -0.332 OA
ATOM     30  C   UNL     1     132.823 146.738 124.479  1.00  0.00     0.180 C 
ATOM     31  C   UNL     1     132.037 145.882 126.740  1.00  0.00     0.179 C 
ATOM     32  C   UNL     1     131.628 146.191 125.280  1.00  0.00     0.177 C 
BRANCH  28  33
ATOM     33  O   UNL     1     134.575 148.374 124.542  1.00  0.00    -0.384 OA
ATOM     34  H   UNL     1     135.253 147.652 124.591  1.00  0.00     0.211 HD
ENDBRANCH  28  33
BRANCH  30  35
ATOM     35  O   UNL     1     132.401 147.167 123.209  1.00  0.00    -0.387 OA
ATOM     36  H   UNL     1     131.603 146.626 122.976  1.00  0.00     0.211 HD
ENDBRANCH  30  35
BRANCH  31  37
ATOM     37  C   UNL     1     132.817 144.560 126.895  1.00  0.00     0.191 C 
BRANCH  37  38
ATOM     38  O   UNL     1     132.242 143.571 126.081  1.00  0.00    -0.394 OA
ATOM     39  H   UNL     1     131.451 143.209 126.562  1.00  0.00     0.210 HD
ENDBRANCH  37  38
ENDBRANCH  31  37
BRANCH  32  40
ATOM     40  O   UNL     1     130.584 147.132 125.294  1.00  0.00    -0.387 OA
ATOM     41  H   UNL     1     130.984 148.008 125.534  1.00  0.00     0.211 HD
ENDBRANCH  32  40
ENDBRANCH   1  27
TORSDOF 12
ENDMDL
MODEL 4
REMARK VINA RESULT:    -6.446      5.308      9.709
REMARK INTER + INTRA:         -11.059
REMARK INTER:                 -10.578
REMARK INTRA:                  -0.481
REMARK UNBOUND:                -1.599
REMARK SMILES O=c1c(O[C@@H]2O[C@H](CO)[C@@H](O)[C@@H](O)[C@@H]2O)c(-c2ccc(O)c(O)c2)oc2cc(O)cc(O)c12
REMARK SMILES IDX 4 1 3 2 16 3 25 4 2 5 26 6 1 7 33 8 27 9 31 10 28 11 30 12
REMARK SMILES IDX 17 13 18 14 19 15 20 16 24 17 22 18 21 19 23 21 32 23 29 25
REMARK SMILES IDX 5 27 14 28 6 29 12 30 7 31 10 32 15 33 13 35 8 37 9 38 11 40
REMARK H PARENT 21 20 23 22 32 24 29 26 15 34 13 36 9 39 11 41
REMARK Flexibility Score: inf
ROOT
ATOM      1  O   UNL     1     138.603 141.272 122.891  1.00  0.00    -0.454 OA
ENDROOT
BRANCH   1   2
ATOM      2  C   UNL     1     139.235 142.514 123.044  1.00  0.00     0.214 A 
ATOM      3  C   UNL     1     139.587 143.302 121.934  1.00  0.00     0.180 A 
ATOM      4  O   UNL     1     140.241 144.442 122.112  1.00  0.00    -0.452 OA
ATOM      5  C   UNL     1     139.527 142.986 124.328  1.00  0.00     0.239 A 
ATOM      6  C   UNL     1     140.590 144.904 123.309  1.00  0.00     0.146 A 
ATOM      7  O   UNL     1     139.111 142.324 125.316  1.00  0.00    -0.285 OA
ATOM      8  C   UNL     1     140.267 144.183 124.491  1.00  0.00     0.111 A 
ATOM      9  C   UNL     1     141.277 146.118 123.383  1.00  0.00     0.094 A 
ATOM     10  C   UNL     1     140.681 144.718 125.749  1.00  0.00     0.134 A 
ATOM     11  C   UNL     1     141.637 146.652 124.619  1.00  0.00     0.123 A 
ATOM     12  C   UNL     1     141.334 145.955 125.791  1.00  0.00     0.093 A 
BRANCH   3  13
ATOM     13  C   UNL     1     139.164 142.946 120.571  1.00  0.00     0.025 A 
ATOM     14  C   UNL     1     139.536 141.723 119.997  1.00  0.00     0.016 A 
ATOM     15  C   UNL     1     139.119 141.402 118.701  1.00  0.00     0.051 A 
ATOM     16  C   UNL     1     138.383 142.322 117.941  1.00  0.00     0.157 A 
ATOM     17  C   UNL     1     138.427 143.869 119.817  1.00  0.00     0.062 A 
ATOM     18  C   UNL     1     138.050 143.581 118.500  1.00  0.00     0.158 A 
BRANCH  16  19
ATOM     19  O   UNL     1     138.018 141.955 116.645  1.00  0.00    -0.504 OA
ATOM     20  H   UNL     1     138.630 141.470 116.005  1.00  0.00     0.293 HD
ENDBRANCH  16  19
BRANCH  18  21
ATOM     21  O   UNL     1     137.366 144.571 117.786  1.00  0.00    -0.504 OA
ATOM     22  H   UNL     1     136.385 144.523 117.546  1.00  0.00     0.293 HD
ENDBRANCH  18  21
ENDBRANCH   3  13
BRANCH  10  23
ATOM     23  O   UNL     1     140.521 144.056 126.971  1.00  0.00    -0.507 OA
ATOM     24  H   UNL     1     140.646 143.066 127.110  1.00  0.00     0.293 HD
ENDBRANCH  10  23
BRANCH  11  25
ATOM     25  O   UNL     1     142.304 147.875 124.672  1.00  0.00    -0.508 OA
ATOM     26  H   UNL     1     142.491 148.415 123.834  1.00  0.00     0.293 HD
ENDBRANCH  11  25
ENDBRANCH   1   2
BRANCH   1  27
ATOM     27  C   UNL     1     137.338 140.976 123.489  1.00  0.00     0.339 C 
ATOM     28  C   UNL     1     136.154 141.380 122.582  1.00  0.00     0.214 C 
ATOM     29  O   UNL     1     137.278 139.619 123.906  1.00  0.00    -0.332 OA
ATOM     30  C   UNL     1     136.068 140.447 121.376  1.00  0.00     0.180 C 
ATOM     31  C   UNL     1     137.167 138.681 122.837  1.00  0.00     0.179 C 
ATOM     32  C   UNL     1     136.004 138.989 121.864  1.00  0.00     0.177 C 
BRANCH  28  33
ATOM     33  O   UNL     1     136.285 142.708 122.143  1.00  0.00    -0.384 OA
ATOM     34  H   UNL     1     137.091 143.080 122.584  1.00  0.00     0.211 HD
ENDBRANCH  28  33
BRANCH  30  35
ATOM     35  O   UNL     1     134.921 140.758 120.627  1.00  0.00    -0.387 OA
ATOM     36  H   UNL     1     134.706 139.955 120.086  1.00  0.00     0.211 HD
ENDBRANCH  30  35
BRANCH  31  37
ATOM     37  C   UNL     1     138.517 138.444 122.131  1.00  0.00     0.191 C 
BRANCH  37  38
ATOM     38  O   UNL     1     138.540 137.157 121.570  1.00  0.00    -0.394 OA
ATOM     39  H   UNL     1     139.181 137.171 120.810  1.00  0.00     0.210 HD
ENDBRANCH  37  38
ENDBRANCH  31  37
BRANCH  32  40
ATOM     40  O   UNL     1     134.787 138.753 122.526  1.00  0.00    -0.387 OA
ATOM     41  H   UNL     1     134.920 139.003 123.478  1.00  0.00     0.211 HD
ENDBRANCH  32  40
ENDBRANCH   1  27
TORSDOF 12
ENDMDL
MODEL 5
REMARK VINA RESULT:    -6.388      6.006     10.038
REMARK INTER + INTRA:         -10.974
REMARK INTER:                  -9.973
REMARK INTRA:                  -1.001
REMARK UNBOUND:                -1.599
REMARK SMILES O=c1c(O[C@@H]2O[C@H](CO)[C@@H](O)[C@@H](O)[C@@H]2O)c(-c2ccc(O)c(O)c2)oc2cc(O)cc(O)c12
REMARK SMILES IDX 4 1 3 2 16 3 25 4 2 5 26 6 1 7 33 8 27 9 31 10 28 11 30 12
REMARK SMILES IDX 17 13 18 14 19 15 20 16 24 17 22 18 21 19 23 21 32 23 29 25
REMARK SMILES IDX 5 27 14 28 6 29 12 30 7 31 10 32 15 33 13 35 8 37 9 38 11 40
REMARK H PARENT 21 20 23 22 32 24 29 26 15 34 13 36 9 39 11 41
REMARK Flexibility Score: inf
ROOT
ATOM      1  O   UNL     1     130.639 143.969 123.481  1.00  0.00    -0.454 OA
ENDROOT
BRANCH   1   2
ATOM      2  C   UNL     1     131.689 144.768 123.953  1.00  0.00     0.214 A 
ATOM      3  C   UNL     1     132.947 144.222 124.264  1.00  0.00     0.180 A 
ATOM      4  O   UNL     1     133.899 144.996 124.768  1.00  0.00    -0.452 OA
ATOM      5  C   UNL     1     131.488 146.142 124.123  1.00  0.00     0.239 A 
ATOM      6  C   UNL     1     133.736 146.295 125.000  1.00  0.00     0.146 A 
ATOM      7  O   UNL     1     130.396 146.637 123.740  1.00  0.00    -0.285 OA
ATOM      8  C   UNL     1     132.504 146.939 124.707  1.00  0.00     0.111 A 
ATOM      9  C   UNL     1     134.806 147.017 125.534  1.00  0.00     0.094 A 
ATOM     10  C   UNL     1     132.380 148.333 124.991  1.00  0.00     0.134 A 
ATOM     11  C   UNL     1     134.688 148.387 125.766  1.00  0.00     0.123 A 
ATOM     12  C   UNL     1     133.483 149.036 125.489  1.00  0.00     0.093 A 
BRANCH   3  13
ATOM     13  C   UNL     1     133.277 142.822 123.954  1.00  0.00     0.025 A 
ATOM     14  C   UNL     1     133.322 141.851 124.963  1.00  0.00     0.016 A 
ATOM     15  C   UNL     1     133.633 140.525 124.647  1.00  0.00     0.051 A 
ATOM     16  C   UNL     1     133.966 140.166 123.333  1.00  0.00     0.157 A 
ATOM     17  C   UNL     1     133.606 142.469 122.639  1.00  0.00     0.062 A 
ATOM     18  C   UNL     1     133.973 141.156 122.319  1.00  0.00     0.158 A 
BRANCH  16  19
ATOM     19  O   UNL     1     134.293 138.832 123.084  1.00  0.00    -0.504 OA
ATOM     20  H   UNL     1     135.232 138.509 122.901  1.00  0.00     0.293 HD
ENDBRANCH  16  19
BRANCH  18  21
ATOM     21  O   UNL     1     134.346 140.886 120.998  1.00  0.00    -0.504 OA
ATOM     22  H   UNL     1     134.140 140.021 120.515  1.00  0.00     0.293 HD
ENDBRANCH  18  21
ENDBRANCH   3  13
BRANCH  10  23
ATOM     23  O   UNL     1     131.191 149.058 124.851  1.00  0.00    -0.507 OA
ATOM     24  H   UNL     1     130.900 149.810 125.455  1.00  0.00     0.293 HD
ENDBRANCH  10  23
BRANCH  11  25
ATOM     25  O   UNL     1     135.774 149.093 126.280  1.00  0.00    -0.508 OA
ATOM     26  H   UNL     1     136.444 149.555 125.673  1.00  0.00     0.293 HD
ENDBRANCH  11  25
ENDBRANCH   1   2
BRANCH   1  27
ATOM     27  C   UNL     1     129.329 144.002 124.056  1.00  0.00     0.339 C 
ATOM     28  C   UNL     1     128.235 144.268 122.999  1.00  0.00     0.214 C 
ATOM     29  O   UNL     1     129.084 142.834 124.827  1.00  0.00    -0.332 OA
ATOM     30  C   UNL     1     128.064 143.048 122.095  1.00  0.00     0.180 C 
ATOM     31  C   UNL     1     128.883 141.652 124.055  1.00  0.00     0.179 C 
ATOM     32  C   UNL     1     127.798 141.805 122.962  1.00  0.00     0.177 C 
BRANCH  28  33
ATOM     33  O   UNL     1     128.548 145.393 122.219  1.00  0.00    -0.384 OA
ATOM     34  H   UNL     1     128.218 145.210 121.302  1.00  0.00     0.211 HD
ENDBRANCH  28  33
BRANCH  30  35
ATOM     35  O   UNL     1     126.988 143.266 121.217  1.00  0.00    -0.387 OA
ATOM     36  H   UNL     1     127.381 143.499 120.338  1.00  0.00     0.211 HD
ENDBRANCH  30  35
BRANCH  31  37
ATOM     37  C   UNL     1     130.211 141.070 123.529  1.00  0.00     0.191 C 
BRANCH  37  38
ATOM     38  O   UNL     1     129.959 139.903 122.792  1.00  0.00    -0.394 OA
ATOM     39  H   UNL     1     129.967 139.138 123.428  1.00  0.00     0.210 HD
ENDBRANCH  37  38
ENDBRANCH  31  37
BRANCH  32  40
ATOM     40  O   UNL     1     126.543 141.908 123.585  1.00  0.00    -0.387 OA
ATOM     41  H   UNL     1     126.493 142.812 123.992  1.00  0.00     0.211 HD
ENDBRANCH  32  40
ENDBRANCH   1  27
TORSDOF 12
ENDMDL
MODEL 6
REMARK VINA RESULT:    -6.382      9.479     12.572
REMARK INTER + INTRA:         -10.966
REMARK INTER:                  -9.295
REMARK INTRA:                  -1.671
REMARK UNBOUND:                -1.599
REMARK SMILES O=c1c(O[C@@H]2O[C@H](CO)[C@@H](O)[C@@H](O)[C@@H]2O)c(-c2ccc(O)c(O)c2)oc2cc(O)cc(O)c12
REMARK SMILES IDX 4 1 3 2 16 3 25 4 2 5 26 6 1 7 33 8 27 9 31 10 28 11 30 12
REMARK SMILES IDX 17 13 18 14 19 15 20 16 24 17 22 18 21 19 23 21 32 23 29 25
REMARK SMILES IDX 5 27 14 28 6 29 12 30 7 31 10 32 15 33 13 35 8 37 9 38 11 40
REMARK H PARENT 21 20 23 22 32 24 29 26 15 34 13 36 9 39 11 41
REMARK Flexibility Score: inf
ROOT
ATOM      1  O   UNL     1     134.400 137.014 123.424  1.00  0.00    -0.454 OA
ENDROOT
BRANCH   1   2
ATOM      2  C   UNL     1     135.639 137.649 123.270  1.00  0.00     0.214 A 
ATOM      3  C   UNL     1     136.738 137.326 124.085  1.00  0.00     0.180 A 
ATOM      4  O   UNL     1     137.879 137.991 123.954  1.00  0.00    -0.452 OA
ATOM      5  C   UNL     1     135.794 138.630 122.284  1.00  0.00     0.239 A 
ATOM      6  C   UNL     1     138.056 138.968 123.071  1.00  0.00     0.146 A 
ATOM      7  O   UNL     1     134.838 138.834 121.490  1.00  0.00    -0.285 OA
ATOM      8  C   UNL     1     137.007 139.358 122.195  1.00  0.00     0.111 A 
ATOM      9  C   UNL     1     139.299 139.602 123.017  1.00  0.00     0.094 A 
ATOM     10  C   UNL     1     137.248 140.425 121.277  1.00  0.00     0.134 A 
ATOM     11  C   UNL     1     139.537 140.613 122.086  1.00  0.00     0.123 A 
ATOM     12  C   UNL     1     138.516 141.014 121.221  1.00  0.00     0.093 A 
BRANCH   3  13
ATOM     13  C   UNL     1     136.694 136.195 125.025  1.00  0.00     0.025 A 
ATOM     14  C   UNL     1     136.270 136.373 126.349  1.00  0.00     0.016 A 
ATOM     15  C   UNL     1     136.231 135.283 127.225  1.00  0.00     0.051 A 
ATOM     16  C   UNL     1     136.675 134.020 126.809  1.00  0.00     0.157 A 
ATOM     17  C   UNL     1     137.137 134.934 124.604  1.00  0.00     0.062 A 
ATOM     18  C   UNL     1     137.154 133.847 125.487  1.00  0.00     0.158 A 
BRANCH  16  19
ATOM     19  O   UNL     1     136.636 132.977 127.737  1.00  0.00    -0.504 OA
ATOM     20  H   UNL     1     135.892 132.849 128.408  1.00  0.00     0.293 HD
ENDBRANCH  16  19
BRANCH  18  21
ATOM     21  O   UNL     1     137.663 132.632 125.017  1.00  0.00    -0.504 OA
ATOM     22  H   UNL     1     138.185 132.529 124.157  1.00  0.00     0.293 HD
ENDBRANCH  18  21
ENDBRANCH   3  13
BRANCH  10  23
ATOM     23  O   UNL     1     136.269 140.974 120.441  1.00  0.00    -0.507 OA
ATOM     24  H   UNL     1     136.389 141.158 119.457  1.00  0.00     0.293 HD
ENDBRANCH  10  23
BRANCH  11  25
ATOM     25  O   UNL     1     140.791 141.219 122.035  1.00  0.00    -0.508 OA
ATOM     26  H   UNL     1     141.451 141.143 122.802  1.00  0.00     0.293 HD
ENDBRANCH  11  25
ENDBRANCH   1   2
BRANCH   1  27
ATOM     27  C   UNL     1     133.381 137.518 124.293  1.00  0.00     0.339 C 
ATOM     28  C   UNL     1     132.065 137.814 123.538  1.00  0.00     0.214 C 
ATOM     29  O   UNL     1     133.198 136.662 125.412  1.00  0.00    -0.332 OA
ATOM     30  C   UNL     1     131.391 136.509 123.118  1.00  0.00     0.180 C 
ATOM     31  C   UNL     1     132.546 135.431 125.109  1.00  0.00     0.179 C 
ATOM     32  C   UNL     1     131.208 135.610 124.353  1.00  0.00     0.177 C 
BRANCH  28  33
ATOM     33  O   UNL     1     132.301 138.610 122.406  1.00  0.00    -0.384 OA
ATOM     34  H   UNL     1     133.070 139.197 122.620  1.00  0.00     0.211 HD
ENDBRANCH  28  33
BRANCH  30  35
ATOM     35  O   UNL     1     130.144 136.796 122.537  1.00  0.00    -0.387 OA
ATOM     36  H   UNL     1     130.247 137.652 122.048  1.00  0.00     0.211 HD
ENDBRANCH  30  35
BRANCH  31  37
ATOM     37  C   UNL     1     133.500 134.418 124.444  1.00  0.00     0.191 C 
BRANCH  37  38
ATOM     38  O   UNL     1     132.757 133.387 123.847  1.00  0.00    -0.394 OA
ATOM     39  H   UNL     1     132.593 132.694 124.541  1.00  0.00     0.210 HD
ENDBRANCH  37  38
ENDBRANCH  31  37
BRANCH  32  40
ATOM     40  O   UNL     1     130.267 136.177 125.229  1.00  0.00    -0.387 OA
ATOM     41  H   UNL     1     129.389 135.763 125.021  1.00  0.00     0.211 HD
ENDBRANCH  32  40
ENDBRANCH   1  27
TORSDOF 12
ENDMDL
MODEL 7
REMARK VINA RESULT:    -6.363      4.985      9.363
REMARK INTER + INTRA:         -10.937
REMARK INTER:                  -9.569
REMARK INTRA:                  -1.368
REMARK UNBOUND:                -1.599
REMARK SMILES O=c1c(O[C@@H]2O[C@H](CO)[C@@H](O)[C@@H](O)[C@@H]2O)c(-c2ccc(O)c(O)c2)oc2cc(O)cc(O)c12
REMARK SMILES IDX 4 1 3 2 16 3 25 4 2 5 26 6 1 7 33 8 27 9 31 10 28 11 30 12
REMARK SMILES IDX 17 13 18 14 19 15 20 16 24 17 22 18 21 19 23 21 32 23 29 25
REMARK SMILES IDX 5 27 14 28 6 29 12 30 7 31 10 32 15 33 13 35 8 37 9 38 11 40
REMARK H PARENT 21 20 23 22 32 24 29 26 15 34 13 36 9 39 11 41
REMARK Flexibility Score: inf
ROOT
ATOM      1  O   UNL     1     138.608 141.708 122.944  1.00  0.00    -0.454 OA
ENDROOT
BRANCH   1   2
ATOM      2  C   UNL     1     139.189 142.952 123.224  1.00  0.00     0.214 A 
ATOM      3  C   UNL     1     139.654 143.794 122.199  1.00  0.00     0.180 A 
ATOM      4  O   UNL     1     140.256 144.937 122.502  1.00  0.00    -0.452 OA
ATOM      5  C   UNL     1     139.315 143.372 124.553  1.00  0.00     0.239 A 
ATOM      6  C   UNL     1     140.448 145.351 123.750  1.00  0.00     0.146 A 
ATOM      7  O   UNL     1     138.798 142.660 125.454  1.00  0.00    -0.285 OA
ATOM      8  C   UNL     1     140.002 144.574 124.854  1.00  0.00     0.111 A 
ATOM      9  C   UNL     1     141.094 146.572 123.958  1.00  0.00     0.094 A 
ATOM     10  C   UNL     1     140.250 145.059 126.174  1.00  0.00     0.134 A 
ATOM     11  C   UNL     1     141.291 147.058 125.250  1.00  0.00     0.123 A 
ATOM     12  C   UNL     1     140.865 146.304 126.346  1.00  0.00     0.093 A 
BRANCH   3  13
ATOM     13  C   UNL     1     139.405 143.492 120.781  1.00  0.00     0.025 A 
ATOM     14  C   UNL     1     140.231 142.606 120.077  1.00  0.00     0.016 A 
ATOM     15  C   UNL     1     139.974 142.328 118.730  1.00  0.00     0.051 A 
ATOM     16  C   UNL     1     138.932 142.980 118.055  1.00  0.00     0.157 A 
ATOM     17  C   UNL     1     138.361 144.144 120.112  1.00  0.00     0.062 A 
ATOM     18  C   UNL     1     138.127 143.916 118.750  1.00  0.00     0.158 A 
BRANCH  16  19
ATOM     19  O   UNL     1     138.742 142.681 116.705  1.00  0.00    -0.504 OA
ATOM     20  H   UNL     1     139.473 142.731 116.010  1.00  0.00     0.293 HD
ENDBRANCH  16  19
BRANCH  18  21
ATOM     21  O   UNL     1     137.105 144.644 118.132  1.00  0.00    -0.504 OA
ATOM     22  H   UNL     1     136.332 145.070 118.626  1.00  0.00     0.293 HD
ENDBRANCH  18  21
ENDBRANCH   3  13
BRANCH  10  23
ATOM     23  O   UNL     1     139.960 144.341 127.339  1.00  0.00    -0.507 OA
ATOM     24  H   UNL     1     140.642 144.055 128.024  1.00  0.00     0.293 HD
ENDBRANCH  10  23
BRANCH  11  25
ATOM     25  O   UNL     1     141.919 148.288 125.433  1.00  0.00    -0.508 OA
ATOM     26  H   UNL     1     142.891 148.353 125.715  1.00  0.00     0.293 HD
ENDBRANCH  11  25
ENDBRANCH   1   2
BRANCH   1  27
ATOM     27  C   UNL     1     139.384 140.560 122.587  1.00  0.00     0.339 C 
ATOM     28  C   UNL     1     139.454 139.525 123.733  1.00  0.00     0.214 C 
ATOM     29  O   UNL     1     138.932 140.001 121.362  1.00  0.00    -0.332 OA
ATOM     30  C   UNL     1     138.098 138.845 123.915  1.00  0.00     0.180 C 
ATOM     31  C   UNL     1     137.682 139.320 121.453  1.00  0.00     0.179 C 
ATOM     32  C   UNL     1     137.641 138.251 122.571  1.00  0.00     0.177 C 
BRANCH  28  33
ATOM     33  O   UNL     1     139.844 140.131 124.938  1.00  0.00    -0.384 OA
ATOM     34  H   UNL     1     139.014 140.341 125.437  1.00  0.00     0.211 HD
ENDBRANCH  28  33
BRANCH  30  35
ATOM     35  O   UNL     1     138.213 137.830 124.880  1.00  0.00    -0.387 OA
ATOM     36  H   UNL     1     137.809 137.015 124.485  1.00  0.00     0.211 HD
ENDBRANCH  30  35
BRANCH  31  37
ATOM     37  C   UNL     1     136.490 140.298 121.490  1.00  0.00     0.191 C 
BRANCH  37  38
ATOM     38  O   UNL     1     136.624 141.249 120.465  1.00  0.00    -0.394 OA
ATOM     39  H   UNL     1     136.788 140.755 119.617  1.00  0.00     0.210 HD
ENDBRANCH  37  38
ENDBRANCH  31  37
BRANCH  32  40
ATOM     40  O   UNL     1     138.477 137.183 122.204  1.00  0.00    -0.387 OA
ATOM     41  H   UNL     1     138.443 136.520 122.942  1.00  0.00     0.211 HD
ENDBRANCH  32  40
ENDBRANCH   1  27
TORSDOF 12
ENDMDL
MODEL 8
REMARK VINA RESULT:    -6.310      2.672      9.076
REMARK INTER + INTRA:         -10.860
REMARK INTER:                  -9.312
REMARK INTRA:                  -1.548
REMARK UNBOUND:                -1.599
REMARK SMILES O=c1c(O[C@@H]2O[C@H](CO)[C@@H](O)[C@@H](O)[C@@H]2O)c(-c2ccc(O)c(O)c2)oc2cc(O)cc(O)c12
REMARK SMILES IDX 4 1 3 2 16 3 25 4 2 5 26 6 1 7 33 8 27 9 31 10 28 11 30 12
REMARK SMILES IDX 17 13 18 14 19 15 20 16 24 17 22 18 21 19 23 21 32 23 29 25
REMARK SMILES IDX 5 27 14 28 6 29 12 30 7 31 10 32 15 33 13 35 8 37 9 38 11 40
REMARK H PARENT 21 20 23 22 32 24 29 26 15 34 13 36 9 39 11 41
REMARK Flexibility Score: inf
ROOT
ATOM      1  O   UNL     1     132.761 146.591 128.755  1.00  0.00    -0.454 OA
ENDROOT
BRANCH   1   2
ATOM      2  C   UNL     1     134.040 146.559 128.183  1.00  0.00     0.214 A 
ATOM      3  C   UNL     1     134.222 146.390 126.799  1.00  0.00     0.180 A 
ATOM      4  O   UNL     1     135.448 146.301 126.298  1.00  0.00    -0.452 OA
ATOM      5  C   UNL     1     135.166 146.698 129.001  1.00  0.00     0.239 A 
ATOM      6  C   UNL     1     136.546 146.370 127.043  1.00  0.00     0.146 A 
ATOM      7  O   UNL     1     134.989 146.957 130.221  1.00  0.00    -0.285 OA
ATOM      8  C   UNL     1     136.463 146.553 128.450  1.00  0.00     0.111 A 
ATOM      9  C   UNL     1     137.788 146.265 126.413  1.00  0.00     0.094 A 
ATOM     10  C   UNL     1     137.676 146.604 129.203  1.00  0.00     0.134 A 
ATOM     11  C   UNL     1     138.966 146.361 127.152  1.00  0.00     0.123 A 
ATOM     12  C   UNL     1     138.904 146.535 128.536  1.00  0.00     0.093 A 
BRANCH   3  13
ATOM     13  C   UNL     1     133.086 146.404 125.865  1.00  0.00     0.025 A 
ATOM     14  C   UNL     1     132.493 145.211 125.431  1.00  0.00     0.016 A 
ATOM     15  C   UNL     1     131.411 145.247 124.546  1.00  0.00     0.051 A 
ATOM     16  C   UNL     1     130.951 146.468 124.034  1.00  0.00     0.157 A 
ATOM     17  C   UNL     1     132.629 147.628 125.358  1.00  0.00     0.062 A 
ATOM     18  C   UNL     1     131.581 147.674 124.430  1.00  0.00     0.158 A 
BRANCH  16  19
ATOM     19  O   UNL     1     129.884 146.438 123.134  1.00  0.00    -0.504 OA
ATOM     20  H   UNL     1     129.742 145.703 122.455  1.00  0.00     0.293 HD
ENDBRANCH  16  19
BRANCH  18  21
ATOM     21  O   UNL     1     131.214 148.924 123.921  1.00  0.00    -0.504 OA
ATOM     22  H   UNL     1     130.452 149.483 124.282  1.00  0.00     0.293 HD
ENDBRANCH  18  21
ENDBRANCH   3  13
BRANCH  10  23
ATOM     23  O   UNL     1     137.728 146.671 130.600  1.00  0.00    -0.507 OA
ATOM     24  H   UNL     1     137.507 145.909 131.221  1.00  0.00     0.293 HD
ENDBRANCH  10  23
BRANCH  11  25
ATOM     25  O   UNL     1     140.195 146.275 126.501  1.00  0.00    -0.508 OA
ATOM     26  H   UNL     1     140.390 145.543 125.825  1.00  0.00     0.293 HD
ENDBRANCH  11  25
ENDBRANCH   1   2
BRANCH   1  27
ATOM     27  C   UNL     1     132.080 145.408 129.183  1.00  0.00     0.339 C 
ATOM     28  C   UNL     1     131.629 145.495 130.658  1.00  0.00     0.214 C 
ATOM     29  O   UNL     1     131.019 145.082 128.296  1.00  0.00    -0.332 OA
ATOM     30  C   UNL     1     130.479 146.491 130.801  1.00  0.00     0.180 C 
ATOM     31  C   UNL     1     129.891 145.950 128.388  1.00  0.00     0.179 C 
ATOM     32  C   UNL     1     129.349 146.108 129.829  1.00  0.00     0.177 C 
BRANCH  28  33
ATOM     33  O   UNL     1     132.692 145.879 131.490  1.00  0.00    -0.384 OA
ATOM     34  H   UNL     1     133.091 146.695 131.091  1.00  0.00     0.211 HD
ENDBRANCH  28  33
BRANCH  30  35
ATOM     35  O   UNL     1     130.008 146.471 132.125  1.00  0.00    -0.387 OA
ATOM     36  H   UNL     1     130.783 146.678 132.707  1.00  0.00     0.211 HD
ENDBRANCH  30  35
BRANCH  31  37
ATOM     37  C   UNL     1     130.131 147.292 127.668  1.00  0.00     0.191 C 
BRANCH  37  38
ATOM     38  O   UNL     1     129.126 148.207 128.019  1.00  0.00    -0.394 OA
ATOM     39  H   UNL     1     129.131 148.293 129.010  1.00  0.00     0.210 HD
ENDBRANCH  37  38
ENDBRANCH  31  37
BRANCH  32  40
ATOM     40  O   UNL     1     128.760 144.896 130.225  1.00  0.00    -0.387 OA
ATOM     41  H   UNL     1     129.080 144.703 131.144  1.00  0.00     0.211 HD
ENDBRANCH  32  40
ENDBRANCH   1  27
TORSDOF 12
ENDMDL
MODEL 9
REMARK VINA RESULT:    -6.261      8.830     11.450
REMARK INTER + INTRA:         -10.788
REMARK INTER:                  -9.058
REMARK INTRA:                  -1.730
REMARK UNBOUND:                -1.599
REMARK SMILES O=c1c(O[C@@H]2O[C@H](CO)[C@@H](O)[C@@H](O)[C@@H]2O)c(-c2ccc(O)c(O)c2)oc2cc(O)cc(O)c12
REMARK SMILES IDX 4 1 3 2 16 3 25 4 2 5 26 6 1 7 33 8 27 9 31 10 28 11 30 12
REMARK SMILES IDX 17 13 18 14 19 15 20 16 24 17 22 18 21 19 23 21 32 23 29 25
REMARK SMILES IDX 5 27 14 28 6 29 12 30 7 31 10 32 15 33 13 35 8 37 9 38 11 40
REMARK H PARENT 21 20 23 22 32 24 29 26 15 34 13 36 9 39 11 41
REMARK Flexibility Score: inf
ROOT
ATOM      1  O   UNL     1     139.035 137.731 124.967  1.00  0.00    -0.454 OA
ENDROOT
BRANCH   1   2
ATOM      2  C   UNL     1     139.685 137.656 126.207  1.00  0.00     0.214 A 
ATOM      3  C   UNL     1     139.112 136.979 127.298  1.00  0.00     0.180 A 
ATOM      4  O   UNL     1     139.725 136.981 128.474  1.00  0.00    -0.452 OA
ATOM      5  C   UNL     1     140.933 138.267 126.370  1.00  0.00     0.239 A 
ATOM      6  C   UNL     1     140.884 137.595 128.692  1.00  0.00     0.146 A 
ATOM      7  O   UNL     1     141.485 138.775 125.359  1.00  0.00    -0.285 OA
ATOM      8  C   UNL     1     141.546 138.295 127.647  1.00  0.00     0.111 A 
ATOM      9  C   UNL     1     141.443 137.533 129.971  1.00  0.00     0.094 A 
ATOM     10  C   UNL     1     142.780 138.950 127.942  1.00  0.00     0.134 A 
ATOM     11  C   UNL     1     142.670 138.139 130.235  1.00  0.00     0.123 A 
ATOM     12  C   UNL     1     143.332 138.836 129.223  1.00  0.00     0.093 A 
BRANCH   3  13
ATOM     13  C   UNL     1     137.887 136.178 127.150  1.00  0.00     0.025 A 
ATOM     14  C   UNL     1     136.622 136.762 127.299  1.00  0.00     0.016 A 
ATOM     15  C   UNL     1     135.469 135.984 127.150  1.00  0.00     0.051 A 
ATOM     16  C   UNL     1     135.567 134.605 126.917  1.00  0.00     0.157 A 
ATOM     17  C   UNL     1     137.991 134.801 126.915  1.00  0.00     0.062 A 
ATOM     18  C   UNL     1     136.845 134.001 126.818  1.00  0.00     0.158 A 
BRANCH  16  19
ATOM     19  O   UNL     1     134.381 133.876 126.803  1.00  0.00    -0.504 OA
ATOM     20  H   UNL     1     134.332 132.869 126.867  1.00  0.00     0.293 HD
ENDBRANCH  16  19
BRANCH  18  21
ATOM     21  O   UNL     1     137.023 132.625 126.641  1.00  0.00    -0.504 OA
ATOM     22  H   UNL     1     137.488 132.210 125.844  1.00  0.00     0.293 HD
ENDBRANCH  18  21
ENDBRANCH   3  13
BRANCH  10  23
ATOM     23  O   UNL     1     143.473 139.759 127.034  1.00  0.00    -0.507 OA
ATOM     24  H   UNL     1     143.169 140.669 126.726  1.00  0.00     0.293 HD
ENDBRANCH  10  23
BRANCH  11  25
ATOM     25  O   UNL     1     143.220 138.048 131.513  1.00  0.00    -0.508 OA
ATOM     26  H   UNL     1     144.207 138.215 131.681  1.00  0.00     0.293 HD
ENDBRANCH  11  25
ENDBRANCH   1   2
BRANCH   1  27
ATOM     27  C   UNL     1     138.156 138.807 124.625  1.00  0.00     0.339 C 
ATOM     28  C   UNL     1     138.616 139.555 123.354  1.00  0.00     0.214 C 
ATOM     29  O   UNL     1     136.810 138.358 124.548  1.00  0.00    -0.332 OA
ATOM     30  C   UNL     1     138.408 138.679 122.119  1.00  0.00     0.180 C 
ATOM     31  C   UNL     1     136.524 137.556 123.404  1.00  0.00     0.179 C 
ATOM     32  C   UNL     1     136.942 138.213 122.067  1.00  0.00     0.177 C 
BRANCH  28  33
ATOM     33  O   UNL     1     139.968 139.925 123.447  1.00  0.00    -0.384 OA
ATOM     34  H   UNL     1     140.160 140.513 122.673  1.00  0.00     0.211 HD
ENDBRANCH  28  33
BRANCH  30  35
ATOM     35  O   UNL     1     138.724 139.417 120.966  1.00  0.00    -0.387 OA
ATOM     36  H   UNL     1     137.900 139.451 120.415  1.00  0.00     0.211 HD
ENDBRANCH  30  35
BRANCH  31  37
ATOM     37  C   UNL     1     137.035 136.110 123.568  1.00  0.00     0.191 C 
BRANCH  37  38
ATOM     38  O   UNL     1     135.953 135.216 123.529  1.00  0.00    -0.394 OA
ATOM     39  H   UNL     1     136.320 134.297 123.625  1.00  0.00     0.210 HD
ENDBRANCH  37  38
ENDBRANCH  31  37
BRANCH  32  40
ATOM     40  O   UNL     1     136.095 139.307 121.818  1.00  0.00    -0.387 OA
ATOM     41  H   UNL     1     135.164 138.991 121.955  1.00  0.00     0.211 HD
ENDBRANCH  32  40
ENDBRANCH   1  27
TORSDOF 12
ENDMDL
