MODEL 1
REMARK VINA RESULT:    -7.689      0.000      0.000
REMARK INTER + INTRA:          -8.363
REMARK INTER:                  -8.363
REMARK INTRA:                   0.000
REMARK UNBOUND:                 0.000
REMARK SMILES Cc1cc(O)c2c(c1)C(=O)c1cc(O)cc(O)c1C2=O
REMARK SMILES IDX 1 1 2 2 8 3 7 4 6 5 4 6 3 7 19 8 20 9 18 10 11 11 9 12 10 13
REMARK SMILES IDX 12 14 13 15 15 16 16 17 5 18 17 20 14 22
REMARK H PARENT 5 19 17 21 14 23
REMARK Flexibility Score: inf
ROOT
ATOM      1  C   UNL     1      -0.421 -14.607   3.368  1.00  0.00     0.044 C 
ATOM      2  C   UNL     1      -1.846 -14.469   2.920  1.00  0.00    -0.047 A 
ATOM      3  C   UNL     1      -2.707 -13.578   3.572  1.00  0.00     0.016 A 
ATOM      4  C   UNL     1      -4.054 -13.469   3.186  1.00  0.00     0.038 A 
ATOM      5  C   UNL     1      -4.548 -14.268   2.133  1.00  0.00     0.076 A 
ATOM      6  C   UNL     1      -3.683 -15.186   1.494  1.00  0.00     0.127 A 
ATOM      7  C   UNL     1      -2.344 -15.282   1.895  1.00  0.00     0.050 A 
ATOM      8  C   UNL     1      -5.964 -14.111   1.708  1.00  0.00     0.201 C 
ATOM      9  O   UNL     1      -6.320 -14.525   0.572  1.00  0.00    -0.288 OA
ATOM     10  C   UNL     1      -6.926 -13.366   2.568  1.00  0.00     0.076 A 
ATOM     11  C   UNL     1      -6.409 -12.524   3.581  1.00  0.00     0.041 A 
ATOM     12  C   UNL     1      -4.956 -12.520   3.876  1.00  0.00     0.194 C 
ATOM     13  O   UNL     1      -4.489 -11.718   4.732  1.00  0.00    -0.289 OA
ATOM     14  C   UNL     1      -7.277 -11.696   4.315  1.00  0.00     0.059 A 
ATOM     15  C   UNL     1      -8.650 -11.709   4.063  1.00  0.00     0.120 A 
ATOM     16  C   UNL     1      -9.170 -12.571   3.101  1.00  0.00     0.093 A 
ATOM     17  C   UNL     1      -8.333 -13.425   2.375  1.00  0.00     0.131 A 
ENDROOT
BRANCH   6  18
ATOM     18  O   UNL     1      -4.150 -16.012   0.471  1.00  0.00    -0.507 OA
ATOM     19  H   UNL     1      -4.050 -17.019   0.511  1.00  0.00     0.293 HD
ENDBRANCH   6  18
BRANCH  17  20
ATOM     20  O   UNL     1      -8.946 -14.332   1.507  1.00  0.00    -0.507 OA
ATOM     21  H   UNL     1      -9.317 -15.224   1.799  1.00  0.00     0.293 HD
ENDBRANCH  17  20
BRANCH  15  22
ATOM     22  O   UNL     1      -9.510 -10.878   4.778  1.00  0.00    -0.508 OA
ATOM     23  H   UNL     1     -10.455 -11.162   5.007  1.00  0.00     0.293 HD
ENDBRANCH  15  22
TORSDOF 3
ENDMDL
MODEL 2
REMARK VINA RESULT:    -7.525      1.530      2.556
REMARK INTER + INTRA:          -8.185
REMARK INTER:                  -8.185
REMARK INTRA:                   0.000
REMARK UNBOUND:                 0.000
REMARK SMILES Cc1cc(O)c2c(c1)C(=O)c1cc(O)cc(O)c1C2=O
REMARK SMILES IDX 1 1 2 2 8 3 7 4 6 5 4 6 3 7 19 8 20 9 18 10 11 11 9 12 10 13
REMARK SMILES IDX 12 14 13 15 15 16 16 17 5 18 17 20 14 22
REMARK H PARENT 5 19 17 21 14 23
REMARK Flexibility Score: inf
ROOT
ATOM      1  C   UNL     1      -0.645 -12.794   6.173  1.00  0.00     0.044 C 
ATOM      2  C   UNL     1      -1.506 -13.292   5.050  1.00  0.00    -0.047 A 
ATOM      3  C   UNL     1      -2.838 -12.874   4.944  1.00  0.00     0.016 A 
ATOM      4  C   UNL     1      -3.664 -13.365   3.918  1.00  0.00     0.038 A 
ATOM      5  C   UNL     1      -3.150 -14.292   2.987  1.00  0.00     0.076 A 
ATOM      6  C   UNL     1      -1.812 -14.733   3.113  1.00  0.00     0.127 A 
ATOM      7  C   UNL     1      -1.005 -14.234   4.144  1.00  0.00     0.050 A 
ATOM      8  C   UNL     1      -4.025 -14.770   1.884  1.00  0.00     0.201 C 
ATOM      9  O   UNL     1      -3.503 -15.291   0.861  1.00  0.00    -0.288 OA
ATOM     10  C   UNL     1      -5.494 -14.529   1.934  1.00  0.00     0.076 A 
ATOM     11  C   UNL     1      -5.984 -13.552   2.833  1.00  0.00     0.041 A 
ATOM     12  C   UNL     1      -5.069 -12.913   3.809  1.00  0.00     0.194 C 
ATOM     13  O   UNL     1      -5.494 -11.993   4.562  1.00  0.00    -0.289 OA
ATOM     14  C   UNL     1      -7.343 -13.195   2.806  1.00  0.00     0.059 A 
ATOM     15  C   UNL     1      -8.220 -13.808   1.908  1.00  0.00     0.120 A 
ATOM     16  C   UNL     1      -7.753 -14.803   1.054  1.00  0.00     0.093 A 
ATOM     17  C   UNL     1      -6.411 -15.198   1.079  1.00  0.00     0.131 A 
ENDROOT
BRANCH   6  18
ATOM     18  O   UNL     1      -1.286 -15.673   2.227  1.00  0.00    -0.507 OA
ATOM     19  H   UNL     1      -1.580 -16.642   2.241  1.00  0.00     0.293 HD
ENDBRANCH   6  18
BRANCH  17  20
ATOM     20  O   UNL     1      -6.049 -16.276   0.268  1.00  0.00    -0.507 OA
ATOM     21  H   UNL     1      -6.551 -16.545  -0.566  1.00  0.00     0.293 HD
ENDBRANCH  17  20
BRANCH  15  22
ATOM     22  O   UNL     1      -9.564 -13.443   1.869  1.00  0.00    -0.508 OA
ATOM     23  H   UNL     1      -9.885 -12.658   1.316  1.00  0.00     0.293 HD
ENDBRANCH  15  22
TORSDOF 3
ENDMDL
MODEL 3
REMARK VINA RESULT:    -7.335      1.283      5.479
REMARK INTER + INTRA:          -7.978
REMARK INTER:                  -7.978
REMARK INTRA:                   0.000
REMARK UNBOUND:                 0.000
REMARK SMILES Cc1cc(O)c2c(c1)C(=O)c1cc(O)cc(O)c1C2=O
REMARK SMILES IDX 1 1 2 2 8 3 7 4 6 5 4 6 3 7 19 8 20 9 18 10 11 11 9 12 10 13
REMARK SMILES IDX 12 14 13 15 15 16 16 17 5 18 17 20 14 22
REMARK H PARENT 5 19 17 21 14 23
REMARK Flexibility Score: inf
ROOT
ATOM      1  C   UNL     1      -9.844 -10.876   3.673  1.00  0.00     0.044 C 
ATOM      2  C   UNL     1      -8.819 -11.887   3.250  1.00  0.00    -0.047 A 
ATOM      3  C   UNL     1      -7.524 -11.843   3.780  1.00  0.00     0.016 A 
ATOM      4  C   UNL     1      -6.546 -12.761   3.362  1.00  0.00     0.038 A 
ATOM      5  C   UNL     1      -6.867 -13.736   2.395  1.00  0.00     0.076 A 
ATOM      6  C   UNL     1      -8.168 -13.761   1.841  1.00  0.00     0.127 A 
ATOM      7  C   UNL     1      -9.129 -12.836   2.269  1.00  0.00     0.050 A 
ATOM      8  C   UNL     1      -5.833 -14.726   1.994  1.00  0.00     0.201 C 
ATOM      9  O   UNL     1      -6.187 -15.797   1.430  1.00  0.00    -0.288 OA
ATOM     10  C   UNL     1      -4.406 -14.509   2.360  1.00  0.00     0.076 A 
ATOM     11  C   UNL     1      -4.108 -13.569   3.375  1.00  0.00     0.041 A 
ATOM     12  C   UNL     1      -5.181 -12.712   3.934  1.00  0.00     0.194 C 
ATOM     13  O   UNL     1      -4.926 -11.924   4.886  1.00  0.00    -0.289 OA
ATOM     14  C   UNL     1      -2.790 -13.442   3.848  1.00  0.00     0.059 A 
ATOM     15  C   UNL     1      -1.766 -14.226   3.312  1.00  0.00     0.120 A 
ATOM     16  C   UNL     1      -2.045 -15.119   2.280  1.00  0.00     0.093 A 
ATOM     17  C   UNL     1      -3.341 -15.246   1.772  1.00  0.00     0.131 A 
ENDROOT
BRANCH   6  18
ATOM     18  O   UNL     1      -8.506 -14.693   0.859  1.00  0.00    -0.507 OA
ATOM     19  H   UNL     1      -8.794 -15.635   1.095  1.00  0.00     0.293 HD
ENDBRANCH   6  18
BRANCH  17  20
ATOM     20  O   UNL     1      -3.514 -16.083   0.667  1.00  0.00    -0.507 OA
ATOM     21  H   UNL     1      -2.754 -16.540   0.186  1.00  0.00     0.293 HD
ENDBRANCH  17  20
BRANCH  15  22
ATOM     22  O   UNL     1      -0.462 -14.114   3.791  1.00  0.00    -0.508 OA
ATOM     23  H   UNL     1       0.019 -13.223   3.816  1.00  0.00     0.293 HD
ENDBRANCH  15  22
TORSDOF 3
ENDMDL
MODEL 4
REMARK VINA RESULT:    -7.194     11.674     14.150
REMARK INTER + INTRA:          -7.824
REMARK INTER:                  -7.824
REMARK INTRA:                   0.000
REMARK UNBOUND:                 0.000
REMARK SMILES Cc1cc(O)c2c(c1)C(=O)c1cc(O)cc(O)c1C2=O
REMARK SMILES IDX 1 1 2 2 8 3 7 4 6 5 4 6 3 7 19 8 20 9 18 10 11 11 9 12 10 13
REMARK SMILES IDX 12 14 13 15 15 16 16 17 5 18 17 20 14 22
REMARK H PARENT 5 19 17 21 14 23
REMARK Flexibility Score: inf
ROOT
ATOM      1  C   UNL     1     -16.737 -15.375  -6.712  1.00  0.00     0.044 C 
ATOM      2  C   UNL     1     -15.622 -16.303  -7.092  1.00  0.00    -0.047 A 
ATOM      3  C   UNL     1     -14.937 -17.023  -6.106  1.00  0.00     0.016 A 
ATOM      4  C   UNL     1     -13.865 -17.866  -6.448  1.00  0.00     0.038 A 
ATOM      5  C   UNL     1     -13.470 -17.987  -7.797  1.00  0.00     0.076 A 
ATOM      6  C   UNL     1     -14.147 -17.237  -8.787  1.00  0.00     0.127 A 
ATOM      7  C   UNL     1     -15.211 -16.400  -8.427  1.00  0.00     0.050 A 
ATOM      8  C   UNL     1     -12.362 -18.914  -8.147  1.00  0.00     0.201 C 
ATOM      9  O   UNL     1     -12.238 -19.309  -9.337  1.00  0.00    -0.288 OA
ATOM     10  C   UNL     1     -11.479 -19.463  -7.080  1.00  0.00     0.076 A 
ATOM     11  C   UNL     1     -11.921 -19.386  -5.737  1.00  0.00     0.041 A 
ATOM     12  C   UNL     1     -13.150 -18.629  -5.400  1.00  0.00     0.194 C 
ATOM     13  O   UNL     1     -13.579 -18.620  -4.213  1.00  0.00    -0.289 OA
ATOM     14  C   UNL     1     -11.186 -20.021  -4.721  1.00  0.00     0.059 A 
ATOM     15  C   UNL     1     -10.012 -20.715  -5.022  1.00  0.00     0.120 A 
ATOM     16  C   UNL     1      -9.548 -20.754  -6.334  1.00  0.00     0.093 A 
ATOM     17  C   UNL     1     -10.245 -20.109  -7.361  1.00  0.00     0.131 A 
ENDROOT
BRANCH   6  18
ATOM     18  O   UNL     1     -13.759 -17.311 -10.125  1.00  0.00    -0.507 OA
ATOM     19  H   UNL     1     -14.015 -16.595 -10.795  1.00  0.00     0.293 HD
ENDBRANCH   6  18
BRANCH  17  20
ATOM     20  O   UNL     1      -9.655 -20.105  -8.628  1.00  0.00    -0.507 OA
ATOM     21  H   UNL     1      -8.844 -19.554  -8.868  1.00  0.00     0.293 HD
ENDBRANCH  17  20
BRANCH  15  22
ATOM     22  O   UNL     1      -9.291 -21.359  -4.019  1.00  0.00    -0.508 OA
ATOM     23  H   UNL     1      -8.607 -22.075  -4.232  1.00  0.00     0.293 HD
ENDBRANCH  15  22
TORSDOF 3
ENDMDL
MODEL 5
REMARK VINA RESULT:    -7.085      1.937      6.453
REMARK INTER + INTRA:          -7.706
REMARK INTER:                  -7.706
REMARK INTRA:                   0.000
REMARK UNBOUND:                 0.000
REMARK SMILES Cc1cc(O)c2c(c1)C(=O)c1cc(O)cc(O)c1C2=O
REMARK SMILES IDX 1 1 2 2 8 3 7 4 6 5 4 6 3 7 19 8 20 9 18 10 11 11 9 12 10 13
REMARK SMILES IDX 12 14 13 15 15 16 16 17 5 18 17 20 14 22
REMARK H PARENT 5 19 17 21 14 23
REMARK Flexibility Score: inf
ROOT
ATOM      1  C   UNL     1      -8.747 -11.993   1.120  1.00  0.00     0.044 C 
ATOM      2  C   UNL     1      -7.458 -12.150   1.872  1.00  0.00    -0.047 A 
ATOM      3  C   UNL     1      -6.349 -12.740   1.255  1.00  0.00     0.016 A 
ATOM      4  C   UNL     1      -5.150 -12.927   1.963  1.00  0.00     0.038 A 
ATOM      5  C   UNL     1      -5.060 -12.521   3.311  1.00  0.00     0.076 A 
ATOM      6  C   UNL     1      -6.191 -11.949   3.939  1.00  0.00     0.127 A 
ATOM      7  C   UNL     1      -7.379 -11.773   3.218  1.00  0.00     0.050 A 
ATOM      8  C   UNL     1      -3.772 -12.688   4.034  1.00  0.00     0.201 C 
ATOM      9  O   UNL     1      -3.558 -12.020   5.082  1.00  0.00    -0.288 OA
ATOM     10  C   UNL     1      -2.697 -13.546   3.461  1.00  0.00     0.076 A 
ATOM     11  C   UNL     1      -2.774 -13.893   2.091  1.00  0.00     0.041 A 
ATOM     12  C   UNL     1      -3.979 -13.546   1.301  1.00  0.00     0.194 C 
ATOM     13  O   UNL     1      -4.015 -13.796   0.064  1.00  0.00    -0.289 OA
ATOM     14  C   UNL     1      -1.707 -14.577   1.482  1.00  0.00     0.059 A 
ATOM     15  C   UNL     1      -0.577 -14.932   2.221  1.00  0.00     0.120 A 
ATOM     16  C   UNL     1      -0.517 -14.634   3.580  1.00  0.00     0.093 A 
ATOM     17  C   UNL     1      -1.575 -13.979   4.219  1.00  0.00     0.131 A 
ENDROOT
BRANCH   6  18
ATOM     18  O   UNL     1      -6.144 -11.567   5.280  1.00  0.00    -0.507 OA
ATOM     19  H   UNL     1      -6.973 -11.557   5.862  1.00  0.00     0.293 HD
ENDBRANCH   6  18
BRANCH  17  20
ATOM     20  O   UNL     1      -1.482 -13.815   5.603  1.00  0.00    -0.507 OA
ATOM     21  H   UNL     1      -2.114 -14.243   6.262  1.00  0.00     0.293 HD
ENDBRANCH  17  20
BRANCH  15  22
ATOM     22  O   UNL     1       0.488 -15.595   1.616  1.00  0.00    -0.508 OA
ATOM     23  H   UNL     1       1.395 -15.158   1.510  1.00  0.00     0.293 HD
ENDBRANCH  15  22
TORSDOF 3
ENDMDL
MODEL 6
REMARK VINA RESULT:    -6.898     12.807     13.434
REMARK INTER + INTRA:          -7.503
REMARK INTER:                  -7.503
REMARK INTRA:                   0.000
REMARK UNBOUND:                 0.000
REMARK SMILES Cc1cc(O)c2c(c1)C(=O)c1cc(O)cc(O)c1C2=O
REMARK SMILES IDX 1 1 2 2 8 3 7 4 6 5 4 6 3 7 19 8 20 9 18 10 11 11 9 12 10 13
REMARK SMILES IDX 12 14 13 15 15 16 16 17 5 18 17 20 14 22
REMARK H PARENT 5 19 17 21 14 23
REMARK Flexibility Score: inf
ROOT
ATOM      1  C   UNL     1      -5.240 -24.171  -9.009  1.00  0.00     0.044 C 
ATOM      2  C   UNL     1      -6.252 -23.107  -8.700  1.00  0.00    -0.047 A 
ATOM      3  C   UNL     1      -7.139 -23.267  -7.628  1.00  0.00     0.016 A 
ATOM      4  C   UNL     1      -8.115 -22.294  -7.354  1.00  0.00     0.038 A 
ATOM      5  C   UNL     1      -8.209 -21.145  -8.168  1.00  0.00     0.076 A 
ATOM      6  C   UNL     1      -7.329 -21.000  -9.266  1.00  0.00     0.127 A 
ATOM      7  C   UNL     1      -6.364 -21.981  -9.525  1.00  0.00     0.050 A 
ATOM      8  C   UNL     1      -9.220 -20.106  -7.840  1.00  0.00     0.201 C 
ATOM      9  O   UNL     1      -9.086 -18.942  -8.305  1.00  0.00    -0.288 OA
ATOM     10  C   UNL     1     -10.316 -20.405  -6.876  1.00  0.00     0.076 A 
ATOM     11  C   UNL     1     -10.176 -21.528  -6.027  1.00  0.00     0.041 A 
ATOM     12  C   UNL     1      -9.045 -22.468  -6.215  1.00  0.00     0.194 C 
ATOM     13  O   UNL     1      -8.884 -23.429  -5.413  1.00  0.00    -0.289 OA
ATOM     14  C   UNL     1     -11.118 -21.758  -5.008  1.00  0.00     0.059 A 
ATOM     15  C   UNL     1     -12.202 -20.894  -4.837  1.00  0.00     0.120 A 
ATOM     16  C   UNL     1     -12.370 -19.815  -5.699  1.00  0.00     0.093 A 
ATOM     17  C   UNL     1     -11.464 -19.578  -6.738  1.00  0.00     0.131 A 
ENDROOT
BRANCH   6  18
ATOM     18  O   UNL     1      -7.419 -19.891 -10.107  1.00  0.00    -0.507 OA
ATOM     19  H   UNL     1      -8.261 -19.331 -10.165  1.00  0.00     0.293 HD
ENDBRANCH   6  18
BRANCH  17  20
ATOM     20  O   UNL     1     -11.765 -18.539  -7.623  1.00  0.00    -0.507 OA
ATOM     21  H   UNL     1     -12.690 -18.153  -7.740  1.00  0.00     0.293 HD
ENDBRANCH  17  20
BRANCH  15  22
ATOM     22  O   UNL     1     -13.127 -21.111  -3.818  1.00  0.00    -0.508 OA
ATOM     23  H   UNL     1     -13.259 -22.027  -3.406  1.00  0.00     0.293 HD
ENDBRANCH  15  22
TORSDOF 3
ENDMDL
MODEL 7
REMARK VINA RESULT:    -6.868      2.542      4.340
REMARK INTER + INTRA:          -7.470
REMARK INTER:                  -7.470
REMARK INTRA:                   0.000
REMARK UNBOUND:                 0.000
REMARK SMILES Cc1cc(O)c2c(c1)C(=O)c1cc(O)cc(O)c1C2=O
REMARK SMILES IDX 1 1 2 2 8 3 7 4 6 5 4 6 3 7 19 8 20 9 18 10 11 11 9 12 10 13
REMARK SMILES IDX 12 14 13 15 15 16 16 17 5 18 17 20 14 22
REMARK H PARENT 5 19 17 21 14 23
REMARK Flexibility Score: inf
ROOT
ATOM      1  C   UNL     1      -1.165 -11.236   8.118  1.00  0.00     0.044 C 
ATOM      2  C   UNL     1      -1.443 -12.027   6.874  1.00  0.00    -0.047 A 
ATOM      3  C   UNL     1      -2.585 -11.761   6.109  1.00  0.00     0.016 A 
ATOM      4  C   UNL     1      -2.874 -12.522   4.964  1.00  0.00     0.038 A 
ATOM      5  C   UNL     1      -2.010 -13.569   4.580  1.00  0.00     0.076 A 
ATOM      6  C   UNL     1      -0.872 -13.853   5.370  1.00  0.00     0.127 A 
ATOM      7  C   UNL     1      -0.601 -13.085   6.510  1.00  0.00     0.050 A 
ATOM      8  C   UNL     1      -2.308 -14.338   3.343  1.00  0.00     0.201 C 
ATOM      9  O   UNL     1      -1.391 -15.006   2.793  1.00  0.00    -0.288 OA
ATOM     10  C   UNL     1      -3.644 -14.224   2.694  1.00  0.00     0.076 A 
ATOM     11  C   UNL     1      -4.473 -13.133   3.048  1.00  0.00     0.041 A 
ATOM     12  C   UNL     1      -4.080 -12.229   4.156  1.00  0.00     0.194 C 
ATOM     13  O   UNL     1      -4.786 -11.218   4.424  1.00  0.00    -0.289 OA
ATOM     14  C   UNL     1      -5.675 -12.912   2.354  1.00  0.00     0.059 A 
ATOM     15  C   UNL     1      -6.068 -13.771   1.325  1.00  0.00     0.120 A 
ATOM     16  C   UNL     1      -5.280 -14.873   1.004  1.00  0.00     0.093 A 
ATOM     17  C   UNL     1      -4.093 -15.133   1.697  1.00  0.00     0.131 A 
ENDROOT
BRANCH   6  18
ATOM     18  O   UNL     1      -0.016 -14.902   5.035  1.00  0.00    -0.507 OA
ATOM     19  H   UNL     1       0.544 -15.378   5.733  1.00  0.00     0.293 HD
ENDBRANCH   6  18
BRANCH  17  20
ATOM     20  O   UNL     1      -3.418 -16.316   1.386  1.00  0.00    -0.507 OA
ATOM     21  H   UNL     1      -2.438 -16.469   1.573  1.00  0.00     0.293 HD
ENDBRANCH  17  20
BRANCH  15  22
ATOM     22  O   UNL     1      -7.251 -13.544   0.625  1.00  0.00    -0.508 OA
ATOM     23  H   UNL     1      -7.308 -12.850  -0.111  1.00  0.00     0.293 HD
ENDBRANCH  15  22
TORSDOF 3
ENDMDL
MODEL 8
REMARK VINA RESULT:    -6.792      1.988      5.382
REMARK INTER + INTRA:          -7.387
REMARK INTER:                  -7.387
REMARK INTRA:                   0.000
REMARK UNBOUND:                 0.000
REMARK SMILES Cc1cc(O)c2c(c1)C(=O)c1cc(O)cc(O)c1C2=O
REMARK SMILES IDX 1 1 2 2 8 3 7 4 6 5 4 6 3 7 19 8 20 9 18 10 11 11 9 12 10 13
REMARK SMILES IDX 12 14 13 15 15 16 16 17 5 18 17 20 14 22
REMARK H PARENT 5 19 17 21 14 23
REMARK Flexibility Score: inf
ROOT
ATOM      1  C   UNL     1      -7.421 -16.814  -0.112  1.00  0.00     0.044 C 
ATOM      2  C   UNL     1      -6.910 -15.696   0.748  1.00  0.00    -0.047 A 
ATOM      3  C   UNL     1      -5.616 -15.750   1.278  1.00  0.00     0.016 A 
ATOM      4  C   UNL     1      -5.141 -14.726   2.116  1.00  0.00     0.038 A 
ATOM      5  C   UNL     1      -5.977 -13.635   2.434  1.00  0.00     0.076 A 
ATOM      6  C   UNL     1      -7.294 -13.599   1.919  1.00  0.00     0.127 A 
ATOM      7  C   UNL     1      -7.750 -14.629   1.087  1.00  0.00     0.050 A 
ATOM      8  C   UNL     1      -5.446 -12.541   3.289  1.00  0.00     0.201 C 
ATOM      9  O   UNL     1      -6.019 -11.418   3.284  1.00  0.00    -0.288 OA
ATOM     10  C   UNL     1      -4.181 -12.733   4.052  1.00  0.00     0.076 A 
ATOM     11  C   UNL     1      -3.327 -13.798   3.679  1.00  0.00     0.041 A 
ATOM     12  C   UNL     1      -3.768 -14.787   2.666  1.00  0.00     0.194 C 
ATOM     13  O   UNL     1      -2.978 -15.695   2.286  1.00  0.00    -0.289 OA
ATOM     14  C   UNL     1      -2.061 -13.922   4.277  1.00  0.00     0.059 A 
ATOM     15  C   UNL     1      -1.644 -13.011   5.250  1.00  0.00     0.120 A 
ATOM     16  C   UNL     1      -2.499 -11.990   5.655  1.00  0.00     0.093 A 
ATOM     17  C   UNL     1      -3.775 -11.859   5.096  1.00  0.00     0.131 A 
ENDROOT
BRANCH   6  18
ATOM     18  O   UNL     1      -8.155 -12.549   2.241  1.00  0.00    -0.507 OA
ATOM     19  H   UNL     1      -8.965 -12.331   1.674  1.00  0.00     0.293 HD
ENDBRANCH   6  18
BRANCH  17  20
ATOM     20  O   UNL     1      -4.608 -10.875   5.634  1.00  0.00    -0.507 OA
ATOM     21  H   UNL     1      -5.614 -10.956   5.679  1.00  0.00     0.293 HD
ENDBRANCH  17  20
BRANCH  15  22
ATOM     22  O   UNL     1      -0.383 -13.123   5.833  1.00  0.00    -0.508 OA
ATOM     23  H   UNL     1       0.437 -13.351   5.284  1.00  0.00     0.293 HD
ENDBRANCH  15  22
TORSDOF 3
ENDMDL
MODEL 9
REMARK VINA RESULT:    -6.705     12.621     13.537
REMARK INTER + INTRA:          -7.293
REMARK INTER:                  -7.293
REMARK INTRA:                   0.000
REMARK UNBOUND:                 0.000
REMARK SMILES Cc1cc(O)c2c(c1)C(=O)c1cc(O)cc(O)c1C2=O
REMARK SMILES IDX 1 1 2 2 8 3 7 4 6 5 4 6 3 7 19 8 20 9 18 10 11 11 9 12 10 13
REMARK SMILES IDX 12 14 13 15 15 16 16 17 5 18 17 20 14 22
REMARK H PARENT 5 19 17 21 14 23
REMARK Flexibility Score: inf
ROOT
ATOM      1  C   UNL     1      -9.264 -20.597  -6.812  1.00  0.00     0.044 C 
ATOM      2  C   UNL     1     -10.664 -20.219  -6.425  1.00  0.00    -0.047 A 
ATOM      3  C   UNL     1     -11.348 -19.227  -7.137  1.00  0.00     0.016 A 
ATOM      4  C   UNL     1     -12.644 -18.838  -6.759  1.00  0.00     0.038 A 
ATOM      5  C   UNL     1     -13.264 -19.447  -5.648  1.00  0.00     0.076 A 
ATOM      6  C   UNL     1     -12.559 -20.429  -4.914  1.00  0.00     0.127 A 
ATOM      7  C   UNL     1     -11.267 -20.803  -5.305  1.00  0.00     0.050 A 
ATOM      8  C   UNL     1     -14.651 -19.054  -5.286  1.00  0.00     0.201 C 
ATOM      9  O   UNL     1     -15.340 -19.816  -4.556  1.00  0.00    -0.288 OA
ATOM     10  C   UNL     1     -15.261 -17.829  -5.876  1.00  0.00     0.076 A 
ATOM     11  C   UNL     1     -14.659 -17.267  -7.027  1.00  0.00     0.041 A 
ATOM     12  C   UNL     1     -13.364 -17.793  -7.523  1.00  0.00     0.194 C 
ATOM     13  O   UNL     1     -12.864 -17.335  -8.588  1.00  0.00    -0.289 OA
ATOM     14  C   UNL     1     -15.286 -16.201  -7.695  1.00  0.00     0.059 A 
ATOM     15  C   UNL     1     -16.493 -15.680  -7.224  1.00  0.00     0.120 A 
ATOM     16  C   UNL     1     -17.065 -16.199  -6.066  1.00  0.00     0.093 A 
ATOM     17  C   UNL     1     -16.449 -17.240  -5.365  1.00  0.00     0.131 A 
ENDROOT
BRANCH   6  18
ATOM     18  O   UNL     1     -13.132 -21.027  -3.791  1.00  0.00    -0.507 OA
ATOM     19  H   UNL     1     -12.635 -21.719  -3.243  1.00  0.00     0.293 HD
ENDBRANCH   6  18
BRANCH  17  20
ATOM     20  O   UNL     1     -17.032 -17.628  -4.156  1.00  0.00    -0.507 OA
ATOM     21  H   UNL     1     -17.927 -17.293  -3.832  1.00  0.00     0.293 HD
ENDBRANCH  17  20
BRANCH  15  22
ATOM     22  O   UNL     1     -17.125 -14.635  -7.894  1.00  0.00    -0.508 OA
ATOM     23  H   UNL     1     -16.929 -13.666  -7.672  1.00  0.00     0.293 HD
ENDBRANCH  15  22
TORSDOF 3
ENDMDL
