MODEL 1
REMARK VINA RESULT:    97.636      0.000      0.000
REMARK INTER + INTRA:         236.123
REMARK INTER:                 231.770
REMARK INTRA:                   4.353
REMARK UNBOUND:                 4.353
REMARK SMILES O=C(OC[C@H]1O[C@H](OC(=O)c2cc(O)c(O)c(O)c2)[C@H](OC(=O)c2cc(O)c(O)c(O)c2)[C@@H](OC(=O)c2cc(O)c(O)c(O)c2)[C@H]1OC(=O)c1cc(O)c(O)c(O)c1)c1cc(O)c(O)c(O)c1
REMARK SMILES IDX 5 1 46 2 33 3 20 4 7 5 6 6 4 7 3 8 2 9 1 10 59 11 60 12
REMARK SMILES IDX 61 13 67 14 63 15 65 16 62 17 64 19 66 21 47 23 48 24 49 25
REMARK SMILES IDX 50 26 58 27 51 28 56 29 52 30 54 31 57 32 53 34 55 36 34 38
REMARK SMILES IDX 35 39 36 40 37 41 45 42 38 43 43 44 39 45 41 46 44 47 40 49
REMARK SMILES IDX 42 51 8 53 9 54 10 55 11 56 19 57 12 58 17 59 13 60 15 61
REMARK SMILES IDX 18 62 14 64 16 66 21 68 22 69 23 70 24 71 32 72 25 73 30 74
REMARK SMILES IDX 26 75 28 76 31 77 27 79 29 81
REMARK H PARENT 62 18 64 20 66 22 57 33 53 35 55 37 44 48 40 50 42 52 18 63
REMARK H PARENT 14 65 16 67 31 78 27 80 29 82
REMARK Flexibility Score: inf
ROOT
ATOM      1  C   UNL     1      21.805  24.906  15.344  1.00  0.00     0.205 C 
ATOM      2  C   UNL     1      21.327  23.442  15.337  1.00  0.00     0.254 C 
ATOM      3  C   UNL     1      19.894  23.430  14.795  1.00  0.00     0.267 C 
ATOM      4  C   UNL     1      19.865  24.071  13.395  1.00  0.00     0.290 C 
ATOM      5  C   UNL     1      20.534  25.464  13.448  1.00  0.00     0.357 C 
ATOM      6  O   UNL     1      21.836  25.415  14.018  1.00  0.00    -0.329 OA
ENDROOT
BRANCH   1   7
ATOM      7  C   UNL     1      23.199  25.063  15.979  1.00  0.00     0.269 C 
BRANCH   7   8
ATOM      8  O   UNL     1      24.164  25.285  14.955  1.00  0.00    -0.459 OA
BRANCH   8   9
ATOM      9  C   UNL     1      25.490  25.641  15.239  1.00  0.00     0.338 C 
ATOM     10  O   UNL     1      25.793  26.858  15.406  1.00  0.00    -0.246 OA
BRANCH   9  11
ATOM     11  C   UNL     1      26.536  24.600  15.309  1.00  0.00     0.067 A 
ATOM     12  C   UNL     1      26.329  23.442  16.070  1.00  0.00     0.066 A 
ATOM     13  C   UNL     1      27.328  22.473  16.188  1.00  0.00     0.162 A 
ATOM     14  C   UNL     1      27.768  24.779  14.648  1.00  0.00     0.066 A 
ATOM     15  C   UNL     1      28.577  22.671  15.554  1.00  0.00     0.200 A 
ATOM     16  C   UNL     1      28.784  23.827  14.780  1.00  0.00     0.162 A 
BRANCH  13  17
ATOM     17  O   UNL     1      27.034  21.328  16.931  1.00  0.00    -0.504 OA
ATOM     18  H   UNL     1      27.480  20.439  16.785  1.00  0.00     0.293 HD
ENDBRANCH  13  17
BRANCH  15  19
ATOM     19  O   UNL     1      29.625  21.753  15.677  1.00  0.00    -0.502 OA
ATOM     20  H   UNL     1      30.565  21.992  15.954  1.00  0.00     0.293 HD
ENDBRANCH  15  19
BRANCH  16  21
ATOM     21  O   UNL     1      29.999  24.053  14.133  1.00  0.00    -0.504 OA
ATOM     22  H   UNL     1      30.889  23.877  14.583  1.00  0.00     0.293 HD
ENDBRANCH  16  21
ENDBRANCH   9  11
ENDBRANCH   8   9
ENDBRANCH   7   8
ENDBRANCH   1   7
BRANCH   2  23
ATOM     23  O   UNL     1      22.155  22.655  14.480  1.00  0.00    -0.452 OA
BRANCH  23  24
ATOM     24  C   UNL     1      22.522  21.328  14.741  1.00  0.00     0.338 C 
ATOM     25  O   UNL     1      22.837  20.566  13.790  1.00  0.00    -0.246 OA
BRANCH  24  26
ATOM     26  C   UNL     1      22.554  20.842  16.138  1.00  0.00     0.067 A 
ATOM     27  C   UNL     1      22.493  21.744  17.217  1.00  0.00     0.066 A 
ATOM     28  C   UNL     1      22.703  19.471  16.403  1.00  0.00     0.066 A 
ATOM     29  C   UNL     1      22.593  21.282  18.540  1.00  0.00     0.162 A 
ATOM     30  C   UNL     1      22.792  19.006  17.719  1.00  0.00     0.162 A 
ATOM     31  C   UNL     1      22.740  19.908  18.792  1.00  0.00     0.200 A 
BRANCH  29  32
ATOM     32  O   UNL     1      22.553  22.183  19.601  1.00  0.00    -0.504 OA
ATOM     33  H   UNL     1      23.272  22.885  19.727  1.00  0.00     0.293 HD
ENDBRANCH  29  32
BRANCH  30  34
ATOM     34  O   UNL     1      22.941  17.639  17.941  1.00  0.00    -0.504 OA
ATOM     35  H   UNL     1      23.399  17.030  17.269  1.00  0.00     0.293 HD
ENDBRANCH  30  34
BRANCH  31  36
ATOM     36  O   UNL     1      22.844  19.424  20.095  1.00  0.00    -0.502 OA
ATOM     37  H   UNL     1      23.504  19.803  20.762  1.00  0.00     0.293 HD
ENDBRANCH  31  36
ENDBRANCH  24  26
ENDBRANCH  23  24
ENDBRANCH   2  23
BRANCH   3  38
ATOM     38  O   UNL     1      19.385  22.097  14.764  1.00  0.00    -0.450 OA
BRANCH  38  39
ATOM     39  C   UNL     1      18.312  21.679  15.564  1.00  0.00     0.338 C 
ATOM     40  O   UNL     1      18.297  21.957  16.794  1.00  0.00    -0.246 OA
BRANCH  39  41
ATOM     41  C   UNL     1      17.186  20.929  14.966  1.00  0.00     0.067 A 
ATOM     42  C   UNL     1      16.979  19.577  15.292  1.00  0.00     0.066 A 
ATOM     43  C   UNL     1      16.309  21.560  14.068  1.00  0.00     0.066 A 
ATOM     44  C   UNL     1      15.918  18.864  14.729  1.00  0.00     0.162 A 
ATOM     45  C   UNL     1      15.246  20.856  13.494  1.00  0.00     0.162 A 
ATOM     46  C   UNL     1      15.050  19.489  13.819  1.00  0.00     0.200 A 
BRANCH  44  47
ATOM     47  O   UNL     1      15.721  17.526  15.076  1.00  0.00    -0.504 OA
ATOM     48  H   UNL     1      16.260  16.779  14.646  1.00  0.00     0.293 HD
ENDBRANCH  44  47
BRANCH  45  49
ATOM     49  O   UNL     1      14.416  21.548  12.612  1.00  0.00    -0.504 OA
ATOM     50  H   UNL     1      14.618  21.680  11.631  1.00  0.00     0.293 HD
ENDBRANCH  45  49
BRANCH  46  51
ATOM     51  O   UNL     1      14.023  18.719  13.265  1.00  0.00    -0.502 OA
ATOM     52  H   UNL     1      13.991  18.442  12.290  1.00  0.00     0.293 HD
ENDBRANCH  46  51
ENDBRANCH  39  41
ENDBRANCH  38  39
ENDBRANCH   3  38
BRANCH   5  53
ATOM     53  O   UNL     1      19.704  26.388  14.151  1.00  0.00    -0.428 OA
BRANCH  53  54
ATOM     54  C   UNL     1      18.457  26.814  13.680  1.00  0.00     0.340 C 
ATOM     55  O   UNL     1      18.165  26.717  12.460  1.00  0.00    -0.246 OA
BRANCH  54  56
ATOM     56  C   UNL     1      17.481  27.374  14.628  1.00  0.00     0.067 A 
ATOM     57  C   UNL     1      16.474  28.243  14.191  1.00  0.00     0.066 A 
ATOM     58  C   UNL     1      17.546  27.026  15.982  1.00  0.00     0.066 A 
ATOM     59  C   UNL     1      15.514  28.740  15.082  1.00  0.00     0.162 A 
ATOM     60  C   UNL     1      16.619  27.533  16.893  1.00  0.00     0.162 A 
ATOM     61  C   UNL     1      15.582  28.382  16.453  1.00  0.00     0.200 A 
BRANCH  59  62
ATOM     62  O   UNL     1      14.521  29.575  14.561  1.00  0.00    -0.504 OA
ATOM     63  H   UNL     1      13.991  30.239  15.114  1.00  0.00     0.293 HD
ENDBRANCH  59  62
BRANCH  60  64
ATOM     64  O   UNL     1      16.748  27.185  18.238  1.00  0.00    -0.504 OA
ATOM     65  H   UNL     1      16.637  27.866  18.982  1.00  0.00     0.293 HD
ENDBRANCH  60  64
BRANCH  61  66
ATOM     66  O   UNL     1      14.646  28.841  17.392  1.00  0.00    -0.502 OA
ATOM     67  H   UNL     1      14.842  28.959  18.377  1.00  0.00     0.293 HD
ENDBRANCH  61  66
ENDBRANCH  54  56
ENDBRANCH  53  54
ENDBRANCH   5  53
BRANCH   4  68
ATOM     68  O   UNL     1      18.518  24.241  12.960  1.00  0.00    -0.448 OA
BRANCH  68  69
ATOM     69  C   UNL     1      17.665  23.189  12.610  1.00  0.00     0.339 C 
ATOM     70  O   UNL     1      16.602  22.988  13.261  1.00  0.00    -0.246 OA
BRANCH  69  71
ATOM     71  C   UNL     1      18.025  22.306  11.481  1.00  0.00     0.067 A 
ATOM     72  C   UNL     1      17.198  22.201  10.355  1.00  0.00     0.066 A 
ATOM     73  C   UNL     1      19.215  21.561  11.519  1.00  0.00     0.066 A 
ATOM     74  C   UNL     1      17.554  21.379   9.276  1.00  0.00     0.162 A 
ATOM     75  C   UNL     1      19.581  20.740  10.448  1.00  0.00     0.162 A 
ATOM     76  C   UNL     1      18.752  20.647   9.320  1.00  0.00     0.200 A 
BRANCH  74  77
ATOM     77  O   UNL     1      16.727  21.294   8.156  1.00  0.00    -0.504 OA
ATOM     78  H   UNL     1      16.988  21.718   7.271  1.00  0.00     0.293 HD
ENDBRANCH  74  77
BRANCH  75  79
ATOM     79  O   UNL     1      20.778  20.026  10.520  1.00  0.00    -0.504 OA
ATOM     80  H   UNL     1      20.969  19.230   9.927  1.00  0.00     0.293 HD
ENDBRANCH  75  79
BRANCH  76  81
ATOM     81  O   UNL     1      19.125  19.826   8.254  1.00  0.00    -0.502 OA
ATOM     82  H   UNL     1      19.043  18.821   8.288  1.00  0.00     0.293 HD
ENDBRANCH  76  81
ENDBRANCH  69  71
ENDBRANCH  68  69
ENDBRANCH   4  68
TORSDOF 31
ENDMDL
MODEL 2
REMARK VINA RESULT:    98.348      1.701      4.707
REMARK INTER + INTRA:         237.813
REMARK INTER:                 235.303
REMARK INTRA:                   2.510
REMARK UNBOUND:                 4.353
REMARK SMILES O=C(OC[C@H]1O[C@H](OC(=O)c2cc(O)c(O)c(O)c2)[C@H](OC(=O)c2cc(O)c(O)c(O)c2)[C@@H](OC(=O)c2cc(O)c(O)c(O)c2)[C@H]1OC(=O)c1cc(O)c(O)c(O)c1)c1cc(O)c(O)c(O)c1
REMARK SMILES IDX 5 1 46 2 33 3 20 4 7 5 6 6 4 7 3 8 2 9 1 10 59 11 60 12
REMARK SMILES IDX 61 13 67 14 63 15 65 16 62 17 64 19 66 21 47 23 48 24 49 25
REMARK SMILES IDX 50 26 58 27 51 28 56 29 52 30 54 31 57 32 53 34 55 36 34 38
REMARK SMILES IDX 35 39 36 40 37 41 45 42 38 43 43 44 39 45 41 46 44 47 40 49
REMARK SMILES IDX 42 51 8 53 9 54 10 55 11 56 19 57 12 58 17 59 13 60 15 61
REMARK SMILES IDX 18 62 14 64 16 66 21 68 22 69 23 70 24 71 32 72 25 73 30 74
REMARK SMILES IDX 26 75 28 76 31 77 27 79 29 81
REMARK H PARENT 62 18 64 20 66 22 57 33 53 35 55 37 44 48 40 50 42 52 18 63
REMARK H PARENT 14 65 16 67 31 78 27 80 29 82
REMARK Flexibility Score: inf
ROOT
ATOM      1  C   UNL     1      21.663  25.621  13.731  1.00  0.00     0.205 C 
ATOM      2  C   UNL     1      21.634  24.115  14.050  1.00  0.00     0.254 C 
ATOM      3  C   UNL     1      20.170  23.720  14.272  1.00  0.00     0.267 C 
ATOM      4  C   UNL     1      19.344  24.079  13.023  1.00  0.00     0.290 C 
ATOM      5  C   UNL     1      19.574  25.563  12.657  1.00  0.00     0.357 C 
ATOM      6  O   UNL     1      20.955  25.878  12.526  1.00  0.00    -0.329 OA
ENDROOT
BRANCH   1   7
ATOM      7  C   UNL     1      23.098  26.164  13.600  1.00  0.00     0.269 C 
BRANCH   7   8
ATOM      8  O   UNL     1      23.982  25.362  14.377  1.00  0.00    -0.459 OA
BRANCH   8   9
ATOM      9  C   UNL     1      25.205  25.848  14.861  1.00  0.00     0.338 C 
ATOM     10  O   UNL     1      25.303  27.054  15.227  1.00  0.00    -0.246 OA
BRANCH   9  11
ATOM     11  C   UNL     1      26.384  24.958  14.913  1.00  0.00     0.067 A 
ATOM     12  C   UNL     1      26.338  23.767  15.649  1.00  0.00     0.066 A 
ATOM     13  C   UNL     1      27.461  22.942  15.749  1.00  0.00     0.162 A 
ATOM     14  C   UNL     1      27.580  25.320  14.259  1.00  0.00     0.066 A 
ATOM     15  C   UNL     1      28.671  23.324  15.124  1.00  0.00     0.200 A 
ATOM     16  C   UNL     1      28.717  24.513  14.375  1.00  0.00     0.162 A 
BRANCH  13  17
ATOM     17  O   UNL     1      27.327  21.752  16.467  1.00  0.00    -0.504 OA
ATOM     18  H   UNL     1      27.909  21.505  17.249  1.00  0.00     0.293 HD
ENDBRANCH  13  17
BRANCH  15  19
ATOM     19  O   UNL     1      29.835  22.556  15.230  1.00  0.00    -0.502 OA
ATOM     20  H   UNL     1      30.196  21.963  14.499  1.00  0.00     0.293 HD
ENDBRANCH  15  19
BRANCH  16  21
ATOM     21  O   UNL     1      29.890  24.918  13.737  1.00  0.00    -0.504 OA
ATOM     22  H   UNL     1      30.356  24.338  13.050  1.00  0.00     0.293 HD
ENDBRANCH  16  21
ENDBRANCH   9  11
ENDBRANCH   8   9
ENDBRANCH   7   8
ENDBRANCH   1   7
BRANCH   2  23
ATOM     23  O   UNL     1      22.156  23.366  12.952  1.00  0.00    -0.452 OA
BRANCH  23  24
ATOM     24  C   UNL     1      22.526  22.016  13.024  1.00  0.00     0.338 C 
ATOM     25  O   UNL     1      22.834  21.509  14.133  1.00  0.00    -0.246 OA
BRANCH  24  26
ATOM     26  C   UNL     1      22.530  21.195  11.793  1.00  0.00     0.067 A 
ATOM     27  C   UNL     1      22.878  21.758  10.551  1.00  0.00     0.066 A 
ATOM     28  C   UNL     1      22.129  19.850  11.843  1.00  0.00     0.066 A 
ATOM     29  C   UNL     1      22.814  20.992   9.376  1.00  0.00     0.162 A 
ATOM     30  C   UNL     1      22.074  19.080  10.676  1.00  0.00     0.162 A 
ATOM     31  C   UNL     1      22.413  19.647   9.439  1.00  0.00     0.200 A 
BRANCH  29  32
ATOM     32  O   UNL     1      23.139  21.563   8.148  1.00  0.00    -0.504 OA
ATOM     33  H   UNL     1      24.015  22.054   8.008  1.00  0.00     0.293 HD
ENDBRANCH  29  32
BRANCH  30  34
ATOM     34  O   UNL     1      21.669  17.750  10.768  1.00  0.00    -0.504 OA
ATOM     35  H   UNL     1      21.718  17.230  11.638  1.00  0.00     0.293 HD
ENDBRANCH  30  34
BRANCH  31  36
ATOM     36  O   UNL     1      22.338  18.865   8.288  1.00  0.00    -0.502 OA
ATOM     37  H   UNL     1      21.708  18.078   8.208  1.00  0.00     0.293 HD
ENDBRANCH  31  36
ENDBRANCH  24  26
ENDBRANCH  23  24
ENDBRANCH   2  23
BRANCH   3  38
ATOM     38  O   UNL     1      20.070  22.330  14.576  1.00  0.00    -0.450 OA
BRANCH  38  39
ATOM     39  C   UNL     1      20.159  21.835  15.885  1.00  0.00     0.338 C 
ATOM     40  O   UNL     1      19.112  21.652  16.564  1.00  0.00    -0.246 OA
BRANCH  39  41
ATOM     41  C   UNL     1      21.480  21.506  16.467  1.00  0.00     0.067 A 
ATOM     42  C   UNL     1      22.500  22.472  16.505  1.00  0.00     0.066 A 
ATOM     43  C   UNL     1      21.725  20.227  16.992  1.00  0.00     0.066 A 
ATOM     44  C   UNL     1      23.748  22.165  17.053  1.00  0.00     0.162 A 
ATOM     45  C   UNL     1      22.972  19.906  17.539  1.00  0.00     0.162 A 
ATOM     46  C   UNL     1      24.002  20.882  17.563  1.00  0.00     0.200 A 
BRANCH  44  47
ATOM     47  O   UNL     1      24.745  23.142  17.093  1.00  0.00    -0.504 OA
ATOM     48  H   UNL     1      24.566  24.073  17.463  1.00  0.00     0.293 HD
ENDBRANCH  44  47
BRANCH  45  49
ATOM     49  O   UNL     1      23.143  18.616  18.041  1.00  0.00    -0.504 OA
ATOM     50  H   UNL     1      22.646  18.248  18.839  1.00  0.00     0.293 HD
ENDBRANCH  45  49
BRANCH  46  51
ATOM     51  O   UNL     1      25.277  20.624  18.073  1.00  0.00    -0.502 OA
ATOM     52  H   UNL     1      25.545  20.803  19.034  1.00  0.00     0.293 HD
ENDBRANCH  46  51
ENDBRANCH  39  41
ENDBRANCH  38  39
ENDBRANCH   3  38
BRANCH   5  53
ATOM     53  O   UNL     1      18.945  26.416  13.612  1.00  0.00    -0.428 OA
BRANCH  53  54
ATOM     54  C   UNL     1      17.743  27.090  13.367  1.00  0.00     0.340 C 
ATOM     55  O   UNL     1      17.318  27.236  12.193  1.00  0.00    -0.246 OA
BRANCH  54  56
ATOM     56  C   UNL     1      16.973  27.625  14.501  1.00  0.00     0.067 A 
ATOM     57  C   UNL     1      15.998  28.611  14.305  1.00  0.00     0.066 A 
ATOM     58  C   UNL     1      17.201  27.136  15.792  1.00  0.00     0.066 A 
ATOM     59  C   UNL     1      15.230  29.089  15.374  1.00  0.00     0.162 A 
ATOM     60  C   UNL     1      16.468  27.618  16.877  1.00  0.00     0.162 A 
ATOM     61  C   UNL     1      15.463  28.588  16.680  1.00  0.00     0.200 A 
BRANCH  59  62
ATOM     62  O   UNL     1      14.254  30.049  15.088  1.00  0.00    -0.504 OA
ATOM     63  H   UNL     1      13.318  30.039  15.479  1.00  0.00     0.293 HD
ENDBRANCH  59  62
BRANCH  60  64
ATOM     64  O   UNL     1      16.759  27.125  18.149  1.00  0.00    -0.504 OA
ATOM     65  H   UNL     1      17.608  26.604  18.341  1.00  0.00     0.293 HD
ENDBRANCH  60  64
BRANCH  61  66
ATOM     66  O   UNL     1      14.721  29.021  17.789  1.00  0.00    -0.502 OA
ATOM     67  H   UNL     1      14.810  28.633  18.718  1.00  0.00     0.293 HD
ENDBRANCH  61  66
ENDBRANCH  54  56
ENDBRANCH  53  54
ENDBRANCH   5  53
BRANCH   4  68
ATOM     68  O   UNL     1      17.954  23.897  13.285  1.00  0.00    -0.448 OA
BRANCH  68  69
ATOM     69  C   UNL     1      17.208  22.798  12.846  1.00  0.00     0.339 C 
ATOM     70  O   UNL     1      16.274  22.337  13.560  1.00  0.00    -0.246 OA
BRANCH  69  71
ATOM     71  C   UNL     1      17.530  22.172  11.547  1.00  0.00     0.067 A 
ATOM     72  C   UNL     1      18.629  21.314  11.413  1.00  0.00     0.066 A 
ATOM     73  C   UNL     1      16.727  22.425  10.423  1.00  0.00     0.066 A 
ATOM     74  C   UNL     1      18.919  20.704  10.183  1.00  0.00     0.162 A 
ATOM     75  C   UNL     1      17.005  21.820   9.193  1.00  0.00     0.162 A 
ATOM     76  C   UNL     1      18.102  20.955   9.068  1.00  0.00     0.200 A 
BRANCH  74  77
ATOM     77  O   UNL     1      20.009  19.842  10.067  1.00  0.00    -0.504 OA
ATOM     78  H   UNL     1      20.199  19.130  10.765  1.00  0.00     0.293 HD
ENDBRANCH  74  77
BRANCH  75  79
ATOM     79  O   UNL     1      16.175  22.088   8.104  1.00  0.00    -0.504 OA
ATOM     80  H   UNL     1      16.440  21.864   7.154  1.00  0.00     0.293 HD
ENDBRANCH  75  79
BRANCH  76  81
ATOM     81  O   UNL     1      18.373  20.355   7.837  1.00  0.00    -0.502 OA
ATOM     82  H   UNL     1      18.336  20.862   6.966  1.00  0.00     0.293 HD
ENDBRANCH  76  81
ENDBRANCH  69  71
ENDBRANCH  68  69
ENDBRANCH   4  68
TORSDOF 31
ENDMDL
MODEL 3
REMARK VINA RESULT:    99.456      1.313      2.791
REMARK INTER + INTRA:         240.442
REMARK INTER:                 233.777
REMARK INTRA:                   6.665
REMARK UNBOUND:                 4.353
REMARK SMILES O=C(OC[C@H]1O[C@H](OC(=O)c2cc(O)c(O)c(O)c2)[C@H](OC(=O)c2cc(O)c(O)c(O)c2)[C@@H](OC(=O)c2cc(O)c(O)c(O)c2)[C@H]1OC(=O)c1cc(O)c(O)c(O)c1)c1cc(O)c(O)c(O)c1
REMARK SMILES IDX 5 1 46 2 33 3 20 4 7 5 6 6 4 7 3 8 2 9 1 10 59 11 60 12
REMARK SMILES IDX 61 13 67 14 63 15 65 16 62 17 64 19 66 21 47 23 48 24 49 25
REMARK SMILES IDX 50 26 58 27 51 28 56 29 52 30 54 31 57 32 53 34 55 36 34 38
REMARK SMILES IDX 35 39 36 40 37 41 45 42 38 43 43 44 39 45 41 46 44 47 40 49
REMARK SMILES IDX 42 51 8 53 9 54 10 55 11 56 19 57 12 58 17 59 13 60 15 61
REMARK SMILES IDX 18 62 14 64 16 66 21 68 22 69 23 70 24 71 32 72 25 73 30 74
REMARK SMILES IDX 26 75 28 76 31 77 27 79 29 81
REMARK H PARENT 62 18 64 20 66 22 57 33 53 35 55 37 44 48 40 50 42 52 18 63
REMARK H PARENT 14 65 16 67 31 78 27 80 29 82
REMARK Flexibility Score: inf
ROOT
ATOM      1  C   UNL     1      21.757  25.041  15.381  1.00  0.00     0.205 C 
ATOM      2  C   UNL     1      21.309  23.568  15.415  1.00  0.00     0.254 C 
ATOM      3  C   UNL     1      19.886  23.507  14.848  1.00  0.00     0.267 C 
ATOM      4  C   UNL     1      19.870  24.100  13.427  1.00  0.00     0.290 C 
ATOM      5  C   UNL     1      20.509  25.508  13.445  1.00  0.00     0.357 C 
ATOM      6  O   UNL     1      21.802  25.506  14.039  1.00  0.00    -0.329 OA
ENDROOT
BRANCH   1   7
ATOM      7  C   UNL     1      23.136  25.248  16.034  1.00  0.00     0.269 C 
BRANCH   7   8
ATOM      8  O   UNL     1      24.123  25.401  15.020  1.00  0.00    -0.459 OA
BRANCH   8   9
ATOM      9  C   UNL     1      25.453  25.737  15.311  1.00  0.00     0.338 C 
ATOM     10  O   UNL     1      25.765  26.944  15.522  1.00  0.00    -0.246 OA
BRANCH   9  11
ATOM     11  C   UNL     1      26.491  24.686  15.339  1.00  0.00     0.067 A 
ATOM     12  C   UNL     1      26.308  23.532  16.112  1.00  0.00     0.066 A 
ATOM     13  C   UNL     1      27.303  22.555  16.189  1.00  0.00     0.162 A 
ATOM     14  C   UNL     1      27.694  24.853  14.623  1.00  0.00     0.066 A 
ATOM     15  C   UNL     1      28.525  22.740  15.500  1.00  0.00     0.200 A 
ATOM     16  C   UNL     1      28.707  23.892  14.714  1.00  0.00     0.162 A 
BRANCH  13  17
ATOM     17  O   UNL     1      27.032  21.415  16.948  1.00  0.00    -0.504 OA
ATOM     18  H   UNL     1      26.103  21.113  17.188  1.00  0.00     0.293 HD
ENDBRANCH  13  17
BRANCH  15  19
ATOM     19  O   UNL     1      29.569  21.813  15.579  1.00  0.00    -0.502 OA
ATOM     20  H   UNL     1      29.906  21.265  14.802  1.00  0.00     0.293 HD
ENDBRANCH  15  19
BRANCH  16  21
ATOM     21  O   UNL     1      29.895  24.106  14.013  1.00  0.00    -0.504 OA
ATOM     22  H   UNL     1      29.922  24.636  13.150  1.00  0.00     0.293 HD
ENDBRANCH  16  21
ENDBRANCH   9  11
ENDBRANCH   8   9
ENDBRANCH   7   8
ENDBRANCH   1   7
BRANCH   2  23
ATOM     23  O   UNL     1      22.168  22.770  14.599  1.00  0.00    -0.452 OA
BRANCH  23  24
ATOM     24  C   UNL     1      22.498  21.436  14.873  1.00  0.00     0.338 C 
ATOM     25  O   UNL     1      22.806  21.095  16.044  1.00  0.00    -0.246 OA
BRANCH  24  26
ATOM     26  C   UNL     1      22.463  20.437  13.781  1.00  0.00     0.067 A 
ATOM     27  C   UNL     1      22.540  20.838  12.435  1.00  0.00     0.066 A 
ATOM     28  C   UNL     1      22.295  19.075  14.079  1.00  0.00     0.066 A 
ATOM     29  C   UNL     1      22.436  19.892  11.401  1.00  0.00     0.162 A 
ATOM     30  C   UNL     1      22.202  18.129  13.053  1.00  0.00     0.162 A 
ATOM     31  C   UNL     1      22.270  18.533  11.712  1.00  0.00     0.200 A 
BRANCH  29  32
ATOM     32  O   UNL     1      22.491  20.300  10.070  1.00  0.00    -0.504 OA
ATOM     33  H   UNL     1      21.964  21.100   9.740  1.00  0.00     0.293 HD
ENDBRANCH  29  32
BRANCH  30  34
ATOM     34  O   UNL     1      22.034  16.788  13.390  1.00  0.00    -0.504 OA
ATOM     35  H   UNL     1      22.668  16.065  13.061  1.00  0.00     0.293 HD
ENDBRANCH  30  34
BRANCH  31  36
ATOM     36  O   UNL     1      22.162  17.574  10.706  1.00  0.00    -0.502 OA
ATOM     37  H   UNL     1      22.472  16.619  10.832  1.00  0.00     0.293 HD
ENDBRANCH  31  36
ENDBRANCH  24  26
ENDBRANCH  23  24
ENDBRANCH   2  23
BRANCH   3  38
ATOM     38  O   UNL     1      19.406  22.164  14.853  1.00  0.00    -0.450 OA
BRANCH  38  39
ATOM     39  C   UNL     1      18.316  21.754  15.634  1.00  0.00     0.338 C 
ATOM     40  O   UNL     1      18.271  22.049  16.860  1.00  0.00    -0.246 OA
BRANCH  39  41
ATOM     41  C   UNL     1      17.204  20.995  15.020  1.00  0.00     0.067 A 
ATOM     42  C   UNL     1      17.014  19.637  15.331  1.00  0.00     0.066 A 
ATOM     43  C   UNL     1      16.325  21.622  14.123  1.00  0.00     0.066 A 
ATOM     44  C   UNL     1      15.967  18.915  14.753  1.00  0.00     0.162 A 
ATOM     45  C   UNL     1      15.276  20.910  13.534  1.00  0.00     0.162 A 
ATOM     46  C   UNL     1      15.097  19.536  13.843  1.00  0.00     0.200 A 
BRANCH  44  47
ATOM     47  O   UNL     1      15.787  17.571  15.085  1.00  0.00    -0.504 OA
ATOM     48  H   UNL     1      16.354  16.837  14.667  1.00  0.00     0.293 HD
ENDBRANCH  44  47
BRANCH  45  49
ATOM     49  O   UNL     1      14.443  21.599  12.652  1.00  0.00    -0.504 OA
ATOM     50  H   UNL     1      14.728  22.409  12.120  1.00  0.00     0.293 HD
ENDBRANCH  45  49
BRANCH  46  51
ATOM     51  O   UNL     1      14.085  18.758  13.274  1.00  0.00    -0.502 OA
ATOM     52  H   UNL     1      13.636  18.978  12.392  1.00  0.00     0.293 HD
ENDBRANCH  46  51
ENDBRANCH  39  41
ENDBRANCH  38  39
ENDBRANCH   3  38
BRANCH   5  53
ATOM     53  O   UNL     1      19.648  26.438  14.101  1.00  0.00    -0.428 OA
BRANCH  53  54
ATOM     54  C   UNL     1      18.398  26.815  13.599  1.00  0.00     0.340 C 
ATOM     55  O   UNL     1      18.139  26.702  12.373  1.00  0.00    -0.246 OA
BRANCH  54  56
ATOM     56  C   UNL     1      17.379  27.342  14.521  1.00  0.00     0.067 A 
ATOM     57  C   UNL     1      17.454  27.084  15.895  1.00  0.00     0.066 A 
ATOM     58  C   UNL     1      16.328  28.122  14.026  1.00  0.00     0.066 A 
ATOM     59  C   UNL     1      16.513  27.622  16.782  1.00  0.00     0.162 A 
ATOM     60  C   UNL     1      15.363  28.644  14.888  1.00  0.00     0.162 A 
ATOM     61  C   UNL     1      15.451  28.416  16.277  1.00  0.00     0.200 A 
BRANCH  59  62
ATOM     62  O   UNL     1      16.678  27.347  18.143  1.00  0.00    -0.504 OA
ATOM     63  H   UNL     1      16.191  27.839  18.884  1.00  0.00     0.293 HD
ENDBRANCH  59  62
BRANCH  60  64
ATOM     64  O   UNL     1      14.315  29.385  14.341  1.00  0.00    -0.504 OA
ATOM     65  H   UNL     1      13.356  29.052  14.357  1.00  0.00     0.293 HD
ENDBRANCH  60  64
BRANCH  61  66
ATOM     66  O   UNL     1      14.483  28.989  17.115  1.00  0.00    -0.502 OA
ATOM     67  H   UNL     1      14.077  28.522  17.914  1.00  0.00     0.293 HD
ENDBRANCH  61  66
ENDBRANCH  54  56
ENDBRANCH  53  54
ENDBRANCH   5  53
BRANCH   4  68
ATOM     68  O   UNL     1      18.528  24.228  12.963  1.00  0.00    -0.448 OA
BRANCH  68  69
ATOM     69  C   UNL     1      17.689  23.147  12.676  1.00  0.00     0.339 C 
ATOM     70  O   UNL     1      16.751  22.843  13.465  1.00  0.00    -0.246 OA
BRANCH  69  71
ATOM     71  C   UNL     1      17.917  22.353  11.450  1.00  0.00     0.067 A 
ATOM     72  C   UNL     1      18.995  21.463  11.358  1.00  0.00     0.066 A 
ATOM     73  C   UNL     1      17.045  22.476  10.357  1.00  0.00     0.066 A 
ATOM     74  C   UNL     1      19.196  20.695  10.202  1.00  0.00     0.162 A 
ATOM     75  C   UNL     1      17.233  21.713   9.201  1.00  0.00     0.162 A 
ATOM     76  C   UNL     1      18.310  20.818   9.118  1.00  0.00     0.200 A 
BRANCH  74  77
ATOM     77  O   UNL     1      20.266  19.803  10.128  1.00  0.00    -0.504 OA
ATOM     78  H   UNL     1      21.108  19.938  10.679  1.00  0.00     0.293 HD
ENDBRANCH  74  77
BRANCH  75  79
ATOM     79  O   UNL     1      16.336  21.856   8.141  1.00  0.00    -0.504 OA
ATOM     80  H   UNL     1      15.504  22.425   8.211  1.00  0.00     0.293 HD
ENDBRANCH  75  79
BRANCH  76  81
ATOM     81  O   UNL     1      18.491  20.059   7.960  1.00  0.00    -0.502 OA
ATOM     82  H   UNL     1      17.770  19.952   7.263  1.00  0.00     0.293 HD
ENDBRANCH  76  81
ENDBRANCH  69  71
ENDBRANCH  68  69
ENDBRANCH   4  68
TORSDOF 31
ENDMDL
MODEL 4
REMARK VINA RESULT:    99.904      1.991      7.234
REMARK INTER + INTRA:         241.506
REMARK INTER:                 244.715
REMARK INTRA:                  -3.209
REMARK UNBOUND:                 4.353
REMARK SMILES O=C(OC[C@H]1O[C@H](OC(=O)c2cc(O)c(O)c(O)c2)[C@H](OC(=O)c2cc(O)c(O)c(O)c2)[C@@H](OC(=O)c2cc(O)c(O)c(O)c2)[C@H]1OC(=O)c1cc(O)c(O)c(O)c1)c1cc(O)c(O)c(O)c1
REMARK SMILES IDX 5 1 46 2 33 3 20 4 7 5 6 6 4 7 3 8 2 9 1 10 59 11 60 12
REMARK SMILES IDX 61 13 67 14 63 15 65 16 62 17 64 19 66 21 47 23 48 24 49 25
REMARK SMILES IDX 50 26 58 27 51 28 56 29 52 30 54 31 57 32 53 34 55 36 34 38
REMARK SMILES IDX 35 39 36 40 37 41 45 42 38 43 43 44 39 45 41 46 44 47 40 49
REMARK SMILES IDX 42 51 8 53 9 54 10 55 11 56 19 57 12 58 17 59 13 60 15 61
REMARK SMILES IDX 18 62 14 64 16 66 21 68 22 69 23 70 24 71 32 72 25 73 30 74
REMARK SMILES IDX 26 75 28 76 31 77 27 79 29 81
REMARK H PARENT 62 18 64 20 66 22 57 33 53 35 55 37 44 48 40 50 42 52 18 63
REMARK H PARENT 14 65 16 67 31 78 27 80 29 82
REMARK Flexibility Score: inf
ROOT
ATOM      1  C   UNL     1      21.027  24.053  12.615  1.00  0.00     0.205 C 
ATOM      2  C   UNL     1      20.373  24.984  13.652  1.00  0.00     0.254 C 
ATOM      3  C   UNL     1      18.855  24.894  13.459  1.00  0.00     0.267 C 
ATOM      4  C   UNL     1      18.401  23.430  13.605  1.00  0.00     0.290 C 
ATOM      5  C   UNL     1      19.236  22.532  12.663  1.00  0.00     0.357 C 
ATOM      6  O   UNL     1      20.635  22.708  12.851  1.00  0.00    -0.329 OA
ENDROOT
BRANCH   1   7
ATOM      7  C   UNL     1      22.563  24.143  12.633  1.00  0.00     0.269 C 
BRANCH   7   8
ATOM      8  O   UNL     1      23.075  23.807  11.348  1.00  0.00    -0.459 OA
BRANCH   8   9
ATOM      9  C   UNL     1      23.733  22.595  11.096  1.00  0.00     0.338 C 
ATOM     10  O   UNL     1      24.945  22.600  10.733  1.00  0.00    -0.246 OA
BRANCH   9  11
ATOM     11  C   UNL     1      23.002  21.317  11.221  1.00  0.00     0.067 A 
ATOM     12  C   UNL     1      23.400  20.366  12.170  1.00  0.00     0.066 A 
ATOM     13  C   UNL     1      22.751  19.133  12.265  1.00  0.00     0.162 A 
ATOM     14  C   UNL     1      21.925  21.023  10.360  1.00  0.00     0.066 A 
ATOM     15  C   UNL     1      21.695  18.824  11.376  1.00  0.00     0.200 A 
ATOM     16  C   UNL     1      21.285  19.781  10.429  1.00  0.00     0.162 A 
BRANCH  13  17
ATOM     17  O   UNL     1      23.179  18.253  13.260  1.00  0.00    -0.504 OA
ATOM     18  H   UNL     1      24.133  18.181  13.569  1.00  0.00     0.293 HD
ENDBRANCH  13  17
BRANCH  15  19
ATOM     19  O   UNL     1      21.042  17.588  11.401  1.00  0.00    -0.502 OA
ATOM     20  H   UNL     1      20.189  17.382  10.903  1.00  0.00     0.293 HD
ENDBRANCH  15  19
BRANCH  16  21
ATOM     21  O   UNL     1      20.242  19.516   9.542  1.00  0.00    -0.504 OA
ATOM     22  H   UNL     1      19.320  19.918   9.662  1.00  0.00     0.293 HD
ENDBRANCH  16  21
ENDBRANCH   9  11
ENDBRANCH   8   9
ENDBRANCH   7   8
ENDBRANCH   1   7
BRANCH   2  23
ATOM     23  O   UNL     1      20.698  24.556  14.976  1.00  0.00    -0.452 OA
BRANCH  23  24
ATOM     24  C   UNL     1      21.873  24.911  15.652  1.00  0.00     0.338 C 
ATOM     25  O   UNL     1      22.125  26.123  15.876  1.00  0.00    -0.246 OA
BRANCH  24  26
ATOM     26  C   UNL     1      22.797  23.850  16.114  1.00  0.00     0.067 A 
ATOM     27  C   UNL     1      24.190  24.003  15.988  1.00  0.00     0.066 A 
ATOM     28  C   UNL     1      22.286  22.651  16.635  1.00  0.00     0.066 A 
ATOM     29  C   UNL     1      25.059  22.965  16.364  1.00  0.00     0.162 A 
ATOM     30  C   UNL     1      23.148  21.619  17.021  1.00  0.00     0.162 A 
ATOM     31  C   UNL     1      24.536  21.770  16.885  1.00  0.00     0.200 A 
BRANCH  29  32
ATOM     32  O   UNL     1      26.435  23.114  16.216  1.00  0.00    -0.504 OA
ATOM     33  H   UNL     1      26.881  24.021  16.297  1.00  0.00     0.293 HD
ENDBRANCH  29  32
BRANCH  30  34
ATOM     34  O   UNL     1      22.602  20.443  17.532  1.00  0.00    -0.504 OA
ATOM     35  H   UNL     1      21.655  20.401  17.897  1.00  0.00     0.293 HD
ENDBRANCH  30  34
BRANCH  31  36
ATOM     36  O   UNL     1      25.375  20.724  17.264  1.00  0.00    -0.502 OA
ATOM     37  H   UNL     1      26.195  20.869  17.839  1.00  0.00     0.293 HD
ENDBRANCH  31  36
ENDBRANCH  24  26
ENDBRANCH  23  24
ENDBRANCH   2  23
BRANCH   3  38
ATOM     38  O   UNL     1      18.184  25.739  14.392  1.00  0.00    -0.450 OA
BRANCH  38  39
ATOM     39  C   UNL     1      17.436  26.858  13.997  1.00  0.00     0.338 C 
ATOM     40  O   UNL     1      17.442  27.227  12.790  1.00  0.00    -0.246 OA
BRANCH  39  41
ATOM     41  C   UNL     1      16.622  27.596  14.987  1.00  0.00     0.067 A 
ATOM     42  C   UNL     1      15.744  28.612  14.570  1.00  0.00     0.066 A 
ATOM     43  C   UNL     1      16.714  27.288  16.354  1.00  0.00     0.066 A 
ATOM     44  C   UNL     1      14.974  29.312  15.502  1.00  0.00     0.162 A 
ATOM     45  C   UNL     1      15.952  27.984  17.297  1.00  0.00     0.162 A 
ATOM     46  C   UNL     1      15.077  29.017  16.870  1.00  0.00     0.200 A 
BRANCH  44  47
ATOM     47  O   UNL     1      14.098  30.309  15.066  1.00  0.00    -0.504 OA
ATOM     48  H   UNL     1      14.007  30.546  14.081  1.00  0.00     0.293 HD
ENDBRANCH  44  47
BRANCH  45  49
ATOM     49  O   UNL     1      16.096  27.624  18.637  1.00  0.00    -0.504 OA
ATOM     50  H   UNL     1      16.572  28.187  19.327  1.00  0.00     0.293 HD
ENDBRANCH  45  49
BRANCH  46  51
ATOM     51  O   UNL     1      14.304  29.769  17.759  1.00  0.00    -0.502 OA
ATOM     52  H   UNL     1      13.319  29.966  17.619  1.00  0.00     0.293 HD
ENDBRANCH  46  51
ENDBRANCH  39  41
ENDBRANCH  38  39
ENDBRANCH   3  38
BRANCH   5  53
ATOM     53  O   UNL     1      18.872  22.760  11.303  1.00  0.00    -0.428 OA
BRANCH  53  54
ATOM     54  C   UNL     1      17.898  22.012  10.632  1.00  0.00     0.340 C 
ATOM     55  O   UNL     1      17.000  21.407  11.272  1.00  0.00    -0.246 OA
BRANCH  54  56
ATOM     56  C   UNL     1      17.927  21.944   9.162  1.00  0.00     0.067 A 
ATOM     57  C   UNL     1      17.829  20.714   8.499  1.00  0.00     0.066 A 
ATOM     58  C   UNL     1      18.040  23.119   8.411  1.00  0.00     0.066 A 
ATOM     59  C   UNL     1      17.809  20.648   7.100  1.00  0.00     0.162 A 
ATOM     60  C   UNL     1      18.052  23.075   7.017  1.00  0.00     0.162 A 
ATOM     61  C   UNL     1      17.920  21.843   6.344  1.00  0.00     0.200 A 
BRANCH  59  62
ATOM     62  O   UNL     1      17.674  19.385   6.516  1.00  0.00    -0.504 OA
ATOM     63  H   UNL     1      16.783  18.930   6.350  1.00  0.00     0.293 HD
ENDBRANCH  59  62
BRANCH  60  64
ATOM     64  O   UNL     1      18.203  24.272   6.315  1.00  0.00    -0.504 OA
ATOM     65  H   UNL     1      17.549  25.040   6.417  1.00  0.00     0.293 HD
ENDBRANCH  60  64
BRANCH  61  66
ATOM     66  O   UNL     1      17.898  21.843   4.941  1.00  0.00    -0.502 OA
ATOM     67  H   UNL     1      18.088  21.030   4.371  1.00  0.00     0.293 HD
ENDBRANCH  61  66
ENDBRANCH  54  56
ENDBRANCH  53  54
ENDBRANCH   5  53
BRANCH   4  68
ATOM     68  O   UNL     1      17.029  23.303  13.238  1.00  0.00    -0.448 OA
BRANCH  68  69
ATOM     69  C   UNL     1      16.036  22.784  14.075  1.00  0.00     0.339 C 
ATOM     70  O   UNL     1      15.319  23.558  14.768  1.00  0.00    -0.246 OA
BRANCH  69  71
ATOM     71  C   UNL     1      15.842  21.321  14.154  1.00  0.00     0.067 A 
ATOM     72  C   UNL     1      16.690  20.522  14.932  1.00  0.00     0.066 A 
ATOM     73  C   UNL     1      14.792  20.709  13.450  1.00  0.00     0.066 A 
ATOM     74  C   UNL     1      16.489  19.137  15.021  1.00  0.00     0.162 A 
ATOM     75  C   UNL     1      14.581  19.330  13.535  1.00  0.00     0.162 A 
ATOM     76  C   UNL     1      15.428  18.537  14.323  1.00  0.00     0.200 A 
BRANCH  74  77
ATOM     77  O   UNL     1      17.333  18.355  15.810  1.00  0.00    -0.504 OA
ATOM     78  H   UNL     1      17.043  18.015  16.722  1.00  0.00     0.293 HD
ENDBRANCH  74  77
BRANCH  75  79
ATOM     79  O   UNL     1      13.517  18.763  12.830  1.00  0.00    -0.504 OA
ATOM     80  H   UNL     1      13.375  17.763  12.779  1.00  0.00     0.293 HD
ENDBRANCH  75  79
BRANCH  76  81
ATOM     81  O   UNL     1      15.210  17.160  14.403  1.00  0.00    -0.502 OA
ATOM     82  H   UNL     1      14.311  16.741  14.216  1.00  0.00     0.293 HD
ENDBRANCH  76  81
ENDBRANCH  69  71
ENDBRANCH  68  69
ENDBRANCH   4  68
TORSDOF 31
ENDMDL
MODEL 5
REMARK VINA RESULT:   100.237      1.737      4.533
REMARK INTER + INTRA:         242.295
REMARK INTER:                 242.331
REMARK INTRA:                  -0.036
REMARK UNBOUND:                 4.353
REMARK SMILES O=C(OC[C@H]1O[C@H](OC(=O)c2cc(O)c(O)c(O)c2)[C@H](OC(=O)c2cc(O)c(O)c(O)c2)[C@@H](OC(=O)c2cc(O)c(O)c(O)c2)[C@H]1OC(=O)c1cc(O)c(O)c(O)c1)c1cc(O)c(O)c(O)c1
REMARK SMILES IDX 5 1 46 2 33 3 20 4 7 5 6 6 4 7 3 8 2 9 1 10 59 11 60 12
REMARK SMILES IDX 61 13 67 14 63 15 65 16 62 17 64 19 66 21 47 23 48 24 49 25
REMARK SMILES IDX 50 26 58 27 51 28 56 29 52 30 54 31 57 32 53 34 55 36 34 38
REMARK SMILES IDX 35 39 36 40 37 41 45 42 38 43 43 44 39 45 41 46 44 47 40 49
REMARK SMILES IDX 42 51 8 53 9 54 10 55 11 56 19 57 12 58 17 59 13 60 15 61
REMARK SMILES IDX 18 62 14 64 16 66 21 68 22 69 23 70 24 71 32 72 25 73 30 74
REMARK SMILES IDX 26 75 28 76 31 77 27 79 29 81
REMARK H PARENT 62 18 64 20 66 22 57 33 53 35 55 37 44 48 40 50 42 52 18 63
REMARK H PARENT 14 65 16 67 31 78 27 80 29 82
REMARK Flexibility Score: inf
ROOT
ATOM      1  C   UNL     1      21.640  25.628  13.639  1.00  0.00     0.205 C 
ATOM      2  C   UNL     1      21.599  24.115  13.923  1.00  0.00     0.254 C 
ATOM      3  C   UNL     1      20.133  23.731  14.153  1.00  0.00     0.267 C 
ATOM      4  C   UNL     1      19.296  24.127  12.923  1.00  0.00     0.290 C 
ATOM      5  C   UNL     1      19.538  25.616  12.589  1.00  0.00     0.357 C 
ATOM      6  O   UNL     1      20.921  25.920  12.449  1.00  0.00    -0.329 OA
ENDROOT
BRANCH   1   7
ATOM      7  C   UNL     1      23.079  26.158  13.503  1.00  0.00     0.269 C 
BRANCH   7   8
ATOM      8  O   UNL     1      23.928  25.467  14.413  1.00  0.00    -0.459 OA
BRANCH   8   9
ATOM      9  C   UNL     1      25.158  25.990  14.837  1.00  0.00     0.338 C 
ATOM     10  O   UNL     1      25.261  27.223  15.098  1.00  0.00    -0.246 OA
BRANCH   9  11
ATOM     11  C   UNL     1      26.337  25.107  14.948  1.00  0.00     0.067 A 
ATOM     12  C   UNL     1      27.531  25.437  14.292  1.00  0.00     0.066 A 
ATOM     13  C   UNL     1      28.638  24.587  14.344  1.00  0.00     0.162 A 
ATOM     14  C   UNL     1      26.262  23.903  15.676  1.00  0.00     0.066 A 
ATOM     15  C   UNL     1      28.549  23.362  15.045  1.00  0.00     0.200 A 
ATOM     16  C   UNL     1      27.356  23.032  15.714  1.00  0.00     0.162 A 
BRANCH  13  17
ATOM     17  O   UNL     1      29.803  25.003  13.698  1.00  0.00    -0.504 OA
ATOM     18  H   UNL     1      30.475  25.628  14.110  1.00  0.00     0.293 HD
ENDBRANCH  13  17
BRANCH  15  19
ATOM     19  O   UNL     1      29.613  22.455  15.091  1.00  0.00    -0.502 OA
ATOM     20  H   UNL     1      30.216  22.323  15.889  1.00  0.00     0.293 HD
ENDBRANCH  15  19
BRANCH  16  21
ATOM     21  O   UNL     1      27.235  21.836  16.423  1.00  0.00    -0.504 OA
ATOM     22  H   UNL     1      27.858  21.597  17.185  1.00  0.00     0.293 HD
ENDBRANCH  16  21
ENDBRANCH   9  11
ENDBRANCH   8   9
ENDBRANCH   7   8
ENDBRANCH   1   7
BRANCH   2  23
ATOM     23  O   UNL     1      22.099  23.386  12.802  1.00  0.00    -0.452 OA
BRANCH  23  24
ATOM     24  C   UNL     1      22.926  22.258  12.900  1.00  0.00     0.338 C 
ATOM     25  O   UNL     1      23.935  22.285  13.650  1.00  0.00    -0.246 OA
BRANCH  24  26
ATOM     26  C   UNL     1      22.589  21.039  12.133  1.00  0.00     0.067 A 
ATOM     27  C   UNL     1      22.417  19.802  12.783  1.00  0.00     0.066 A 
ATOM     28  C   UNL     1      22.491  21.093  10.733  1.00  0.00     0.066 A 
ATOM     29  C   UNL     1      22.165  18.635  12.042  1.00  0.00     0.162 A 
ATOM     30  C   UNL     1      22.230  19.935   9.993  1.00  0.00     0.162 A 
ATOM     31  C   UNL     1      22.069  18.703  10.642  1.00  0.00     0.200 A 
BRANCH  29  32
ATOM     32  O   UNL     1      22.018  17.412  12.691  1.00  0.00    -0.504 OA
ATOM     33  H   UNL     1      21.146  17.150  13.136  1.00  0.00     0.293 HD
ENDBRANCH  29  32
BRANCH  30  34
ATOM     34  O   UNL     1      22.142  20.030   8.606  1.00  0.00    -0.504 OA
ATOM     35  H   UNL     1      22.317  20.900   8.112  1.00  0.00     0.293 HD
ENDBRANCH  30  34
BRANCH  31  36
ATOM     36  O   UNL     1      21.821  17.560   9.884  1.00  0.00    -0.502 OA
ATOM     37  H   UNL     1      22.130  17.469   8.925  1.00  0.00     0.293 HD
ENDBRANCH  31  36
ENDBRANCH  24  26
ENDBRANCH  23  24
ENDBRANCH   2  23
BRANCH   3  38
ATOM     38  O   UNL     1      20.022  22.334  14.427  1.00  0.00    -0.450 OA
BRANCH  38  39
ATOM     39  C   UNL     1      20.091  21.812  15.726  1.00  0.00     0.338 C 
ATOM     40  O   UNL     1      19.032  21.567  16.365  1.00  0.00    -0.246 OA
BRANCH  39  41
ATOM     41  C   UNL     1      21.406  21.525  16.343  1.00  0.00     0.067 A 
ATOM     42  C   UNL     1      22.407  22.512  16.371  1.00  0.00     0.066 A 
ATOM     43  C   UNL     1      21.665  20.267  16.910  1.00  0.00     0.066 A 
ATOM     44  C   UNL     1      23.650  22.246  16.952  1.00  0.00     0.162 A 
ATOM     45  C   UNL     1      22.906  19.987  17.491  1.00  0.00     0.162 A 
ATOM     46  C   UNL     1      23.917  20.983  17.505  1.00  0.00     0.200 A 
BRANCH  44  47
ATOM     47  O   UNL     1      24.627  23.242  16.982  1.00  0.00    -0.504 OA
ATOM     48  H   UNL     1      25.351  23.258  17.696  1.00  0.00     0.293 HD
ENDBRANCH  44  47
BRANCH  45  49
ATOM     49  O   UNL     1      23.092  18.716  18.034  1.00  0.00    -0.504 OA
ATOM     50  H   UNL     1      22.407  18.236  18.599  1.00  0.00     0.293 HD
ENDBRANCH  45  49
BRANCH  46  51
ATOM     51  O   UNL     1      25.187  20.765  18.047  1.00  0.00    -0.502 OA
ATOM     52  H   UNL     1      25.432  20.977  19.008  1.00  0.00     0.293 HD
ENDBRANCH  46  51
ENDBRANCH  39  41
ENDBRANCH  38  39
ENDBRANCH   3  38
BRANCH   5  53
ATOM     53  O   UNL     1      18.929  26.453  13.571  1.00  0.00    -0.428 OA
BRANCH  53  54
ATOM     54  C   UNL     1      17.732  27.145  13.356  1.00  0.00     0.340 C 
ATOM     55  O   UNL     1      17.299  27.333  12.190  1.00  0.00    -0.246 OA
BRANCH  54  56
ATOM     56  C   UNL     1      16.974  27.649  14.512  1.00  0.00     0.067 A 
ATOM     57  C   UNL     1      15.986  28.629  14.351  1.00  0.00     0.066 A 
ATOM     58  C   UNL     1      17.227  27.137  15.790  1.00  0.00     0.066 A 
ATOM     59  C   UNL     1      15.230  29.077  15.441  1.00  0.00     0.162 A 
ATOM     60  C   UNL     1      16.506  27.590  16.895  1.00  0.00     0.162 A 
ATOM     61  C   UNL     1      15.488  28.553  16.733  1.00  0.00     0.200 A 
BRANCH  59  62
ATOM     62  O   UNL     1      14.239  30.032  15.190  1.00  0.00    -0.504 OA
ATOM     63  H   UNL     1      14.419  31.026  15.102  1.00  0.00     0.293 HD
ENDBRANCH  59  62
BRANCH  60  64
ATOM     64  O   UNL     1      16.822  27.075  18.152  1.00  0.00    -0.504 OA
ATOM     65  H   UNL     1      16.125  26.631  18.741  1.00  0.00     0.293 HD
ENDBRANCH  60  64
BRANCH  61  66
ATOM     66  O   UNL     1      14.759  28.956  17.862  1.00  0.00    -0.502 OA
ATOM     67  H   UNL     1      14.303  28.318  18.500  1.00  0.00     0.293 HD
ENDBRANCH  61  66
ENDBRANCH  54  56
ENDBRANCH  53  54
ENDBRANCH   5  53
BRANCH   4  68
ATOM     68  O   UNL     1      17.907  23.953  13.197  1.00  0.00    -0.448 OA
BRANCH  68  69
ATOM     69  C   UNL     1      17.166  22.829  12.821  1.00  0.00     0.339 C 
ATOM     70  O   UNL     1      16.261  22.380  13.580  1.00  0.00    -0.246 OA
BRANCH  69  71
ATOM     71  C   UNL     1      17.458  22.160  11.536  1.00  0.00     0.067 A 
ATOM     72  C   UNL     1      16.669  22.397  10.404  1.00  0.00     0.066 A 
ATOM     73  C   UNL     1      18.546  21.278  11.431  1.00  0.00     0.066 A 
ATOM     74  C   UNL     1      16.963  21.778   9.180  1.00  0.00     0.162 A 
ATOM     75  C   UNL     1      18.851  20.658  10.216  1.00  0.00     0.162 A 
ATOM     76  C   UNL     1      18.061  20.907   9.084  1.00  0.00     0.200 A 
BRANCH  74  77
ATOM     77  O   UNL     1      16.176  22.033   8.057  1.00  0.00    -0.504 OA
ATOM     78  H   UNL     1      16.526  22.581   7.278  1.00  0.00     0.293 HD
ENDBRANCH  74  77
BRANCH  75  79
ATOM     79  O   UNL     1      19.948  19.798  10.151  1.00  0.00    -0.504 OA
ATOM     80  H   UNL     1      19.868  18.806  10.325  1.00  0.00     0.293 HD
ENDBRANCH  75  79
BRANCH  76  81
ATOM     81  O   UNL     1      18.372  20.284   7.874  1.00  0.00    -0.502 OA
ATOM     82  H   UNL     1      18.619  19.308   7.813  1.00  0.00     0.293 HD
ENDBRANCH  76  81
ENDBRANCH  69  71
ENDBRANCH  68  69
ENDBRANCH   4  68
TORSDOF 31
ENDMDL
MODEL 6
REMARK VINA RESULT:   100.339      1.023      7.170
REMARK INTER + INTRA:         242.540
REMARK INTER:                 241.675
REMARK INTRA:                   0.865
REMARK UNBOUND:                 4.353
REMARK SMILES O=C(OC[C@H]1O[C@H](OC(=O)c2cc(O)c(O)c(O)c2)[C@H](OC(=O)c2cc(O)c(O)c(O)c2)[C@@H](OC(=O)c2cc(O)c(O)c(O)c2)[C@H]1OC(=O)c1cc(O)c(O)c(O)c1)c1cc(O)c(O)c(O)c1
REMARK SMILES IDX 5 1 46 2 33 3 20 4 7 5 6 6 4 7 3 8 2 9 1 10 59 11 60 12
REMARK SMILES IDX 61 13 67 14 63 15 65 16 62 17 64 19 66 21 47 23 48 24 49 25
REMARK SMILES IDX 50 26 58 27 51 28 56 29 52 30 54 31 57 32 53 34 55 36 34 38
REMARK SMILES IDX 35 39 36 40 37 41 45 42 38 43 43 44 39 45 41 46 44 47 40 49
REMARK SMILES IDX 42 51 8 53 9 54 10 55 11 56 19 57 12 58 17 59 13 60 15 61
REMARK SMILES IDX 18 62 14 64 16 66 21 68 22 69 23 70 24 71 32 72 25 73 30 74
REMARK SMILES IDX 26 75 28 76 31 77 27 79 29 81
REMARK H PARENT 62 18 64 20 66 22 57 33 53 35 55 37 44 48 40 50 42 52 18 63
REMARK H PARENT 14 65 16 67 31 78 27 80 29 82
REMARK Flexibility Score: inf
ROOT
ATOM      1  C   UNL     1      21.801  24.789  13.816  1.00  0.00     0.205 C 
ATOM      2  C   UNL     1      20.426  24.936  13.138  1.00  0.00     0.254 C 
ATOM      3  C   UNL     1      19.591  23.710  13.523  1.00  0.00     0.267 C 
ATOM      4  C   UNL     1      19.489  23.614  15.056  1.00  0.00     0.290 C 
ATOM      5  C   UNL     1      20.906  23.662  15.674  1.00  0.00     0.357 C 
ATOM      6  O   UNL     1      21.650  24.790  15.229  1.00  0.00    -0.329 OA
ENDROOT
BRANCH   1   7
ATOM      7  C   UNL     1      22.775  25.910  13.411  1.00  0.00     0.269 C 
BRANCH   7   8
ATOM      8  O   UNL     1      24.115  25.448  13.550  1.00  0.00    -0.459 OA
BRANCH   8   9
ATOM      9  C   UNL     1      24.787  25.455  14.781  1.00  0.00     0.338 C 
ATOM     10  O   UNL     1      24.277  26.050  15.773  1.00  0.00    -0.246 OA
BRANCH   9  11
ATOM     11  C   UNL     1      26.104  24.796  14.906  1.00  0.00     0.067 A 
ATOM     12  C   UNL     1      27.200  25.263  14.169  1.00  0.00     0.066 A 
ATOM     13  C   UNL     1      28.438  24.619  14.238  1.00  0.00     0.162 A 
ATOM     14  C   UNL     1      26.260  23.665  15.733  1.00  0.00     0.066 A 
ATOM     15  C   UNL     1      28.584  23.463  15.040  1.00  0.00     0.200 A 
ATOM     16  C   UNL     1      27.488  22.998  15.790  1.00  0.00     0.162 A 
BRANCH  13  17
ATOM     17  O   UNL     1      29.493  25.166  13.506  1.00  0.00    -0.504 OA
ATOM     18  H   UNL     1      29.870  26.083  13.673  1.00  0.00     0.293 HD
ENDBRANCH  13  17
BRANCH  15  19
ATOM     19  O   UNL     1      29.789  22.756  15.109  1.00  0.00    -0.502 OA
ATOM     20  H   UNL     1      29.931  21.831  14.733  1.00  0.00     0.293 HD
ENDBRANCH  15  19
BRANCH  16  21
ATOM     21  O   UNL     1      27.597  21.866  16.599  1.00  0.00    -0.504 OA
ATOM     22  H   UNL     1      28.150  21.062  16.327  1.00  0.00     0.293 HD
ENDBRANCH  16  21
ENDBRANCH   9  11
ENDBRANCH   8   9
ENDBRANCH   7   8
ENDBRANCH   1   7
BRANCH   2  23
ATOM     23  O   UNL     1      19.766  26.113  13.607  1.00  0.00    -0.452 OA
BRANCH  23  24
ATOM     24  C   UNL     1      18.493  26.523  13.185  1.00  0.00     0.338 C 
ATOM     25  O   UNL     1      18.153  26.372  11.984  1.00  0.00    -0.246 OA
BRANCH  24  26
ATOM     26  C   UNL     1      17.556  27.113  14.167  1.00  0.00     0.067 A 
ATOM     27  C   UNL     1      17.763  26.952  15.549  1.00  0.00     0.066 A 
ATOM     28  C   UNL     1      16.411  27.796  13.724  1.00  0.00     0.066 A 
ATOM     29  C   UNL     1      16.833  27.455  16.474  1.00  0.00     0.162 A 
ATOM     30  C   UNL     1      15.488  28.307  14.641  1.00  0.00     0.162 A 
ATOM     31  C   UNL     1      15.693  28.138  16.019  1.00  0.00     0.200 A 
BRANCH  29  32
ATOM     32  O   UNL     1      17.035  27.273  17.840  1.00  0.00    -0.504 OA
ATOM     33  H   UNL     1      17.069  28.059  18.479  1.00  0.00     0.293 HD
ENDBRANCH  29  32
BRANCH  30  34
ATOM     34  O   UNL     1      14.365  28.977  14.162  1.00  0.00    -0.504 OA
ATOM     35  H   UNL     1      13.711  29.447  14.782  1.00  0.00     0.293 HD
ENDBRANCH  30  34
BRANCH  31  36
ATOM     36  O   UNL     1      14.754  28.645  16.915  1.00  0.00    -0.502 OA
ATOM     37  H   UNL     1      14.992  28.888  17.868  1.00  0.00     0.293 HD
ENDBRANCH  31  36
ENDBRANCH  24  26
ENDBRANCH  23  24
ENDBRANCH   2  23
BRANCH   3  38
ATOM     38  O   UNL     1      18.298  23.780  12.923  1.00  0.00    -0.450 OA
BRANCH  38  39
ATOM     39  C   UNL     1      17.655  22.659  12.380  1.00  0.00     0.338 C 
ATOM     40  O   UNL     1      16.507  22.331  12.786  1.00  0.00    -0.246 OA
BRANCH  39  41
ATOM     41  C   UNL     1      18.312  21.869  11.315  1.00  0.00     0.067 A 
ATOM     42  C   UNL     1      17.713  21.747  10.049  1.00  0.00     0.066 A 
ATOM     43  C   UNL     1      19.542  21.235  11.556  1.00  0.00     0.066 A 
ATOM     44  C   UNL     1      18.328  21.001   9.040  1.00  0.00     0.162 A 
ATOM     45  C   UNL     1      20.166  20.483  10.556  1.00  0.00     0.162 A 
ATOM     46  C   UNL     1      19.550  20.353   9.284  1.00  0.00     0.200 A 
BRANCH  44  47
ATOM     47  O   UNL     1      17.724  20.903   7.785  1.00  0.00    -0.504 OA
ATOM     48  H   UNL     1      16.713  20.892   7.679  1.00  0.00     0.293 HD
ENDBRANCH  44  47
BRANCH  45  49
ATOM     49  O   UNL     1      21.386  19.882  10.868  1.00  0.00    -0.504 OA
ATOM     50  H   UNL     1      21.475  18.973  11.299  1.00  0.00     0.293 HD
ENDBRANCH  45  49
BRANCH  46  51
ATOM     51  O   UNL     1      20.105  19.598   8.247  1.00  0.00    -0.502 OA
ATOM     52  H   UNL     1      21.085  19.634   7.989  1.00  0.00     0.293 HD
ENDBRANCH  46  51
ENDBRANCH  39  41
ENDBRANCH  38  39
ENDBRANCH   3  38
BRANCH   5  53
ATOM     53  O   UNL     1      21.609  22.450  15.405  1.00  0.00    -0.428 OA
BRANCH  53  54
ATOM     54  C   UNL     1      22.724  22.029  16.137  1.00  0.00     0.340 C 
ATOM     55  O   UNL     1      23.718  22.785  16.285  1.00  0.00    -0.246 OA
BRANCH  54  56
ATOM     56  C   UNL     1      22.724  20.688  16.744  1.00  0.00     0.067 A 
ATOM     57  C   UNL     1      22.737  19.538  15.945  1.00  0.00     0.066 A 
ATOM     58  C   UNL     1      22.725  20.553  18.138  1.00  0.00     0.066 A 
ATOM     59  C   UNL     1      22.784  18.261  16.518  1.00  0.00     0.162 A 
ATOM     60  C   UNL     1      22.742  19.291  18.731  1.00  0.00     0.162 A 
ATOM     61  C   UNL     1      22.789  18.130  17.931  1.00  0.00     0.200 A 
BRANCH  59  62
ATOM     62  O   UNL     1      22.830  17.166  15.651  1.00  0.00    -0.504 OA
ATOM     63  H   UNL     1      23.549  16.451  15.678  1.00  0.00     0.293 HD
ENDBRANCH  59  62
BRANCH  60  64
ATOM     64  O   UNL     1      22.706  19.210  20.123  1.00  0.00    -0.504 OA
ATOM     65  H   UNL     1      23.477  18.825  20.659  1.00  0.00     0.293 HD
ENDBRANCH  60  64
BRANCH  61  66
ATOM     66  O   UNL     1      22.844  16.880  18.564  1.00  0.00    -0.502 OA
ATOM     67  H   UNL     1      22.552  16.713  19.517  1.00  0.00     0.293 HD
ENDBRANCH  61  66
ENDBRANCH  54  56
ENDBRANCH  53  54
ENDBRANCH   5  53
BRANCH   4  68
ATOM     68  O   UNL     1      18.883  22.379  15.433  1.00  0.00    -0.448 OA
BRANCH  68  69
ATOM     69  C   UNL     1      17.508  22.201  15.612  1.00  0.00     0.339 C 
ATOM     70  O   UNL     1      16.806  23.127  16.108  1.00  0.00    -0.246 OA
BRANCH  69  71
ATOM     71  C   UNL     1      16.884  20.916  15.232  1.00  0.00     0.067 A 
ATOM     72  C   UNL     1      17.290  19.715  15.827  1.00  0.00     0.066 A 
ATOM     73  C   UNL     1      15.863  20.885  14.269  1.00  0.00     0.066 A 
ATOM     74  C   UNL     1      16.680  18.500  15.480  1.00  0.00     0.162 A 
ATOM     75  C   UNL     1      15.246  19.681  13.918  1.00  0.00     0.162 A 
ATOM     76  C   UNL     1      15.652  18.482  14.523  1.00  0.00     0.200 A 
BRANCH  74  77
ATOM     77  O   UNL     1      17.085  17.312  16.089  1.00  0.00    -0.504 OA
ATOM     78  H   UNL     1      17.283  17.266  17.083  1.00  0.00     0.293 HD
ENDBRANCH  74  77
BRANCH  75  79
ATOM     79  O   UNL     1      14.226  19.694  12.965  1.00  0.00    -0.504 OA
ATOM     80  H   UNL     1      14.029  18.899  12.373  1.00  0.00     0.293 HD
ENDBRANCH  75  79
BRANCH  76  81
ATOM     81  O   UNL     1      15.031  17.283  14.167  1.00  0.00    -0.502 OA
ATOM     82  H   UNL     1      14.089  17.246  13.806  1.00  0.00     0.293 HD
ENDBRANCH  76  81
ENDBRANCH  69  71
ENDBRANCH  68  69
ENDBRANCH   4  68
TORSDOF 31
ENDMDL
MODEL 7
REMARK VINA RESULT:   100.398      2.664      7.091
REMARK INTER + INTRA:         242.678
REMARK INTER:                 243.628
REMARK INTRA:                  -0.950
REMARK UNBOUND:                 4.353
REMARK SMILES O=C(OC[C@H]1O[C@H](OC(=O)c2cc(O)c(O)c(O)c2)[C@H](OC(=O)c2cc(O)c(O)c(O)c2)[C@@H](OC(=O)c2cc(O)c(O)c(O)c2)[C@H]1OC(=O)c1cc(O)c(O)c(O)c1)c1cc(O)c(O)c(O)c1
REMARK SMILES IDX 5 1 46 2 33 3 20 4 7 5 6 6 4 7 3 8 2 9 1 10 59 11 60 12
REMARK SMILES IDX 61 13 67 14 63 15 65 16 62 17 64 19 66 21 47 23 48 24 49 25
REMARK SMILES IDX 50 26 58 27 51 28 56 29 52 30 54 31 57 32 53 34 55 36 34 38
REMARK SMILES IDX 35 39 36 40 37 41 45 42 38 43 43 44 39 45 41 46 44 47 40 49
REMARK SMILES IDX 42 51 8 53 9 54 10 55 11 56 19 57 12 58 17 59 13 60 15 61
REMARK SMILES IDX 18 62 14 64 16 66 21 68 22 69 23 70 24 71 32 72 25 73 30 74
REMARK SMILES IDX 26 75 28 76 31 77 27 79 29 81
REMARK H PARENT 62 18 64 20 66 22 57 33 53 35 55 37 44 48 40 50 42 52 18 63
REMARK H PARENT 14 65 16 67 31 78 27 80 29 82
REMARK Flexibility Score: inf
ROOT
ATOM      1  C   UNL     1      20.897  23.434  12.608  1.00  0.00     0.205 C 
ATOM      2  C   UNL     1      20.271  24.432  13.599  1.00  0.00     0.254 C 
ATOM      3  C   UNL     1      18.780  24.542  13.261  1.00  0.00     0.267 C 
ATOM      4  C   UNL     1      18.130  23.148  13.332  1.00  0.00     0.290 C 
ATOM      5  C   UNL     1      18.930  22.157  12.455  1.00  0.00     0.357 C 
ATOM      6  O   UNL     1      20.315  22.148  12.778  1.00  0.00    -0.329 OA
ENDROOT
BRANCH   1   7
ATOM      7  C   UNL     1      22.424  23.323  12.774  1.00  0.00     0.269 C 
BRANCH   7   8
ATOM      8  O   UNL     1      23.050  23.452  11.502  1.00  0.00    -0.459 OA
BRANCH   8   9
ATOM      9  C   UNL     1      23.520  22.344  10.782  1.00  0.00     0.338 C 
ATOM     10  O   UNL     1      24.485  22.480   9.976  1.00  0.00    -0.246 OA
BRANCH   9  11
ATOM     11  C   UNL     1      22.865  21.029  10.940  1.00  0.00     0.067 A 
ATOM     12  C   UNL     1      21.737  20.705  10.174  1.00  0.00     0.066 A 
ATOM     13  C   UNL     1      21.076  19.487  10.349  1.00  0.00     0.162 A 
ATOM     14  C   UNL     1      23.340  20.105  11.892  1.00  0.00     0.066 A 
ATOM     15  C   UNL     1      21.532  18.576  11.331  1.00  0.00     0.200 A 
ATOM     16  C   UNL     1      22.671  18.893  12.094  1.00  0.00     0.162 A 
BRANCH  13  17
ATOM     17  O   UNL     1      19.984  19.219   9.522  1.00  0.00    -0.504 OA
ATOM     18  H   UNL     1      20.057  18.739   8.641  1.00  0.00     0.293 HD
ENDBRANCH  13  17
BRANCH  15  19
ATOM     19  O   UNL     1      20.881  17.362  11.576  1.00  0.00    -0.502 OA
ATOM     20  H   UNL     1      20.882  16.576  10.945  1.00  0.00     0.293 HD
ENDBRANCH  15  19
BRANCH  16  21
ATOM     21  O   UNL     1      23.155  18.016  13.065  1.00  0.00    -0.504 OA
ATOM     22  H   UNL     1      22.905  17.034  13.075  1.00  0.00     0.293 HD
ENDBRANCH  16  21
ENDBRANCH   9  11
ENDBRANCH   8   9
ENDBRANCH   7   8
ENDBRANCH   1   7
BRANCH   2  23
ATOM     23  O   UNL     1      20.409  23.954  14.938  1.00  0.00    -0.452 OA
BRANCH  23  24
ATOM     24  C   UNL     1      21.637  23.794  15.595  1.00  0.00     0.338 C 
ATOM     25  O   UNL     1      22.440  24.760  15.665  1.00  0.00    -0.246 OA
BRANCH  24  26
ATOM     26  C   UNL     1      21.967  22.493  16.217  1.00  0.00     0.067 A 
ATOM     27  C   UNL     1      22.168  22.388  17.606  1.00  0.00     0.066 A 
ATOM     28  C   UNL     1      22.138  21.353  15.416  1.00  0.00     0.066 A 
ATOM     29  C   UNL     1      22.548  21.165  18.183  1.00  0.00     0.162 A 
ATOM     30  C   UNL     1      22.506  20.130  15.986  1.00  0.00     0.162 A 
ATOM     31  C   UNL     1      22.715  20.031  17.370  1.00  0.00     0.200 A 
BRANCH  29  32
ATOM     32  O   UNL     1      22.766  21.074  19.555  1.00  0.00    -0.504 OA
ATOM     33  H   UNL     1      23.050  21.880  20.100  1.00  0.00     0.293 HD
ENDBRANCH  29  32
BRANCH  30  34
ATOM     34  O   UNL     1      22.668  19.023  15.157  1.00  0.00    -0.504 OA
ATOM     35  H   UNL     1      23.536  18.497  15.122  1.00  0.00     0.293 HD
ENDBRANCH  30  34
BRANCH  31  36
ATOM     36  O   UNL     1      23.094  18.806  17.916  1.00  0.00    -0.502 OA
ATOM     37  H   UNL     1      22.420  18.092  18.163  1.00  0.00     0.293 HD
ENDBRANCH  31  36
ENDBRANCH  24  26
ENDBRANCH  23  24
ENDBRANCH   2  23
BRANCH   3  38
ATOM     38  O   UNL     1      18.136  25.459  14.145  1.00  0.00    -0.450 OA
BRANCH  38  39
ATOM     39  C   UNL     1      17.930  26.806  13.816  1.00  0.00     0.338 C 
ATOM     40  O   UNL     1      18.863  27.480  13.300  1.00  0.00    -0.246 OA
BRANCH  39  41
ATOM     41  C   UNL     1      16.612  27.436  14.053  1.00  0.00     0.067 A 
ATOM     42  C   UNL     1      16.440  28.347  15.110  1.00  0.00     0.066 A 
ATOM     43  C   UNL     1      15.521  27.134  13.222  1.00  0.00     0.066 A 
ATOM     44  C   UNL     1      15.197  28.943  15.338  1.00  0.00     0.162 A 
ATOM     45  C   UNL     1      14.271  27.721  13.443  1.00  0.00     0.162 A 
ATOM     46  C   UNL     1      14.100  28.630  14.519  1.00  0.00     0.200 A 
BRANCH  44  47
ATOM     47  O   UNL     1      15.049  29.856  16.385  1.00  0.00    -0.504 OA
ATOM     48  H   UNL     1      14.204  29.887  16.950  1.00  0.00     0.293 HD
ENDBRANCH  44  47
BRANCH  45  49
ATOM     49  O   UNL     1      13.233  27.373  12.578  1.00  0.00    -0.504 OA
ATOM     50  H   UNL     1      13.009  27.876  11.731  1.00  0.00     0.293 HD
ENDBRANCH  45  49
BRANCH  46  51
ATOM     51  O   UNL     1      12.875  29.236  14.812  1.00  0.00    -0.502 OA
ATOM     52  H   UNL     1      12.237  29.583  14.104  1.00  0.00     0.293 HD
ENDBRANCH  46  51
ENDBRANCH  39  41
ENDBRANCH  38  39
ENDBRANCH   3  38
BRANCH   5  53
ATOM     53  O   UNL     1      18.730  22.443  11.072  1.00  0.00    -0.428 OA
BRANCH  53  54
ATOM     54  C   UNL     1      17.695  21.886  10.313  1.00  0.00     0.340 C 
ATOM     55  O   UNL     1      16.702  21.356  10.874  1.00  0.00    -0.246 OA
BRANCH  54  56
ATOM     56  C   UNL     1      17.773  21.931   8.844  1.00  0.00     0.067 A 
ATOM     57  C   UNL     1      17.924  23.150   8.171  1.00  0.00     0.066 A 
ATOM     58  C   UNL     1      17.709  20.744   8.106  1.00  0.00     0.066 A 
ATOM     59  C   UNL     1      18.045  23.193   6.776  1.00  0.00     0.162 A 
ATOM     60  C   UNL     1      17.798  20.766   6.714  1.00  0.00     0.162 A 
ATOM     61  C   UNL     1      17.984  21.987   6.033  1.00  0.00     0.200 A 
BRANCH  59  62
ATOM     62  O   UNL     1      18.229  24.446   6.183  1.00  0.00    -0.504 OA
ATOM     63  H   UNL     1      17.752  25.290   6.482  1.00  0.00     0.293 HD
ENDBRANCH  59  62
BRANCH  60  64
ATOM     64  O   UNL     1      17.693  19.559   6.021  1.00  0.00    -0.504 OA
ATOM     65  H   UNL     1      17.636  18.668   6.503  1.00  0.00     0.293 HD
ENDBRANCH  60  64
BRANCH  61  66
ATOM     66  O   UNL     1      18.108  21.965   4.635  1.00  0.00    -0.502 OA
ATOM     67  H   UNL     1      17.973  21.140   4.067  1.00  0.00     0.293 HD
ENDBRANCH  61  66
ENDBRANCH  54  56
ENDBRANCH  53  54
ENDBRANCH   5  53
BRANCH   4  68
ATOM     68  O   UNL     1      16.794  23.203  12.835  1.00  0.00    -0.448 OA
BRANCH  68  69
ATOM     69  C   UNL     1      15.806  22.259  13.129  1.00  0.00     0.339 C 
ATOM     70  O   UNL     1      14.663  22.348  12.600  1.00  0.00    -0.246 OA
BRANCH  69  71
ATOM     71  C   UNL     1      16.105  21.163  14.076  1.00  0.00     0.067 A 
ATOM     72  C   UNL     1      15.643  19.862  13.841  1.00  0.00     0.066 A 
ATOM     73  C   UNL     1      16.868  21.414  15.228  1.00  0.00     0.066 A 
ATOM     74  C   UNL     1      15.948  18.821  14.730  1.00  0.00     0.162 A 
ATOM     75  C   UNL     1      17.180  20.384  16.119  1.00  0.00     0.162 A 
ATOM     76  C   UNL     1      16.722  19.081  15.873  1.00  0.00     0.200 A 
BRANCH  74  77
ATOM     77  O   UNL     1      15.493  17.526  14.477  1.00  0.00    -0.504 OA
ATOM     78  H   UNL     1      15.348  16.858  15.228  1.00  0.00     0.293 HD
ENDBRANCH  74  77
BRANCH  75  79
ATOM     79  O   UNL     1      17.952  20.672  17.245  1.00  0.00    -0.504 OA
ATOM     80  H   UNL     1      18.480  19.963  17.735  1.00  0.00     0.293 HD
ENDBRANCH  75  79
BRANCH  76  81
ATOM     81  O   UNL     1      17.038  18.056  16.768  1.00  0.00    -0.502 OA
ATOM     82  H   UNL     1      17.951  17.629  16.803  1.00  0.00     0.293 HD
ENDBRANCH  76  81
ENDBRANCH  69  71
ENDBRANCH  68  69
ENDBRANCH   4  68
TORSDOF 31
ENDMDL
