MODEL 1
REMARK VINA RESULT:    -5.816      0.000      0.000
REMARK INTER + INTRA:          -6.381
REMARK INTER:                  -6.326
REMARK INTRA:                  -0.055
REMARK UNBOUND:                -0.055
REMARK SMILES COc1cc2ccc(=O)oc2cc1O
REMARK SMILES IDX 3 1 13 2 12 3 11 4 5 5 4 6 6 7 7 8 8 9 9 10 10 11 2 12 1 13
REMARK SMILES IDX 14 14
REMARK H PARENT 14 15
REMARK Flexibility Score: inf
ROOT
ATOM      1  C   UNL     1       6.776  -2.309  16.154  1.00  0.00     0.161 A 
ATOM      2  C   UNL     1       5.986  -2.071  15.018  1.00  0.00     0.161 A 
ATOM      3  C   UNL     1       4.588  -2.080  15.112  1.00  0.00     0.098 A 
ATOM      4  C   UNL     1       3.967  -2.325  16.340  1.00  0.00     0.142 A 
ATOM      5  C   UNL     1       4.752  -2.565  17.487  1.00  0.00     0.022 A 
ATOM      6  C   UNL     1       6.151  -2.557  17.393  1.00  0.00     0.062 A 
ATOM      7  C   UNL     1       4.101  -2.809  18.700  1.00  0.00     0.019 A 
ATOM      8  C   UNL     1       2.708  -2.807  18.743  1.00  0.00     0.094 A 
ATOM      9  C   UNL     1       1.994  -2.561  17.565  1.00  0.00     0.336 A 
ATOM     10  O   UNL     1       0.736  -2.555  17.582  1.00  0.00    -0.246 OA
ATOM     11  O   UNL     1       2.638  -2.333  16.423  1.00  0.00    -0.423 OA
ENDROOT
BRANCH   1  12
ATOM     12  O   UNL     1       8.173  -2.290  16.012  1.00  0.00    -0.493 OA
ATOM     13  C   UNL     1       9.057  -1.539  16.838  1.00  0.00     0.278 C 
ENDBRANCH   1  12
BRANCH   2  14
ATOM     14  O   UNL     1       6.604  -1.825  13.792  1.00  0.00    -0.504 OA
ATOM     15  H   UNL     1       7.309  -1.106  13.688  1.00  0.00     0.293 HD
ENDBRANCH   2  14
TORSDOF 2
ENDMDL
MODEL 2
REMARK VINA RESULT:    -5.731      2.097      3.651
REMARK INTER + INTRA:          -6.289
REMARK INTER:                  -6.231
REMARK INTRA:                  -0.058
REMARK UNBOUND:                -0.055
REMARK SMILES COc1cc2ccc(=O)oc2cc1O
REMARK SMILES IDX 3 1 13 2 12 3 11 4 5 5 4 6 6 7 7 8 8 9 9 10 10 11 2 12 1 13
REMARK SMILES IDX 14 14
REMARK H PARENT 14 15
REMARK Flexibility Score: inf
ROOT
ATOM      1  C   UNL     1       4.426  -2.072  15.275  1.00  0.00     0.161 A 
ATOM      2  C   UNL     1       5.830  -2.094  15.313  1.00  0.00     0.161 A 
ATOM      3  C   UNL     1       6.502  -2.354  16.515  1.00  0.00     0.098 A 
ATOM      4  C   UNL     1       5.780  -2.594  17.687  1.00  0.00     0.142 A 
ATOM      5  C   UNL     1       4.371  -2.574  17.659  1.00  0.00     0.022 A 
ATOM      6  C   UNL     1       3.697  -2.314  16.457  1.00  0.00     0.062 A 
ATOM      7  C   UNL     1       3.677  -2.817  18.849  1.00  0.00     0.019 A 
ATOM      8  C   UNL     1       4.391  -3.071  20.018  1.00  0.00     0.094 A 
ATOM      9  C   UNL     1       5.789  -3.075  19.971  1.00  0.00     0.336 A 
ATOM     10  O   UNL     1       6.453  -3.302  21.016  1.00  0.00    -0.246 OA
ATOM     11  O   UNL     1       6.425  -2.840  18.826  1.00  0.00    -0.423 OA
ENDROOT
BRANCH   1  12
ATOM     12  O   UNL     1       3.795  -1.808  14.048  1.00  0.00    -0.493 OA
ATOM     13  C   UNL     1       2.850  -0.764  13.837  1.00  0.00     0.278 C 
ENDBRANCH   1  12
BRANCH   2  14
ATOM     14  O   UNL     1       6.552  -1.856  14.144  1.00  0.00    -0.504 OA
ATOM     15  H   UNL     1       6.989  -0.960  13.964  1.00  0.00     0.293 HD
ENDBRANCH   2  14
TORSDOF 2
ENDMDL
MODEL 3
REMARK VINA RESULT:    -5.522      1.400      2.684
REMARK INTER + INTRA:          -6.062
REMARK INTER:                  -5.999
REMARK INTRA:                  -0.063
REMARK UNBOUND:                -0.055
REMARK SMILES COc1cc2ccc(=O)oc2cc1O
REMARK SMILES IDX 3 1 13 2 12 3 11 4 5 5 4 6 6 7 7 8 8 9 9 10 10 11 2 12 1 13
REMARK SMILES IDX 14 14
REMARK H PARENT 14 15
REMARK Flexibility Score: inf
ROOT
ATOM      1  C   UNL     1       6.793  -2.490  16.771  1.00  0.00     0.161 A 
ATOM      2  C   UNL     1       6.098  -2.606  17.986  1.00  0.00     0.161 A 
ATOM      3  C   UNL     1       4.701  -2.499  18.015  1.00  0.00     0.098 A 
ATOM      4  C   UNL     1       3.987  -2.276  16.836  1.00  0.00     0.142 A 
ATOM      5  C   UNL     1       4.676  -2.159  15.611  1.00  0.00     0.022 A 
ATOM      6  C   UNL     1       6.074  -2.265  15.580  1.00  0.00     0.062 A 
ATOM      7  C   UNL     1       3.934  -1.935  14.447  1.00  0.00     0.019 A 
ATOM      8  C   UNL     1       2.546  -1.836  14.528  1.00  0.00     0.094 A 
ATOM      9  C   UNL     1       1.930  -1.964  15.778  1.00  0.00     0.336 A 
ATOM     10  O   UNL     1       0.677  -1.878  15.873  1.00  0.00    -0.246 OA
ATOM     11  O   UNL     1       2.660  -2.175  16.870  1.00  0.00    -0.423 OA
ENDROOT
BRANCH   1  12
ATOM     12  O   UNL     1       8.193  -2.604  16.789  1.00  0.00    -0.493 OA
ATOM     13  C   UNL     1       9.091  -1.500  16.793  1.00  0.00     0.278 C 
ENDBRANCH   1  12
BRANCH   2  14
ATOM     14  O   UNL     1       6.809  -2.829  19.165  1.00  0.00    -0.504 OA
ATOM     15  H   UNL     1       6.759  -2.184  19.944  1.00  0.00     0.293 HD
ENDBRANCH   2  14
TORSDOF 2
ENDMDL
MODEL 4
REMARK VINA RESULT:    -5.390      1.988      2.540
REMARK INTER + INTRA:          -5.918
REMARK INTER:                  -5.872
REMARK INTRA:                  -0.046
REMARK UNBOUND:                -0.055
REMARK SMILES COc1cc2ccc(=O)oc2cc1O
REMARK SMILES IDX 3 1 13 2 12 3 11 4 5 5 4 6 6 7 7 8 8 9 9 10 10 11 2 12 1 13
REMARK SMILES IDX 14 14
REMARK H PARENT 14 15
REMARK Flexibility Score: inf
ROOT
ATOM      1  C   UNL     1       5.331  -2.248  15.908  1.00  0.00     0.161 A 
ATOM      2  C   UNL     1       5.308  -1.890  14.551  1.00  0.00     0.161 A 
ATOM      3  C   UNL     1       4.105  -1.519  13.936  1.00  0.00     0.098 A 
ATOM      4  C   UNL     1       2.916  -1.503  14.669  1.00  0.00     0.142 A 
ATOM      5  C   UNL     1       2.928  -1.860  16.033  1.00  0.00     0.022 A 
ATOM      6  C   UNL     1       4.132  -2.232  16.649  1.00  0.00     0.062 A 
ATOM      7  C   UNL     1       1.722  -1.835  16.741  1.00  0.00     0.019 A 
ATOM      8  C   UNL     1       0.551  -1.459  16.084  1.00  0.00     0.094 A 
ATOM      9  C   UNL     1       0.614  -1.116  14.729  1.00  0.00     0.336 A 
ATOM     10  O   UNL     1      -0.432  -0.773  14.118  1.00  0.00    -0.246 OA
ATOM     11  O   UNL     1       1.775  -1.150  14.079  1.00  0.00    -0.423 OA
ENDROOT
BRANCH   1  12
ATOM     12  O   UNL     1       6.560  -2.612  16.482  1.00  0.00    -0.493 OA
ATOM     13  C   UNL     1       6.835  -2.588  17.879  1.00  0.00     0.278 C 
ENDBRANCH   1  12
BRANCH   2  14
ATOM     14  O   UNL     1       6.494  -1.905  13.817  1.00  0.00    -0.504 OA
ATOM     15  H   UNL     1       6.568  -1.442  12.919  1.00  0.00     0.293 HD
ENDBRANCH   2  14
TORSDOF 2
ENDMDL
MODEL 5
REMARK VINA RESULT:    -5.369      1.767      5.569
REMARK INTER + INTRA:          -5.895
REMARK INTER:                  -5.830
REMARK INTRA:                  -0.064
REMARK UNBOUND:                -0.055
REMARK SMILES COc1cc2ccc(=O)oc2cc1O
REMARK SMILES IDX 3 1 13 2 12 3 11 4 5 5 4 6 6 7 7 8 8 9 9 10 10 11 2 12 1 13
REMARK SMILES IDX 14 14
REMARK H PARENT 14 15
REMARK Flexibility Score: inf
ROOT
ATOM      1  C   UNL     1       3.370  -2.917  18.614  1.00  0.00     0.161 A 
ATOM      2  C   UNL     1       4.281  -3.174  19.651  1.00  0.00     0.161 A 
ATOM      3  C   UNL     1       5.661  -3.128  19.409  1.00  0.00     0.098 A 
ATOM      4  C   UNL     1       6.142  -2.825  18.133  1.00  0.00     0.142 A 
ATOM      5  C   UNL     1       5.235  -2.565  17.085  1.00  0.00     0.022 A 
ATOM      6  C   UNL     1       3.855  -2.611  17.326  1.00  0.00     0.062 A 
ATOM      7  C   UNL     1       5.747  -2.266  15.819  1.00  0.00     0.019 A 
ATOM      8  C   UNL     1       7.128  -2.232  15.629  1.00  0.00     0.094 A 
ATOM      9  C   UNL     1       7.968  -2.500  16.715  1.00  0.00     0.336 A 
ATOM     10  O   UNL     1       9.217  -2.475  16.565  1.00  0.00    -0.246 OA
ATOM     11  O   UNL     1       7.454  -2.783  17.910  1.00  0.00    -0.423 OA
ENDROOT
BRANCH   1  12
ATOM     12  O   UNL     1       1.997  -2.973  18.903  1.00  0.00    -0.493 OA
ATOM     13  C   UNL     1       1.122  -4.004  18.457  1.00  0.00     0.278 C 
ENDBRANCH   1  12
BRANCH   2  14
ATOM     14  O   UNL     1       3.803  -3.475  20.926  1.00  0.00    -0.504 OA
ATOM     15  H   UNL     1       4.329  -3.240  21.759  1.00  0.00     0.293 HD
ENDBRANCH   2  14
TORSDOF 2
ENDMDL
MODEL 6
REMARK VINA RESULT:    -5.321      2.089      3.435
REMARK INTER + INTRA:          -5.842
REMARK INTER:                  -5.796
REMARK INTRA:                  -0.046
REMARK UNBOUND:                -0.055
REMARK SMILES COc1cc2ccc(=O)oc2cc1O
REMARK SMILES IDX 3 1 13 2 12 3 11 4 5 5 4 6 6 7 7 8 8 9 9 10 10 11 2 12 1 13
REMARK SMILES IDX 14 14
REMARK H PARENT 14 15
REMARK Flexibility Score: inf
ROOT
ATOM      1  C   UNL     1       5.983  -2.662  18.102  1.00  0.00     0.161 A 
ATOM      2  C   UNL     1       6.955  -2.472  17.106  1.00  0.00     0.161 A 
ATOM      3  C   UNL     1       6.571  -2.178  15.790  1.00  0.00     0.098 A 
ATOM      4  C   UNL     1       5.219  -2.073  15.458  1.00  0.00     0.142 A 
ATOM      5  C   UNL     1       4.236  -2.262  16.452  1.00  0.00     0.022 A 
ATOM      6  C   UNL     1       4.618  -2.556  17.768  1.00  0.00     0.062 A 
ATOM      7  C   UNL     1       2.890  -2.151  16.088  1.00  0.00     0.019 A 
ATOM      8  C   UNL     1       2.560  -1.857  14.766  1.00  0.00     0.094 A 
ATOM      9  C   UNL     1       3.588  -1.682  13.834  1.00  0.00     0.336 A 
ATOM     10  O   UNL     1       3.311  -1.416  12.635  1.00  0.00    -0.246 OA
ATOM     11  O   UNL     1       4.861  -1.794  14.206  1.00  0.00    -0.423 OA
ENDROOT
BRANCH   1  12
ATOM     12  O   UNL     1       6.414  -2.954  19.407  1.00  0.00    -0.493 OA
ATOM     13  C   UNL     1       5.614  -2.791  20.574  1.00  0.00     0.278 C 
ENDBRANCH   1  12
BRANCH   2  14
ATOM     14  O   UNL     1       8.305  -2.576  17.435  1.00  0.00    -0.504 OA
ATOM     15  H   UNL     1       8.994  -2.887  16.760  1.00  0.00     0.293 HD
ENDBRANCH   2  14
TORSDOF 2
ENDMDL
MODEL 7
REMARK VINA RESULT:    -5.303      8.727     10.516
REMARK INTER + INTRA:          -5.823
REMARK INTER:                  -5.777
REMARK INTRA:                  -0.045
REMARK UNBOUND:                -0.055
REMARK SMILES COc1cc2ccc(=O)oc2cc1O
REMARK SMILES IDX 3 1 13 2 12 3 11 4 5 5 4 6 6 7 7 8 8 9 9 10 10 11 2 12 1 13
REMARK SMILES IDX 14 14
REMARK H PARENT 14 15
REMARK Flexibility Score: inf
ROOT
ATOM      1  C   UNL     1       7.598   1.907  23.572  1.00  0.00     0.161 A 
ATOM      2  C   UNL     1       8.556   1.541  22.612  1.00  0.00     0.161 A 
ATOM      3  C   UNL     1       9.774   0.972  23.008  1.00  0.00     0.098 A 
ATOM      4  C   UNL     1      10.046   0.763  24.362  1.00  0.00     0.142 A 
ATOM      5  C   UNL     1       9.090   1.127  25.334  1.00  0.00     0.022 A 
ATOM      6  C   UNL     1       7.872   1.696  24.938  1.00  0.00     0.062 A 
ATOM      7  C   UNL     1       9.392   0.906  26.681  1.00  0.00     0.019 A 
ATOM      8  C   UNL     1      10.617   0.337  27.024  1.00  0.00     0.094 A 
ATOM      9  C   UNL     1      11.517   0.001  26.007  1.00  0.00     0.336 A 
ATOM     10  O   UNL     1      12.628  -0.514  26.296  1.00  0.00    -0.246 OA
ATOM     11  O   UNL     1      11.205   0.222  24.732  1.00  0.00    -0.423 OA
ENDROOT
BRANCH   1  12
ATOM     12  O   UNL     1       6.392   2.473  23.129  1.00  0.00    -0.493 OA
ATOM     13  C   UNL     1       5.241   2.660  23.947  1.00  0.00     0.278 C 
ENDBRANCH   1  12
BRANCH   2  14
ATOM     14  O   UNL     1       8.287   1.748  21.260  1.00  0.00    -0.504 OA
ATOM     15  H   UNL     1       8.048   0.980  20.643  1.00  0.00     0.293 HD
ENDBRANCH   2  14
TORSDOF 2
ENDMDL
MODEL 8
REMARK VINA RESULT:    -5.300      1.541      4.686
REMARK INTER + INTRA:          -5.819
REMARK INTER:                  -5.760
REMARK INTRA:                  -0.059
REMARK UNBOUND:                -0.055
REMARK SMILES COc1cc2ccc(=O)oc2cc1O
REMARK SMILES IDX 3 1 13 2 12 3 11 4 5 5 4 6 6 7 7 8 8 9 9 10 10 11 2 12 1 13
REMARK SMILES IDX 14 14
REMARK H PARENT 14 15
REMARK Flexibility Score: inf
ROOT
ATOM      1  C   UNL     1       2.782  -2.000  15.572  1.00  0.00     0.161 A 
ATOM      2  C   UNL     1       3.532  -1.752  14.411  1.00  0.00     0.161 A 
ATOM      3  C   UNL     1       4.932  -1.822  14.444  1.00  0.00     0.098 A 
ATOM      4  C   UNL     1       5.593  -2.140  15.633  1.00  0.00     0.142 A 
ATOM      5  C   UNL     1       4.848  -2.391  16.804  1.00  0.00     0.022 A 
ATOM      6  C   UNL     1       3.448  -2.320  16.772  1.00  0.00     0.062 A 
ATOM      7  C   UNL     1       5.538  -2.705  17.979  1.00  0.00     0.019 A 
ATOM      8  C   UNL     1       6.930  -2.763  17.961  1.00  0.00     0.094 A 
ATOM      9  C   UNL     1       7.603  -2.503  16.762  1.00  0.00     0.336 A 
ATOM     10  O   UNL     1       8.861  -2.550  16.724  1.00  0.00    -0.246 OA
ATOM     11  O   UNL     1       6.923  -2.205  15.658  1.00  0.00    -0.423 OA
ENDROOT
BRANCH   1  12
ATOM     12  O   UNL     1       1.382  -1.918  15.492  1.00  0.00    -0.493 OA
ATOM     13  C   UNL     1       0.620  -0.770  15.851  1.00  0.00     0.278 C 
ENDBRANCH   1  12
BRANCH   2  14
ATOM     14  O   UNL     1       2.875  -1.436  13.223  1.00  0.00    -0.504 OA
ATOM     15  H   UNL     1       2.092  -1.984  12.888  1.00  0.00     0.293 HD
ENDBRANCH   2  14
TORSDOF 2
ENDMDL
MODEL 9
REMARK VINA RESULT:    -5.250      2.694      4.823
REMARK INTER + INTRA:          -5.766
REMARK INTER:                  -5.713
REMARK INTRA:                  -0.053
REMARK UNBOUND:                -0.055
REMARK SMILES COc1cc2ccc(=O)oc2cc1O
REMARK SMILES IDX 3 1 13 2 12 3 11 4 5 5 4 6 6 7 7 8 8 9 9 10 10 11 2 12 1 13
REMARK SMILES IDX 14 14
REMARK H PARENT 14 15
REMARK Flexibility Score: inf
ROOT
ATOM      1  C   UNL     1       4.567  -3.441  20.475  1.00  0.00     0.161 A 
ATOM      2  C   UNL     1       5.876  -3.029  20.177  1.00  0.00     0.161 A 
ATOM      3  C   UNL     1       6.211  -2.616  18.881  1.00  0.00     0.098 A 
ATOM      4  C   UNL     1       5.245  -2.610  17.872  1.00  0.00     0.142 A 
ATOM      5  C   UNL     1       3.927  -3.021  18.161  1.00  0.00     0.022 A 
ATOM      6  C   UNL     1       3.591  -3.435  19.458  1.00  0.00     0.062 A 
ATOM      7  C   UNL     1       2.982  -3.005  17.131  1.00  0.00     0.019 A 
ATOM      8  C   UNL     1       3.364  -2.585  15.858  1.00  0.00     0.094 A 
ATOM      9  C   UNL     1       4.689  -2.190  15.644  1.00  0.00     0.336 A 
ATOM     10  O   UNL     1       5.055  -1.808  14.501  1.00  0.00    -0.246 OA
ATOM     11  O   UNL     1       5.569  -2.216  16.642  1.00  0.00    -0.423 OA
ENDROOT
BRANCH   1  12
ATOM     12  O   UNL     1       4.277  -3.846  21.788  1.00  0.00    -0.493 OA
ATOM     13  C   UNL     1       3.130  -3.432  22.524  1.00  0.00     0.278 C 
ENDBRANCH   1  12
BRANCH   2  14
ATOM     14  O   UNL     1       6.843  -3.034  21.182  1.00  0.00    -0.504 OA
ATOM     15  H   UNL     1       7.685  -2.475  21.111  1.00  0.00     0.293 HD
ENDBRANCH   2  14
TORSDOF 2
ENDMDL
