MODEL 1
REMARK VINA RESULT:    -4.206      0.000      0.000
REMARK INTER + INTRA:          -7.341
REMARK INTER:                  -6.665
REMARK INTRA:                  -0.676
REMARK UNBOUND:                -0.676
REMARK SMILES CCCCCCCCCCCC(=O)[O-]
REMARK SMILES IDX 7 1 8 2 9 3 10 4 11 5 12 6 13 7 14 8 6 9 5 10 4 11 3 12 2 13
REMARK SMILES IDX 1 14
REMARK H PARENT
REMARK Flexibility Score: inf
ROOT
ATOM      1  C   UNL     1      44.386  66.434  48.399  1.00  0.00     0.000 C 
ENDROOT
BRANCH   1   2
ATOM      2  C   UNL     1      43.330  67.331  47.735  1.00  0.00     0.000 C 
BRANCH   2   3
ATOM      3  C   UNL     1      42.032  67.436  48.554  1.00  0.00     0.000 C 
BRANCH   3   4
ATOM      4  C   UNL     1      40.794  66.802  47.894  1.00  0.00     0.006 C 
BRANCH   4   5
ATOM      5  C   UNL     1      41.069  66.284  46.477  1.00  0.00     0.053 C 
BRANCH   5   6
ATOM      6  C   UNL     1      41.343  64.815  46.501  1.00  0.00     0.041 C 
ATOM      7  O   UNL     1      40.502  64.021  47.000  1.00  0.00    -0.550 OA
ATOM      8  O   UNL     1      42.506  64.314  45.930  1.00  0.00    -0.550 OA
ENDBRANCH   5   6
ENDBRANCH   4   5
ENDBRANCH   3   4
ENDBRANCH   2   3
ENDBRANCH   1   2
BRANCH   1   9
ATOM      9  C   UNL     1      44.448  66.684  49.910  1.00  0.00     0.000 C 
BRANCH   9  10
ATOM     10  C   UNL     1      45.332  65.642  50.605  1.00  0.00    -0.000 C 
BRANCH  10  11
ATOM     11  C   UNL     1      45.033  65.581  52.108  1.00  0.00    -0.000 C 
BRANCH  11  12
ATOM     12  C   UNL     1      43.781  66.397  52.454  1.00  0.00    -0.000 C 
BRANCH  12  13
ATOM     13  C   UNL     1      43.082  65.833  53.695  1.00  0.00    -0.003 C 
ATOM     14  C   UNL     1      43.593  64.433  54.027  1.00  0.00     0.004 C 
ENDBRANCH  12  13
ENDBRANCH  11  12
ENDBRANCH  10  11
ENDBRANCH   9  10
ENDBRANCH   1   9
TORSDOF 10
ENDMDL
MODEL 2
REMARK VINA RESULT:    -4.115      1.546      3.257
REMARK INTER + INTRA:          -7.197
REMARK INTER:                  -6.756
REMARK INTRA:                  -0.440
REMARK UNBOUND:                -0.676
REMARK SMILES CCCCCCCCCCCC(=O)[O-]
REMARK SMILES IDX 7 1 8 2 9 3 10 4 11 5 12 6 13 7 14 8 6 9 5 10 4 11 3 12 2 13
REMARK SMILES IDX 1 14
REMARK H PARENT
REMARK Flexibility Score: inf
ROOT
ATOM      1  C   UNL     1      44.880  65.296  51.930  1.00  0.00     0.000 C 
ENDROOT
BRANCH   1   2
ATOM      2  C   UNL     1      45.457  65.790  50.595  1.00  0.00     0.000 C 
BRANCH   2   3
ATOM      3  C   UNL     1      44.470  66.660  49.798  1.00  0.00     0.000 C 
BRANCH   3   4
ATOM      4  C   UNL     1      44.383  66.337  48.296  1.00  0.00     0.006 C 
BRANCH   4   5
ATOM      5  C   UNL     1      42.957  66.443  47.742  1.00  0.00     0.053 C 
BRANCH   5   6
ATOM      6  C   UNL     1      42.834  65.674  46.464  1.00  0.00     0.041 C 
ATOM      7  O   UNL     1      43.464  66.044  45.439  1.00  0.00    -0.550 OA
ATOM      8  O   UNL     1      42.061  64.521  46.419  1.00  0.00    -0.550 OA
ENDBRANCH   5   6
ENDBRANCH   4   5
ENDBRANCH   3   4
ENDBRANCH   2   3
ENDBRANCH   1   2
BRANCH   1   9
ATOM      9  C   UNL     1      43.998  66.371  52.578  1.00  0.00     0.000 C 
BRANCH   9  10
ATOM     10  C   UNL     1      43.064  65.756  53.628  1.00  0.00    -0.000 C 
BRANCH  10  11
ATOM     11  C   UNL     1      43.595  64.401  54.110  1.00  0.00    -0.000 C 
BRANCH  11  12
ATOM     12  C   UNL     1      43.484  64.276  55.634  1.00  0.00    -0.000 C 
BRANCH  12  13
ATOM     13  C   UNL     1      44.303  63.089  56.151  1.00  0.00    -0.003 C 
ATOM     14  C   UNL     1      44.819  63.348  57.564  1.00  0.00     0.004 C 
ENDBRANCH  12  13
ENDBRANCH  11  12
ENDBRANCH  10  11
ENDBRANCH   9  10
ENDBRANCH   1   9
TORSDOF 10
ENDMDL
MODEL 3
REMARK VINA RESULT:    -4.042      1.272      1.614
REMARK INTER + INTRA:          -7.082
REMARK INTER:                  -6.481
REMARK INTRA:                  -0.600
REMARK UNBOUND:                -0.676
REMARK SMILES CCCCCCCCCCCC(=O)[O-]
REMARK SMILES IDX 7 1 8 2 9 3 10 4 11 5 12 6 13 7 14 8 6 9 5 10 4 11 3 12 2 13
REMARK SMILES IDX 1 14
REMARK H PARENT
REMARK Flexibility Score: inf
ROOT
ATOM      1  C   UNL     1      43.981  66.637  48.601  1.00  0.00     0.000 C 
ENDROOT
BRANCH   1   2
ATOM      2  C   UNL     1      42.559  67.171  48.377  1.00  0.00     0.000 C 
BRANCH   2   3
ATOM      3  C   UNL     1      42.161  67.216  46.891  1.00  0.00     0.000 C 
BRANCH   3   4
ATOM      4  C   UNL     1      41.134  66.153  46.460  1.00  0.00     0.006 C 
BRANCH   4   5
ATOM      5  C   UNL     1      41.741  64.750  46.334  1.00  0.00     0.053 C 
BRANCH   5   6
ATOM      6  C   UNL     1      42.945  64.780  45.447  1.00  0.00     0.041 C 
ATOM      7  O   UNL     1      44.035  64.288  45.841  1.00  0.00    -0.550 OA
ATOM      8  O   UNL     1      42.851  65.307  44.165  1.00  0.00    -0.550 OA
ENDBRANCH   5   6
ENDBRANCH   4   5
ENDBRANCH   3   4
ENDBRANCH   2   3
ENDBRANCH   1   2
BRANCH   1   9
ATOM      9  C   UNL     1      44.433  66.869  50.048  1.00  0.00     0.000 C 
BRANCH   9  10
ATOM     10  C   UNL     1      45.503  65.850  50.460  1.00  0.00    -0.000 C 
BRANCH  10  11
ATOM     11  C   UNL     1      45.149  65.193  51.799  1.00  0.00    -0.000 C 
BRANCH  11  12
ATOM     12  C   UNL     1      44.036  65.967  52.516  1.00  0.00    -0.000 C 
BRANCH  12  13
ATOM     13  C   UNL     1      43.441  65.141  53.662  1.00  0.00    -0.003 C 
ATOM     14  C   UNL     1      42.065  65.665  54.063  1.00  0.00     0.004 C 
ENDBRANCH  12  13
ENDBRANCH  11  12
ENDBRANCH  10  11
ENDBRANCH   9  10
ENDBRANCH   1   9
TORSDOF 10
ENDMDL
MODEL 4
REMARK VINA RESULT:    -4.008      1.197      2.127
REMARK INTER + INTRA:          -7.027
REMARK INTER:                  -6.526
REMARK INTRA:                  -0.501
REMARK UNBOUND:                -0.676
REMARK SMILES CCCCCCCCCCCC(=O)[O-]
REMARK SMILES IDX 7 1 8 2 9 3 10 4 11 5 12 6 13 7 14 8 6 9 5 10 4 11 3 12 2 13
REMARK SMILES IDX 1 14
REMARK H PARENT
REMARK Flexibility Score: inf
ROOT
ATOM      1  C   UNL     1      45.291  65.891  50.298  1.00  0.00     0.000 C 
ENDROOT
BRANCH   1   2
ATOM      2  C   UNL     1      44.366  67.116  50.259  1.00  0.00     0.000 C 
BRANCH   2   3
ATOM      3  C   UNL     1      43.877  67.455  48.840  1.00  0.00     0.000 C 
BRANCH   3   4
ATOM      4  C   UNL     1      43.810  66.260  47.872  1.00  0.00     0.006 C 
BRANCH   4   5
ATOM      5  C   UNL     1      42.490  66.193  47.094  1.00  0.00     0.053 C 
BRANCH   5   6
ATOM      6  C   UNL     1      42.373  64.887  46.376  1.00  0.00     0.041 C 
ATOM      7  O   UNL     1      41.303  64.226  46.433  1.00  0.00    -0.550 OA
ATOM      8  O   UNL     1      43.429  64.421  45.603  1.00  0.00    -0.550 OA
ENDBRANCH   5   6
ENDBRANCH   4   5
ENDBRANCH   3   4
ENDBRANCH   2   3
ENDBRANCH   1   2
BRANCH   1   9
ATOM      9  C   UNL     1      45.140  65.130  51.621  1.00  0.00     0.000 C 
BRANCH   9  10
ATOM     10  C   UNL     1      44.141  65.832  52.549  1.00  0.00    -0.000 C 
BRANCH  10  11
ATOM     11  C   UNL     1      43.643  64.879  53.642  1.00  0.00    -0.000 C 
BRANCH  11  12
ATOM     12  C   UNL     1      42.425  65.463  54.369  1.00  0.00    -0.000 C 
BRANCH  12  13
ATOM     13  C   UNL     1      42.319  64.911  55.795  1.00  0.00    -0.003 C 
ATOM     14  C   UNL     1      43.572  64.127  56.177  1.00  0.00     0.004 C 
ENDBRANCH  12  13
ENDBRANCH  11  12
ENDBRANCH  10  11
ENDBRANCH   9  10
ENDBRANCH   1   9
TORSDOF 10
ENDMDL
MODEL 5
REMARK VINA RESULT:    -3.962      0.744      1.745
REMARK INTER + INTRA:          -6.954
REMARK INTER:                  -6.242
REMARK INTRA:                  -0.712
REMARK UNBOUND:                -0.676
REMARK SMILES CCCCCCCCCCCC(=O)[O-]
REMARK SMILES IDX 7 1 8 2 9 3 10 4 11 5 12 6 13 7 14 8 6 9 5 10 4 11 3 12 2 13
REMARK SMILES IDX 1 14
REMARK H PARENT
REMARK Flexibility Score: inf
ROOT
ATOM      1  C   UNL     1      42.865  67.870  48.433  1.00  0.00     0.000 C 
ENDROOT
BRANCH   1   2
ATOM      2  C   UNL     1      41.402  67.458  48.657  1.00  0.00     0.000 C 
BRANCH   2   3
ATOM      3  C   UNL     1      40.628  67.255  47.343  1.00  0.00     0.000 C 
BRANCH   3   4
ATOM      4  C   UNL     1      41.493  67.260  46.070  1.00  0.00     0.006 C 
BRANCH   4   5
ATOM      5  C   UNL     1      41.342  65.980  45.238  1.00  0.00     0.053 C 
BRANCH   5   6
ATOM      6  C   UNL     1      41.798  64.790  46.022  1.00  0.00     0.041 C 
ATOM      7  O   UNL     1      43.027  64.551  46.153  1.00  0.00    -0.550 OA
ATOM      8  O   UNL     1      40.867  63.973  46.650  1.00  0.00    -0.550 OA
ENDBRANCH   5   6
ENDBRANCH   4   5
ENDBRANCH   3   4
ENDBRANCH   2   3
ENDBRANCH   1   2
BRANCH   1   9
ATOM      9  C   UNL     1      43.820  66.728  48.803  1.00  0.00     0.000 C 
BRANCH   9  10
ATOM     10  C   UNL     1      44.451  66.963  50.181  1.00  0.00    -0.000 C 
BRANCH  10  11
ATOM     11  C   UNL     1      45.446  65.848  50.526  1.00  0.00    -0.000 C 
BRANCH  11  12
ATOM     12  C   UNL     1      45.073  65.168  51.850  1.00  0.00    -0.000 C 
BRANCH  12  13
ATOM     13  C   UNL     1      44.002  65.970  52.598  1.00  0.00    -0.003 C 
ATOM     14  C   UNL     1      43.361  65.136  53.703  1.00  0.00     0.004 C 
ENDBRANCH  12  13
ENDBRANCH  11  12
ENDBRANCH  10  11
ENDBRANCH   9  10
ENDBRANCH   1   9
TORSDOF 10
ENDMDL
MODEL 6
REMARK VINA RESULT:    -3.923      9.320     11.485
REMARK INTER + INTRA:          -6.893
REMARK INTER:                  -6.316
REMARK INTRA:                  -0.577
REMARK UNBOUND:                -0.676
REMARK SMILES CCCCCCCCCCCC(=O)[O-]
REMARK SMILES IDX 7 1 8 2 9 3 10 4 11 5 12 6 13 7 14 8 6 9 5 10 4 11 3 12 2 13
REMARK SMILES IDX 1 14
REMARK H PARENT
REMARK Flexibility Score: inf
ROOT
ATOM      1  C   UNL     1      35.522  66.044  55.047  1.00  0.00     0.000 C 
ENDROOT
BRANCH   1   2
ATOM      2  C   UNL     1      36.623  64.983  55.190  1.00  0.00     0.000 C 
BRANCH   2   3
ATOM      3  C   UNL     1      36.094  63.545  55.046  1.00  0.00     0.000 C 
BRANCH   3   4
ATOM      4  C   UNL     1      36.871  62.483  55.844  1.00  0.00     0.006 C 
BRANCH   4   5
ATOM      5  C   UNL     1      36.129  61.144  55.941  1.00  0.00     0.053 C 
BRANCH   5   6
ATOM      6  C   UNL     1      37.102  60.012  56.032  1.00  0.00     0.041 C 
ATOM      7  O   UNL     1      37.428  59.372  54.998  1.00  0.00    -0.550 OA
ATOM      8  O   UNL     1      37.687  59.695  57.251  1.00  0.00    -0.550 OA
ENDBRANCH   5   6
ENDBRANCH   4   5
ENDBRANCH   3   4
ENDBRANCH   2   3
ENDBRANCH   1   2
BRANCH   1   9
ATOM      9  C   UNL     1      34.525  65.961  56.210  1.00  0.00     0.000 C 
BRANCH   9  10
ATOM     10  C   UNL     1      33.303  66.850  55.950  1.00  0.00    -0.000 C 
BRANCH  10  11
ATOM     11  C   UNL     1      32.429  66.270  54.832  1.00  0.00    -0.000 C 
BRANCH  11  12
ATOM     12  C   UNL     1      31.518  67.347  54.230  1.00  0.00    -0.000 C 
BRANCH  12  13
ATOM     13  C   UNL     1      31.709  67.443  52.712  1.00  0.00    -0.003 C 
ATOM     14  C   UNL     1      33.190  67.466  52.344  1.00  0.00     0.004 C 
ENDBRANCH  12  13
ENDBRANCH  11  12
ENDBRANCH  10  11
ENDBRANCH   9  10
ENDBRANCH   1   9
TORSDOF 10
ENDMDL
MODEL 7
REMARK VINA RESULT:    -3.905      9.392     11.295
REMARK INTER + INTRA:          -6.864
REMARK INTER:                  -6.312
REMARK INTRA:                  -0.552
REMARK UNBOUND:                -0.676
REMARK SMILES CCCCCCCCCCCC(=O)[O-]
REMARK SMILES IDX 7 1 8 2 9 3 10 4 11 5 12 6 13 7 14 8 6 9 5 10 4 11 3 12 2 13
REMARK SMILES IDX 1 14
REMARK H PARENT
REMARK Flexibility Score: inf
ROOT
ATOM      1  C   UNL     1      36.715  64.787  55.055  1.00  0.00     0.000 C 
ENDROOT
BRANCH   1   2
ATOM      2  C   UNL     1      35.981  63.478  55.381  1.00  0.00     0.000 C 
BRANCH   2   3
ATOM      3  C   UNL     1      36.937  62.321  55.718  1.00  0.00     0.000 C 
BRANCH   3   4
ATOM      4  C   UNL     1      36.273  60.935  55.813  1.00  0.00     0.006 C 
BRANCH   4   5
ATOM      5  C   UNL     1      37.233  59.787  55.477  1.00  0.00     0.053 C 
BRANCH   5   6
ATOM      6  C   UNL     1      37.160  58.722  56.524  1.00  0.00     0.041 C 
ATOM      7  O   UNL     1      36.385  58.851  57.507  1.00  0.00    -0.550 OA
ATOM      8  O   UNL     1      37.914  57.562  56.389  1.00  0.00    -0.550 OA
ENDBRANCH   5   6
ENDBRANCH   4   5
ENDBRANCH   3   4
ENDBRANCH   2   3
ENDBRANCH   1   2
BRANCH   1   9
ATOM      9  C   UNL     1      35.738  65.968  55.004  1.00  0.00     0.000 C 
BRANCH   9  10
ATOM     10  C   UNL     1      34.357  65.563  55.534  1.00  0.00    -0.000 C 
BRANCH  10  11
ATOM     11  C   UNL     1      33.271  66.518  55.025  1.00  0.00    -0.000 C 
BRANCH  11  12
ATOM     12  C   UNL     1      33.857  67.552  54.056  1.00  0.00    -0.000 C 
BRANCH  12  13
ATOM     13  C   UNL     1      33.058  67.596  52.748  1.00  0.00    -0.003 C 
ATOM     14  C   UNL     1      33.932  67.217  51.555  1.00  0.00     0.004 C 
ENDBRANCH  12  13
ENDBRANCH  11  12
ENDBRANCH  10  11
ENDBRANCH   9  10
ENDBRANCH   1   9
TORSDOF 10
ENDMDL
MODEL 8
REMARK VINA RESULT:    -3.877      3.975      6.783
REMARK INTER + INTRA:          -6.820
REMARK INTER:                  -6.235
REMARK INTRA:                  -0.585
REMARK UNBOUND:                -0.676
REMARK SMILES CCCCCCCCCCCC(=O)[O-]
REMARK SMILES IDX 7 1 8 2 9 3 10 4 11 5 12 6 13 7 14 8 6 9 5 10 4 11 3 12 2 13
REMARK SMILES IDX 1 14
REMARK H PARENT
REMARK Flexibility Score: inf
ROOT
ATOM      1  C   UNL     1      45.200  66.118  50.557  1.00  0.00     0.000 C 
ENDROOT
BRANCH   1   2
ATOM      2  C   UNL     1      44.793  65.448  51.877  1.00  0.00     0.000 C 
BRANCH   2   3
ATOM      3  C   UNL     1      43.880  66.333  52.744  1.00  0.00     0.000 C 
BRANCH   3   4
ATOM      4  C   UNL     1      42.932  65.566  53.684  1.00  0.00     0.006 C 
BRANCH   4   5
ATOM      5  C   UNL     1      43.578  64.318  54.299  1.00  0.00     0.053 C 
BRANCH   5   6
ATOM      6  C   UNL     1      43.484  64.363  55.790  1.00  0.00     0.041 C 
ATOM      7  O   UNL     1      42.974  65.360  56.364  1.00  0.00    -0.550 OA
ATOM      8  O   UNL     1      43.917  63.281  56.547  1.00  0.00    -0.550 OA
ENDBRANCH   5   6
ENDBRANCH   4   5
ENDBRANCH   3   4
ENDBRANCH   2   3
ENDBRANCH   1   2
BRANCH   1   9
ATOM      9  C   UNL     1      44.312  67.332  50.260  1.00  0.00     0.000 C 
BRANCH   9  10
ATOM     10  C   UNL     1      43.579  67.165  48.924  1.00  0.00    -0.000 C 
BRANCH  10  11
ATOM     11  C   UNL     1      44.358  66.239  47.982  1.00  0.00    -0.000 C 
BRANCH  11  12
ATOM     12  C   UNL     1      43.792  66.300  46.557  1.00  0.00    -0.000 C 
BRANCH  12  13
ATOM     13  C   UNL     1      43.247  64.935  46.123  1.00  0.00    -0.003 C 
ATOM     14  C   UNL     1      41.765  64.800  46.464  1.00  0.00     0.004 C 
ENDBRANCH  12  13
ENDBRANCH  11  12
ENDBRANCH  10  11
ENDBRANCH   9  10
ENDBRANCH   1   9
TORSDOF 10
ENDMDL
MODEL 9
REMARK VINA RESULT:    -3.833      3.434      6.341
REMARK INTER + INTRA:          -6.750
REMARK INTER:                  -6.105
REMARK INTRA:                  -0.645
REMARK UNBOUND:                -0.676
REMARK SMILES CCCCCCCCCCCC(=O)[O-]
REMARK SMILES IDX 7 1 8 2 9 3 10 4 11 5 12 6 13 7 14 8 6 9 5 10 4 11 3 12 2 13
REMARK SMILES IDX 1 14
REMARK H PARENT
REMARK Flexibility Score: inf
ROOT
ATOM      1  C   UNL     1      44.645  66.307  49.183  1.00  0.00     0.000 C 
ENDROOT
BRANCH   1   2
ATOM      2  C   UNL     1      45.440  65.881  50.426  1.00  0.00     0.000 C 
BRANCH   2   3
ATOM      3  C   UNL     1      44.797  66.353  51.742  1.00  0.00     0.000 C 
BRANCH   3   4
ATOM      4  C   UNL     1      44.324  65.225  52.677  1.00  0.00     0.006 C 
BRANCH   4   5
ATOM      5  C   UNL     1      43.166  65.650  53.589  1.00  0.00     0.053 C 
BRANCH   5   6
ATOM      6  C   UNL     1      43.106  64.773  54.799  1.00  0.00     0.041 C 
ATOM      7  O   UNL     1      43.908  63.812  54.926  1.00  0.00    -0.550 OA
ATOM      8  O   UNL     1      42.194  65.046  55.810  1.00  0.00    -0.550 OA
ENDBRANCH   5   6
ENDBRANCH   4   5
ENDBRANCH   3   4
ENDBRANCH   2   3
ENDBRANCH   1   2
BRANCH   1   9
ATOM      9  C   UNL     1      43.542  67.306  49.553  1.00  0.00     0.000 C 
BRANCH   9  10
ATOM     10  C   UNL     1      42.647  67.609  48.345  1.00  0.00    -0.000 C 
BRANCH  10  11
ATOM     11  C   UNL     1      41.164  67.492  48.717  1.00  0.00    -0.000 C 
BRANCH  11  12
ATOM     12  C   UNL     1      40.426  66.555  47.752  1.00  0.00    -0.000 C 
BRANCH  12  13
ATOM     13  C   UNL     1      41.416  65.755  46.899  1.00  0.00    -0.003 C 
ATOM     14  C   UNL     1      40.913  64.334  46.657  1.00  0.00     0.004 C 
ENDBRANCH  12  13
ENDBRANCH  11  12
ENDBRANCH  10  11
ENDBRANCH   9  10
ENDBRANCH   1   9
TORSDOF 10
ENDMDL
