MODEL 1
REMARK VINA RESULT:    -5.218      0.000      0.000
REMARK INTER + INTRA:          -6.430
REMARK INTER:                  -6.133
REMARK INTRA:                  -0.297
REMARK UNBOUND:                -0.297
REMARK SMILES O=c1c(O)c(-c2ccc(O)cc2)oc2cc(O)cc(O)c12
REMARK SMILES IDX 5 1 3 2 2 3 1 4 21 5 19 6 18 7 16 8 15 9 14 10 13 11 6 12
REMARK SMILES IDX 7 13 8 14 9 15 12 16 11 17 10 18 4 20 20 22 17 24
REMARK H PARENT 10 19 4 21 20 23 17 25
REMARK Flexibility Score: inf
ROOT
ATOM      1  C   UNL     1      69.791   9.419 357.332  1.00  0.00     0.180 A 
ATOM      2  C   UNL     1      68.798   9.404 356.337  1.00  0.00     0.208 A 
ATOM      3  C   UNL     1      68.846   8.415 355.342  1.00  0.00     0.238 A 
ATOM      4  O   UNL     1      67.986   8.440 354.423  1.00  0.00    -0.285 OA
ATOM      5  C   UNL     1      69.876   7.444 355.362  1.00  0.00     0.111 A 
ATOM      6  C   UNL     1      69.999   6.374 354.427  1.00  0.00     0.134 A 
ATOM      7  C   UNL     1      71.131   5.550 354.465  1.00  0.00     0.093 A 
ATOM      8  C   UNL     1      72.111   5.717 355.443  1.00  0.00     0.123 A 
ATOM      9  C   UNL     1      71.972   6.724 356.399  1.00  0.00     0.094 A 
ATOM     10  C   UNL     1      70.871   7.584 356.365  1.00  0.00     0.146 A 
ATOM     11  O   UNL     1      70.781   8.536 357.287  1.00  0.00    -0.452 OA
ENDROOT
BRANCH   1  12
ATOM     12  C   UNL     1      69.793  10.414 358.428  1.00  0.00     0.021 A 
ATOM     13  C   UNL     1      70.586  11.569 358.313  1.00  0.00     0.016 A 
ATOM     14  C   UNL     1      70.620  12.511 359.346  1.00  0.00     0.047 A 
ATOM     15  C   UNL     1      69.875  12.303 360.514  1.00  0.00     0.115 A 
ATOM     16  C   UNL     1      69.063  10.202 359.613  1.00  0.00     0.016 A 
ATOM     17  C   UNL     1      69.101  11.146 360.645  1.00  0.00     0.047 A 
BRANCH  15  18
ATOM     18  O   UNL     1      69.900  13.234 361.550  1.00  0.00    -0.508 OA
ATOM     19  H   UNL     1      69.047  13.632 361.925  1.00  0.00     0.293 HD
ENDBRANCH  15  18
ENDBRANCH   1  12
BRANCH   2  20
ATOM     20  O   UNL     1      67.803  10.385 356.323  1.00  0.00    -0.502 OA
ATOM     21  H   UNL     1      66.875  10.215 355.953  1.00  0.00     0.293 HD
ENDBRANCH   2  20
BRANCH   6  22
ATOM     22  O   UNL     1      69.034   6.061 353.466  1.00  0.00    -0.507 OA
ATOM     23  H   UNL     1      69.055   6.374 352.507  1.00  0.00     0.293 HD
ENDBRANCH   6  22
BRANCH   8  24
ATOM     24  O   UNL     1      73.217   4.869 355.460  1.00  0.00    -0.508 OA
ATOM     25  H   UNL     1      73.972   4.998 356.123  1.00  0.00     0.293 HD
ENDBRANCH   8  24
TORSDOF 5
ENDMDL
MODEL 2
REMARK VINA RESULT:    -4.917      2.721      6.363
REMARK INTER + INTRA:          -6.076
REMARK INTER:                  -5.784
REMARK INTRA:                  -0.292
REMARK UNBOUND:                -0.297
REMARK SMILES O=c1c(O)c(-c2ccc(O)cc2)oc2cc(O)cc(O)c12
REMARK SMILES IDX 5 1 3 2 2 3 1 4 21 5 19 6 18 7 16 8 15 9 14 10 13 11 6 12
REMARK SMILES IDX 7 13 8 14 9 15 12 16 11 17 10 18 4 20 20 22 17 24
REMARK H PARENT 10 19 4 21 20 23 17 25
REMARK Flexibility Score: inf
ROOT
ATOM      1  C   UNL     1      68.544   9.232 355.683  1.00  0.00     0.180 A 
ATOM      2  C   UNL     1      68.386  10.473 355.039  1.00  0.00     0.208 A 
ATOM      3  C   UNL     1      69.093  11.585 355.521  1.00  0.00     0.238 A 
ATOM      4  O   UNL     1      68.905  12.704 354.975  1.00  0.00    -0.285 OA
ATOM      5  C   UNL     1      69.963  11.442 356.629  1.00  0.00     0.111 A 
ATOM      6  C   UNL     1      70.758  12.493 357.175  1.00  0.00     0.134 A 
ATOM      7  C   UNL     1      71.483  12.269 358.353  1.00  0.00     0.093 A 
ATOM      8  C   UNL     1      71.492  11.017 358.966  1.00  0.00     0.123 A 
ATOM      9  C   UNL     1      70.764   9.966 358.407  1.00  0.00     0.094 A 
ATOM     10  C   UNL     1      70.003  10.168 357.253  1.00  0.00     0.146 A 
ATOM     11  O   UNL     1      69.316   9.145 356.759  1.00  0.00    -0.452 OA
ENDROOT
BRANCH   1  12
ATOM     12  C   UNL     1      67.852   8.010 355.218  1.00  0.00     0.021 A 
ATOM     13  C   UNL     1      66.582   7.695 355.732  1.00  0.00     0.016 A 
ATOM     14  C   UNL     1      65.920   6.534 355.324  1.00  0.00     0.047 A 
ATOM     15  C   UNL     1      66.525   5.663 354.409  1.00  0.00     0.115 A 
ATOM     16  C   UNL     1      68.462   7.120 354.314  1.00  0.00     0.016 A 
ATOM     17  C   UNL     1      67.797   5.958 353.909  1.00  0.00     0.047 A 
BRANCH  15  18
ATOM     18  O   UNL     1      65.875   4.503 353.994  1.00  0.00    -0.508 OA
ATOM     19  H   UNL     1      65.476   3.853 354.661  1.00  0.00     0.293 HD
ENDBRANCH  15  18
ENDBRANCH   1  12
BRANCH   2  20
ATOM     20  O   UNL     1      67.505  10.597 353.961  1.00  0.00    -0.502 OA
ATOM     21  H   UNL     1      67.783  11.002 353.075  1.00  0.00     0.293 HD
ENDBRANCH   2  20
BRANCH   6  22
ATOM     22  O   UNL     1      70.894  13.755 356.591  1.00  0.00    -0.507 OA
ATOM     23  H   UNL     1      71.697  14.060 356.061  1.00  0.00     0.293 HD
ENDBRANCH   6  22
BRANCH   8  24
ATOM     24  O   UNL     1      72.236  10.827 360.129  1.00  0.00    -0.508 OA
ATOM     25  H   UNL     1      73.249  10.794 360.110  1.00  0.00     0.293 HD
ENDBRANCH   8  24
TORSDOF 5
ENDMDL
MODEL 3
REMARK VINA RESULT:    -4.893      2.142      7.155
REMARK INTER + INTRA:          -6.048
REMARK INTER:                  -6.056
REMARK INTRA:                   0.008
REMARK UNBOUND:                -0.297
REMARK SMILES O=c1c(O)c(-c2ccc(O)cc2)oc2cc(O)cc(O)c12
REMARK SMILES IDX 5 1 3 2 2 3 1 4 21 5 19 6 18 7 16 8 15 9 14 10 13 11 6 12
REMARK SMILES IDX 7 13 8 14 9 15 12 16 11 17 10 18 4 20 20 22 17 24
REMARK H PARENT 10 19 4 21 20 23 17 25
REMARK Flexibility Score: inf
ROOT
ATOM      1  C   UNL     1      69.592   8.150 355.321  1.00  0.00     0.180 A 
ATOM      2  C   UNL     1      70.237   8.271 356.564  1.00  0.00     0.208 A 
ATOM      3  C   UNL     1      70.179   9.496 357.246  1.00  0.00     0.238 A 
ATOM      4  O   UNL     1      70.805   9.614 358.333  1.00  0.00    -0.285 OA
ATOM      5  C   UNL     1      69.464  10.582 356.686  1.00  0.00     0.111 A 
ATOM      6  C   UNL     1      69.306  11.856 357.308  1.00  0.00     0.134 A 
ATOM      7  C   UNL     1      68.688  12.896 356.603  1.00  0.00     0.093 A 
ATOM      8  C   UNL     1      68.166  12.691 355.327  1.00  0.00     0.123 A 
ATOM      9  C   UNL     1      68.263  11.433 354.732  1.00  0.00     0.094 A 
ATOM     10  C   UNL     1      68.905  10.385 355.396  1.00  0.00     0.146 A 
ATOM     11  O   UNL     1      68.985   9.205 354.791  1.00  0.00    -0.452 OA
ENDROOT
BRANCH   1  12
ATOM     12  C   UNL     1      69.588   6.884 354.555  1.00  0.00     0.021 A 
ATOM     13  C   UNL     1      70.809   6.274 354.219  1.00  0.00     0.016 A 
ATOM     14  C   UNL     1      70.829   5.090 353.477  1.00  0.00     0.047 A 
ATOM     15  C   UNL     1      69.630   4.508 353.046  1.00  0.00     0.115 A 
ATOM     16  C   UNL     1      68.388   6.305 354.101  1.00  0.00     0.016 A 
ATOM     17  C   UNL     1      68.412   5.121 353.358  1.00  0.00     0.047 A 
BRANCH  15  18
ATOM     18  O   UNL     1      69.637   3.328 352.306  1.00  0.00    -0.508 OA
ATOM     19  H   UNL     1      68.861   2.678 352.340  1.00  0.00     0.293 HD
ENDBRANCH  15  18
ENDBRANCH   1  12
BRANCH   2  20
ATOM     20  O   UNL     1      70.957   7.194 357.089  1.00  0.00    -0.502 OA
ATOM     21  H   UNL     1      70.544   6.280 357.231  1.00  0.00     0.293 HD
ENDBRANCH   2  20
BRANCH   6  22
ATOM     22  O   UNL     1      69.709  12.142 358.615  1.00  0.00    -0.507 OA
ATOM     23  H   UNL     1      69.998  13.053 358.941  1.00  0.00     0.293 HD
ENDBRANCH   6  22
BRANCH   8  24
ATOM     24  O   UNL     1      67.545  13.746 354.660  1.00  0.00    -0.508 OA
ATOM     25  H   UNL     1      66.546  13.749 354.488  1.00  0.00     0.293 HD
ENDBRANCH   8  24
TORSDOF 5
ENDMDL
MODEL 4
REMARK VINA RESULT:    -4.864      6.519      9.008
REMARK INTER + INTRA:          -6.014
REMARK INTER:                  -5.749
REMARK INTRA:                  -0.264
REMARK UNBOUND:                -0.297
REMARK SMILES O=c1c(O)c(-c2ccc(O)cc2)oc2cc(O)cc(O)c12
REMARK SMILES IDX 5 1 3 2 2 3 1 4 21 5 19 6 18 7 16 8 15 9 14 10 13 11 6 12
REMARK SMILES IDX 7 13 8 14 9 15 12 16 11 17 10 18 4 20 20 22 17 24
REMARK H PARENT 10 19 4 21 20 23 17 25
REMARK Flexibility Score: inf
ROOT
ATOM      1  C   UNL     1      75.760  13.406 360.107  1.00  0.00     0.180 A 
ATOM      2  C   UNL     1      74.693  13.617 359.216  1.00  0.00     0.208 A 
ATOM      3  C   UNL     1      73.410  13.173 359.573  1.00  0.00     0.238 A 
ATOM      4  O   UNL     1      72.469  13.316 358.748  1.00  0.00    -0.285 OA
ATOM      5  C   UNL     1      73.205  12.538 360.822  1.00  0.00     0.111 A 
ATOM      6  C   UNL     1      71.941  12.084 361.302  1.00  0.00     0.134 A 
ATOM      7  C   UNL     1      71.878  11.353 362.496  1.00  0.00     0.093 A 
ATOM      8  C   UNL     1      73.022  11.116 363.256  1.00  0.00     0.123 A 
ATOM      9  C   UNL     1      74.256  11.606 362.825  1.00  0.00     0.094 A 
ATOM     10  C   UNL     1      74.355  12.308 361.621  1.00  0.00     0.146 A 
ATOM     11  O   UNL     1      75.549  12.749 361.241  1.00  0.00    -0.452 OA
ENDROOT
BRANCH   1  12
ATOM     12  C   UNL     1      77.135  13.867 359.812  1.00  0.00     0.021 A 
ATOM     13  C   UNL     1      78.110  12.933 359.423  1.00  0.00     0.016 A 
ATOM     14  C   UNL     1      79.421  13.344 359.162  1.00  0.00     0.047 A 
ATOM     15  C   UNL     1      79.777  14.692 359.302  1.00  0.00     0.115 A 
ATOM     16  C   UNL     1      77.506  15.216 359.970  1.00  0.00     0.016 A 
ATOM     17  C   UNL     1      78.818  15.624 359.709  1.00  0.00     0.047 A 
BRANCH  15  18
ATOM     18  O   UNL     1      81.080  15.113 359.044  1.00  0.00    -0.508 OA
ATOM     19  H   UNL     1      81.478  15.918 359.512  1.00  0.00     0.293 HD
ENDBRANCH  15  18
ENDBRANCH   1  12
BRANCH   2  20
ATOM     20  O   UNL     1      74.920  14.226 357.979  1.00  0.00    -0.502 OA
ATOM     21  H   UNL     1      74.554  15.141 357.747  1.00  0.00     0.293 HD
ENDBRANCH   2  20
BRANCH   6  22
ATOM     22  O   UNL     1      70.724  12.346 360.668  1.00  0.00    -0.507 OA
ATOM     23  H   UNL     1      70.478  12.027 359.742  1.00  0.00     0.293 HD
ENDBRANCH   6  22
BRANCH   8  24
ATOM     24  O   UNL     1      72.920  10.397 364.446  1.00  0.00    -0.508 OA
ATOM     25  H   UNL     1      73.410   9.520 364.578  1.00  0.00     0.293 HD
ENDBRANCH   8  24
TORSDOF 5
ENDMDL
MODEL 5
REMARK VINA RESULT:    -4.846      6.419      8.753
REMARK INTER + INTRA:          -5.993
REMARK INTER:                  -5.894
REMARK INTRA:                  -0.098
REMARK UNBOUND:                -0.297
REMARK SMILES O=c1c(O)c(-c2ccc(O)cc2)oc2cc(O)cc(O)c12
REMARK SMILES IDX 5 1 3 2 2 3 1 4 21 5 19 6 18 7 16 8 15 9 14 10 13 11 6 12
REMARK SMILES IDX 7 13 8 14 9 15 12 16 11 17 10 18 4 20 20 22 17 24
REMARK H PARENT 10 19 4 21 20 23 17 25
REMARK Flexibility Score: inf
ROOT
ATOM      1  C   UNL     1      73.963  11.835 361.461  1.00  0.00     0.180 A 
ATOM      2  C   UNL     1      72.588  11.605 361.278  1.00  0.00     0.208 A 
ATOM      3  C   UNL     1      71.831  11.113 362.352  1.00  0.00     0.238 A 
ATOM      4  O   UNL     1      70.611  10.857 362.166  1.00  0.00    -0.285 OA
ATOM      5  C   UNL     1      72.452  10.872 363.601  1.00  0.00     0.111 A 
ATOM      6  C   UNL     1      71.773  10.411 364.768  1.00  0.00     0.134 A 
ATOM      7  C   UNL     1      72.512  10.083 365.912  1.00  0.00     0.093 A 
ATOM      8  C   UNL     1      73.894  10.260 365.952  1.00  0.00     0.123 A 
ATOM      9  C   UNL     1      74.561  10.766 364.835  1.00  0.00     0.094 A 
ATOM     10  C   UNL     1      73.856  11.069 363.668  1.00  0.00     0.146 A 
ATOM     11  O   UNL     1      74.529  11.538 362.624  1.00  0.00    -0.452 OA
ENDROOT
BRANCH   1  12
ATOM     12  C   UNL     1      74.821  12.377 360.383  1.00  0.00     0.021 A 
ATOM     13  C   UNL     1      75.965  11.664 359.986  1.00  0.00     0.016 A 
ATOM     14  C   UNL     1      76.802  12.168 358.986  1.00  0.00     0.047 A 
ATOM     15  C   UNL     1      76.515  13.399 358.382  1.00  0.00     0.115 A 
ATOM     16  C   UNL     1      74.551  13.622 359.786  1.00  0.00     0.016 A 
ATOM     17  C   UNL     1      75.391  14.124 358.787  1.00  0.00     0.047 A 
BRANCH  15  18
ATOM     18  O   UNL     1      77.342  13.911 357.384  1.00  0.00    -0.508 OA
ATOM     19  H   UNL     1      76.980  14.515 356.655  1.00  0.00     0.293 HD
ENDBRANCH  15  18
ENDBRANCH   1  12
BRANCH   2  20
ATOM     20  O   UNL     1      71.998  11.828 360.030  1.00  0.00    -0.502 OA
ATOM     21  H   UNL     1      71.032  12.116 359.928  1.00  0.00     0.293 HD
ENDBRANCH   2  20
BRANCH   6  22
ATOM     22  O   UNL     1      70.385  10.286 364.867  1.00  0.00    -0.507 OA
ATOM     23  H   UNL     1      69.865  10.313 365.731  1.00  0.00     0.293 HD
ENDBRANCH   6  22
BRANCH   8  24
ATOM     24  O   UNL     1      74.596   9.937 367.112  1.00  0.00    -0.508 OA
ATOM     25  H   UNL     1      74.833   8.978 367.338  1.00  0.00     0.293 HD
ENDBRANCH   8  24
TORSDOF 5
ENDMDL
MODEL 6
REMARK VINA RESULT:    -4.829      2.402      6.415
REMARK INTER + INTRA:          -5.973
REMARK INTER:                  -5.737
REMARK INTRA:                  -0.235
REMARK UNBOUND:                -0.297
REMARK SMILES O=c1c(O)c(-c2ccc(O)cc2)oc2cc(O)cc(O)c12
REMARK SMILES IDX 5 1 3 2 2 3 1 4 21 5 19 6 18 7 16 8 15 9 14 10 13 11 6 12
REMARK SMILES IDX 7 13 8 14 9 15 12 16 11 17 10 18 4 20 20 22 17 24
REMARK H PARENT 10 19 4 21 20 23 17 25
REMARK Flexibility Score: inf
ROOT
ATOM      1  C   UNL     1      69.696  10.027 356.619  1.00  0.00     0.180 A 
ATOM      2  C   UNL     1      69.698  11.317 356.059  1.00  0.00     0.208 A 
ATOM      3  C   UNL     1      70.363  12.352 356.734  1.00  0.00     0.238 A 
ATOM      4  O   UNL     1      70.314  13.516 356.255  1.00  0.00    -0.285 OA
ATOM      5  C   UNL     1      71.032  12.083 357.953  1.00  0.00     0.111 A 
ATOM      6  C   UNL     1      71.770  13.048 358.701  1.00  0.00     0.134 A 
ATOM      7  C   UNL     1      72.281  12.702 359.959  1.00  0.00     0.093 A 
ATOM      8  C   UNL     1      72.136  11.411 360.464  1.00  0.00     0.123 A 
ATOM      9  C   UNL     1      71.466  10.443 359.715  1.00  0.00     0.094 A 
ATOM     10  C   UNL     1      70.915  10.768 358.473  1.00  0.00     0.146 A 
ATOM     11  O   UNL     1      70.276   9.821 357.795  1.00  0.00    -0.452 OA
ENDROOT
BRANCH   1  12
ATOM     12  C   UNL     1      69.039   8.880 355.953  1.00  0.00     0.021 A 
ATOM     13  C   UNL     1      69.819   7.952 355.243  1.00  0.00     0.016 A 
ATOM     14  C   UNL     1      69.216   6.874 354.588  1.00  0.00     0.047 A 
ATOM     15  C   UNL     1      67.824   6.719 354.621  1.00  0.00     0.115 A 
ATOM     16  C   UNL     1      67.639   8.730 355.965  1.00  0.00     0.016 A 
ATOM     17  C   UNL     1      67.039   7.651 355.308  1.00  0.00     0.047 A 
BRANCH  15  18
ATOM     18  O   UNL     1      67.212   5.649 353.972  1.00  0.00    -0.508 OA
ATOM     19  H   UNL     1      67.622   4.722 353.979  1.00  0.00     0.293 HD
ENDBRANCH  15  18
ENDBRANCH   1  12
BRANCH   2  20
ATOM     20  O   UNL     1      69.013  11.566 354.866  1.00  0.00    -0.502 OA
ATOM     21  H   UNL     1      68.610  10.825 354.305  1.00  0.00     0.293 HD
ENDBRANCH   2  20
BRANCH   6  22
ATOM     22  O   UNL     1      72.053  14.340 358.248  1.00  0.00    -0.507 OA
ATOM     23  H   UNL     1      72.933  14.815 358.382  1.00  0.00     0.293 HD
ENDBRANCH   6  22
BRANCH   8  24
ATOM     24  O   UNL     1      72.671  11.098 361.713  1.00  0.00    -0.508 OA
ATOM     25  H   UNL     1      72.076  10.869 362.501  1.00  0.00     0.293 HD
ENDBRANCH   8  24
TORSDOF 5
ENDMDL
MODEL 7
REMARK VINA RESULT:    -4.635      7.124      8.419
REMARK INTER + INTRA:          -5.744
REMARK INTER:                  -5.457
REMARK INTRA:                  -0.287
REMARK UNBOUND:                -0.297
REMARK SMILES O=c1c(O)c(-c2ccc(O)cc2)oc2cc(O)cc(O)c12
REMARK SMILES IDX 5 1 3 2 2 3 1 4 21 5 19 6 18 7 16 8 15 9 14 10 13 11 6 12
REMARK SMILES IDX 7 13 8 14 9 15 12 16 11 17 10 18 4 20 20 22 17 24
REMARK H PARENT 10 19 4 21 20 23 17 25
REMARK Flexibility Score: inf
ROOT
ATOM      1  C   UNL     1      70.479   9.537 365.206  1.00  0.00     0.180 A 
ATOM      2  C   UNL     1      69.624   9.931 364.162  1.00  0.00     0.208 A 
ATOM      3  C   UNL     1      68.852   8.957 363.510  1.00  0.00     0.238 A 
ATOM      4  O   UNL     1      68.130   9.308 362.539  1.00  0.00    -0.285 OA
ATOM      5  C   UNL     1      68.930   7.604 363.919  1.00  0.00     0.111 A 
ATOM      6  C   UNL     1      68.164   6.541 363.355  1.00  0.00     0.134 A 
ATOM      7  C   UNL     1      68.419   5.222 363.750  1.00  0.00     0.093 A 
ATOM      8  C   UNL     1      69.365   4.934 364.732  1.00  0.00     0.123 A 
ATOM      9  C   UNL     1      70.079   5.971 365.333  1.00  0.00     0.094 A 
ATOM     10  C   UNL     1      69.872   7.294 364.935  1.00  0.00     0.146 A 
ATOM     11  O   UNL     1      70.579   8.252 365.524  1.00  0.00    -0.452 OA
ENDROOT
BRANCH   1  12
ATOM     12  C   UNL     1      71.305  10.509 365.958  1.00  0.00     0.021 A 
ATOM     13  C   UNL     1      72.668  10.647 365.645  1.00  0.00     0.016 A 
ATOM     14  C   UNL     1      73.471  11.542 366.357  1.00  0.00     0.047 A 
ATOM     15  C   UNL     1      72.926  12.299 367.402  1.00  0.00     0.115 A 
ATOM     16  C   UNL     1      70.769  11.258 367.022  1.00  0.00     0.016 A 
ATOM     17  C   UNL     1      71.576  12.152 367.733  1.00  0.00     0.047 A 
BRANCH  15  18
ATOM     18  O   UNL     1      73.717  13.195 368.118  1.00  0.00    -0.508 OA
ATOM     19  H   UNL     1      74.179  12.923 368.978  1.00  0.00     0.293 HD
ENDBRANCH  15  18
ENDBRANCH   1  12
BRANCH   2  20
ATOM     20  O   UNL     1      69.578  11.268 363.758  1.00  0.00    -0.502 OA
ATOM     21  H   UNL     1      70.308  11.932 363.990  1.00  0.00     0.293 HD
ENDBRANCH   2  20
BRANCH   6  22
ATOM     22  O   UNL     1      67.130   6.727 362.433  1.00  0.00    -0.507 OA
ATOM     23  H   UNL     1      67.262   6.989 361.467  1.00  0.00     0.293 HD
ENDBRANCH   6  22
BRANCH   8  24
ATOM     24  O   UNL     1      69.582   3.610 365.111  1.00  0.00    -0.508 OA
ATOM     25  H   UNL     1      70.366   3.348 365.697  1.00  0.00     0.293 HD
ENDBRANCH   8  24
TORSDOF 5
ENDMDL
MODEL 8
REMARK VINA RESULT:    -4.613      4.923      7.525
REMARK INTER + INTRA:          -5.719
REMARK INTER:                  -5.429
REMARK INTRA:                  -0.290
REMARK UNBOUND:                -0.297
REMARK SMILES O=c1c(O)c(-c2ccc(O)cc2)oc2cc(O)cc(O)c12
REMARK SMILES IDX 5 1 3 2 2 3 1 4 21 5 19 6 18 7 16 8 15 9 14 10 13 11 6 12
REMARK SMILES IDX 7 13 8 14 9 15 12 16 11 17 10 18 4 20 20 22 17 24
REMARK H PARENT 10 19 4 21 20 23 17 25
REMARK Flexibility Score: inf
ROOT
ATOM      1  C   UNL     1      72.140  11.065 362.866  1.00  0.00     0.180 A 
ATOM      2  C   UNL     1      71.258  10.189 362.210  1.00  0.00     0.208 A 
ATOM      3  C   UNL     1      70.812  10.512 360.919  1.00  0.00     0.238 A 
ATOM      4  O   UNL     1      69.979   9.751 360.358  1.00  0.00    -0.285 OA
ATOM      5  C   UNL     1      71.265  11.698 360.292  1.00  0.00     0.111 A 
ATOM      6  C   UNL     1      70.908  12.103 358.972  1.00  0.00     0.134 A 
ATOM      7  C   UNL     1      71.312  13.360 358.503  1.00  0.00     0.093 A 
ATOM      8  C   UNL     1      72.111  14.196 359.282  1.00  0.00     0.123 A 
ATOM      9  C   UNL     1      72.514  13.784 360.552  1.00  0.00     0.094 A 
ATOM     10  C   UNL     1      72.098  12.552 361.061  1.00  0.00     0.146 A 
ATOM     11  O   UNL     1      72.496  12.201 362.279  1.00  0.00    -0.452 OA
ENDROOT
BRANCH   1  12
ATOM     12  C   UNL     1      72.673  10.780 364.217  1.00  0.00     0.021 A 
ATOM     13  C   UNL     1      71.961  11.216 365.348  1.00  0.00     0.016 A 
ATOM     14  C   UNL     1      72.458  10.978 366.633  1.00  0.00     0.047 A 
ATOM     15  C   UNL     1      73.681  10.315 366.804  1.00  0.00     0.115 A 
ATOM     16  C   UNL     1      73.910  10.133 364.396  1.00  0.00     0.016 A 
ATOM     17  C   UNL     1      74.405   9.898 365.683  1.00  0.00     0.047 A 
BRANCH  15  18
ATOM     18  O   UNL     1      74.186  10.072 368.079  1.00  0.00    -0.508 OA
ATOM     19  H   UNL     1      73.651   9.559 368.770  1.00  0.00     0.293 HD
ENDBRANCH  15  18
ENDBRANCH   1  12
BRANCH   2  20
ATOM     20  O   UNL     1      70.805   9.034 362.855  1.00  0.00    -0.502 OA
ATOM     21  H   UNL     1      69.862   8.682 362.742  1.00  0.00     0.293 HD
ENDBRANCH   2  20
BRANCH   6  22
ATOM     22  O   UNL     1      70.190  11.306 358.076  1.00  0.00    -0.507 OA
ATOM     23  H   UNL     1      69.287  11.543 357.693  1.00  0.00     0.293 HD
ENDBRANCH   6  22
BRANCH   8  24
ATOM     24  O   UNL     1      72.506  15.434 358.777  1.00  0.00    -0.508 OA
ATOM     25  H   UNL     1      72.911  15.524 357.853  1.00  0.00     0.293 HD
ENDBRANCH   8  24
TORSDOF 5
ENDMDL
MODEL 9
REMARK VINA RESULT:    -4.574      5.093      6.607
REMARK INTER + INTRA:          -5.673
REMARK INTER:                  -5.404
REMARK INTRA:                  -0.269
REMARK UNBOUND:                -0.297
REMARK SMILES O=c1c(O)c(-c2ccc(O)cc2)oc2cc(O)cc(O)c12
REMARK SMILES IDX 5 1 3 2 2 3 1 4 21 5 19 6 18 7 16 8 15 9 14 10 13 11 6 12
REMARK SMILES IDX 7 13 8 14 9 15 12 16 11 17 10 18 4 20 20 22 17 24
REMARK H PARENT 10 19 4 21 20 23 17 25
REMARK Flexibility Score: inf
ROOT
ATOM      1  C   UNL     1      68.317  12.601 354.025  1.00  0.00     0.180 A 
ATOM      2  C   UNL     1      67.638  11.405 353.731  1.00  0.00     0.208 A 
ATOM      3  C   UNL     1      67.233  11.160 352.410  1.00  0.00     0.238 A 
ATOM      4  O   UNL     1      66.577  10.114 352.162  1.00  0.00    -0.285 OA
ATOM      5  C   UNL     1      67.526  12.103 351.395  1.00  0.00     0.111 A 
ATOM      6  C   UNL     1      67.197  11.939 350.017  1.00  0.00     0.134 A 
ATOM      7  C   UNL     1      67.419  12.995 349.124  1.00  0.00     0.093 A 
ATOM      8  C   UNL     1      68.015  14.183 349.546  1.00  0.00     0.123 A 
ATOM      9  C   UNL     1      68.393  14.332 350.881  1.00  0.00     0.094 A 
ATOM     10  C   UNL     1      68.153  13.310 351.802  1.00  0.00     0.146 A 
ATOM     11  O   UNL     1      68.519  13.495 353.065  1.00  0.00    -0.452 OA
ENDROOT
BRANCH   1  12
ATOM     12  C   UNL     1      68.797  12.918 355.389  1.00  0.00     0.021 A 
ATOM     13  C   UNL     1      67.913  13.494 356.317  1.00  0.00     0.016 A 
ATOM     14  C   UNL     1      68.352  13.823 357.603  1.00  0.00     0.047 A 
ATOM     15  C   UNL     1      69.684  13.596 357.973  1.00  0.00     0.115 A 
ATOM     16  C   UNL     1      70.139  12.712 355.760  1.00  0.00     0.016 A 
ATOM     17  C   UNL     1      70.574  13.043 357.048  1.00  0.00     0.047 A 
BRANCH  15  18
ATOM     18  O   UNL     1      70.132  13.919 359.252  1.00  0.00    -0.508 OA
ATOM     19  H   UNL     1      70.967  13.498 359.641  1.00  0.00     0.293 HD
ENDBRANCH  15  18
ENDBRANCH   1  12
BRANCH   2  20
ATOM     20  O   UNL     1      67.339  10.498 354.750  1.00  0.00    -0.502 OA
ATOM     21  H   UNL     1      67.704   9.553 354.763  1.00  0.00     0.293 HD
ENDBRANCH   2  20
BRANCH   6  22
ATOM     22  O   UNL     1      66.682  10.760 349.471  1.00  0.00    -0.507 OA
ATOM     23  H   UNL     1      67.239   9.964 349.194  1.00  0.00     0.293 HD
ENDBRANCH   6  22
BRANCH   8  24
ATOM     24  O   UNL     1      68.234  15.207 348.627  1.00  0.00    -0.508 OA
ATOM     25  H   UNL     1      67.477  15.594 348.075  1.00  0.00     0.293 HD
ENDBRANCH   8  24
TORSDOF 5
ENDMDL
