MODEL 1
REMARK VINA RESULT:    -2.754      0.000      0.000
REMARK INTER + INTRA:          -3.081
REMARK INTER:                  -3.076
REMARK INTRA:                  -0.005
REMARK UNBOUND:                -0.005
REMARK SMILES CCCC(=O)[O-]
REMARK SMILES IDX 3 1 4 2 5 3 6 4 2 5 1 6
REMARK H PARENT
REMARK Flexibility Score: inf
ROOT
ATOM      1  C   UNL     1     -18.660  20.362  41.577  1.00  0.00     0.052 C 
ENDROOT
BRANCH   1   2
ATOM      2  C   UNL     1     -17.807  19.197  41.976  1.00  0.00     0.041 C 
ATOM      3  O   UNL     1     -17.372  19.105  43.155  1.00  0.00    -0.550 OA
ATOM      4  O   UNL     1     -17.521  18.196  41.057  1.00  0.00    -0.550 OA
ENDBRANCH   1   2
BRANCH   1   5
ATOM      5  C   UNL     1     -20.061  20.281  42.197  1.00  0.00     0.003 C 
ATOM      6  C   UNL     1     -21.029  21.290  41.581  1.00  0.00     0.004 C 
ENDBRANCH   1   5
TORSDOF 2
ENDMDL
MODEL 2
REMARK VINA RESULT:    -2.747      2.731      3.325
REMARK INTER + INTRA:          -3.073
REMARK INTER:                  -3.066
REMARK INTRA:                  -0.007
REMARK UNBOUND:                -0.005
REMARK SMILES CCCC(=O)[O-]
REMARK SMILES IDX 3 1 4 2 5 3 6 4 2 5 1 6
REMARK H PARENT
REMARK Flexibility Score: inf
ROOT
ATOM      1  C   UNL     1     -17.599  19.403  43.057  1.00  0.00     0.052 C 
ENDROOT
BRANCH   1   2
ATOM      2  C   UNL     1     -17.869  20.840  43.384  1.00  0.00     0.041 C 
ATOM      3  O   UNL     1     -17.217  21.415  44.295  1.00  0.00    -0.550 OA
ATOM      4  O   UNL     1     -18.815  21.553  42.659  1.00  0.00    -0.550 OA
ENDBRANCH   1   2
BRANCH   1   5
ATOM      5  C   UNL     1     -17.709  19.129  41.552  1.00  0.00     0.003 C 
ATOM      6  C   UNL     1     -17.088  17.791  41.157  1.00  0.00     0.004 C 
ENDBRANCH   1   5
TORSDOF 2
ENDMDL
MODEL 3
REMARK VINA RESULT:    -2.731      1.521      1.843
REMARK INTER + INTRA:          -3.055
REMARK INTER:                  -3.031
REMARK INTRA:                  -0.024
REMARK UNBOUND:                -0.005
REMARK SMILES CCCC(=O)[O-]
REMARK SMILES IDX 3 1 4 2 5 3 6 4 2 5 1 6
REMARK H PARENT
REMARK Flexibility Score: inf
ROOT
ATOM      1  C   UNL     1     -18.623  19.907  42.184  1.00  0.00     0.052 C 
ENDROOT
BRANCH   1   2
ATOM      2  C   UNL     1     -17.828  20.192  43.422  1.00  0.00     0.041 C 
ATOM      3  O   UNL     1     -17.648  21.380  43.799  1.00  0.00    -0.550 OA
ATOM      4  O   UNL     1     -17.318  19.145  44.178  1.00  0.00    -0.550 OA
ENDBRANCH   1   2
BRANCH   1   5
ATOM      5  C   UNL     1     -20.101  20.280  42.357  1.00  0.00     0.003 C 
ATOM      6  C   UNL     1     -20.629  21.117  41.193  1.00  0.00     0.004 C 
ENDBRANCH   1   5
TORSDOF 2
ENDMDL
MODEL 4
REMARK VINA RESULT:    -2.678      2.055      3.263
REMARK INTER + INTRA:          -2.996
REMARK INTER:                  -2.985
REMARK INTRA:                  -0.011
REMARK UNBOUND:                -0.005
REMARK SMILES CCCC(=O)[O-]
REMARK SMILES IDX 3 1 4 2 5 3 6 4 2 5 1 6
REMARK H PARENT
REMARK Flexibility Score: inf
ROOT
ATOM      1  C   UNL     1     -18.493  19.788  41.571  1.00  0.00     0.052 C 
ENDROOT
BRANCH   1   2
ATOM      2  C   UNL     1     -19.417  20.156  42.691  1.00  0.00     0.041 C 
ATOM      3  O   UNL     1     -18.968  20.306  43.858  1.00  0.00    -0.550 OA
ATOM      4  O   UNL     1     -20.766  20.368  42.440  1.00  0.00    -0.550 OA
ENDBRANCH   1   2
BRANCH   1   5
ATOM      5  C   UNL     1     -17.345  18.892  42.050  1.00  0.00     0.003 C 
ATOM      6  C   UNL     1     -17.081  17.726  41.099  1.00  0.00     0.004 C 
ENDBRANCH   1   5
TORSDOF 2
ENDMDL
MODEL 5
REMARK VINA RESULT:    -2.669      2.562      3.293
REMARK INTER + INTRA:          -2.986
REMARK INTER:                  -2.950
REMARK INTRA:                  -0.037
REMARK UNBOUND:                -0.005
REMARK SMILES CCCC(=O)[O-]
REMARK SMILES IDX 3 1 4 2 5 3 6 4 2 5 1 6
REMARK H PARENT
REMARK Flexibility Score: inf
ROOT
ATOM      1  C   UNL     1     -18.612  20.112  41.821  1.00  0.00     0.052 C 
ENDROOT
BRANCH   1   2
ATOM      2  C   UNL     1     -20.067  20.468  41.778  1.00  0.00     0.041 C 
ATOM      3  O   UNL     1     -20.825  20.145  42.731  1.00  0.00    -0.550 OA
ATOM      4  O   UNL     1     -20.578  21.185  40.705  1.00  0.00    -0.550 OA
ENDBRANCH   1   2
BRANCH   1   5
ATOM      5  C   UNL     1     -17.932  20.646  43.088  1.00  0.00     0.003 C 
ATOM      6  C   UNL     1     -17.594  19.533  44.079  1.00  0.00     0.004 C 
ENDBRANCH   1   5
TORSDOF 2
ENDMDL
MODEL 6
REMARK VINA RESULT:    -2.649      2.400      3.475
REMARK INTER + INTRA:          -2.964
REMARK INTER:                  -2.933
REMARK INTRA:                  -0.031
REMARK UNBOUND:                -0.005
REMARK SMILES CCCC(=O)[O-]
REMARK SMILES IDX 3 1 4 2 5 3 6 4 2 5 1 6
REMARK H PARENT
REMARK Flexibility Score: inf
ROOT
ATOM      1  C   UNL     1     -18.617  20.783  41.625  1.00  0.00     0.052 C 
ENDROOT
BRANCH   1   2
ATOM      2  C   UNL     1     -20.114  20.733  41.670  1.00  0.00     0.041 C 
ATOM      3  O   UNL     1     -20.791  21.235  40.734  1.00  0.00    -0.550 OA
ATOM      4  O   UNL     1     -20.759  20.104  42.725  1.00  0.00    -0.550 OA
ENDBRANCH   1   2
BRANCH   1   5
ATOM      5  C   UNL     1     -17.984  19.656  42.452  1.00  0.00     0.003 C 
ATOM      6  C   UNL     1     -17.388  18.556  41.576  1.00  0.00     0.004 C 
ENDBRANCH   1   5
TORSDOF 2
ENDMDL
MODEL 7
REMARK VINA RESULT:    -2.641      2.087      2.645
REMARK INTER + INTRA:          -2.955
REMARK INTER:                  -2.930
REMARK INTRA:                  -0.025
REMARK UNBOUND:                -0.005
REMARK SMILES CCCC(=O)[O-]
REMARK SMILES IDX 3 1 4 2 5 3 6 4 2 5 1 6
REMARK H PARENT
REMARK Flexibility Score: inf
ROOT
ATOM      1  C   UNL     1     -20.314  21.604  40.923  1.00  0.00     0.052 C 
ENDROOT
BRANCH   1   2
ATOM      2  C   UNL     1     -20.004  20.441  41.814  1.00  0.00     0.041 C 
ATOM      3  O   UNL     1     -20.797  20.124  42.739  1.00  0.00    -0.550 OA
ATOM      4  O   UNL     1     -18.857  19.687  41.602  1.00  0.00    -0.550 OA
ENDBRANCH   1   2
BRANCH   1   5
ATOM      5  C   UNL     1     -21.788  22.018  41.018  1.00  0.00     0.003 C 
ATOM      6  C   UNL     1     -22.506  21.926  39.672  1.00  0.00     0.004 C 
ENDBRANCH   1   5
TORSDOF 2
ENDMDL
MODEL 8
REMARK VINA RESULT:    -2.574      2.867      3.691
REMARK INTER + INTRA:          -2.880
REMARK INTER:                  -2.845
REMARK INTRA:                  -0.035
REMARK UNBOUND:                -0.005
REMARK SMILES CCCC(=O)[O-]
REMARK SMILES IDX 3 1 4 2 5 3 6 4 2 5 1 6
REMARK H PARENT
REMARK Flexibility Score: inf
ROOT
ATOM      1  C   UNL     1     -19.959  20.237  41.992  1.00  0.00     0.052 C 
ENDROOT
BRANCH   1   2
ATOM      2  C   UNL     1     -20.381  21.356  41.089  1.00  0.00     0.041 C 
ATOM      3  O   UNL     1     -21.600  21.530  40.825  1.00  0.00    -0.550 OA
ATOM      4  O   UNL     1     -19.432  22.226  40.569  1.00  0.00    -0.550 OA
ENDBRANCH   1   2
BRANCH   1   5
ATOM      5  C   UNL     1     -18.444  20.239  42.233  1.00  0.00     0.003 C 
ATOM      6  C   UNL     1     -17.755  19.024  41.614  1.00  0.00     0.004 C 
ENDBRANCH   1   5
TORSDOF 2
ENDMDL
MODEL 9
REMARK VINA RESULT:    -2.487     18.894     19.505
REMARK INTER + INTRA:          -2.783
REMARK INTER:                  -2.778
REMARK INTRA:                  -0.005
REMARK UNBOUND:                -0.005
REMARK SMILES CCCC(=O)[O-]
REMARK SMILES IDX 3 1 4 2 5 3 6 4 2 5 1 6
REMARK H PARENT
REMARK Flexibility Score: inf
ROOT
ATOM      1  C   UNL     1      -6.506  32.985  48.048  1.00  0.00     0.052 C 
ENDROOT
BRANCH   1   2
ATOM      2  C   UNL     1      -5.454  33.453  49.007  1.00  0.00     0.041 C 
ATOM      3  O   UNL     1      -4.311  33.773  48.584  1.00  0.00    -0.550 OA
ATOM      4  O   UNL     1      -5.745  33.568  50.359  1.00  0.00    -0.550 OA
ENDBRANCH   1   2
BRANCH   1   5
ATOM      5  C   UNL     1      -6.231  31.560  47.550  1.00  0.00     0.003 C 
ATOM      6  C   UNL     1      -7.497  30.863  47.056  1.00  0.00     0.004 C 
ENDBRANCH   1   5
TORSDOF 2
ENDMDL
