MODEL 1
REMARK VINA RESULT:    -4.008      0.000      0.000
REMARK INTER + INTRA:          -7.840
REMARK INTER:                  -6.820
REMARK INTRA:                  -1.020
REMARK UNBOUND:                -1.020
REMARK SMILES CCCCCCCCCCCCCC(=O)[O-]
REMARK SMILES IDX 8 1 9 2 10 3 11 4 12 5 13 6 14 7 15 8 16 9 7 10 6 11 5 12
REMARK SMILES IDX 4 13 3 14 2 15 1 16
REMARK H PARENT
REMARK Flexibility Score: inf
ROOT
ATOM      1  C   UNL     1      -5.036  22.927 -13.300  1.00  0.00     0.000 C 
ENDROOT
BRANCH   1   2
ATOM      2  C   UNL     1      -3.993  23.928 -13.829  1.00  0.00     0.000 C 
BRANCH   2   3
ATOM      3  C   UNL     1      -3.951  25.231 -13.011  1.00  0.00     0.000 C 
BRANCH   3   4
ATOM      4  C   UNL     1      -5.163  26.137 -13.281  1.00  0.00     0.000 C 
BRANCH   4   5
ATOM      5  C   UNL     1      -5.786  26.690 -11.987  1.00  0.00     0.006 C 
BRANCH   5   6
ATOM      6  C   UNL     1      -6.912  25.792 -11.458  1.00  0.00     0.053 C 
BRANCH   6   7
ATOM      7  C   UNL     1      -6.822  25.598  -9.975  1.00  0.00     0.041 C 
ATOM      8  O   UNL     1      -5.715  25.327  -9.439  1.00  0.00    -0.550 OA
ATOM      9  O   UNL     1      -7.953  25.746  -9.182  1.00  0.00    -0.550 OA
ENDBRANCH   6   7
ENDBRANCH   5   6
ENDBRANCH   4   5
ENDBRANCH   3   4
ENDBRANCH   2   3
ENDBRANCH   1   2
BRANCH   1  10
ATOM     10  C   UNL     1      -4.812  22.464 -11.847  1.00  0.00     0.000 C 
BRANCH  10  11
ATOM     11  C   UNL     1      -6.097  22.135 -11.062  1.00  0.00    -0.000 C 
BRANCH  11  12
ATOM     12  C   UNL     1      -6.452  20.636 -10.989  1.00  0.00    -0.000 C 
BRANCH  12  13
ATOM     13  C   UNL     1      -7.032  20.166  -9.643  1.00  0.00    -0.000 C 
BRANCH  13  14
ATOM     14  C   UNL     1      -6.141  19.130  -8.937  1.00  0.00    -0.000 C 
BRANCH  14  15
ATOM     15  C   UNL     1      -6.862  18.428  -7.776  1.00  0.00    -0.003 C 
ATOM     16  C   UNL     1      -7.893  19.325  -7.089  1.00  0.00     0.004 C 
ENDBRANCH  14  15
ENDBRANCH  13  14
ENDBRANCH  12  13
ENDBRANCH  11  12
ENDBRANCH  10  11
ENDBRANCH   1  10
TORSDOF 12
ENDMDL
MODEL 2
REMARK VINA RESULT:    -3.975      2.222      3.398
REMARK INTER + INTRA:          -7.784
REMARK INTER:                  -6.793
REMARK INTRA:                  -0.990
REMARK UNBOUND:                -1.020
REMARK SMILES CCCCCCCCCCCCCC(=O)[O-]
REMARK SMILES IDX 8 1 9 2 10 3 11 4 12 5 13 6 14 7 15 8 16 9 7 10 6 11 5 12
REMARK SMILES IDX 4 13 3 14 2 15 1 16
REMARK H PARENT
REMARK Flexibility Score: inf
ROOT
ATOM      1  C   UNL     1      -7.537  24.684 -10.410  1.00  0.00     0.000 C 
ENDROOT
BRANCH   1   2
ATOM      2  C   UNL     1      -7.414  25.673 -11.583  1.00  0.00     0.000 C 
BRANCH   2   3
ATOM      3  C   UNL     1      -6.120  26.504 -11.528  1.00  0.00     0.000 C 
BRANCH   3   4
ATOM      4  C   UNL     1      -5.452  26.651 -12.904  1.00  0.00     0.000 C 
BRANCH   4   5
ATOM      5  C   UNL     1      -4.201  25.767 -13.050  1.00  0.00     0.006 C 
BRANCH   5   6
ATOM      6  C   UNL     1      -4.149  25.058 -14.410  1.00  0.00     0.053 C 
BRANCH   6   7
ATOM      7  C   UNL     1      -4.809  23.713 -14.364  1.00  0.00     0.041 C 
ATOM      8  O   UNL     1      -6.038  23.602 -14.614  1.00  0.00    -0.550 OA
ATOM      9  O   UNL     1      -4.060  22.579 -14.076  1.00  0.00    -0.550 OA
ENDBRANCH   6   7
ENDBRANCH   5   6
ENDBRANCH   4   5
ENDBRANCH   3   4
ENDBRANCH   2   3
ENDBRANCH   1   2
BRANCH   1  10
ATOM     10  C   UNL     1      -6.242  23.921 -10.068  1.00  0.00     0.000 C 
BRANCH  10  11
ATOM     11  C   UNL     1      -5.938  22.712 -10.974  1.00  0.00    -0.000 C 
BRANCH  11  12
ATOM     12  C   UNL     1      -6.781  21.453 -10.688  1.00  0.00    -0.000 C 
BRANCH  12  13
ATOM     13  C   UNL     1      -6.527  20.793  -9.320  1.00  0.00    -0.000 C 
BRANCH  13  14
ATOM     14  C   UNL     1      -6.102  19.320  -9.437  1.00  0.00    -0.000 C 
BRANCH  14  15
ATOM     15  C   UNL     1      -7.069  18.370  -8.714  1.00  0.00    -0.003 C 
ATOM     16  C   UNL     1      -7.457  18.866  -7.320  1.00  0.00     0.004 C 
ENDBRANCH  14  15
ENDBRANCH  13  14
ENDBRANCH  12  13
ENDBRANCH  11  12
ENDBRANCH  10  11
ENDBRANCH   1  10
TORSDOF 12
ENDMDL
MODEL 3
REMARK VINA RESULT:    -3.939      2.700      6.608
REMARK INTER + INTRA:          -7.722
REMARK INTER:                  -6.390
REMARK INTRA:                  -1.332
REMARK UNBOUND:                -1.020
REMARK SMILES CCCCCCCCCCCCCC(=O)[O-]
REMARK SMILES IDX 8 1 9 2 10 3 11 4 12 5 13 6 14 7 15 8 16 9 7 10 6 11 5 12
REMARK SMILES IDX 4 13 3 14 2 15 1 16
REMARK H PARENT
REMARK Flexibility Score: inf
ROOT
ATOM      1  C   UNL     1      -6.962  24.725 -10.178  1.00  0.00     0.000 C 
ENDROOT
BRANCH   1   2
ATOM      2  C   UNL     1      -5.873  23.651 -10.350  1.00  0.00     0.000 C 
BRANCH   2   3
ATOM      3  C   UNL     1      -6.168  22.687 -11.514  1.00  0.00     0.000 C 
BRANCH   3   4
ATOM      4  C   UNL     1      -5.624  21.272 -11.262  1.00  0.00     0.000 C 
BRANCH   4   5
ATOM      5  C   UNL     1      -6.631  20.377 -10.519  1.00  0.00     0.006 C 
BRANCH   5   6
ATOM      6  C   UNL     1      -6.061  19.836  -9.200  1.00  0.00     0.053 C 
BRANCH   6   7
ATOM      7  C   UNL     1      -7.087  19.070  -8.422  1.00  0.00     0.041 C 
ATOM      8  O   UNL     1      -7.424  17.913  -8.786  1.00  0.00    -0.550 OA
ATOM      9  O   UNL     1      -7.648  19.622  -7.276  1.00  0.00    -0.550 OA
ENDBRANCH   6   7
ENDBRANCH   5   6
ENDBRANCH   4   5
ENDBRANCH   3   4
ENDBRANCH   2   3
ENDBRANCH   1   2
BRANCH   1  10
ATOM     10  C   UNL     1      -7.801  25.006 -11.441  1.00  0.00     0.000 C 
BRANCH  10  11
ATOM     11  C   UNL     1      -7.604  26.406 -12.056  1.00  0.00    -0.000 C 
BRANCH  11  12
ATOM     12  C   UNL     1      -6.599  26.472 -13.223  1.00  0.00    -0.000 C 
BRANCH  12  13
ATOM     13  C   UNL     1      -5.131  26.688 -12.811  1.00  0.00    -0.000 C 
BRANCH  13  14
ATOM     14  C   UNL     1      -4.211  25.538 -13.251  1.00  0.00    -0.000 C 
BRANCH  14  15
ATOM     15  C   UNL     1      -4.840  24.669 -14.351  1.00  0.00    -0.003 C 
ATOM     16  C   UNL     1      -3.915  24.474 -15.554  1.00  0.00     0.004 C 
ENDBRANCH  14  15
ENDBRANCH  13  14
ENDBRANCH  12  13
ENDBRANCH  11  12
ENDBRANCH  10  11
ENDBRANCH   1  10
TORSDOF 12
ENDMDL
MODEL 4
REMARK VINA RESULT:    -3.905      1.406      1.854
REMARK INTER + INTRA:          -7.664
REMARK INTER:                  -6.850
REMARK INTRA:                  -0.814
REMARK UNBOUND:                -1.020
REMARK SMILES CCCCCCCCCCCCCC(=O)[O-]
REMARK SMILES IDX 8 1 9 2 10 3 11 4 12 5 13 6 14 7 15 8 16 9 7 10 6 11 5 12
REMARK SMILES IDX 4 13 3 14 2 15 1 16
REMARK H PARENT
REMARK Flexibility Score: inf
ROOT
ATOM      1  C   UNL     1      -6.173  22.397 -13.452  1.00  0.00     0.000 C 
ENDROOT
BRANCH   1   2
ATOM      2  C   UNL     1      -4.753  22.776 -12.992  1.00  0.00     0.000 C 
BRANCH   2   3
ATOM      3  C   UNL     1      -4.701  24.148 -12.297  1.00  0.00     0.000 C 
BRANCH   3   4
ATOM      4  C   UNL     1      -4.335  25.287 -13.263  1.00  0.00     0.000 C 
BRANCH   4   5
ATOM      5  C   UNL     1      -5.107  26.584 -12.963  1.00  0.00     0.006 C 
BRANCH   5   6
ATOM      6  C   UNL     1      -6.615  26.428 -13.197  1.00  0.00     0.053 C 
BRANCH   6   7
ATOM      7  C   UNL     1      -7.410  26.802 -11.983  1.00  0.00     0.041 C 
ATOM      8  O   UNL     1      -8.668  26.819 -12.031  1.00  0.00    -0.550 OA
ATOM      9  O   UNL     1      -6.762  27.101 -10.791  1.00  0.00    -0.550 OA
ENDBRANCH   6   7
ENDBRANCH   5   6
ENDBRANCH   4   5
ENDBRANCH   3   4
ENDBRANCH   2   3
ENDBRANCH   1   2
BRANCH   1  10
ATOM     10  C   UNL     1      -6.537  20.910 -13.270  1.00  0.00     0.000 C 
BRANCH  10  11
ATOM     11  C   UNL     1      -6.044  20.274 -11.955  1.00  0.00    -0.000 C 
BRANCH  11  12
ATOM     12  C   UNL     1      -6.910  20.581 -10.716  1.00  0.00    -0.000 C 
BRANCH  12  13
ATOM     13  C   UNL     1      -6.263  20.232  -9.363  1.00  0.00    -0.000 C 
BRANCH  13  14
ATOM     14  C   UNL     1      -6.195  18.718  -9.106  1.00  0.00    -0.000 C 
BRANCH  14  15
ATOM     15  C   UNL     1      -6.838  18.319  -7.769  1.00  0.00    -0.003 C 
ATOM     16  C   UNL     1      -7.817  19.371  -7.245  1.00  0.00     0.004 C 
ENDBRANCH  14  15
ENDBRANCH  13  14
ENDBRANCH  12  13
ENDBRANCH  11  12
ENDBRANCH  10  11
ENDBRANCH   1  10
TORSDOF 12
ENDMDL
MODEL 5
REMARK VINA RESULT:    -3.835      2.735      6.165
REMARK INTER + INTRA:          -7.545
REMARK INTER:                  -6.057
REMARK INTRA:                  -1.489
REMARK UNBOUND:                -1.020
REMARK SMILES CCCCCCCCCCCCCC(=O)[O-]
REMARK SMILES IDX 8 1 9 2 10 3 11 4 12 5 13 6 14 7 15 8 16 9 7 10 6 11 5 12
REMARK SMILES IDX 4 13 3 14 2 15 1 16
REMARK H PARENT
REMARK Flexibility Score: inf
ROOT
ATOM      1  C   UNL     1      -5.372  26.628 -12.810  1.00  0.00     0.000 C 
ENDROOT
BRANCH   1   2
ATOM      2  C   UNL     1      -4.306  25.531 -12.986  1.00  0.00     0.000 C 
BRANCH   2   3
ATOM      3  C   UNL     1      -4.564  24.303 -12.094  1.00  0.00     0.000 C 
BRANCH   3   4
ATOM      4  C   UNL     1      -4.938  24.687 -10.654  1.00  0.00     0.000 C 
BRANCH   4   5
ATOM      5  C   UNL     1      -6.141  23.887 -10.123  1.00  0.00     0.006 C 
BRANCH   5   6
ATOM      6  C   UNL     1      -6.768  22.999 -11.206  1.00  0.00     0.053 C 
BRANCH   6   7
ATOM      7  C   UNL     1      -6.873  21.571 -10.766  1.00  0.00     0.041 C 
ATOM      8  O   UNL     1      -7.990  20.989 -10.765  1.00  0.00    -0.550 OA
ATOM      9  O   UNL     1      -5.733  20.873 -10.387  1.00  0.00    -0.550 OA
ENDBRANCH   6   7
ENDBRANCH   5   6
ENDBRANCH   4   5
ENDBRANCH   3   4
ENDBRANCH   2   3
ENDBRANCH   1   2
BRANCH   1  10
ATOM     10  C   UNL     1      -6.663  26.412 -13.623  1.00  0.00     0.000 C 
BRANCH  10  11
ATOM     11  C   UNL     1      -7.957  26.883 -12.929  1.00  0.00    -0.000 C 
BRANCH  11  12
ATOM     12  C   UNL     1      -7.991  26.677 -11.401  1.00  0.00    -0.000 C 
BRANCH  12  13
ATOM     13  C   UNL     1      -8.021  27.971 -10.567  1.00  0.00    -0.000 C 
BRANCH  13  14
ATOM     14  C   UNL     1      -6.748  28.169  -9.727  1.00  0.00    -0.000 C 
BRANCH  14  15
ATOM     15  C   UNL     1      -6.832  29.403  -8.816  1.00  0.00    -0.003 C 
ATOM     16  C   UNL     1      -5.625  30.332  -8.963  1.00  0.00     0.004 C 
ENDBRANCH  14  15
ENDBRANCH  13  14
ENDBRANCH  12  13
ENDBRANCH  11  12
ENDBRANCH  10  11
ENDBRANCH   1  10
TORSDOF 12
ENDMDL
MODEL 6
REMARK VINA RESULT:    -3.831      2.548      5.581
REMARK INTER + INTRA:          -7.537
REMARK INTER:                  -5.974
REMARK INTRA:                  -1.563
REMARK UNBOUND:                -1.020
REMARK SMILES CCCCCCCCCCCCCC(=O)[O-]
REMARK SMILES IDX 8 1 9 2 10 3 11 4 12 5 13 6 14 7 15 8 16 9 7 10 6 11 5 12
REMARK SMILES IDX 4 13 3 14 2 15 1 16
REMARK H PARENT
REMARK Flexibility Score: inf
ROOT
ATOM      1  C   UNL     1      -4.445  24.249 -13.633  1.00  0.00     0.000 C 
ENDROOT
BRANCH   1   2
ATOM      2  C   UNL     1      -4.210  23.267 -12.471  1.00  0.00     0.000 C 
BRANCH   2   3
ATOM      3  C   UNL     1      -5.249  22.133 -12.431  1.00  0.00     0.000 C 
BRANCH   3   4
ATOM      4  C   UNL     1      -5.354  21.476 -11.046  1.00  0.00     0.000 C 
BRANCH   4   5
ATOM      5  C   UNL     1      -6.299  20.262 -11.038  1.00  0.00     0.006 C 
BRANCH   5   6
ATOM      6  C   UNL     1      -7.308  20.321  -9.884  1.00  0.00     0.053 C 
BRANCH   6   7
ATOM      7  C   UNL     1      -6.884  19.465  -8.728  1.00  0.00     0.041 C 
ATOM      8  O   UNL     1      -5.830  18.781  -8.801  1.00  0.00    -0.550 OA
ATOM      9  O   UNL     1      -7.637  19.448  -7.561  1.00  0.00    -0.550 OA
ENDBRANCH   6   7
ENDBRANCH   5   6
ENDBRANCH   4   5
ENDBRANCH   3   4
ENDBRANCH   2   3
ENDBRANCH   1   2
BRANCH   1  10
ATOM     10  C   UNL     1      -4.088  25.716 -13.324  1.00  0.00     0.000 C 
BRANCH  10  11
ATOM     11  C   UNL     1      -5.269  26.590 -12.854  1.00  0.00    -0.000 C 
BRANCH  11  12
ATOM     12  C   UNL     1      -6.624  26.267 -13.515  1.00  0.00    -0.000 C 
BRANCH  12  13
ATOM     13  C   UNL     1      -7.809  26.128 -12.543  1.00  0.00    -0.000 C 
BRANCH  13  14
ATOM     14  C   UNL     1      -7.365  25.941 -11.083  1.00  0.00    -0.000 C 
BRANCH  14  15
ATOM     15  C   UNL     1      -7.484  24.483 -10.614  1.00  0.00    -0.003 C 
ATOM     16  C   UNL     1      -8.450  23.662 -11.469  1.00  0.00     0.004 C 
ENDBRANCH  14  15
ENDBRANCH  13  14
ENDBRANCH  12  13
ENDBRANCH  11  12
ENDBRANCH  10  11
ENDBRANCH   1  10
TORSDOF 12
ENDMDL
MODEL 7
REMARK VINA RESULT:    -3.808      1.525      2.054
REMARK INTER + INTRA:          -7.499
REMARK INTER:                  -6.017
REMARK INTRA:                  -1.481
REMARK UNBOUND:                -1.020
REMARK SMILES CCCCCCCCCCCCCC(=O)[O-]
REMARK SMILES IDX 8 1 9 2 10 3 11 4 12 5 13 6 14 7 15 8 16 9 7 10 6 11 5 12
REMARK SMILES IDX 4 13 3 14 2 15 1 16
REMARK H PARENT
REMARK Flexibility Score: inf
ROOT
ATOM      1  C   UNL     1      -7.156  21.967 -13.283  1.00  0.00     0.000 C 
ENDROOT
BRANCH   1   2
ATOM      2  C   UNL     1      -7.376  23.419 -13.744  1.00  0.00     0.000 C 
BRANCH   2   3
ATOM      3  C   UNL     1      -6.191  24.338 -13.397  1.00  0.00     0.000 C 
BRANCH   3   4
ATOM      4  C   UNL     1      -5.308  23.767 -12.277  1.00  0.00     0.000 C 
BRANCH   4   5
ATOM      5  C   UNL     1      -5.413  24.576 -10.972  1.00  0.00     0.006 C 
BRANCH   5   6
ATOM      6  C   UNL     1      -6.759  24.364 -10.267  1.00  0.00     0.053 C 
BRANCH   6   7
ATOM      7  C   UNL     1      -7.491  25.655 -10.061  1.00  0.00     0.041 C 
ATOM      8  O   UNL     1      -7.477  26.541 -10.957  1.00  0.00    -0.550 OA
ATOM      9  O   UNL     1      -8.214  25.869  -8.894  1.00  0.00    -0.550 OA
ENDBRANCH   6   7
ENDBRANCH   5   6
ENDBRANCH   4   5
ENDBRANCH   3   4
ENDBRANCH   2   3
ENDBRANCH   1   2
BRANCH   1  10
ATOM     10  C   UNL     1      -8.342  21.342 -12.522  1.00  0.00     0.000 C 
BRANCH  10  11
ATOM     11  C   UNL     1      -8.011  20.827 -11.107  1.00  0.00    -0.000 C 
BRANCH  11  12
ATOM     12  C   UNL     1      -6.519  20.528 -10.854  1.00  0.00    -0.000 C 
BRANCH  12  13
ATOM     13  C   UNL     1      -6.132  20.341  -9.375  1.00  0.00    -0.000 C 
BRANCH  13  14
ATOM     14  C   UNL     1      -6.025  18.862  -8.968  1.00  0.00    -0.000 C 
BRANCH  14  15
ATOM     15  C   UNL     1      -7.319  18.332  -8.331  1.00  0.00    -0.003 C 
ATOM     16  C   UNL     1      -7.768  19.160  -7.126  1.00  0.00     0.004 C 
ENDBRANCH  14  15
ENDBRANCH  13  14
ENDBRANCH  12  13
ENDBRANCH  11  12
ENDBRANCH  10  11
ENDBRANCH   1  10
TORSDOF 12
ENDMDL
MODEL 8
REMARK VINA RESULT:    -3.775      7.289      9.058
REMARK INTER + INTRA:          -7.444
REMARK INTER:                  -6.259
REMARK INTRA:                  -1.184
REMARK UNBOUND:                -1.020
REMARK SMILES CCCCCCCCCCCCCC(=O)[O-]
REMARK SMILES IDX 8 1 9 2 10 3 11 4 12 5 13 6 14 7 15 8 16 9 7 10 6 11 5 12
REMARK SMILES IDX 4 13 3 14 2 15 1 16
REMARK H PARENT
REMARK Flexibility Score: inf
ROOT
ATOM      1  C   UNL     1      -9.209  30.254  -9.882  1.00  0.00     0.000 C 
ENDROOT
BRANCH   1   2
ATOM      2  C   UNL     1      -8.353  28.976  -9.948  1.00  0.00     0.000 C 
BRANCH   2   3
ATOM      3  C   UNL     1      -7.201  28.980  -8.927  1.00  0.00     0.000 C 
BRANCH   3   4
ATOM      4  C   UNL     1      -6.351  30.258  -8.999  1.00  0.00     0.000 C 
BRANCH   4   5
ATOM      5  C   UNL     1      -6.374  31.057  -7.684  1.00  0.00     0.006 C 
BRANCH   5   6
ATOM      6  C   UNL     1      -4.962  31.361  -7.167  1.00  0.00     0.053 C 
BRANCH   6   7
ATOM      7  C   UNL     1      -4.984  32.309  -6.006  1.00  0.00     0.041 C 
ATOM      8  O   UNL     1      -4.572  33.491  -6.146  1.00  0.00    -0.550 OA
ATOM      9  O   UNL     1      -5.490  31.897  -4.779  1.00  0.00    -0.550 OA
ENDBRANCH   6   7
ENDBRANCH   5   6
ENDBRANCH   4   5
ENDBRANCH   3   4
ENDBRANCH   2   3
ENDBRANCH   1   2
BRANCH   1  10
ATOM     10  C   UNL     1     -10.103  30.371  -8.632  1.00  0.00     0.000 C 
BRANCH  10  11
ATOM     11  C   UNL     1     -11.474  31.036  -8.870  1.00  0.00    -0.000 C 
BRANCH  11  12
ATOM     12  C   UNL     1     -12.604  30.553  -7.939  1.00  0.00    -0.000 C 
BRANCH  12  13
ATOM     13  C   UNL     1     -12.798  29.027  -7.883  1.00  0.00    -0.000 C 
BRANCH  13  14
ATOM     14  C   UNL     1     -13.256  28.434  -9.226  1.00  0.00    -0.000 C 
BRANCH  14  15
ATOM     15  C   UNL     1     -12.308  27.339  -9.740  1.00  0.00    -0.003 C 
ATOM     16  C   UNL     1     -11.356  26.825  -8.659  1.00  0.00     0.004 C 
ENDBRANCH  14  15
ENDBRANCH  13  14
ENDBRANCH  12  13
ENDBRANCH  11  12
ENDBRANCH  10  11
ENDBRANCH   1  10
TORSDOF 12
ENDMDL
MODEL 9
REMARK VINA RESULT:    -3.703      6.967      8.697
REMARK INTER + INTRA:          -7.319
REMARK INTER:                  -5.503
REMARK INTRA:                  -1.817
REMARK UNBOUND:                -1.020
REMARK SMILES CCCCCCCCCCCCCC(=O)[O-]
REMARK SMILES IDX 8 1 9 2 10 3 11 4 12 5 13 6 14 7 15 8 16 9 7 10 6 11 5 12
REMARK SMILES IDX 4 13 3 14 2 15 1 16
REMARK H PARENT
REMARK Flexibility Score: inf
ROOT
ATOM      1  C   UNL     1     -10.077  30.593  -7.908  1.00  0.00     0.000 C 
ENDROOT
BRANCH   1   2
ATOM      2  C   UNL     1      -9.979  30.612  -9.444  1.00  0.00     0.000 C 
BRANCH   2   3
ATOM      3  C   UNL     1      -9.030  29.531  -9.992  1.00  0.00     0.000 C 
BRANCH   3   4
ATOM      4  C   UNL     1      -8.166  28.890  -8.894  1.00  0.00     0.000 C 
BRANCH   4   5
ATOM      5  C   UNL     1      -6.663  28.940  -9.221  1.00  0.00     0.006 C 
BRANCH   5   6
ATOM      6  C   UNL     1      -6.046  30.307  -8.900  1.00  0.00     0.053 C 
BRANCH   6   7
ATOM      7  C   UNL     1      -6.072  30.601  -7.431  1.00  0.00     0.041 C 
ATOM      8  O   UNL     1      -5.488  29.833  -6.621  1.00  0.00    -0.550 OA
ATOM      9  O   UNL     1      -6.715  31.738  -6.958  1.00  0.00    -0.550 OA
ENDBRANCH   6   7
ENDBRANCH   5   6
ENDBRANCH   4   5
ENDBRANCH   3   4
ENDBRANCH   2   3
ENDBRANCH   1   2
BRANCH   1  10
ATOM     10  C   UNL     1     -11.449  31.009  -7.341  1.00  0.00     0.000 C 
BRANCH  10  11
ATOM     11  C   UNL     1     -12.358  29.842  -6.908  1.00  0.00    -0.000 C 
BRANCH  11  12
ATOM     12  C   UNL     1     -11.620  28.529  -6.574  1.00  0.00    -0.000 C 
BRANCH  12  13
ATOM     13  C   UNL     1     -12.139  27.282  -7.313  1.00  0.00    -0.000 C 
BRANCH  13  14
ATOM     14  C   UNL     1     -11.484  27.087  -8.691  1.00  0.00    -0.000 C 
BRANCH  14  15
ATOM     15  C   UNL     1     -12.515  27.004  -9.826  1.00  0.00    -0.003 C 
ATOM     16  C   UNL     1     -13.230  28.334 -10.077  1.00  0.00     0.004 C 
ENDBRANCH  14  15
ENDBRANCH  13  14
ENDBRANCH  12  13
ENDBRANCH  11  12
ENDBRANCH  10  11
ENDBRANCH   1  10
TORSDOF 12
ENDMDL
