MODEL 1
REMARK VINA RESULT:    -6.720      0.000      0.000
REMARK INTER + INTRA:          -9.066
REMARK INTER:                  -8.488
REMARK INTRA:                  -0.579
REMARK UNBOUND:                -0.579
REMARK SMILES O=C(C=Cc1ccc(O)cc1)c1ccc(O)cc1O
REMARK SMILES IDX 4 1 3 2 5 3 6 4 7 5 8 6 11 7 10 8 9 9 2 11 1 12 12 13 18 14
REMARK SMILES IDX 13 15 17 16 14 17 15 18 19 19 16 21
REMARK H PARENT 9 10 19 20 16 22
REMARK Flexibility Score: inf
ROOT
ATOM      1  C   UNL     1      -9.488   7.989   5.195  1.00  0.00     0.012 C 
ATOM      2  C   UNL     1      -9.399   6.834   5.869  1.00  0.00     0.053 C 
ENDROOT
BRANCH   1   3
ATOM      3  C   UNL     1      -9.109   9.306   5.765  1.00  0.00    -0.025 A 
ATOM      4  C   UNL     1      -7.880   9.420   6.435  1.00  0.00     0.012 A 
ATOM      5  C   UNL     1      -7.486  10.639   6.996  1.00  0.00     0.047 A 
ATOM      6  C   UNL     1      -8.318  11.758   6.906  1.00  0.00     0.115 A 
ATOM      7  C   UNL     1      -9.951  10.435   5.690  1.00  0.00     0.012 A 
ATOM      8  C   UNL     1      -9.553  11.652   6.253  1.00  0.00     0.047 A 
BRANCH   6   9
ATOM      9  O   UNL     1      -7.912  12.966   7.468  1.00  0.00    -0.508 OA
ATOM     10  H   UNL     1      -6.963  13.105   7.793  1.00  0.00     0.293 HD
ENDBRANCH   6   9
ENDBRANCH   1   3
BRANCH   2  11
ATOM     11  C   UNL     1      -9.799   5.541   5.271  1.00  0.00     0.189 C 
ATOM     12  O   UNL     1      -9.378   5.214   4.128  1.00  0.00    -0.289 OA
BRANCH  11  13
ATOM     13  C   UNL     1     -10.668   4.607   6.021  1.00  0.00     0.064 A 
ATOM     14  C   UNL     1     -11.313   3.515   5.392  1.00  0.00     0.130 A 
ATOM     15  C   UNL     1     -10.827   4.787   7.408  1.00  0.00     0.020 A 
ATOM     16  C   UNL     1     -12.066   2.617   6.159  1.00  0.00     0.093 A 
ATOM     17  C   UNL     1     -11.593   3.892   8.158  1.00  0.00     0.047 A 
ATOM     18  C   UNL     1     -12.209   2.803   7.539  1.00  0.00     0.119 A 
BRANCH  14  19
ATOM     19  O   UNL     1     -11.253   3.307   4.012  1.00  0.00    -0.507 OA
ATOM     20  H   UNL     1     -10.468   2.865   3.551  1.00  0.00     0.293 HD
ENDBRANCH  14  19
BRANCH  18  21
ATOM     21  O   UNL     1     -12.963   1.915   8.302  1.00  0.00    -0.508 OA
ATOM     22  H   UNL     1     -13.183   0.984   7.967  1.00  0.00     0.293 HD
ENDBRANCH  18  21
ENDBRANCH  11  13
ENDBRANCH   2  11
TORSDOF 6
ENDMDL
MODEL 2
REMARK VINA RESULT:    -6.560      1.970      7.596
REMARK INTER + INTRA:          -8.864
REMARK INTER:                  -8.305
REMARK INTRA:                  -0.560
REMARK UNBOUND:                -0.579
REMARK SMILES O=C(C=Cc1ccc(O)cc1)c1ccc(O)cc1O
REMARK SMILES IDX 4 1 3 2 5 3 6 4 7 5 8 6 11 7 10 8 9 9 2 11 1 12 12 13 18 14
REMARK SMILES IDX 13 15 17 16 14 17 15 18 19 19 16 21
REMARK H PARENT 9 10 19 20 16 22
REMARK Flexibility Score: inf
ROOT
ATOM      1  C   UNL     1     -10.755   7.072   5.527  1.00  0.00     0.012 C 
ATOM      2  C   UNL     1     -11.396   8.247   5.603  1.00  0.00     0.053 C 
ENDROOT
BRANCH   1   3
ATOM      3  C   UNL     1     -11.307   5.798   6.050  1.00  0.00    -0.025 A 
ATOM      4  C   UNL     1     -12.635   5.462   5.739  1.00  0.00     0.012 A 
ATOM      5  C   UNL     1     -13.200   4.276   6.217  1.00  0.00     0.047 A 
ATOM      6  C   UNL     1     -12.451   3.414   7.023  1.00  0.00     0.115 A 
ATOM      7  C   UNL     1     -10.561   4.931   6.875  1.00  0.00     0.012 A 
ATOM      8  C   UNL     1     -11.131   3.746   7.352  1.00  0.00     0.047 A 
BRANCH   6   9
ATOM      9  O   UNL     1     -13.026   2.235   7.491  1.00  0.00    -0.508 OA
ATOM     10  H   UNL     1     -13.981   1.985   7.262  1.00  0.00     0.293 HD
ENDBRANCH   6   9
ENDBRANCH   1   3
BRANCH   2  11
ATOM     11  C   UNL     1     -10.808   9.500   5.082  1.00  0.00     0.189 C 
ATOM     12  O   UNL     1     -11.402  10.152   4.181  1.00  0.00    -0.289 OA
BRANCH  11  13
ATOM     13  C   UNL     1      -9.535  10.015   5.633  1.00  0.00     0.064 A 
ATOM     14  C   UNL     1      -9.488  10.772   6.829  1.00  0.00     0.130 A 
ATOM     15  C   UNL     1      -8.331   9.709   4.971  1.00  0.00     0.020 A 
ATOM     16  C   UNL     1      -8.251  11.173   7.349  1.00  0.00     0.093 A 
ATOM     17  C   UNL     1      -7.105  10.129   5.493  1.00  0.00     0.047 A 
ATOM     18  C   UNL     1      -7.060  10.856   6.684  1.00  0.00     0.119 A 
BRANCH  14  19
ATOM     19  O   UNL     1     -10.643  11.166   7.508  1.00  0.00    -0.507 OA
ATOM     20  H   UNL     1     -11.139  12.023   7.307  1.00  0.00     0.293 HD
ENDBRANCH  14  19
BRANCH  18  21
ATOM     21  O   UNL     1      -5.830  11.260   7.196  1.00  0.00    -0.508 OA
ATOM     22  H   UNL     1      -5.762  11.996   7.890  1.00  0.00     0.293 HD
ENDBRANCH  18  21
ENDBRANCH  11  13
ENDBRANCH   2  11
TORSDOF 6
ENDMDL
MODEL 3
REMARK VINA RESULT:    -6.537      1.476      7.432
REMARK INTER + INTRA:          -8.835
REMARK INTER:                  -8.219
REMARK INTRA:                  -0.616
REMARK UNBOUND:                -0.579
REMARK SMILES O=C(C=Cc1ccc(O)cc1)c1ccc(O)cc1O
REMARK SMILES IDX 4 1 3 2 5 3 6 4 7 5 8 6 11 7 10 8 9 9 2 11 1 12 12 13 18 14
REMARK SMILES IDX 13 15 17 16 14 17 15 18 19 19 16 21
REMARK H PARENT 9 10 19 20 16 22
REMARK Flexibility Score: inf
ROOT
ATOM      1  C   UNL     1     -10.783   5.703   6.352  1.00  0.00     0.012 C 
ATOM      2  C   UNL     1      -9.650   6.414   6.439  1.00  0.00     0.053 C 
ENDROOT
BRANCH   1   3
ATOM      3  C   UNL     1     -11.201   4.695   7.359  1.00  0.00    -0.025 A 
ATOM      4  C   UNL     1     -11.553   3.409   6.917  1.00  0.00     0.012 A 
ATOM      5  C   UNL     1     -11.962   2.430   7.828  1.00  0.00     0.047 A 
ATOM      6  C   UNL     1     -12.036   2.726   9.192  1.00  0.00     0.115 A 
ATOM      7  C   UNL     1     -11.292   4.990   8.734  1.00  0.00     0.012 A 
ATOM      8  C   UNL     1     -11.702   4.009   9.643  1.00  0.00     0.047 A 
BRANCH   6   9
ATOM      9  O   UNL     1     -12.444   1.741  10.088  1.00  0.00    -0.508 OA
ATOM     10  H   UNL     1     -11.817   1.002  10.384  1.00  0.00     0.293 HD
ENDBRANCH   6   9
ENDBRANCH   1   3
BRANCH   2  11
ATOM     11  C   UNL     1      -9.259   7.401   5.410  1.00  0.00     0.189 C 
ATOM     12  O   UNL     1      -9.150   7.050   4.203  1.00  0.00    -0.289 OA
BRANCH  11  13
ATOM     13  C   UNL     1      -9.022   8.814   5.780  1.00  0.00     0.064 A 
ATOM     14  C   UNL     1      -9.804   9.869   5.248  1.00  0.00     0.130 A 
ATOM     15  C   UNL     1      -8.018   9.115   6.719  1.00  0.00     0.020 A 
ATOM     16  C   UNL     1      -9.589  11.181   5.687  1.00  0.00     0.093 A 
ATOM     17  C   UNL     1      -7.805  10.431   7.136  1.00  0.00     0.047 A 
ATOM     18  C   UNL     1      -8.592  11.466   6.627  1.00  0.00     0.119 A 
BRANCH  14  19
ATOM     19  O   UNL     1     -10.776   9.657   4.269  1.00  0.00    -0.507 OA
ATOM     20  H   UNL     1     -11.478   8.932   4.332  1.00  0.00     0.293 HD
ENDBRANCH  14  19
BRANCH  18  21
ATOM     21  O   UNL     1      -8.372  12.772   7.058  1.00  0.00    -0.508 OA
ATOM     22  H   UNL     1      -8.009  13.481   6.432  1.00  0.00     0.293 HD
ENDBRANCH  18  21
ENDBRANCH  11  13
ENDBRANCH   2  11
TORSDOF 6
ENDMDL
MODEL 4
REMARK VINA RESULT:    -6.148      1.832      7.325
REMARK INTER + INTRA:          -8.344
REMARK INTER:                  -7.650
REMARK INTRA:                  -0.694
REMARK UNBOUND:                -0.579
REMARK SMILES O=C(C=Cc1ccc(O)cc1)c1ccc(O)cc1O
REMARK SMILES IDX 4 1 3 2 5 3 6 4 7 5 8 6 11 7 10 8 9 9 2 11 1 12 12 13 18 14
REMARK SMILES IDX 13 15 17 16 14 17 15 18 19 19 16 21
REMARK H PARENT 9 10 19 20 16 22
REMARK Flexibility Score: inf
ROOT
ATOM      1  C   UNL     1     -10.191   5.562   6.990  1.00  0.00     0.012 C 
ATOM      2  C   UNL     1     -10.580   5.950   5.767  1.00  0.00     0.053 C 
ENDROOT
BRANCH   1   3
ATOM      3  C   UNL     1     -10.893   4.525   7.786  1.00  0.00    -0.025 A 
ATOM      4  C   UNL     1     -11.256   3.323   7.155  1.00  0.00     0.012 A 
ATOM      5  C   UNL     1     -11.926   2.321   7.864  1.00  0.00     0.047 A 
ATOM      6  C   UNL     1     -12.254   2.510   9.209  1.00  0.00     0.115 A 
ATOM      7  C   UNL     1     -11.239   4.714   9.140  1.00  0.00     0.012 A 
ATOM      8  C   UNL     1     -11.911   3.709   9.845  1.00  0.00     0.047 A 
BRANCH   6   9
ATOM      9  O   UNL     1     -12.921   1.503   9.903  1.00  0.00    -0.508 OA
ATOM     10  H   UNL     1     -13.468   1.704  10.732  1.00  0.00     0.293 HD
ENDBRANCH   6   9
ENDBRANCH   1   3
BRANCH   2  11
ATOM     11  C   UNL     1      -9.862   6.997   5.008  1.00  0.00     0.189 C 
ATOM     12  O   UNL     1      -9.014   6.676   4.131  1.00  0.00    -0.289 OA
BRANCH  11  13
ATOM     13  C   UNL     1     -10.155   8.428   5.248  1.00  0.00     0.064 A 
ATOM     14  C   UNL     1      -9.148   9.421   5.173  1.00  0.00     0.130 A 
ATOM     15  C   UNL     1     -11.480   8.818   5.518  1.00  0.00     0.020 A 
ATOM     16  C   UNL     1      -9.490  10.770   5.335  1.00  0.00     0.093 A 
ATOM     17  C   UNL     1     -11.804  10.165   5.692  1.00  0.00     0.047 A 
ATOM     18  C   UNL     1     -10.813  11.144   5.596  1.00  0.00     0.119 A 
BRANCH  14  19
ATOM     19  O   UNL     1      -7.803   9.106   4.970  1.00  0.00    -0.507 OA
ATOM     20  H   UNL     1      -7.042   9.640   5.368  1.00  0.00     0.293 HD
ENDBRANCH  14  19
BRANCH  18  21
ATOM     21  O   UNL     1     -11.153  12.484   5.765  1.00  0.00    -0.508 OA
ATOM     22  H   UNL     1     -12.121  12.783   5.809  1.00  0.00     0.293 HD
ENDBRANCH  18  21
ENDBRANCH  11  13
ENDBRANCH   2  11
TORSDOF 6
ENDMDL
MODEL 5
REMARK VINA RESULT:    -5.951      2.004      7.401
REMARK INTER + INTRA:          -8.096
REMARK INTER:                  -7.607
REMARK INTRA:                  -0.489
REMARK UNBOUND:                -0.579
REMARK SMILES O=C(C=Cc1ccc(O)cc1)c1ccc(O)cc1O
REMARK SMILES IDX 4 1 3 2 5 3 6 4 7 5 8 6 11 7 10 8 9 9 2 11 1 12 12 13 18 14
REMARK SMILES IDX 13 15 17 16 14 17 15 18 19 19 16 21
REMARK H PARENT 9 10 19 20 16 22
REMARK Flexibility Score: inf
ROOT
ATOM      1  C   UNL     1     -11.460   6.814   5.655  1.00  0.00     0.012 C 
ATOM      2  C   UNL     1     -11.922   8.017   6.025  1.00  0.00     0.053 C 
ENDROOT
BRANCH   1   3
ATOM      3  C   UNL     1     -11.898   5.538   6.274  1.00  0.00    -0.025 A 
ATOM      4  C   UNL     1     -11.502   5.260   7.593  1.00  0.00     0.012 A 
ATOM      5  C   UNL     1     -11.884   4.067   8.214  1.00  0.00     0.047 A 
ATOM      6  C   UNL     1     -12.655   3.129   7.523  1.00  0.00     0.115 A 
ATOM      7  C   UNL     1     -12.665   4.582   5.578  1.00  0.00     0.012 A 
ATOM      8  C   UNL     1     -13.043   3.389   6.203  1.00  0.00     0.047 A 
BRANCH   6   9
ATOM      9  O   UNL     1     -13.029   1.945   8.154  1.00  0.00    -0.508 OA
ATOM     10  H   UNL     1     -13.464   1.948   9.069  1.00  0.00     0.293 HD
ENDBRANCH   6   9
ENDBRANCH   1   3
BRANCH   2  11
ATOM     11  C   UNL     1     -11.453   9.269   5.393  1.00  0.00     0.189 C 
ATOM     12  O   UNL     1     -12.232   9.943   4.666  1.00  0.00    -0.289 OA
BRANCH  11  13
ATOM     13  C   UNL     1     -10.077   9.758   5.632  1.00  0.00     0.064 A 
ATOM     14  C   UNL     1      -8.986   9.348   4.827  1.00  0.00     0.130 A 
ATOM     15  C   UNL     1      -9.852  10.688   6.665  1.00  0.00     0.020 A 
ATOM     16  C   UNL     1      -7.716   9.896   5.048  1.00  0.00     0.093 A 
ATOM     17  C   UNL     1      -8.578  11.215   6.882  1.00  0.00     0.047 A 
ATOM     18  C   UNL     1      -7.508  10.826   6.073  1.00  0.00     0.119 A 
BRANCH  14  19
ATOM     19  O   UNL     1      -9.118   8.384   3.826  1.00  0.00    -0.507 OA
ATOM     20  H   UNL     1      -8.948   7.399   3.978  1.00  0.00     0.293 HD
ENDBRANCH  14  19
BRANCH  18  21
ATOM     21  O   UNL     1      -6.244  11.366   6.299  1.00  0.00    -0.508 OA
ATOM     22  H   UNL     1      -6.105  12.137   6.942  1.00  0.00     0.293 HD
ENDBRANCH  18  21
ENDBRANCH  11  13
ENDBRANCH   2  11
TORSDOF 6
ENDMDL
MODEL 6
REMARK VINA RESULT:    -5.872      2.182      2.522
REMARK INTER + INTRA:          -7.995
REMARK INTER:                  -7.391
REMARK INTRA:                  -0.604
REMARK UNBOUND:                -0.579
REMARK SMILES O=C(C=Cc1ccc(O)cc1)c1ccc(O)cc1O
REMARK SMILES IDX 4 1 3 2 5 3 6 4 7 5 8 6 11 7 10 8 9 9 2 11 1 12 12 13 18 14
REMARK SMILES IDX 13 15 17 16 14 17 15 18 19 19 16 21
REMARK H PARENT 9 10 19 20 16 22
REMARK Flexibility Score: inf
ROOT
ATOM      1  C   UNL     1     -10.989   7.404   5.433  1.00  0.00     0.012 C 
ATOM      2  C   UNL     1     -12.269   7.584   5.788  1.00  0.00     0.053 C 
ENDROOT
BRANCH   1   3
ATOM      3  C   UNL     1      -9.952   8.461   5.531  1.00  0.00    -0.025 A 
ATOM      4  C   UNL     1      -8.662   8.100   5.955  1.00  0.00     0.012 A 
ATOM      5  C   UNL     1      -7.655   9.064   6.071  1.00  0.00     0.047 A 
ATOM      6  C   UNL     1      -7.925  10.402   5.775  1.00  0.00     0.115 A 
ATOM      7  C   UNL     1     -10.220   9.816   5.247  1.00  0.00     0.012 A 
ATOM      8  C   UNL     1      -9.210  10.776   5.365  1.00  0.00     0.047 A 
BRANCH   6   9
ATOM      9  O   UNL     1      -6.912  11.351   5.893  1.00  0.00    -0.508 OA
ATOM     10  H   UNL     1      -6.253  11.328   6.663  1.00  0.00     0.293 HD
ENDBRANCH   6   9
ENDBRANCH   1   3
BRANCH   2  11
ATOM     11  C   UNL     1     -13.279   6.511   5.664  1.00  0.00     0.189 C 
ATOM     12  O   UNL     1     -14.507   6.796   5.625  1.00  0.00    -0.289 OA
BRANCH  11  13
ATOM     13  C   UNL     1     -12.858   5.096   5.554  1.00  0.00     0.064 A 
ATOM     14  C   UNL     1     -13.105   4.329   4.390  1.00  0.00     0.130 A 
ATOM     15  C   UNL     1     -12.154   4.509   6.623  1.00  0.00     0.020 A 
ATOM     16  C   UNL     1     -12.621   3.017   4.307  1.00  0.00     0.093 A 
ATOM     17  C   UNL     1     -11.690   3.195   6.531  1.00  0.00     0.047 A 
ATOM     18  C   UNL     1     -11.916   2.448   5.374  1.00  0.00     0.119 A 
BRANCH  14  19
ATOM     19  O   UNL     1     -13.849   4.822   3.316  1.00  0.00    -0.507 OA
ATOM     20  H   UNL     1     -13.467   5.445   2.616  1.00  0.00     0.293 HD
ENDBRANCH  14  19
BRANCH  18  21
ATOM     21  O   UNL     1     -11.440   1.141   5.295  1.00  0.00    -0.508 OA
ATOM     22  H   UNL     1     -11.886   0.451   4.702  1.00  0.00     0.293 HD
ENDBRANCH  18  21
ENDBRANCH  11  13
ENDBRANCH   2  11
TORSDOF 6
ENDMDL
MODEL 7
REMARK VINA RESULT:    -5.808      3.340      8.132
REMARK INTER + INTRA:          -7.914
REMARK INTER:                  -7.219
REMARK INTRA:                  -0.695
REMARK UNBOUND:                -0.579
REMARK SMILES O=C(C=Cc1ccc(O)cc1)c1ccc(O)cc1O
REMARK SMILES IDX 4 1 3 2 5 3 6 4 7 5 8 6 11 7 10 8 9 9 2 11 1 12 12 13 18 14
REMARK SMILES IDX 13 15 17 16 14 17 15 18 19 19 16 21
REMARK H PARENT 9 10 19 20 16 22
REMARK Flexibility Score: inf
ROOT
ATOM      1  C   UNL     1     -12.692   7.184   6.188  1.00  0.00     0.012 C 
ATOM      2  C   UNL     1     -13.680   7.877   5.604  1.00  0.00     0.053 C 
ENDROOT
BRANCH   1   3
ATOM      3  C   UNL     1     -12.480   5.729   5.989  1.00  0.00    -0.025 A 
ATOM      4  C   UNL     1     -13.080   5.106   4.882  1.00  0.00     0.012 A 
ATOM      5  C   UNL     1     -12.914   3.735   4.660  1.00  0.00     0.047 A 
ATOM      6  C   UNL     1     -12.156   2.965   5.547  1.00  0.00     0.115 A 
ATOM      7  C   UNL     1     -11.728   4.943   6.887  1.00  0.00     0.012 A 
ATOM      8  C   UNL     1     -11.565   3.572   6.662  1.00  0.00     0.047 A 
BRANCH   6   9
ATOM      9  O   UNL     1     -11.999   1.601   5.313  1.00  0.00    -0.508 OA
ATOM     10  H   UNL     1     -11.786   0.957   6.065  1.00  0.00     0.293 HD
ENDBRANCH   6   9
ENDBRANCH   1   3
BRANCH   2  11
ATOM     11  C   UNL     1     -13.869   9.326   5.836  1.00  0.00     0.189 C 
ATOM     12  O   UNL     1     -14.816   9.734   6.562  1.00  0.00    -0.289 OA
BRANCH  11  13
ATOM     13  C   UNL     1     -12.931  10.306   5.245  1.00  0.00     0.064 A 
ATOM     14  C   UNL     1     -11.978  10.999   6.031  1.00  0.00     0.130 A 
ATOM     15  C   UNL     1     -12.960  10.527   3.855  1.00  0.00     0.020 A 
ATOM     16  C   UNL     1     -11.064  11.862   5.413  1.00  0.00     0.093 A 
ATOM     17  C   UNL     1     -12.051  11.401   3.255  1.00  0.00     0.047 A 
ATOM     18  C   UNL     1     -11.098  12.066   4.029  1.00  0.00     0.119 A 
BRANCH  14  19
ATOM     19  O   UNL     1     -11.929  10.880   7.422  1.00  0.00    -0.507 OA
ATOM     20  H   UNL     1     -11.427  11.525   8.017  1.00  0.00     0.293 HD
ENDBRANCH  14  19
BRANCH  18  21
ATOM     21  O   UNL     1     -10.194  12.929   3.414  1.00  0.00    -0.508 OA
ATOM     22  H   UNL     1     -10.504  13.652   2.776  1.00  0.00     0.293 HD
ENDBRANCH  18  21
ENDBRANCH  11  13
ENDBRANCH   2  11
TORSDOF 6
ENDMDL
