MODEL 1
REMARK VINA RESULT:     0.677      0.000      0.000
REMARK INTER + INTRA:           0.464
REMARK INTER:                   0.716
REMARK INTRA:                  -0.252
REMARK UNBOUND:                -0.252
REMARK SMILES CC1=CC[C@H]2[C@@H]3[C@@H](C(C)C)CC[C@@]2(C)[C@H]13
REMARK SMILES IDX 1 1 2 2 3 3 4 4 5 5 6 6 15 7 13 8 12 9 11 10 7 11 14 12 8 13
REMARK SMILES IDX 9 14 10 15
REMARK H PARENT
REMARK Flexibility Score: inf
ROOT
ATOM      1  C   UNL     1       3.233   8.476  14.465  1.00  0.00     0.039 C 
ATOM      2  C   UNL     1       4.080   8.026  13.313  1.00  0.00    -0.073 C 
ATOM      3  C   UNL     1       3.811   8.424  12.043  1.00  0.00    -0.027 C 
ATOM      4  C   UNL     1       4.702   7.917  10.905  1.00  0.00     0.031 C 
ATOM      5  C   UNL     1       5.843   7.008  11.470  1.00  0.00     0.003 C 
ATOM      6  C   UNL     1       6.455   7.733  12.690  1.00  0.00     0.004 C 
ATOM      7  C   UNL     1       5.296   7.118  13.516  1.00  0.00     0.024 C 
ATOM      8  C   UNL     1       5.295   5.970  12.478  1.00  0.00    -0.022 C 
ATOM      9  C   UNL     1       6.417   4.935  12.802  1.00  0.00     0.008 C 
ATOM     10  C   UNL     1       7.667   5.594  13.445  1.00  0.00     0.005 C 
ATOM     11  C   UNL     1       7.834   7.089  13.036  1.00  0.00    -0.005 C 
ATOM     12  C   UNL     1       3.961   5.254  12.157  1.00  0.00     0.012 C 
ENDROOT
BRANCH  11  13
ATOM     13  C   UNL     1       8.664   7.897  14.081  1.00  0.00    -0.014 C 
ATOM     14  C   UNL     1       7.918   9.108  14.667  1.00  0.00     0.007 C 
ATOM     15  C   UNL     1      10.014   8.347  13.498  1.00  0.00     0.007 C 
ENDBRANCH  11  13
TORSDOF 1
ENDMDL
