MODEL 1
REMARK VINA RESULT:    -4.849      0.000      0.000
REMARK INTER + INTRA:          -7.431
REMARK INTER:                  -6.549
REMARK INTRA:                  -0.882
REMARK UNBOUND:                -0.882
REMARK SMILES CC(=O)CCC=C(C)CCC=C(C)C
REMARK SMILES IDX 7 1 6 2 8 3 9 4 10 5 11 6 13 7 12 8 14 9 5 10 4 11 2 12 3 13
REMARK SMILES IDX 1 14
REMARK H PARENT
REMARK Flexibility Score: inf
ROOT
ATOM      1  C   UNL     1      -4.231  -5.304   4.652  1.00  0.00    -0.077 C 
ATOM      2  C   UNL     1      -5.105  -4.685   5.481  1.00  0.00    -0.028 C 
ATOM      3  C   UNL     1      -4.629  -6.641   4.080  1.00  0.00     0.039 C 
ENDROOT
BRANCH   1   4
ATOM      4  C   UNL     1      -2.889  -4.712   4.258  1.00  0.00     0.034 C 
BRANCH   4   5
ATOM      5  C   UNL     1      -2.674  -4.780   2.741  1.00  0.00     0.032 C 
BRANCH   5   6
ATOM      6  C   UNL     1      -2.900  -3.433   2.101  1.00  0.00    -0.028 C 
ATOM      7  C   UNL     1      -4.128  -1.666   0.915  1.00  0.00     0.039 C 
ATOM      8  C   UNL     1      -4.059  -3.043   1.523  1.00  0.00    -0.080 C 
ATOM      9  C   UNL     1      -5.277  -3.934   1.486  1.00  0.00     0.039 C 
ENDBRANCH   5   6
ENDBRANCH   4   5
ENDBRANCH   1   4
BRANCH   2  10
ATOM     10  C   UNL     1      -4.882  -3.356   6.168  1.00  0.00     0.035 C 
BRANCH  10  11
ATOM     11  C   UNL     1      -4.971  -3.484   7.695  1.00  0.00     0.079 C 
BRANCH  11  12
ATOM     12  C   UNL     1      -4.623  -2.194   8.393  1.00  0.00     0.130 C 
ATOM     13  O   UNL     1      -3.452  -1.895   8.572  1.00  0.00    -0.300 OA
ATOM     14  C   UNL     1      -5.705  -1.254   8.831  1.00  0.00     0.087 C 
ENDBRANCH  11  12
ENDBRANCH  10  11
ENDBRANCH   2  10
TORSDOF 6
ENDMDL
MODEL 2
REMARK VINA RESULT:    -4.476     14.464     16.155
REMARK INTER + INTRA:          -6.927
REMARK INTER:                  -6.268
REMARK INTRA:                  -0.659
REMARK UNBOUND:                -0.882
REMARK SMILES CC(=O)CCC=C(C)CCC=C(C)C
REMARK SMILES IDX 7 1 6 2 8 3 9 4 10 5 11 6 13 7 12 8 14 9 5 10 4 11 2 12 3 13
REMARK SMILES IDX 1 14
REMARK H PARENT
REMARK Flexibility Score: inf
ROOT
ATOM      1  C   UNL     1       8.883   6.152   7.912  1.00  0.00    -0.077 C 
ATOM      2  C   UNL     1       8.503   5.372   6.873  1.00  0.00    -0.028 C 
ATOM      3  C   UNL     1      10.143   5.776   8.651  1.00  0.00     0.039 C 
ENDROOT
BRANCH   1   4
ATOM      4  C   UNL     1       8.121   7.390   8.352  1.00  0.00     0.034 C 
BRANCH   4   5
ATOM      5  C   UNL     1       7.868   7.380   9.864  1.00  0.00     0.032 C 
BRANCH   5   6
ATOM      6  C   UNL     1       7.024   8.561  10.279  1.00  0.00    -0.028 C 
ATOM      7  C   UNL     1       4.994   9.769  10.954  1.00  0.00     0.039 C 
ATOM      8  C   UNL     1       5.704   8.498  10.563  1.00  0.00    -0.080 C 
ATOM      9  C   UNL     1       4.933   7.200  10.516  1.00  0.00     0.039 C 
ENDBRANCH   5   6
ENDBRANCH   4   5
ENDBRANCH   1   4
BRANCH   2  10
ATOM     10  C   UNL     1       7.267   5.570   6.024  1.00  0.00     0.035 C 
BRANCH  10  11
ATOM     11  C   UNL     1       6.273   4.412   6.187  1.00  0.00     0.079 C 
BRANCH  11  12
ATOM     12  C   UNL     1       4.861   4.900   6.386  1.00  0.00     0.130 C 
ATOM     13  O   UNL     1       4.213   5.293   5.428  1.00  0.00    -0.300 OA
ATOM     14  C   UNL     1       4.231   4.865   7.745  1.00  0.00     0.087 C 
ENDBRANCH  11  12
ENDBRANCH  10  11
ENDBRANCH   2  10
TORSDOF 6
ENDMDL
MODEL 3
REMARK VINA RESULT:    -4.464     14.903     16.304
REMARK INTER + INTRA:          -6.912
REMARK INTER:                  -6.112
REMARK INTRA:                  -0.800
REMARK UNBOUND:                -0.882
REMARK SMILES CC(=O)CCC=C(C)CCC=C(C)C
REMARK SMILES IDX 7 1 6 2 8 3 9 4 10 5 11 6 13 7 12 8 14 9 5 10 4 11 2 12 3 13
REMARK SMILES IDX 1 14
REMARK H PARENT
REMARK Flexibility Score: inf
ROOT
ATOM      1  C   UNL     1       9.600   5.342   7.190  1.00  0.00    -0.077 C 
ATOM      2  C   UNL     1       8.475   4.725   6.756  1.00  0.00    -0.028 C 
ATOM      3  C   UNL     1      10.739   4.477   7.666  1.00  0.00     0.039 C 
ENDROOT
BRANCH   1   4
ATOM      4  C   UNL     1       9.775   6.851   7.201  1.00  0.00     0.034 C 
BRANCH   4   5
ATOM      5  C   UNL     1       9.801   7.398   8.634  1.00  0.00     0.032 C 
BRANCH   5   6
ATOM      6  C   UNL     1       8.548   7.014   9.382  1.00  0.00    -0.028 C 
ATOM      7  C   UNL     1       6.404   7.350  10.535  1.00  0.00     0.039 C 
ATOM      8  C   UNL     1       7.597   7.886   9.785  1.00  0.00    -0.080 C 
ATOM      9  C   UNL     1       7.688   9.365   9.494  1.00  0.00     0.039 C 
ENDBRANCH   5   6
ENDBRANCH   4   5
ENDBRANCH   1   4
BRANCH   2  10
ATOM     10  C   UNL     1       7.223   5.415   6.261  1.00  0.00     0.035 C 
BRANCH  10  11
ATOM     11  C   UNL     1       6.103   4.410   5.959  1.00  0.00     0.079 C 
BRANCH  11  12
ATOM     12  C   UNL     1       4.748   4.934   6.360  1.00  0.00     0.130 C 
ATOM     13  O   UNL     1       3.966   5.318   5.503  1.00  0.00    -0.300 OA
ATOM     14  C   UNL     1       4.336   4.946   7.801  1.00  0.00     0.087 C 
ENDBRANCH  11  12
ENDBRANCH  10  11
ENDBRANCH   2  10
TORSDOF 6
ENDMDL
MODEL 4
REMARK VINA RESULT:    -4.434      2.356      5.503
REMARK INTER + INTRA:          -6.871
REMARK INTER:                  -6.347
REMARK INTRA:                  -0.524
REMARK UNBOUND:                -0.882
REMARK SMILES CC(=O)CCC=C(C)CCC=C(C)C
REMARK SMILES IDX 7 1 6 2 8 3 9 4 10 5 11 6 13 7 12 8 14 9 5 10 4 11 2 12 3 13
REMARK SMILES IDX 1 14
REMARK H PARENT
REMARK Flexibility Score: inf
ROOT
ATOM      1  C   UNL     1      -4.693  -5.923   3.370  1.00  0.00    -0.077 C 
ATOM      2  C   UNL     1      -3.956  -5.370   2.378  1.00  0.00    -0.028 C 
ATOM      3  C   UNL     1      -5.773  -6.903   2.984  1.00  0.00     0.039 C 
ENDROOT
BRANCH   1   4
ATOM      4  C   UNL     1      -4.473  -5.624   4.843  1.00  0.00     0.034 C 
BRANCH   4   5
ATOM      5  C   UNL     1      -5.523  -4.640   5.374  1.00  0.00     0.032 C 
BRANCH   5   6
ATOM      6  C   UNL     1      -4.953  -3.785   6.479  1.00  0.00    -0.028 C 
ATOM      7  C   UNL     1      -4.974  -2.224   8.377  1.00  0.00     0.039 C 
ATOM      8  C   UNL     1      -5.691  -3.036   7.328  1.00  0.00    -0.080 C 
ATOM      9  C   UNL     1      -7.200  -3.004   7.266  1.00  0.00     0.039 C 
ENDBRANCH   5   6
ENDBRANCH   4   5
ENDBRANCH   1   4
BRANCH   2  10
ATOM     10  C   UNL     1      -2.847  -4.358   2.560  1.00  0.00     0.035 C 
BRANCH  10  11
ATOM     11  C   UNL     1      -3.395  -2.928   2.666  1.00  0.00     0.079 C 
BRANCH  11  12
ATOM     12  C   UNL     1      -3.853  -2.396   1.332  1.00  0.00     0.130 C 
ATOM     13  O   UNL     1      -4.945  -2.718   0.890  1.00  0.00    -0.300 OA
ATOM     14  C   UNL     1      -2.994  -1.438   0.563  1.00  0.00     0.087 C 
ENDBRANCH  11  12
ENDBRANCH  10  11
ENDBRANCH   2  10
TORSDOF 6
ENDMDL
MODEL 5
REMARK VINA RESULT:    -4.288     15.404     17.252
REMARK INTER + INTRA:          -6.675
REMARK INTER:                  -5.882
REMARK INTRA:                  -0.792
REMARK UNBOUND:                -0.882
REMARK SMILES CC(=O)CCC=C(C)CCC=C(C)C
REMARK SMILES IDX 7 1 6 2 8 3 9 4 10 5 11 6 13 7 12 8 14 9 5 10 4 11 2 12 3 13
REMARK SMILES IDX 1 14
REMARK H PARENT
REMARK Flexibility Score: inf
ROOT
ATOM      1  C   UNL     1       9.149   6.969   8.626  1.00  0.00    -0.077 C 
ATOM      2  C   UNL     1       9.665   7.036   7.376  1.00  0.00    -0.028 C 
ATOM      3  C   UNL     1      10.113   6.844   9.780  1.00  0.00     0.039 C 
ENDROOT
BRANCH   1   4
ATOM      4  C   UNL     1       7.661   7.034   8.922  1.00  0.00     0.034 C 
BRANCH   4   5
ATOM      5  C   UNL     1       7.399   7.222  10.421  1.00  0.00     0.032 C 
BRANCH   5   6
ATOM      6  C   UNL     1       6.813   8.584  10.701  1.00  0.00    -0.028 C 
ATOM      7  C   UNL     1       5.058  10.267  11.055  1.00  0.00     0.039 C 
ATOM      8  C   UNL     1       5.490   8.849  10.778  1.00  0.00    -0.080 C 
ATOM      9  C   UNL     1       4.444   7.773  10.612  1.00  0.00     0.039 C 
ENDBRANCH   5   6
ENDBRANCH   4   5
ENDBRANCH   1   4
BRANCH   2  10
ATOM     10  C   UNL     1       8.868   7.142   6.095  1.00  0.00     0.035 C 
BRANCH  10  11
ATOM     11  C   UNL     1       8.909   5.835   5.290  1.00  0.00     0.079 C 
BRANCH  11  12
ATOM     12  C   UNL     1       8.077   4.752   5.926  1.00  0.00     0.130 C 
ATOM     13  O   UNL     1       8.620   3.761   6.391  1.00  0.00    -0.300 OA
ATOM     14  C   UNL     1       6.589   4.901   6.031  1.00  0.00     0.087 C 
ENDBRANCH  11  12
ENDBRANCH  10  11
ENDBRANCH   2  10
TORSDOF 6
ENDMDL
MODEL 6
REMARK VINA RESULT:    -4.156     15.516     16.570
REMARK INTER + INTRA:          -6.495
REMARK INTER:                  -5.506
REMARK INTRA:                  -0.990
REMARK UNBOUND:                -0.882
REMARK SMILES CC(=O)CCC=C(C)CCC=C(C)C
REMARK SMILES IDX 7 1 6 2 8 3 9 4 10 5 11 6 13 7 12 8 14 9 5 10 4 11 2 12 3 13
REMARK SMILES IDX 1 14
REMARK H PARENT
REMARK Flexibility Score: inf
ROOT
ATOM      1  C   UNL     1       9.975   6.581   8.472  1.00  0.00    -0.077 C 
ATOM      2  C   UNL     1       9.112   6.822   9.488  1.00  0.00    -0.028 C 
ATOM      3  C   UNL     1      10.988   5.479   8.655  1.00  0.00     0.039 C 
ENDROOT
BRANCH   1   4
ATOM      4  C   UNL     1       9.958   7.347   7.161  1.00  0.00     0.034 C 
BRANCH   4   5
ATOM      5  C   UNL     1       9.610   6.427   5.983  1.00  0.00     0.032 C 
BRANCH   5   6
ATOM      6  C   UNL     1       8.136   6.106   5.965  1.00  0.00    -0.028 C 
ATOM      7  C   UNL     1       6.122   4.701   6.061  1.00  0.00     0.039 C 
ATOM      8  C   UNL     1       7.619   4.865   6.113  1.00  0.00    -0.080 C 
ATOM      9  C   UNL     1       8.492   3.655   6.346  1.00  0.00     0.039 C 
ENDBRANCH   5   6
ENDBRANCH   4   5
ENDBRANCH   1   4
BRANCH   2  10
ATOM     10  C   UNL     1       8.043   7.892   9.505  1.00  0.00     0.035 C 
BRANCH  10  11
ATOM     11  C   UNL     1       6.855   7.494  10.392  1.00  0.00     0.079 C 
BRANCH  11  12
ATOM     12  C   UNL     1       5.814   8.580  10.466  1.00  0.00     0.130 C 
ATOM     13  O   UNL     1       6.150   9.752  10.385  1.00  0.00    -0.300 OA
ATOM     14  C   UNL     1       4.362   8.231  10.596  1.00  0.00     0.087 C 
ENDBRANCH  11  12
ENDBRANCH  10  11
ENDBRANCH   2  10
TORSDOF 6
ENDMDL
MODEL 7
REMARK VINA RESULT:    -4.128      2.366      6.245
REMARK INTER + INTRA:          -6.458
REMARK INTER:                  -5.825
REMARK INTRA:                  -0.632
REMARK UNBOUND:                -0.882
REMARK SMILES CC(=O)CCC=C(C)CCC=C(C)C
REMARK SMILES IDX 7 1 6 2 8 3 9 4 10 5 11 6 13 7 12 8 14 9 5 10 4 11 2 12 3 13
REMARK SMILES IDX 1 14
REMARK H PARENT
REMARK Flexibility Score: inf
ROOT
ATOM      1  C   UNL     1      -5.828  -3.956   6.224  1.00  0.00    -0.077 C 
ATOM      2  C   UNL     1      -5.390  -4.706   5.185  1.00  0.00    -0.028 C 
ATOM      3  C   UNL     1      -7.314  -3.900   6.475  1.00  0.00     0.039 C 
ENDROOT
BRANCH   1   4
ATOM      4  C   UNL     1      -4.902  -3.191   7.153  1.00  0.00     0.034 C 
BRANCH   4   5
ATOM      5  C   UNL     1      -5.574  -2.910   8.503  1.00  0.00     0.032 C 
BRANCH   5   6
ATOM      6  C   UNL     1      -5.735  -1.427   8.728  1.00  0.00    -0.028 C 
ATOM      7  C   UNL     1      -6.881   0.663   9.326  1.00  0.00     0.039 C 
ATOM      8  C   UNL     1      -6.872  -0.835   9.157  1.00  0.00    -0.080 C 
ATOM      9  C   UNL     1      -8.115  -1.627   9.486  1.00  0.00     0.039 C 
ENDBRANCH   5   6
ENDBRANCH   4   5
ENDBRANCH   1   4
BRANCH   2  10
ATOM     10  C   UNL     1      -3.948  -4.872   4.761  1.00  0.00     0.035 C 
BRANCH  10  11
ATOM     11  C   UNL     1      -3.449  -3.665   3.955  1.00  0.00     0.079 C 
BRANCH  11  12
ATOM     12  C   UNL     1      -3.688  -3.832   2.476  1.00  0.00     0.130 C 
ATOM     13  O   UNL     1      -3.797  -4.952   2.000  1.00  0.00    -0.300 OA
ATOM     14  C   UNL     1      -3.837  -2.631   1.592  1.00  0.00     0.087 C 
ENDBRANCH  11  12
ENDBRANCH  10  11
ENDBRANCH   2  10
TORSDOF 6
ENDMDL
MODEL 8
REMARK VINA RESULT:    -4.116      2.937      5.931
REMARK INTER + INTRA:          -6.442
REMARK INTER:                  -5.764
REMARK INTRA:                  -0.678
REMARK UNBOUND:                -0.882
REMARK SMILES CC(=O)CCC=C(C)CCC=C(C)C
REMARK SMILES IDX 7 1 6 2 8 3 9 4 10 5 11 6 13 7 12 8 14 9 5 10 4 11 2 12 3 13
REMARK SMILES IDX 1 14
REMARK H PARENT
REMARK Flexibility Score: inf
ROOT
ATOM      1  C   UNL     1      -4.276  -4.897   3.807  1.00  0.00    -0.077 C 
ATOM      2  C   UNL     1      -4.746  -5.819   2.934  1.00  0.00    -0.028 C 
ATOM      3  C   UNL     1      -3.372  -3.816   3.270  1.00  0.00     0.039 C 
ENDROOT
BRANCH   1   4
ATOM      4  C   UNL     1      -4.629  -4.887   5.284  1.00  0.00     0.034 C 
BRANCH   4   5
ATOM      5  C   UNL     1      -4.553  -3.469   5.865  1.00  0.00     0.032 C 
BRANCH   5   6
ATOM      6  C   UNL     1      -5.465  -3.324   7.058  1.00  0.00    -0.028 C 
ATOM      7  C   UNL     1      -6.144  -2.657   9.324  1.00  0.00     0.039 C 
ATOM      8  C   UNL     1      -5.124  -2.714   8.215  1.00  0.00    -0.080 C 
ATOM      9  C   UNL     1      -3.770  -2.078   8.419  1.00  0.00     0.039 C 
ENDBRANCH   5   6
ENDBRANCH   4   5
ENDBRANCH   1   4
BRANCH   2  10
ATOM     10  C   UNL     1      -5.643  -6.987   3.279  1.00  0.00     0.035 C 
BRANCH  10  11
ATOM     11  C   UNL     1      -6.930  -6.981   2.442  1.00  0.00     0.079 C 
BRANCH  11  12
ATOM     12  C   UNL     1      -7.618  -5.640   2.470  1.00  0.00     0.130 C 
ATOM     13  O   UNL     1      -7.829  -5.043   1.425  1.00  0.00    -0.300 OA
ATOM     14  C   UNL     1      -8.086  -5.055   3.768  1.00  0.00     0.087 C 
ENDBRANCH  11  12
ENDBRANCH  10  11
ENDBRANCH   2  10
TORSDOF 6
ENDMDL
MODEL 9
REMARK VINA RESULT:    -4.111     15.387     16.672
REMARK INTER + INTRA:          -6.435
REMARK INTER:                  -5.202
REMARK INTRA:                  -1.233
REMARK UNBOUND:                -0.882
REMARK SMILES CC(=O)CCC=C(C)CCC=C(C)C
REMARK SMILES IDX 7 1 6 2 8 3 9 4 10 5 11 6 13 7 12 8 14 9 5 10 4 11 2 12 3 13
REMARK SMILES IDX 1 14
REMARK H PARENT
REMARK Flexibility Score: inf
ROOT
ATOM      1  C   UNL     1       8.024   4.756   5.914  1.00  0.00    -0.077 C 
ATOM      2  C   UNL     1       8.602   3.654   6.446  1.00  0.00    -0.028 C 
ATOM      3  C   UNL     1       6.526   4.891   6.026  1.00  0.00     0.039 C 
ENDROOT
BRANCH   1   4
ATOM      4  C   UNL     1       8.806   5.865   5.232  1.00  0.00     0.034 C 
BRANCH   4   5
ATOM      5  C   UNL     1       8.853   7.129   6.099  1.00  0.00     0.032 C 
BRANCH   5   6
ATOM      6  C   UNL     1       9.822   6.965   7.244  1.00  0.00    -0.028 C 
ATOM      7  C   UNL     1      10.552   6.716   9.577  1.00  0.00     0.039 C 
ATOM      8  C   UNL     1       9.465   6.866   8.544  1.00  0.00    -0.080 C 
ATOM      9  C   UNL     1       8.020   6.885   8.983  1.00  0.00     0.039 C 
ENDBRANCH   5   6
ENDBRANCH   4   5
ENDBRANCH   1   4
BRANCH   2  10
ATOM     10  C   UNL     1      10.079   3.328   6.418  1.00  0.00     0.035 C 
BRANCH  10  11
ATOM     11  C   UNL     1      10.576   2.824   7.779  1.00  0.00     0.079 C 
BRANCH  11  12
ATOM     12  C   UNL     1      10.377   1.339   7.941  1.00  0.00     0.130 C 
ATOM     13  O   UNL     1      10.317   0.851   9.060  1.00  0.00    -0.300 OA
ATOM     14  C   UNL     1      10.210   0.461   6.738  1.00  0.00     0.087 C 
ENDBRANCH  11  12
ENDBRANCH  10  11
ENDBRANCH   2  10
TORSDOF 6
ENDMDL
