MODEL 1
REMARK VINA RESULT:    -7.539      0.000      0.000
REMARK INTER + INTRA:         -15.373
REMARK INTER:                 -14.150
REMARK INTRA:                  -1.223
REMARK UNBOUND:                -1.223
REMARK SMILES O=C([O-])CCCCCCCCCCCCCCC(=O)[O-]
REMARK SMILES IDX 10 1 9 2 8 3 7 4 6 5 5 6 4 7 2 8 1 9 3 10 11 11 12 12 13 13
REMARK SMILES IDX 14 14 15 15 16 16 17 17 18 18 19 19 20 20
REMARK H PARENT
REMARK Flexibility Score: inf
ROOT
ATOM      1  C   UNL     1      29.341  -3.666  19.003  1.00  0.00     0.000 C 
ENDROOT
BRANCH   1   2
ATOM      2  C   UNL     1      28.487  -4.871  18.589  1.00  0.00     0.000 C 
BRANCH   2   3
ATOM      3  C   UNL     1      27.056  -4.438  18.234  1.00  0.00     0.000 C 
BRANCH   3   4
ATOM      4  C   UNL     1      25.995  -5.190  19.066  1.00  0.00     0.000 C 
BRANCH   4   5
ATOM      5  C   UNL     1      26.594  -6.204  20.054  1.00  0.00     0.000 C 
BRANCH   5   6
ATOM      6  C   UNL     1      26.318  -7.663  19.654  1.00  0.00     0.006 C 
BRANCH   6   7
ATOM      7  C   UNL     1      25.634  -8.453  20.778  1.00  0.00     0.053 C 
BRANCH   7   8
ATOM      8  C   UNL     1      24.304  -7.868  21.139  1.00  0.00     0.041 C 
ATOM      9  O   UNL     1      23.900  -7.900  22.332  1.00  0.00    -0.550 OA
ATOM     10  O   UNL     1      23.492  -7.321  20.153  1.00  0.00    -0.550 OA
ENDBRANCH   7   8
ENDBRANCH   6   7
ENDBRANCH   5   6
ENDBRANCH   4   5
ENDBRANCH   3   4
ENDBRANCH   2   3
ENDBRANCH   1   2
BRANCH   1  11
ATOM     11  C   UNL     1      28.556  -2.728  19.931  1.00  0.00     0.000 C 
BRANCH  11  12
ATOM     12  C   UNL     1      28.594  -1.265  19.465  1.00  0.00     0.000 C 
BRANCH  12  13
ATOM     13  C   UNL     1      27.251  -0.545  19.659  1.00  0.00     0.000 C 
BRANCH  13  14
ATOM     14  C   UNL     1      26.140  -1.543  20.007  1.00  0.00     0.000 C 
BRANCH  14  15
ATOM     15  C   UNL     1      24.764  -0.866  19.983  1.00  0.00     0.000 C 
BRANCH  15  16
ATOM     16  C   UNL     1      24.878   0.598  19.534  1.00  0.00     0.006 C 
BRANCH  16  17
ATOM     17  C   UNL     1      23.576   1.118  18.910  1.00  0.00     0.053 C 
BRANCH  17  18
ATOM     18  C   UNL     1      23.839   2.161  17.868  1.00  0.00     0.041 C 
ATOM     19  O   UNL     1      24.613   3.125  18.116  1.00  0.00    -0.550 OA
ATOM     20  O   UNL     1      23.205   2.088  16.634  1.00  0.00    -0.550 OA
ENDBRANCH  17  18
ENDBRANCH  16  17
ENDBRANCH  15  16
ENDBRANCH  14  15
ENDBRANCH  13  14
ENDBRANCH  12  13
ENDBRANCH  11  12
ENDBRANCH   1  11
TORSDOF 15
ENDMDL
MODEL 2
REMARK VINA RESULT:    -7.404      0.501      7.674
REMARK INTER + INTRA:         -15.119
REMARK INTER:                 -13.757
REMARK INTRA:                  -1.362
REMARK UNBOUND:                -1.223
REMARK SMILES O=C([O-])CCCCCCCCCCCCCCC(=O)[O-]
REMARK SMILES IDX 10 1 9 2 8 3 7 4 6 5 5 6 4 7 2 8 1 9 3 10 11 11 12 12 13 13
REMARK SMILES IDX 14 14 15 15 16 16 17 17 18 18 19 19 20 20
REMARK H PARENT
REMARK Flexibility Score: inf
ROOT
ATOM      1  C   UNL     1      29.185  -2.931  19.764  1.00  0.00     0.000 C 
ENDROOT
BRANCH   1   2
ATOM      2  C   UNL     1      29.026  -1.501  19.232  1.00  0.00     0.000 C 
BRANCH   2   3
ATOM      3  C   UNL     1      27.989  -0.719  20.052  1.00  0.00     0.000 C 
BRANCH   3   4
ATOM      4  C   UNL     1      26.825  -1.614  20.529  1.00  0.00     0.000 C 
BRANCH   4   5
ATOM      5  C   UNL     1      25.457  -1.199  19.961  1.00  0.00     0.000 C 
BRANCH   5   6
ATOM      6  C   UNL     1      25.350   0.312  19.703  1.00  0.00     0.006 C 
BRANCH   6   7
ATOM      7  C   UNL     1      23.952   0.722  19.222  1.00  0.00     0.053 C 
BRANCH   7   8
ATOM      8  C   UNL     1      24.014   1.818  18.204  1.00  0.00     0.041 C 
ATOM      9  O   UNL     1      23.236   1.807  17.212  1.00  0.00    -0.550 OA
ATOM     10  O   UNL     1      24.955   2.832  18.328  1.00  0.00    -0.550 OA
ENDBRANCH   7   8
ENDBRANCH   6   7
ENDBRANCH   5   6
ENDBRANCH   4   5
ENDBRANCH   3   4
ENDBRANCH   2   3
ENDBRANCH   1   2
BRANCH   1  11
ATOM     11  C   UNL     1      29.374  -3.929  18.613  1.00  0.00     0.000 C 
BRANCH  11  12
ATOM     12  C   UNL     1      28.295  -5.023  18.594  1.00  0.00     0.000 C 
BRANCH  12  13
ATOM     13  C   UNL     1      26.891  -4.466  18.314  1.00  0.00     0.000 C 
BRANCH  13  14
ATOM     14  C   UNL     1      25.847  -5.129  19.220  1.00  0.00     0.000 C 
BRANCH  14  15
ATOM     15  C   UNL     1      26.492  -6.186  20.124  1.00  0.00     0.000 C 
BRANCH  15  16
ATOM     16  C   UNL     1      26.163  -7.604  19.637  1.00  0.00     0.006 C 
BRANCH  16  17
ATOM     17  C   UNL     1      25.558  -8.474  20.747  1.00  0.00     0.053 C 
BRANCH  17  18
ATOM     18  C   UNL     1      24.215  -7.970  21.177  1.00  0.00     0.041 C 
ATOM     19  O   UNL     1      23.406  -7.512  20.327  1.00  0.00    -0.550 OA
ATOM     20  O   UNL     1      23.870  -7.974  22.523  1.00  0.00    -0.550 OA
ENDBRANCH  17  18
ENDBRANCH  16  17
ENDBRANCH  15  16
ENDBRANCH  14  15
ENDBRANCH  13  14
ENDBRANCH  12  13
ENDBRANCH  11  12
ENDBRANCH   1  11
TORSDOF 15
ENDMDL
MODEL 3
REMARK VINA RESULT:    -7.402      0.858      1.408
REMARK INTER + INTRA:         -15.117
REMARK INTER:                 -14.016
REMARK INTRA:                  -1.100
REMARK UNBOUND:                -1.223
REMARK SMILES O=C([O-])CCCCCCCCCCCCCCC(=O)[O-]
REMARK SMILES IDX 10 1 9 2 8 3 7 4 6 5 5 6 4 7 2 8 1 9 3 10 11 11 12 12 13 13
REMARK SMILES IDX 14 14 15 15 16 16 17 17 18 18 19 19 20 20
REMARK H PARENT
REMARK Flexibility Score: inf
ROOT
ATOM      1  C   UNL     1      28.919  -3.782  19.509  1.00  0.00     0.000 C 
ENDROOT
BRANCH   1   2
ATOM      2  C   UNL     1      28.497  -4.607  18.287  1.00  0.00     0.000 C 
BRANCH   2   3
ATOM      3  C   UNL     1      27.548  -5.746  18.690  1.00  0.00     0.000 C 
BRANCH   3   4
ATOM      4  C   UNL     1      26.655  -5.365  19.890  1.00  0.00     0.000 C 
BRANCH   4   5
ATOM      5  C   UNL     1      25.186  -5.116  19.511  1.00  0.00     0.000 C 
BRANCH   5   6
ATOM      6  C   UNL     1      24.336  -6.396  19.542  1.00  0.00     0.006 C 
BRANCH   6   7
ATOM      7  C   UNL     1      24.885  -7.433  20.530  1.00  0.00     0.053 C 
BRANCH   7   8
ATOM      8  C   UNL     1      23.792  -8.070  21.332  1.00  0.00     0.041 C 
ATOM      9  O   UNL     1      22.707  -8.394  20.780  1.00  0.00    -0.550 OA
ATOM     10  O   UNL     1      23.956  -8.271  22.697  1.00  0.00    -0.550 OA
ENDBRANCH   7   8
ENDBRANCH   6   7
ENDBRANCH   5   6
ENDBRANCH   4   5
ENDBRANCH   3   4
ENDBRANCH   2   3
ENDBRANCH   1   2
BRANCH   1  11
ATOM     11  C   UNL     1      29.370  -2.375  19.093  1.00  0.00     0.000 C 
BRANCH  11  12
ATOM     12  C   UNL     1      28.866  -1.284  20.051  1.00  0.00     0.000 C 
BRANCH  12  13
ATOM     13  C   UNL     1      27.490  -0.733  19.651  1.00  0.00     0.000 C 
BRANCH  13  14
ATOM     14  C   UNL     1      26.363  -1.591  20.238  1.00  0.00     0.000 C 
BRANCH  14  15
ATOM     15  C   UNL     1      24.991  -1.102  19.759  1.00  0.00     0.000 C 
BRANCH  15  16
ATOM     16  C   UNL     1      24.937   0.431  19.715  1.00  0.00     0.006 C 
BRANCH  16  17
ATOM     17  C   UNL     1      23.617   0.950  19.128  1.00  0.00     0.053 C 
BRANCH  17  18
ATOM     18  C   UNL     1      23.850   1.983  18.069  1.00  0.00     0.041 C 
ATOM     19  O   UNL     1      23.140   1.995  17.027  1.00  0.00    -0.550 OA
ATOM     20  O   UNL     1      24.871   2.913  18.216  1.00  0.00    -0.550 OA
ENDBRANCH  17  18
ENDBRANCH  16  17
ENDBRANCH  15  16
ENDBRANCH  14  15
ENDBRANCH  13  14
ENDBRANCH  12  13
ENDBRANCH  11  12
ENDBRANCH   1  11
TORSDOF 15
ENDMDL
MODEL 4
REMARK VINA RESULT:    -7.075      3.069      7.606
REMARK INTER + INTRA:         -14.502
REMARK INTER:                 -13.207
REMARK INTRA:                  -1.295
REMARK UNBOUND:                -1.223
REMARK SMILES O=C([O-])CCCCCCCCCCCCCCC(=O)[O-]
REMARK SMILES IDX 10 1 9 2 8 3 7 4 6 5 5 6 4 7 2 8 1 9 3 10 11 11 12 12 13 13
REMARK SMILES IDX 14 14 15 15 16 16 17 17 18 18 19 19 20 20
REMARK H PARENT
REMARK Flexibility Score: inf
ROOT
ATOM      1  C   UNL     1      25.409  -2.078  20.335  1.00  0.00     0.000 C 
ENDROOT
BRANCH   1   2
ATOM      2  C   UNL     1      24.746  -0.856  19.688  1.00  0.00     0.000 C 
BRANCH   2   3
ATOM      3  C   UNL     1      25.706   0.343  19.658  1.00  0.00     0.000 C 
BRANCH   3   4
ATOM      4  C   UNL     1      26.999   0.076  20.457  1.00  0.00     0.000 C 
BRANCH   4   5
ATOM      5  C   UNL     1      28.269   0.074  19.589  1.00  0.00     0.000 C 
BRANCH   5   6
ATOM      6  C   UNL     1      28.521  -1.277  18.901  1.00  0.00     0.006 C 
BRANCH   6   7
ATOM      7  C   UNL     1      29.310  -2.244  19.793  1.00  0.00     0.053 C 
BRANCH   7   8
ATOM      8  C   UNL     1      30.069  -3.252  18.987  1.00  0.00     0.041 C 
ATOM      9  O   UNL     1      29.454  -4.063  18.244  1.00  0.00    -0.550 OA
ATOM     10  O   UNL     1      31.453  -3.321  19.083  1.00  0.00    -0.550 OA
ENDBRANCH   7   8
ENDBRANCH   6   7
ENDBRANCH   5   6
ENDBRANCH   4   5
ENDBRANCH   3   4
ENDBRANCH   2   3
ENDBRANCH   1   2
BRANCH   1  11
ATOM     11  C   UNL     1      25.700  -3.164  19.290  1.00  0.00     0.000 C 
BRANCH  11  12
ATOM     12  C   UNL     1      25.424  -4.581  19.816  1.00  0.00     0.000 C 
BRANCH  12  13
ATOM     13  C   UNL     1      26.689  -5.450  19.872  1.00  0.00     0.000 C 
BRANCH  13  14
ATOM     14  C   UNL     1      26.730  -6.437  18.699  1.00  0.00     0.000 C 
BRANCH  14  15
ATOM     15  C   UNL     1      26.842  -7.882  19.197  1.00  0.00     0.000 C 
BRANCH  15  16
ATOM     16  C   UNL     1      26.426  -7.991  20.671  1.00  0.00     0.006 C 
BRANCH  16  17
ATOM     17  C   UNL     1      25.315  -9.026  20.887  1.00  0.00     0.053 C 
BRANCH  17  18
ATOM     18  C   UNL     1      23.988  -8.373  21.126  1.00  0.00     0.041 C 
ATOM     19  O   UNL     1      23.257  -8.751  22.080  1.00  0.00    -0.550 OA
ATOM     20  O   UNL     1      23.545  -7.368  20.276  1.00  0.00    -0.550 OA
ENDBRANCH  17  18
ENDBRANCH  16  17
ENDBRANCH  15  16
ENDBRANCH  14  15
ENDBRANCH  13  14
ENDBRANCH  12  13
ENDBRANCH  11  12
ENDBRANCH   1  11
TORSDOF 15
ENDMDL
MODEL 5
REMARK VINA RESULT:    -7.019      0.975      1.530
REMARK INTER + INTRA:         -14.397
REMARK INTER:                 -13.398
REMARK INTRA:                  -0.999
REMARK UNBOUND:                -1.223
REMARK SMILES O=C([O-])CCCCCCCCCCCCCCC(=O)[O-]
REMARK SMILES IDX 10 1 9 2 8 3 7 4 6 5 5 6 4 7 2 8 1 9 3 10 11 11 12 12 13 13
REMARK SMILES IDX 14 14 15 15 16 16 17 17 18 18 19 19 20 20
REMARK H PARENT
REMARK Flexibility Score: inf
ROOT
ATOM      1  C   UNL     1      28.214  -3.712  19.810  1.00  0.00     0.000 C 
ENDROOT
BRANCH   1   2
ATOM      2  C   UNL     1      27.477  -4.570  18.774  1.00  0.00     0.000 C 
BRANCH   2   3
ATOM      3  C   UNL     1      26.531  -5.570  19.457  1.00  0.00     0.000 C 
BRANCH   3   4
ATOM      4  C   UNL     1      26.324  -6.847  18.615  1.00  0.00     0.000 C 
BRANCH   4   5
ATOM      5  C   UNL     1      26.892  -8.116  19.271  1.00  0.00     0.000 C 
BRANCH   5   6
ATOM      6  C   UNL     1      26.534  -8.230  20.762  1.00  0.00     0.006 C 
BRANCH   6   7
ATOM      7  C   UNL     1      25.279  -9.082  20.993  1.00  0.00     0.053 C 
BRANCH   7   8
ATOM      8  C   UNL     1      24.087  -8.238  21.323  1.00  0.00     0.041 C 
ATOM      9  O   UNL     1      23.556  -7.516  20.437  1.00  0.00    -0.550 OA
ATOM     10  O   UNL     1      23.584  -8.218  22.618  1.00  0.00    -0.550 OA
ENDBRANCH   7   8
ENDBRANCH   6   7
ENDBRANCH   5   6
ENDBRANCH   4   5
ENDBRANCH   3   4
ENDBRANCH   2   3
ENDBRANCH   1   2
BRANCH   1  11
ATOM     11  C   UNL     1      29.304  -2.861  19.144  1.00  0.00     0.000 C 
BRANCH  11  12
ATOM     12  C   UNL     1      29.217  -1.377  19.532  1.00  0.00     0.000 C 
BRANCH  12  13
ATOM     13  C   UNL     1      28.135  -1.102  20.586  1.00  0.00     0.000 C 
BRANCH  13  14
ATOM     14  C   UNL     1      26.908  -0.436  19.952  1.00  0.00     0.000 C 
BRANCH  14  15
ATOM     15  C   UNL     1      25.670  -1.333  20.068  1.00  0.00     0.000 C 
BRANCH  15  16
ATOM     16  C   UNL     1      24.393  -0.560  19.712  1.00  0.00     0.006 C 
BRANCH  16  17
ATOM     17  C   UNL     1      24.679   0.907  19.366  1.00  0.00     0.053 C 
BRANCH  17  18
ATOM     18  C   UNL     1      23.511   1.553  18.685  1.00  0.00     0.041 C 
ATOM     19  O   UNL     1      22.380   1.565  19.241  1.00  0.00    -0.550 OA
ATOM     20  O   UNL     1      23.664   2.114  17.424  1.00  0.00    -0.550 OA
ENDBRANCH  17  18
ENDBRANCH  16  17
ENDBRANCH  15  16
ENDBRANCH  14  15
ENDBRANCH  13  14
ENDBRANCH  12  13
ENDBRANCH  11  12
ENDBRANCH   1  11
TORSDOF 15
ENDMDL
MODEL 6
REMARK VINA RESULT:    -6.863      3.342      4.540
REMARK INTER + INTRA:         -14.105
REMARK INTER:                 -13.058
REMARK INTRA:                  -1.047
REMARK UNBOUND:                -1.223
REMARK SMILES O=C([O-])CCCCCCCCCCCCCCC(=O)[O-]
REMARK SMILES IDX 10 1 9 2 8 3 7 4 6 5 5 6 4 7 2 8 1 9 3 10 11 11 12 12 13 13
REMARK SMILES IDX 14 14 15 15 16 16 17 17 18 18 19 19 20 20
REMARK H PARENT
REMARK Flexibility Score: inf
ROOT
ATOM      1  C   UNL     1      26.615  -5.581  18.470  1.00  0.00     0.000 C 
ENDROOT
BRANCH   1   2
ATOM      2  C   UNL     1      26.749  -6.275  19.831  1.00  0.00     0.000 C 
BRANCH   2   3
ATOM      3  C   UNL     1      26.953  -7.788  19.662  1.00  0.00     0.000 C 
BRANCH   3   4
ATOM      4  C   UNL     1      25.965  -8.610  20.518  1.00  0.00     0.000 C 
BRANCH   4   5
ATOM      5  C   UNL     1      24.542  -8.029  20.543  1.00  0.00     0.000 C 
BRANCH   5   6
ATOM      6  C   UNL     1      23.566  -8.874  21.378  1.00  0.00     0.006 C 
BRANCH   6   7
ATOM      7  C   UNL     1      23.585  -8.486  22.862  1.00  0.00     0.053 C 
BRANCH   7   8
ATOM      8  C   UNL     1      22.556  -9.239  23.647  1.00  0.00     0.041 C 
ATOM      9  O   UNL     1      22.785 -10.418  24.026  1.00  0.00    -0.550 OA
ATOM     10  O   UNL     1      21.328  -8.653  23.927  1.00  0.00    -0.550 OA
ENDBRANCH   7   8
ENDBRANCH   6   7
ENDBRANCH   5   6
ENDBRANCH   4   5
ENDBRANCH   3   4
ENDBRANCH   2   3
ENDBRANCH   1   2
BRANCH   1  11
ATOM     11  C   UNL     1      26.598  -4.054  18.630  1.00  0.00     0.000 C 
BRANCH  11  12
ATOM     12  C   UNL     1      25.363  -3.552  19.393  1.00  0.00     0.000 C 
BRANCH  12  13
ATOM     13  C   UNL     1      25.708  -2.490  20.448  1.00  0.00     0.000 C 
BRANCH  13  14
ATOM     14  C   UNL     1      25.479  -1.077  19.899  1.00  0.00     0.000 C 
BRANCH  14  15
ATOM     15  C   UNL     1      26.802  -0.312  19.776  1.00  0.00     0.000 C 
BRANCH  15  16
ATOM     16  C   UNL     1      27.964  -1.120  20.371  1.00  0.00     0.006 C 
BRANCH  16  17
ATOM     17  C   UNL     1      29.159  -1.212  19.413  1.00  0.00     0.053 C 
BRANCH  17  18
ATOM     18  C   UNL     1      29.707  -2.604  19.343  1.00  0.00     0.041 C 
ATOM     19  O   UNL     1      29.575  -3.388  20.321  1.00  0.00    -0.550 OA
ATOM     20  O   UNL     1      30.391  -3.026  18.211  1.00  0.00    -0.550 OA
ENDBRANCH  17  18
ENDBRANCH  16  17
ENDBRANCH  15  16
ENDBRANCH  14  15
ENDBRANCH  13  14
ENDBRANCH  12  13
ENDBRANCH  11  12
ENDBRANCH   1  11
TORSDOF 15
ENDMDL
MODEL 7
REMARK VINA RESULT:    -6.852      3.175      4.387
REMARK INTER + INTRA:         -14.083
REMARK INTER:                 -12.765
REMARK INTRA:                  -1.319
REMARK UNBOUND:                -1.223
REMARK SMILES O=C([O-])CCCCCCCCCCCCCCC(=O)[O-]
REMARK SMILES IDX 10 1 9 2 8 3 7 4 6 5 5 6 4 7 2 8 1 9 3 10 11 11 12 12 13 13
REMARK SMILES IDX 14 14 15 15 16 16 17 17 18 18 19 19 20 20
REMARK H PARENT
REMARK Flexibility Score: inf
ROOT
ATOM      1  C   UNL     1      25.753  -2.988  20.141  1.00  0.00     0.000 C 
ENDROOT
BRANCH   1   2
ATOM      2  C   UNL     1      25.138  -4.146  19.346  1.00  0.00     0.000 C 
BRANCH   2   3
ATOM      3  C   UNL     1      26.227  -4.988  18.663  1.00  0.00     0.000 C 
BRANCH   3   4
ATOM      4  C   UNL     1      26.842  -6.033  19.618  1.00  0.00     0.000 C 
BRANCH   4   5
ATOM      5  C   UNL     1      26.792  -7.470  19.072  1.00  0.00     0.000 C 
BRANCH   5   6
ATOM      6  C   UNL     1      26.350  -8.495  20.129  1.00  0.00     0.006 C 
BRANCH   6   7
ATOM      7  C   UNL     1      25.527  -7.852  21.253  1.00  0.00     0.053 C 
BRANCH   7   8
ATOM      8  C   UNL     1      24.056  -7.946  20.988  1.00  0.00     0.041 C 
ATOM      9  O   UNL     1      23.341  -8.739  21.658  1.00  0.00    -0.550 OA
ATOM     10  O   UNL     1      23.480  -7.187  19.977  1.00  0.00    -0.550 OA
ENDBRANCH   7   8
ENDBRANCH   6   7
ENDBRANCH   5   6
ENDBRANCH   4   5
ENDBRANCH   3   4
ENDBRANCH   2   3
ENDBRANCH   1   2
BRANCH   1  11
ATOM     11  C   UNL     1      24.835  -1.757  20.120  1.00  0.00     0.000 C 
BRANCH  11  12
ATOM     12  C   UNL     1      25.405  -0.607  19.275  1.00  0.00     0.000 C 
BRANCH  12  13
ATOM     13  C   UNL     1      25.864   0.584  20.129  1.00  0.00     0.000 C 
BRANCH  13  14
ATOM     14  C   UNL     1      27.393   0.629  20.232  1.00  0.00     0.000 C 
BRANCH  14  15
ATOM     15  C   UNL     1      28.043  -0.307  19.206  1.00  0.00     0.000 C 
BRANCH  15  16
ATOM     16  C   UNL     1      29.166  -1.134  19.847  1.00  0.00     0.006 C 
BRANCH  16  17
ATOM     17  C   UNL     1      28.902  -2.643  19.756  1.00  0.00     0.053 C 
BRANCH  17  18
ATOM     18  C   UNL     1      29.995  -3.352  19.016  1.00  0.00     0.041 C 
ATOM     19  O   UNL     1      31.189  -2.965  19.123  1.00  0.00    -0.550 OA
ATOM     20  O   UNL     1      29.690  -4.420  18.182  1.00  0.00    -0.550 OA
ENDBRANCH  17  18
ENDBRANCH  16  17
ENDBRANCH  15  16
ENDBRANCH  14  15
ENDBRANCH  13  14
ENDBRANCH  12  13
ENDBRANCH  11  12
ENDBRANCH   1  11
TORSDOF 15
ENDMDL
MODEL 8
REMARK VINA RESULT:    -6.833      1.476      7.655
REMARK INTER + INTRA:         -14.049
REMARK INTER:                 -12.969
REMARK INTRA:                  -1.080
REMARK UNBOUND:                -1.223
REMARK SMILES O=C([O-])CCCCCCCCCCCCCCC(=O)[O-]
REMARK SMILES IDX 10 1 9 2 8 3 7 4 6 5 5 6 4 7 2 8 1 9 3 10 11 11 12 12 13 13
REMARK SMILES IDX 14 14 15 15 16 16 17 17 18 18 19 19 20 20
REMARK H PARENT
REMARK Flexibility Score: inf
ROOT
ATOM      1  C   UNL     1      28.015  -3.963  19.789  1.00  0.00     0.000 C 
ENDROOT
BRANCH   1   2
ATOM      2  C   UNL     1      29.398  -3.744  19.163  1.00  0.00     0.000 C 
BRANCH   2   3
ATOM      3  C   UNL     1      29.741  -2.248  19.089  1.00  0.00     0.000 C 
BRANCH   3   4
ATOM      4  C   UNL     1      28.897  -1.407  20.071  1.00  0.00     0.000 C 
BRANCH   4   5
ATOM      5  C   UNL     1      28.052  -0.322  19.383  1.00  0.00     0.000 C 
BRANCH   5   6
ATOM      6  C   UNL     1      26.914   0.203  20.274  1.00  0.00     0.006 C 
BRANCH   6   7
ATOM      7  C   UNL     1      25.881   1.012  19.480  1.00  0.00     0.053 C 
BRANCH   7   8
ATOM      8  C   UNL     1      24.550   0.327  19.438  1.00  0.00     0.041 C 
ATOM      9  O   UNL     1      23.539   0.932  18.993  1.00  0.00    -0.550 OA
ATOM     10  O   UNL     1      24.418  -0.967  19.926  1.00  0.00    -0.550 OA
ENDBRANCH   7   8
ENDBRANCH   6   7
ENDBRANCH   5   6
ENDBRANCH   4   5
ENDBRANCH   3   4
ENDBRANCH   2   3
ENDBRANCH   1   2
BRANCH   1  11
ATOM     11  C   UNL     1      26.930  -4.052  18.706  1.00  0.00     0.000 C 
BRANCH  11  12
ATOM     12  C   UNL     1      25.539  -4.358  19.284  1.00  0.00     0.000 C 
BRANCH  12  13
ATOM     13  C   UNL     1      25.332  -5.852  19.570  1.00  0.00     0.000 C 
BRANCH  13  14
ATOM     14  C   UNL     1      26.307  -6.708  18.752  1.00  0.00     0.000 C 
BRANCH  14  15
ATOM     15  C   UNL     1      26.675  -7.994  19.501  1.00  0.00     0.000 C 
BRANCH  15  16
ATOM     16  C   UNL     1      26.062  -8.006  20.909  1.00  0.00     0.006 C 
BRANCH  16  17
ATOM     17  C   UNL     1      25.031  -9.129  21.085  1.00  0.00     0.053 C 
BRANCH  17  18
ATOM     18  C   UNL     1      23.704  -8.598  21.530  1.00  0.00     0.041 C 
ATOM     19  O   UNL     1      23.378  -8.641  22.747  1.00  0.00    -0.550 OA
ATOM     20  O   UNL     1      22.812  -8.084  20.597  1.00  0.00    -0.550 OA
ENDBRANCH  17  18
ENDBRANCH  16  17
ENDBRANCH  15  16
ENDBRANCH  14  15
ENDBRANCH  13  14
ENDBRANCH  12  13
ENDBRANCH  11  12
ENDBRANCH   1  11
TORSDOF 15
ENDMDL
MODEL 9
REMARK VINA RESULT:    -6.509      1.636      7.893
REMARK INTER + INTRA:         -13.441
REMARK INTER:                 -12.826
REMARK INTRA:                  -0.615
REMARK UNBOUND:                -1.223
REMARK SMILES O=C([O-])CCCCCCCCCCCCCCC(=O)[O-]
REMARK SMILES IDX 10 1 9 2 8 3 7 4 6 5 5 6 4 7 2 8 1 9 3 10 11 11 12 12 13 13
REMARK SMILES IDX 14 14 15 15 16 16 17 17 18 18 19 19 20 20
REMARK H PARENT
REMARK Flexibility Score: inf
ROOT
ATOM      1  C   UNL     1      27.305  -3.558  19.473  1.00  0.00     0.000 C 
ENDROOT
BRANCH   1   2
ATOM      2  C   UNL     1      28.817  -3.687  19.253  1.00  0.00     0.000 C 
BRANCH   2   3
ATOM      3  C   UNL     1      29.458  -2.313  19.003  1.00  0.00     0.000 C 
BRANCH   3   4
ATOM      4  C   UNL     1      28.986  -1.255  20.023  1.00  0.00     0.000 C 
BRANCH   4   5
ATOM      5  C   UNL     1      28.127  -0.141  19.401  1.00  0.00     0.000 C 
BRANCH   5   6
ATOM      6  C   UNL     1      26.858   0.159  20.215  1.00  0.00     0.006 C 
BRANCH   6   7
ATOM      7  C   UNL     1      25.858   1.021  19.434  1.00  0.00     0.053 C 
BRANCH   7   8
ATOM      8  C   UNL     1      24.487   0.418  19.430  1.00  0.00     0.041 C 
ATOM      9  O   UNL     1      24.310  -0.755  19.855  1.00  0.00    -0.550 OA
ATOM     10  O   UNL     1      23.412   1.135  18.921  1.00  0.00    -0.550 OA
ENDBRANCH   7   8
ENDBRANCH   6   7
ENDBRANCH   5   6
ENDBRANCH   4   5
ENDBRANCH   3   4
ENDBRANCH   2   3
ENDBRANCH   1   2
BRANCH   1  11
ATOM     11  C   UNL     1      26.672  -4.927  19.760  1.00  0.00     0.000 C 
BRANCH  11  12
ATOM     12  C   UNL     1      27.037  -5.982  18.704  1.00  0.00     0.000 C 
BRANCH  12  13
ATOM     13  C   UNL     1      26.854  -7.419  19.214  1.00  0.00     0.000 C 
BRANCH  13  14
ATOM     14  C   UNL     1      25.706  -7.501  20.227  1.00  0.00     0.000 C 
BRANCH  14  15
ATOM     15  C   UNL     1      24.366  -7.144  19.572  1.00  0.00     0.000 C 
BRANCH  15  16
ATOM     16  C   UNL     1      23.198  -7.826  20.299  1.00  0.00     0.006 C 
BRANCH  16  17
ATOM     17  C   UNL     1      23.662  -8.995  21.177  1.00  0.00     0.053 C 
BRANCH  17  18
ATOM     18  C   UNL     1      23.388  -8.742  22.627  1.00  0.00     0.041 C 
ATOM     19  O   UNL     1      23.628  -7.612  23.131  1.00  0.00    -0.550 OA
ATOM     20  O   UNL     1      22.897  -9.763  23.431  1.00  0.00    -0.550 OA
ENDBRANCH  17  18
ENDBRANCH  16  17
ENDBRANCH  15  16
ENDBRANCH  14  15
ENDBRANCH  13  14
ENDBRANCH  12  13
ENDBRANCH  11  12
ENDBRANCH   1  11
TORSDOF 15
ENDMDL
