MODEL 1
REMARK VINA RESULT:    -6.211      0.000      0.000
REMARK INTER + INTRA:         -10.280
REMARK INTER:                  -8.753
REMARK INTRA:                  -1.527
REMARK UNBOUND:                -1.527
REMARK SMILES COc1c(O[C@@H]2O[C@H](C(=O)[O-])[C@H](O)[C@@H](O)[C@@H]2O)cc(O)c2c(=O)cc(-c3ccccc3)oc12
REMARK SMILES IDX 5 1 6 2 8 3 12 4 7 5 14 6 16 7 9 8 10 9 11 10 13 11 15 13
REMARK SMILES IDX 17 15 4 17 3 18 18 19 33 20 19 21 21 22 32 23 22 24 25 25
REMARK SMILES IDX 24 26 23 27 2 28 1 29 20 30 26 32 27 33 31 34 28 35 30 36
REMARK SMILES IDX 29 37
REMARK H PARENT 13 12 15 14 17 16 20 31
REMARK Flexibility Score: inf
ROOT
ATOM      1  O   UNL     1      28.393   0.394 103.183  1.00  0.00    -0.458 OA
ENDROOT
BRANCH   1   2
ATOM      2  C   UNL     1      28.184   1.660 103.833  1.00  0.00     0.339 C 
ATOM      3  C   UNL     1      30.302   2.435 103.084  1.00  0.00     0.199 C 
ATOM      4  C   UNL     1      30.992   1.901 104.396  1.00  0.00     0.180 C 
ATOM      5  O   UNL     1      28.901   2.675 103.155  1.00  0.00    -0.328 OA
ATOM      6  C   UNL     1      30.070   1.095 105.352  1.00  0.00     0.181 C 
ATOM      7  C   UNL     1      28.639   1.636 105.295  1.00  0.00     0.214 C 
BRANCH   3   8
ATOM      8  C   UNL     1      30.693   1.713 101.818  1.00  0.00     0.073 C 
ATOM      9  O   UNL     1      30.950   2.344 100.759  1.00  0.00    -0.547 OA
ATOM     10  O   UNL     1      30.845   0.330 101.833  1.00  0.00    -0.547 OA
ENDBRANCH   3   8
BRANCH   4  11
ATOM     11  O   UNL     1      32.119   1.118 104.071  1.00  0.00    -0.387 OA
ATOM     12  H   UNL     1      31.814   0.183 103.964  1.00  0.00     0.211 HD
ENDBRANCH   4  11
BRANCH   6  13
ATOM     13  O   UNL     1      30.536   1.194 106.684  1.00  0.00    -0.387 OA
ATOM     14  H   UNL     1      29.769   1.483 107.249  1.00  0.00     0.211 HD
ENDBRANCH   6  13
BRANCH   7  15
ATOM     15  O   UNL     1      27.785   0.843 106.083  1.00  0.00    -0.384 OA
ATOM     16  H   UNL     1      26.951   1.362 106.236  1.00  0.00     0.211 HD
ENDBRANCH   7  15
ENDBRANCH   1   2
BRANCH   1  17
ATOM     17  C   UNL     1      27.447  -0.377 102.486  1.00  0.00     0.172 A 
ATOM     18  C   UNL     1      26.832  -1.428 103.179  1.00  0.00     0.205 A 
ATOM     19  C   UNL     1      27.126  -0.127 101.143  1.00  0.00     0.097 A 
ATOM     20  C   UNL     1      25.847  -2.214 102.528  1.00  0.00     0.188 A 
ATOM     21  C   UNL     1      26.180  -0.911 100.478  1.00  0.00     0.134 A 
ATOM     22  C   UNL     1      25.523  -1.962 101.170  1.00  0.00     0.111 A 
ATOM     23  O   UNL     1      25.212  -3.179 103.191  1.00  0.00    -0.452 OA
ATOM     24  C   UNL     1      24.525  -2.764 100.567  1.00  0.00     0.197 A 
ATOM     25  C   UNL     1      24.273  -3.961 102.649  1.00  0.00     0.138 A 
ATOM     26  C   UNL     1      23.912  -3.774 101.308  1.00  0.00     0.100 A 
ATOM     27  O   UNL     1      24.165  -2.578  99.376  1.00  0.00    -0.289 OA
BRANCH  18  28
ATOM     28  O   UNL     1      27.233  -1.611 104.516  1.00  0.00    -0.490 OA
ATOM     29  C   UNL     1      28.233  -2.497 104.982  1.00  0.00     0.278 C 
ENDBRANCH  18  28
BRANCH  21  30
ATOM     30  O   UNL     1      25.904  -0.645  99.137  1.00  0.00    -0.507 OA
ATOM     31  H   UNL     1      24.963  -0.413  98.819  1.00  0.00     0.293 HD
ENDBRANCH  21  30
BRANCH  25  32
ATOM     32  C   UNL     1      23.609  -4.991 103.496  1.00  0.00     0.017 A 
ATOM     33  C   UNL     1      24.151  -5.291 104.766  1.00  0.00     0.012 A 
ATOM     34  C   UNL     1      22.432  -5.659 103.077  1.00  0.00     0.012 A 
ATOM     35  C   UNL     1      23.529  -6.237 105.593  1.00  0.00     0.001 A 
ATOM     36  C   UNL     1      21.815  -6.601 103.914  1.00  0.00     0.001 A 
ATOM     37  C   UNL     1      22.358  -6.891 105.167  1.00  0.00     0.000 A 
ENDBRANCH  25  32
ENDBRANCH   1  17
TORSDOF 9
ENDMDL
MODEL 2
REMARK VINA RESULT:    -6.165      1.801      8.856
REMARK INTER + INTRA:         -10.215
REMARK INTER:                  -8.719
REMARK INTRA:                  -1.496
REMARK UNBOUND:                -1.527
REMARK SMILES COc1c(O[C@@H]2O[C@H](C(=O)[O-])[C@H](O)[C@@H](O)[C@@H]2O)cc(O)c2c(=O)cc(-c3ccccc3)oc12
REMARK SMILES IDX 5 1 6 2 8 3 12 4 7 5 14 6 16 7 9 8 10 9 11 10 13 11 15 13
REMARK SMILES IDX 17 15 4 17 3 18 18 19 33 20 19 21 21 22 32 23 22 24 25 25
REMARK SMILES IDX 24 26 23 27 2 28 1 29 20 30 26 32 27 33 31 34 28 35 30 36
REMARK SMILES IDX 29 37
REMARK H PARENT 13 12 15 14 17 16 20 31
REMARK Flexibility Score: inf
ROOT
ATOM      1  O   UNL     1      25.935  -1.987 102.444  1.00  0.00    -0.458 OA
ENDROOT
BRANCH   1   2
ATOM      2  C   UNL     1      24.601  -1.751 101.960  1.00  0.00     0.339 C 
ATOM      3  C   UNL     1      23.935  -3.934 102.628  1.00  0.00     0.199 C 
ATOM      4  C   UNL     1      24.321  -4.514 101.216  1.00  0.00     0.180 C 
ATOM      5  O   UNL     1      23.677  -2.535 102.692  1.00  0.00    -0.328 OA
ATOM      6  C   UNL     1      25.005  -3.509 100.247  1.00  0.00     0.181 C 
ATOM      7  C   UNL     1      24.461  -2.096 100.474  1.00  0.00     0.214 C 
BRANCH   3   8
ATOM      8  C   UNL     1      24.802  -4.405 103.770  1.00  0.00     0.073 C 
ATOM      9  O   UNL     1      24.298  -4.752 104.872  1.00  0.00    -0.547 OA
ATOM     10  O   UNL     1      26.175  -4.530 103.587  1.00  0.00    -0.547 OA
ENDBRANCH   3   8
BRANCH   4  11
ATOM     11  O   UNL     1      25.146  -5.648 101.362  1.00  0.00    -0.387 OA
ATOM     12  H   UNL     1      25.806  -5.637 100.625  1.00  0.00     0.211 HD
ENDBRANCH   4  11
BRANCH   6  13
ATOM     13  O   UNL     1      24.758  -3.876  98.904  1.00  0.00    -0.387 OA
ATOM     14  H   UNL     1      25.137  -4.787  98.767  1.00  0.00     0.211 HD
ENDBRANCH   6  13
BRANCH   7  15
ATOM     15  O   UNL     1      25.152  -1.172  99.669  1.00  0.00    -0.384 OA
ATOM     16  H   UNL     1      24.922  -1.372  98.722  1.00  0.00     0.211 HD
ENDBRANCH   7  15
ENDBRANCH   1   2
BRANCH   1  17
ATOM     17  C   UNL     1      26.762  -1.091 103.142  1.00  0.00     0.172 A 
ATOM     18  C   UNL     1      27.751  -0.419 102.411  1.00  0.00     0.205 A 
ATOM     19  C   UNL     1      26.628  -0.873 104.522  1.00  0.00     0.097 A 
ATOM     20  C   UNL     1      28.590   0.520 103.066  1.00  0.00     0.188 A 
ATOM     21  C   UNL     1      27.466   0.024 105.188  1.00  0.00     0.134 A 
ATOM     22  C   UNL     1      28.454   0.739 104.461  1.00  0.00     0.111 A 
ATOM     23  O   UNL     1      29.494   1.209 102.373  1.00  0.00    -0.452 OA
ATOM     24  C   UNL     1      29.304   1.694 105.068  1.00  0.00     0.197 A 
ATOM     25  C   UNL     1      30.320   2.110 102.917  1.00  0.00     0.138 A 
ATOM     26  C   UNL     1      30.247   2.367 104.292  1.00  0.00     0.100 A 
ATOM     27  O   UNL     1      29.220   1.962 106.294  1.00  0.00    -0.289 OA
BRANCH  18  28
ATOM     28  O   UNL     1      27.819  -0.717 101.037  1.00  0.00    -0.490 OA
ATOM     29  C   UNL     1      28.578  -1.748 100.436  1.00  0.00     0.278 C 
ENDBRANCH  18  28
BRANCH  21  30
ATOM     30  O   UNL     1      27.314   0.197 106.564  1.00  0.00    -0.507 OA
ATOM     31  H   UNL     1      26.558  -0.253 107.081  1.00  0.00     0.293 HD
ENDBRANCH  21  30
BRANCH  25  32
ATOM     32  C   UNL     1      31.274   2.842 102.038  1.00  0.00     0.017 A 
ATOM     33  C   UNL     1      31.422   2.435 100.692  1.00  0.00     0.012 A 
ATOM     34  C   UNL     1      32.018   3.954 102.504  1.00  0.00     0.012 A 
ATOM     35  C   UNL     1      32.293   3.125  99.838  1.00  0.00     0.001 A 
ATOM     36  C   UNL     1      32.884   4.641 101.640  1.00  0.00     0.001 A 
ATOM     37  C   UNL     1      33.023   4.231 100.312  1.00  0.00     0.000 A 
ENDBRANCH  25  32
ENDBRANCH   1  17
TORSDOF 9
ENDMDL
MODEL 3
REMARK VINA RESULT:    -5.989      5.709      9.675
REMARK INTER + INTRA:          -9.967
REMARK INTER:                  -8.726
REMARK INTRA:                  -1.241
REMARK UNBOUND:                -1.527
REMARK SMILES COc1c(O[C@@H]2O[C@H](C(=O)[O-])[C@H](O)[C@@H](O)[C@@H]2O)cc(O)c2c(=O)cc(-c3ccccc3)oc12
REMARK SMILES IDX 5 1 6 2 8 3 12 4 7 5 14 6 16 7 9 8 10 9 11 10 13 11 15 13
REMARK SMILES IDX 17 15 4 17 3 18 18 19 33 20 19 21 21 22 32 23 22 24 25 25
REMARK SMILES IDX 24 26 23 27 2 28 1 29 20 30 26 32 27 33 31 34 28 35 30 36
REMARK SMILES IDX 29 37
REMARK H PARENT 13 12 15 14 17 16 20 31
REMARK Flexibility Score: inf
ROOT
ATOM      1  O   UNL     1      31.499   0.025 107.670  1.00  0.00    -0.458 OA
ENDROOT
BRANCH   1   2
ATOM      2  C   UNL     1      32.551  -0.790 108.218  1.00  0.00     0.339 C 
ATOM      3  C   UNL     1      31.157  -2.713 108.126  1.00  0.00     0.199 C 
ATOM      4  C   UNL     1      30.637  -2.441 109.587  1.00  0.00     0.180 C 
ATOM      5  O   UNL     1      32.405  -2.127 107.775  1.00  0.00    -0.328 OA
ATOM      6  C   UNL     1      31.131  -1.117 110.234  1.00  0.00     0.181 C 
ATOM      7  C   UNL     1      32.545  -0.782 109.749  1.00  0.00     0.214 C 
BRANCH   3   8
ATOM      8  C   UNL     1      30.123  -2.544 107.039  1.00  0.00     0.073 C 
ATOM      9  O   UNL     1      30.015  -3.381 106.105  1.00  0.00    -0.547 OA
ATOM     10  O   UNL     1      29.222  -1.485 107.104  1.00  0.00    -0.547 OA
ENDBRANCH   3   8
BRANCH   4  11
ATOM     11  O   UNL     1      29.228  -2.473 109.619  1.00  0.00    -0.387 OA
ATOM     12  H   UNL     1      28.915  -1.594 109.949  1.00  0.00     0.211 HD
ENDBRANCH   4  11
BRANCH   6  13
ATOM     13  O   UNL     1      31.155  -1.236 111.643  1.00  0.00    -0.387 OA
ATOM     14  H   UNL     1      31.368  -2.184 111.860  1.00  0.00     0.211 HD
ENDBRANCH   6  13
BRANCH   7  15
ATOM     15  O   UNL     1      32.951   0.467 110.255  1.00  0.00    -0.384 OA
ATOM     16  H   UNL     1      32.575   0.553 111.172  1.00  0.00     0.211 HD
ENDBRANCH   7  15
ENDBRANCH   1   2
BRANCH   1  17
ATOM     17  C   UNL     1      31.613   1.315 107.127  1.00  0.00     0.172 A 
ATOM     18  C   UNL     1      31.800   1.421 105.742  1.00  0.00     0.205 A 
ATOM     19  C   UNL     1      31.558   2.468 107.926  1.00  0.00     0.097 A 
ATOM     20  C   UNL     1      31.887   2.704 105.143  1.00  0.00     0.188 A 
ATOM     21  C   UNL     1      31.674   3.738 107.356  1.00  0.00     0.134 A 
ATOM     22  C   UNL     1      31.833   3.869 105.951  1.00  0.00     0.111 A 
ATOM     23  O   UNL     1      32.005   2.821 103.822  1.00  0.00    -0.452 OA
ATOM     24  C   UNL     1      31.912   5.126 105.307  1.00  0.00     0.197 A 
ATOM     25  C   UNL     1      32.094   3.992 103.183  1.00  0.00     0.138 A 
ATOM     26  C   UNL     1      32.058   5.183 103.921  1.00  0.00     0.100 A 
ATOM     27  O   UNL     1      31.840   6.201 105.956  1.00  0.00    -0.289 OA
BRANCH  18  28
ATOM     28  O   UNL     1      31.859   0.209 105.028  1.00  0.00    -0.490 OA
ATOM     29  C   UNL     1      30.855  -0.321 104.184  1.00  0.00     0.278 C 
ENDBRANCH  18  28
BRANCH  21  30
ATOM     30  O   UNL     1      31.635   4.858 108.186  1.00  0.00    -0.507 OA
ATOM     31  H   UNL     1      31.092   5.687 107.944  1.00  0.00     0.293 HD
ENDBRANCH  21  30
BRANCH  25  32
ATOM     32  C   UNL     1      32.194   4.002 101.697  1.00  0.00     0.017 A 
ATOM     33  C   UNL     1      31.893   2.823 100.978  1.00  0.00     0.012 A 
ATOM     34  C   UNL     1      32.557   5.169 100.979  1.00  0.00     0.012 A 
ATOM     35  C   UNL     1      31.955   2.814  99.578  1.00  0.00     0.001 A 
ATOM     36  C   UNL     1      32.611   5.151  99.577  1.00  0.00     0.001 A 
ATOM     37  C   UNL     1      32.312   3.981  98.877  1.00  0.00     0.000 A 
ENDBRANCH  25  32
ENDBRANCH   1  17
TORSDOF 9
ENDMDL
MODEL 4
REMARK VINA RESULT:    -5.946      2.085      3.743
REMARK INTER + INTRA:          -9.906
REMARK INTER:                  -8.738
REMARK INTRA:                  -1.168
REMARK UNBOUND:                -1.527
REMARK SMILES COc1c(O[C@@H]2O[C@H](C(=O)[O-])[C@H](O)[C@@H](O)[C@@H]2O)cc(O)c2c(=O)cc(-c3ccccc3)oc12
REMARK SMILES IDX 5 1 6 2 8 3 12 4 7 5 14 6 16 7 9 8 10 9 11 10 13 11 15 13
REMARK SMILES IDX 17 15 4 17 3 18 18 19 33 20 19 21 21 22 32 23 22 24 25 25
REMARK SMILES IDX 24 26 23 27 2 28 1 29 20 30 26 32 27 33 31 34 28 35 30 36
REMARK SMILES IDX 29 37
REMARK H PARENT 13 12 15 14 17 16 20 31
REMARK Flexibility Score: inf
ROOT
ATOM      1  O   UNL     1      28.140  -0.327 103.515  1.00  0.00    -0.458 OA
ENDROOT
BRANCH   1   2
ATOM      2  C   UNL     1      28.929   0.430 102.581  1.00  0.00     0.339 C 
ATOM      3  C   UNL     1      29.390   2.067 104.243  1.00  0.00     0.199 C 
ATOM      4  C   UNL     1      28.124   2.899 103.813  1.00  0.00     0.180 C 
ATOM      5  O   UNL     1      29.919   1.168 103.274  1.00  0.00    -0.328 OA
ATOM      6  C   UNL     1      27.224   2.234 102.734  1.00  0.00     0.181 C 
ATOM      7  C   UNL     1      28.075   1.406 101.767  1.00  0.00     0.214 C 
BRANCH   3   8
ATOM      8  C   UNL     1      29.307   1.441 105.614  1.00  0.00     0.073 C 
ATOM      9  O   UNL     1      30.284   1.475 106.407  1.00  0.00    -0.547 OA
ATOM     10  O   UNL     1      28.109   0.878 106.043  1.00  0.00    -0.547 OA
ENDBRANCH   3   8
BRANCH   4  11
ATOM     11  O   UNL     1      27.338   3.211 104.941  1.00  0.00    -0.387 OA
ATOM     12  H   UNL     1      26.388   3.160 104.669  1.00  0.00     0.211 HD
ENDBRANCH   4  11
BRANCH   6  13
ATOM     13  O   UNL     1      26.533   3.221 101.994  1.00  0.00    -0.387 OA
ATOM     14  H   UNL     1      25.565   2.983 102.008  1.00  0.00     0.211 HD
ENDBRANCH   6  13
BRANCH   7  15
ATOM     15  O   UNL     1      27.251   0.724 100.853  1.00  0.00    -0.384 OA
ATOM     16  H   UNL     1      27.720   0.716  99.976  1.00  0.00     0.211 HD
ENDBRANCH   7  15
ENDBRANCH   1   2
BRANCH   1  17
ATOM     17  C   UNL     1      27.951  -1.719 103.544  1.00  0.00     0.172 A 
ATOM     18  C   UNL     1      26.730  -2.197 104.037  1.00  0.00     0.205 A 
ATOM     19  C   UNL     1      28.942  -2.615 103.114  1.00  0.00     0.097 A 
ATOM     20  C   UNL     1      26.480  -3.594 104.056  1.00  0.00     0.188 A 
ATOM     21  C   UNL     1      28.725  -3.994 103.155  1.00  0.00     0.134 A 
ATOM     22  C   UNL     1      27.483  -4.499 103.622  1.00  0.00     0.111 A 
ATOM     23  O   UNL     1      25.302  -4.059 104.466  1.00  0.00    -0.452 OA
ATOM     24  C   UNL     1      27.184  -5.881 103.647  1.00  0.00     0.197 A 
ATOM     25  C   UNL     1      24.991  -5.359 104.513  1.00  0.00     0.138 A 
ATOM     26  C   UNL     1      25.939  -6.308 104.109  1.00  0.00     0.100 A 
ATOM     27  O   UNL     1      28.012  -6.740 103.248  1.00  0.00    -0.289 OA
BRANCH  18  28
ATOM     28  O   UNL     1      25.806  -1.223 104.462  1.00  0.00    -0.490 OA
ATOM     29  C   UNL     1      24.680  -0.760 103.741  1.00  0.00     0.278 C 
ENDBRANCH  18  28
BRANCH  21  30
ATOM     30  O   UNL     1      29.743  -4.852 102.738  1.00  0.00    -0.507 OA
ATOM     31  H   UNL     1      29.938  -5.011 101.749  1.00  0.00     0.293 HD
ENDBRANCH  21  30
BRANCH  25  32
ATOM     32  C   UNL     1      23.629  -5.763 104.963  1.00  0.00     0.017 A 
ATOM     33  C   UNL     1      23.321  -5.727 106.342  1.00  0.00     0.012 A 
ATOM     34  C   UNL     1      22.624  -6.156 104.046  1.00  0.00     0.012 A 
ATOM     35  C   UNL     1      22.039  -6.077 106.788  1.00  0.00     0.001 A 
ATOM     36  C   UNL     1      21.342  -6.499 104.502  1.00  0.00     0.001 A 
ATOM     37  C   UNL     1      21.048  -6.461 105.866  1.00  0.00     0.000 A 
ENDBRANCH  25  32
ENDBRANCH   1  17
TORSDOF 9
ENDMDL
MODEL 5
REMARK VINA RESULT:    -5.924      5.491      7.084
REMARK INTER + INTRA:          -9.875
REMARK INTER:                  -8.558
REMARK INTRA:                  -1.317
REMARK UNBOUND:                -1.527
REMARK SMILES COc1c(O[C@@H]2O[C@H](C(=O)[O-])[C@H](O)[C@@H](O)[C@@H]2O)cc(O)c2c(=O)cc(-c3ccccc3)oc12
REMARK SMILES IDX 5 1 6 2 8 3 12 4 7 5 14 6 16 7 9 8 10 9 11 10 13 11 15 13
REMARK SMILES IDX 17 15 4 17 3 18 18 19 33 20 19 21 21 22 32 23 22 24 25 25
REMARK SMILES IDX 24 26 23 27 2 28 1 29 20 30 26 32 27 33 31 34 28 35 30 36
REMARK SMILES IDX 29 37
REMARK H PARENT 13 12 15 14 17 16 20 31
REMARK Flexibility Score: inf
ROOT
ATOM      1  O   UNL     1      26.424  -4.570  97.586  1.00  0.00    -0.458 OA
ENDROOT
BRANCH   1   2
ATOM      2  C   UNL     1      27.007  -5.437  96.598  1.00  0.00     0.339 C 
ATOM      3  C   UNL     1      29.185  -4.664  97.154  1.00  0.00     0.199 C 
ATOM      4  C   UNL     1      29.089  -3.528  96.067  1.00  0.00     0.180 C 
ATOM      5  O   UNL     1      28.325  -5.785  96.979  1.00  0.00    -0.328 OA
ATOM      6  C   UNL     1      27.714  -3.403  95.354  1.00  0.00     0.181 C 
ATOM      7  C   UNL     1      27.058  -4.780  95.216  1.00  0.00     0.214 C 
BRANCH   3   8
ATOM      8  C   UNL     1      29.207  -4.180  98.583  1.00  0.00     0.073 C 
ATOM      9  O   UNL     1      29.928  -4.739  99.451  1.00  0.00    -0.547 OA
ATOM     10  O   UNL     1      28.474  -3.052  98.940  1.00  0.00    -0.547 OA
ENDBRANCH   3   8
BRANCH   4  11
ATOM     11  O   UNL     1      29.432  -2.282  96.631  1.00  0.00    -0.387 OA
ATOM     12  H   UNL     1      30.407  -2.160  96.518  1.00  0.00     0.211 HD
ENDBRANCH   4  11
BRANCH   6  13
ATOM     13  O   UNL     1      27.878  -2.851  94.062  1.00  0.00    -0.387 OA
ATOM     14  H   UNL     1      28.618  -3.347  93.616  1.00  0.00     0.211 HD
ENDBRANCH   6  13
BRANCH   7  15
ATOM     15  O   UNL     1      25.771  -4.653  94.662  1.00  0.00    -0.384 OA
ATOM     16  H   UNL     1      25.755  -5.184  93.821  1.00  0.00     0.211 HD
ENDBRANCH   7  15
ENDBRANCH   1   2
BRANCH   1  17
ATOM     17  C   UNL     1      25.161  -4.690  98.190  1.00  0.00     0.172 A 
ATOM     18  C   UNL     1      25.123  -5.021  99.551  1.00  0.00     0.205 A 
ATOM     19  C   UNL     1      23.970  -4.502  97.472  1.00  0.00     0.097 A 
ATOM     20  C   UNL     1      23.872  -5.122 100.213  1.00  0.00     0.188 A 
ATOM     21  C   UNL     1      22.729  -4.628  98.101  1.00  0.00     0.134 A 
ATOM     22  C   UNL     1      22.668  -4.933  99.486  1.00  0.00     0.111 A 
ATOM     23  O   UNL     1      23.823  -5.377 101.519  1.00  0.00    -0.452 OA
ATOM     24  C   UNL     1      21.446  -5.031 100.191  1.00  0.00     0.197 A 
ATOM     25  C   UNL     1      22.685  -5.488 102.213  1.00  0.00     0.138 A 
ATOM     26  C   UNL     1      21.459  -5.324 101.555  1.00  0.00     0.100 A 
ATOM     27  O   UNL     1      20.341  -4.845  99.619  1.00  0.00    -0.289 OA
BRANCH  18  28
ATOM     28  O   UNL     1      26.368  -5.207 100.181  1.00  0.00    -0.490 OA
ATOM     29  C   UNL     1      26.974  -6.445 100.501  1.00  0.00     0.278 C 
ENDBRANCH  18  28
BRANCH  21  30
ATOM     30  O   UNL     1      21.568  -4.455  97.347  1.00  0.00    -0.507 OA
ATOM     31  H   UNL     1      20.641  -4.597  97.749  1.00  0.00     0.293 HD
ENDBRANCH  21  30
BRANCH  25  32
ATOM     32  C   UNL     1      22.752  -5.748 103.678  1.00  0.00     0.017 A 
ATOM     33  C   UNL     1      21.632  -6.312 104.329  1.00  0.00     0.012 A 
ATOM     34  C   UNL     1      23.918  -5.473 104.434  1.00  0.00     0.012 A 
ATOM     35  C   UNL     1      21.680  -6.591 105.702  1.00  0.00     0.001 A 
ATOM     36  C   UNL     1      23.958  -5.761 105.807  1.00  0.00     0.001 A 
ATOM     37  C   UNL     1      22.846  -6.318 106.441  1.00  0.00     0.000 A 
ENDBRANCH  25  32
ENDBRANCH   1  17
TORSDOF 9
ENDMDL
MODEL 6
REMARK VINA RESULT:    -5.873      1.896      8.598
REMARK INTER + INTRA:          -9.804
REMARK INTER:                  -8.451
REMARK INTRA:                  -1.353
REMARK UNBOUND:                -1.527
REMARK SMILES COc1c(O[C@@H]2O[C@H](C(=O)[O-])[C@H](O)[C@@H](O)[C@@H]2O)cc(O)c2c(=O)cc(-c3ccccc3)oc12
REMARK SMILES IDX 5 1 6 2 8 3 12 4 7 5 14 6 16 7 9 8 10 9 11 10 13 11 15 13
REMARK SMILES IDX 17 15 4 17 3 18 18 19 33 20 19 21 21 22 32 23 22 24 25 25
REMARK SMILES IDX 24 26 23 27 2 28 1 29 20 30 26 32 27 33 31 34 28 35 30 36
REMARK SMILES IDX 29 37
REMARK H PARENT 13 12 15 14 17 16 20 31
REMARK Flexibility Score: inf
ROOT
ATOM      1  O   UNL     1      26.326  -2.459 102.753  1.00  0.00    -0.458 OA
ENDROOT
BRANCH   1   2
ATOM      2  C   UNL     1      26.635  -3.863 102.722  1.00  0.00     0.339 C 
ATOM      3  C   UNL     1      25.559  -4.089 100.614  1.00  0.00     0.199 C 
ATOM      4  C   UNL     1      24.192  -4.429 101.317  1.00  0.00     0.180 C 
ATOM      5  O   UNL     1      26.739  -4.304 101.380  1.00  0.00    -0.328 OA
ATOM      6  C   UNL     1      24.193  -4.316 102.867  1.00  0.00     0.181 C 
ATOM      7  C   UNL     1      25.566  -4.702 103.427  1.00  0.00     0.214 C 
BRANCH   3   8
ATOM      8  C   UNL     1      25.590  -2.770  99.880  1.00  0.00     0.073 C 
ATOM      9  O   UNL     1      24.895  -1.793 100.266  1.00  0.00    -0.547 OA
ATOM     10  O   UNL     1      26.452  -2.601  98.802  1.00  0.00    -0.547 OA
ENDBRANCH   3   8
BRANCH   4  11
ATOM     11  O   UNL     1      23.161  -3.620 100.797  1.00  0.00    -0.387 OA
ATOM     12  H   UNL     1      23.406  -2.676 100.964  1.00  0.00     0.211 HD
ENDBRANCH   4  11
BRANCH   6  13
ATOM     13  O   UNL     1      23.221  -5.179 103.424  1.00  0.00    -0.387 OA
ATOM     14  H   UNL     1      23.679  -6.029 103.669  1.00  0.00     0.211 HD
ENDBRANCH   6  13
BRANCH   7  15
ATOM     15  O   UNL     1      25.597  -4.503 104.820  1.00  0.00    -0.384 OA
ATOM     16  H   UNL     1      26.484  -4.113 105.045  1.00  0.00     0.211 HD
ENDBRANCH   7  15
ENDBRANCH   1   2
BRANCH   1  17
ATOM     17  C   UNL     1      27.045  -1.439 103.399  1.00  0.00     0.172 A 
ATOM     18  C   UNL     1      28.003  -0.747 102.648  1.00  0.00     0.205 A 
ATOM     19  C   UNL     1      26.836  -1.121 104.750  1.00  0.00     0.097 A 
ATOM     20  C   UNL     1      28.732   0.313 103.248  1.00  0.00     0.188 A 
ATOM     21  C   UNL     1      27.567  -0.102 105.365  1.00  0.00     0.134 A 
ATOM     22  C   UNL     1      28.521   0.633 104.614  1.00  0.00     0.111 A 
ATOM     23  O   UNL     1      29.603   1.019 102.530  1.00  0.00    -0.452 OA
ATOM     24  C   UNL     1      29.262   1.706 105.165  1.00  0.00     0.197 A 
ATOM     25  C   UNL     1      30.327   2.030 103.022  1.00  0.00     0.138 A 
ATOM     26  C   UNL     1      30.176   2.393 104.367  1.00  0.00     0.100 A 
ATOM     27  O   UNL     1      29.105   2.066 106.359  1.00  0.00    -0.289 OA
BRANCH  18  28
ATOM     28  O   UNL     1      28.153  -1.149 101.307  1.00  0.00    -0.490 OA
ATOM     29  C   UNL     1      29.240  -1.873 100.762  1.00  0.00     0.278 C 
ENDBRANCH  18  28
BRANCH  21  30
ATOM     30  O   UNL     1      27.344   0.170 106.715  1.00  0.00    -0.507 OA
ATOM     31  H   UNL     1      28.116   0.296 107.371  1.00  0.00     0.293 HD
ENDBRANCH  21  30
BRANCH  25  32
ATOM     32  C   UNL     1      31.252   2.768 102.116  1.00  0.00     0.017 A 
ATOM     33  C   UNL     1      31.986   3.862 102.626  1.00  0.00     0.012 A 
ATOM     34  C   UNL     1      31.437   2.386 100.765  1.00  0.00     0.012 A 
ATOM     35  C   UNL     1      32.882   4.556 101.800  1.00  0.00     0.001 A 
ATOM     36  C   UNL     1      32.340   3.084  99.948  1.00  0.00     0.001 A 
ATOM     37  C   UNL     1      33.061   4.164 100.461  1.00  0.00     0.000 A 
ENDBRANCH  25  32
ENDBRANCH   1  17
TORSDOF 9
ENDMDL
MODEL 7
REMARK VINA RESULT:    -5.837      2.733      8.615
REMARK INTER + INTRA:          -9.753
REMARK INTER:                  -8.269
REMARK INTRA:                  -1.484
REMARK UNBOUND:                -1.527
REMARK SMILES COc1c(O[C@@H]2O[C@H](C(=O)[O-])[C@H](O)[C@@H](O)[C@@H]2O)cc(O)c2c(=O)cc(-c3ccccc3)oc12
REMARK SMILES IDX 5 1 6 2 8 3 12 4 7 5 14 6 16 7 9 8 10 9 11 10 13 11 15 13
REMARK SMILES IDX 17 15 4 17 3 18 18 19 33 20 19 21 21 22 32 23 22 24 25 25
REMARK SMILES IDX 24 26 23 27 2 28 1 29 20 30 26 32 27 33 31 34 28 35 30 36
REMARK SMILES IDX 29 37
REMARK H PARENT 13 12 15 14 17 16 20 31
REMARK Flexibility Score: inf
ROOT
ATOM      1  O   UNL     1      27.323  -0.784 102.070  1.00  0.00    -0.458 OA
ENDROOT
BRANCH   1   2
ATOM      2  C   UNL     1      26.922  -1.916 102.863  1.00  0.00     0.339 C 
ATOM      3  C   UNL     1      25.415  -2.617 101.163  1.00  0.00     0.199 C 
ATOM      4  C   UNL     1      24.250  -1.779 101.812  1.00  0.00     0.180 C 
ATOM      5  O   UNL     1      26.497  -2.970 102.018  1.00  0.00    -0.328 OA
ATOM      6  C   UNL     1      24.660  -0.894 103.022  1.00  0.00     0.181 C 
ATOM      7  C   UNL     1      25.779  -1.569 103.820  1.00  0.00     0.214 C 
BRANCH   3   8
ATOM      8  C   UNL     1      25.890  -2.118  99.821  1.00  0.00     0.073 C 
ATOM      9  O   UNL     1      25.985  -0.885  99.579  1.00  0.00    -0.547 OA
ATOM     10  O   UNL     1      26.300  -3.028  98.852  1.00  0.00    -0.547 OA
ENDBRANCH   3   8
BRANCH   4  11
ATOM     11  O   UNL     1      23.629  -0.970 100.838  1.00  0.00    -0.387 OA
ATOM     12  H   UNL     1      24.272  -0.848 100.095  1.00  0.00     0.211 HD
ENDBRANCH   4  11
BRANCH   6  13
ATOM     13  O   UNL     1      23.554  -0.691 103.879  1.00  0.00    -0.387 OA
ATOM     14  H   UNL     1      22.771  -1.157 103.475  1.00  0.00     0.211 HD
ENDBRANCH   6  13
BRANCH   7  15
ATOM     15  O   UNL     1      26.218  -0.723 104.855  1.00  0.00    -0.384 OA
ATOM     16  H   UNL     1      25.992   0.210 104.593  1.00  0.00     0.211 HD
ENDBRANCH   7  15
ENDBRANCH   1   2
BRANCH   1  17
ATOM     17  C   UNL     1      28.530  -0.070 102.148  1.00  0.00     0.172 A 
ATOM     18  C   UNL     1      28.531   1.121 102.886  1.00  0.00     0.205 A 
ATOM     19  C   UNL     1      29.699  -0.510 101.507  1.00  0.00     0.097 A 
ATOM     20  C   UNL     1      29.735   1.861 103.021  1.00  0.00     0.188 A 
ATOM     21  C   UNL     1      30.885   0.223 101.604  1.00  0.00     0.134 A 
ATOM     22  C   UNL     1      30.916   1.416 102.372  1.00  0.00     0.111 A 
ATOM     23  O   UNL     1      29.765   2.962 103.767  1.00  0.00    -0.452 OA
ATOM     24  C   UNL     1      32.094   2.180 102.546  1.00  0.00     0.197 A 
ATOM     25  C   UNL     1      30.858   3.713 103.943  1.00  0.00     0.138 A 
ATOM     26  C   UNL     1      32.057   3.338 103.322  1.00  0.00     0.100 A 
ATOM     27  O   UNL     1      33.185   1.831 102.026  1.00  0.00    -0.289 OA
BRANCH  18  28
ATOM     28  O   UNL     1      27.308   1.488 103.477  1.00  0.00    -0.490 OA
ATOM     29  C   UNL     1      26.396   2.457 102.994  1.00  0.00     0.278 C 
ENDBRANCH  18  28
BRANCH  21  30
ATOM     30  O   UNL     1      32.019  -0.237 100.935  1.00  0.00    -0.507 OA
ATOM     31  H   UNL     1      32.220  -1.232 100.842  1.00  0.00     0.293 HD
ENDBRANCH  21  30
BRANCH  25  32
ATOM     32  C   UNL     1      30.781   4.911 104.825  1.00  0.00     0.017 A 
ATOM     33  C   UNL     1      29.820   5.909 104.547  1.00  0.00     0.012 A 
ATOM     34  C   UNL     1      31.626   5.067 105.951  1.00  0.00     0.012 A 
ATOM     35  C   UNL     1      29.710   7.033 105.378  1.00  0.00     0.001 A 
ATOM     36  C   UNL     1      31.505   6.193 106.779  1.00  0.00     0.001 A 
ATOM     37  C   UNL     1      30.551   7.174 106.496  1.00  0.00     0.000 A 
ENDBRANCH  25  32
ENDBRANCH   1  17
TORSDOF 9
ENDMDL
MODEL 8
REMARK VINA RESULT:    -5.793      0.858      2.461
REMARK INTER + INTRA:          -9.691
REMARK INTER:                  -8.691
REMARK INTRA:                  -1.000
REMARK UNBOUND:                -1.527
REMARK SMILES COc1c(O[C@@H]2O[C@H](C(=O)[O-])[C@H](O)[C@@H](O)[C@@H]2O)cc(O)c2c(=O)cc(-c3ccccc3)oc12
REMARK SMILES IDX 5 1 6 2 8 3 12 4 7 5 14 6 16 7 9 8 10 9 11 10 13 11 15 13
REMARK SMILES IDX 17 15 4 17 3 18 18 19 33 20 19 21 21 22 32 23 22 24 25 25
REMARK SMILES IDX 24 26 23 27 2 28 1 29 20 30 26 32 27 33 31 34 28 35 30 36
REMARK SMILES IDX 29 37
REMARK H PARENT 13 12 15 14 17 16 20 31
REMARK Flexibility Score: inf
ROOT
ATOM      1  O   UNL     1      28.572   0.331 102.763  1.00  0.00    -0.458 OA
ENDROOT
BRANCH   1   2
ATOM      2  C   UNL     1      29.936  -0.048 103.017  1.00  0.00     0.339 C 
ATOM      3  C   UNL     1      30.042   1.442 104.866  1.00  0.00     0.199 C 
ATOM      4  C   UNL     1      30.561   2.603 103.937  1.00  0.00     0.180 C 
ATOM      5  O   UNL     1      30.233   0.114 104.392  1.00  0.00    -0.328 OA
ATOM      6  C   UNL     1      30.602   2.273 102.419  1.00  0.00     0.181 C 
ATOM      7  C   UNL     1      30.925   0.791 102.204  1.00  0.00     0.214 C 
BRANCH   3   8
ATOM      8  C   UNL     1      28.659   1.651 105.435  1.00  0.00     0.073 C 
ATOM      9  O   UNL     1      27.913   2.574 105.016  1.00  0.00    -0.547 OA
ATOM     10  O   UNL     1      28.166   0.766 106.389  1.00  0.00    -0.547 OA
ENDBRANCH   3   8
BRANCH   4  11
ATOM     11  O   UNL     1      29.793   3.769 104.135  1.00  0.00    -0.387 OA
ATOM     12  H   UNL     1      29.400   4.021 103.263  1.00  0.00     0.211 HD
ENDBRANCH   4  11
BRANCH   6  13
ATOM     13  O   UNL     1      31.592   3.048 101.773  1.00  0.00    -0.387 OA
ATOM     14  H   UNL     1      31.859   2.564 100.944  1.00  0.00     0.211 HD
ENDBRANCH   6  13
BRANCH   7  15
ATOM     15  O   UNL     1      30.862   0.472 100.835  1.00  0.00    -0.384 OA
ATOM     16  H   UNL     1      30.402   1.223 100.374  1.00  0.00     0.211 HD
ENDBRANCH   7  15
ENDBRANCH   1   2
BRANCH   1  17
ATOM     17  C   UNL     1      27.570  -0.441 102.151  1.00  0.00     0.172 A 
ATOM     18  C   UNL     1      26.962  -1.442 102.922  1.00  0.00     0.205 A 
ATOM     19  C   UNL     1      27.187  -0.243 100.816  1.00  0.00     0.097 A 
ATOM     20  C   UNL     1      25.923  -2.226 102.358  1.00  0.00     0.188 A 
ATOM     21  C   UNL     1      26.187  -1.027 100.235  1.00  0.00     0.134 A 
ATOM     22  C   UNL     1      25.537  -2.026 101.008  1.00  0.00     0.111 A 
ATOM     23  O   UNL     1      25.297  -3.140 103.096  1.00  0.00    -0.452 OA
ATOM     24  C   UNL     1      24.487  -2.823 100.493  1.00  0.00     0.197 A 
ATOM     25  C   UNL     1      24.309  -3.917 102.639  1.00  0.00     0.138 A 
ATOM     26  C   UNL     1      23.886  -3.780 101.310  1.00  0.00     0.100 A 
ATOM     27  O   UNL     1      24.071  -2.680  99.315  1.00  0.00    -0.289 OA
BRANCH  18  28
ATOM     28  O   UNL     1      27.426  -1.576 104.244  1.00  0.00    -0.490 OA
ATOM     29  C   UNL     1      28.123  -2.683 104.784  1.00  0.00     0.278 C 
ENDBRANCH  18  28
BRANCH  21  30
ATOM     30  O   UNL     1      25.849  -0.813  98.899  1.00  0.00    -0.507 OA
ATOM     31  H   UNL     1      25.887  -1.564  98.210  1.00  0.00     0.293 HD
ENDBRANCH  21  30
BRANCH  25  32
ATOM     32  C   UNL     1      23.662  -4.888 103.565  1.00  0.00     0.017 A 
ATOM     33  C   UNL     1      24.193  -5.059 104.864  1.00  0.00     0.012 A 
ATOM     34  C   UNL     1      22.510  -5.624 103.192  1.00  0.00     0.012 A 
ATOM     35  C   UNL     1      23.586  -5.947 105.763  1.00  0.00     0.001 A 
ATOM     36  C   UNL     1      21.907  -6.506 104.101  1.00  0.00     0.001 A 
ATOM     37  C   UNL     1      22.440  -6.669 105.382  1.00  0.00     0.000 A 
ENDBRANCH  25  32
ENDBRANCH   1  17
TORSDOF 9
ENDMDL
MODEL 9
REMARK VINA RESULT:    -5.736      6.829      9.917
REMARK INTER + INTRA:          -9.610
REMARK INTER:                  -8.241
REMARK INTRA:                  -1.369
REMARK UNBOUND:                -1.527
REMARK SMILES COc1c(O[C@@H]2O[C@H](C(=O)[O-])[C@H](O)[C@@H](O)[C@@H]2O)cc(O)c2c(=O)cc(-c3ccccc3)oc12
REMARK SMILES IDX 5 1 6 2 8 3 12 4 7 5 14 6 16 7 9 8 10 9 11 10 13 11 15 13
REMARK SMILES IDX 17 15 4 17 3 18 18 19 33 20 19 21 21 22 32 23 22 24 25 25
REMARK SMILES IDX 24 26 23 27 2 28 1 29 20 30 26 32 27 33 31 34 28 35 30 36
REMARK SMILES IDX 29 37
REMARK H PARENT 13 12 15 14 17 16 20 31
REMARK Flexibility Score: inf
ROOT
ATOM      1  O   UNL     1      32.284  -0.226 107.495  1.00  0.00    -0.458 OA
ENDROOT
BRANCH   1   2
ATOM      2  C   UNL     1      31.262  -1.228 107.639  1.00  0.00     0.339 C 
ATOM      3  C   UNL     1      31.811  -1.509 109.935  1.00  0.00     0.199 C 
ATOM      4  C   UNL     1      32.842  -2.644 109.577  1.00  0.00     0.180 C 
ATOM      5  O   UNL     1      30.793  -1.249 108.975  1.00  0.00    -0.328 OA
ATOM      6  C   UNL     1      33.067  -2.887 108.059  1.00  0.00     0.181 C 
ATOM      7  C   UNL     1      31.774  -2.626 107.281  1.00  0.00     0.214 C 
BRANCH   3   8
ATOM      8  C   UNL     1      32.422  -0.238 110.473  1.00  0.00     0.073 C 
ATOM      9  O   UNL     1      31.772   0.529 111.231  1.00  0.00    -0.547 OA
ATOM     10  O   UNL     1      33.751   0.061 110.191  1.00  0.00    -0.547 OA
ENDBRANCH   3   8
BRANCH   4  11
ATOM     11  O   UNL     1      34.084  -2.388 110.193  1.00  0.00    -0.387 OA
ATOM     12  H   UNL     1      34.348  -3.203 110.688  1.00  0.00     0.211 HD
ENDBRANCH   4  11
BRANCH   6  13
ATOM     13  O   UNL     1      33.470  -4.223 107.829  1.00  0.00    -0.387 OA
ATOM     14  H   UNL     1      34.462  -4.254 107.908  1.00  0.00     0.211 HD
ENDBRANCH   6  13
BRANCH   7  15
ATOM     15  O   UNL     1      32.005  -2.747 105.898  1.00  0.00    -0.384 OA
ATOM     16  H   UNL     1      31.868  -3.702 105.655  1.00  0.00     0.211 HD
ENDBRANCH   7  15
ENDBRANCH   1   2
BRANCH   1  17
ATOM     17  C   UNL     1      32.137   1.082 107.003  1.00  0.00     0.172 A 
ATOM     18  C   UNL     1      32.312   1.279 105.626  1.00  0.00     0.205 A 
ATOM     19  C   UNL     1      31.839   2.165 107.843  1.00  0.00     0.097 A 
ATOM     20  C   UNL     1      32.141   2.576 105.077  1.00  0.00     0.188 A 
ATOM     21  C   UNL     1      31.699   3.455 107.323  1.00  0.00     0.134 A 
ATOM     22  C   UNL     1      31.841   3.671 105.928  1.00  0.00     0.111 A 
ATOM     23  O   UNL     1      32.246   2.768 103.764  1.00  0.00    -0.452 OA
ATOM     24  C   UNL     1      31.668   4.944 105.333  1.00  0.00     0.197 A 
ATOM     25  C   UNL     1      32.099   3.958 103.171  1.00  0.00     0.138 A 
ATOM     26  C   UNL     1      31.813   5.085 103.953  1.00  0.00     0.100 A 
ATOM     27  O   UNL     1      31.371   5.954 106.020  1.00  0.00    -0.289 OA
BRANCH  18  28
ATOM     28  O   UNL     1      32.626   0.135 104.869  1.00  0.00    -0.490 OA
ATOM     29  C   UNL     1      33.898  -0.213 104.356  1.00  0.00     0.278 C 
ENDBRANCH  18  28
BRANCH  21  30
ATOM     30  O   UNL     1      31.423   4.508 108.195  1.00  0.00    -0.507 OA
ATOM     31  H   UNL     1      31.208   5.445 107.852  1.00  0.00     0.293 HD
ENDBRANCH  21  30
BRANCH  25  32
ATOM     32  C   UNL     1      32.211   4.048 101.688  1.00  0.00     0.017 A 
ATOM     33  C   UNL     1      31.901   2.913 100.904  1.00  0.00     0.012 A 
ATOM     34  C   UNL     1      32.592   5.248 101.039  1.00  0.00     0.012 A 
ATOM     35  C   UNL     1      31.973   2.981  99.506  1.00  0.00     0.001 A 
ATOM     36  C   UNL     1      32.656   5.307  99.638  1.00  0.00     0.001 A 
ATOM     37  C   UNL     1      32.348   4.180  98.873  1.00  0.00     0.000 A 
ENDBRANCH  25  32
ENDBRANCH   1  17
TORSDOF 9
ENDMDL
