MODEL 1
REMARK VINA RESULT:     3.709      0.000      0.000
REMARK INTER + INTRA:           4.703
REMARK INTER:                   5.444
REMARK INTRA:                  -0.741
REMARK UNBOUND:                -0.741
REMARK SMILES CC(C)(O)CC[C@H](O)[C@@](C)(O)[C@@H]1CC[C@@]2(O)C3=CC(=O)[C@H]4C[C@H](O)[C@@H](O)C[C@@]4(C)[C@H]3CC[C@@]12C
REMARK SMILES IDX 6 1 7 2 9 3 10 4 12 5 34 6 33 7 32 8 15 9 31 10 17 11 14 12
REMARK SMILES IDX 13 13 30 14 18 15 28 16 19 17 21 18 27 19 29 20 20 21 22 22
REMARK SMILES IDX 25 23 23 24 16 25 26 27 24 29 11 31 8 33 5 35 2 36 1 37 3 38
REMARK SMILES IDX 4 39
REMARK H PARENT 16 26 26 28 24 30 11 32 8 34 4 40
REMARK Flexibility Score: inf
ROOT
ATOM      1  C   UNL     1      18.665  28.202  12.839  1.00  0.00     0.038 C 
ENDROOT
BRANCH   1   2
ATOM      2  C   UNL     1      18.579  26.891  12.030  1.00  0.00     0.146 C 
BRANCH   2   3
ATOM      3  C   UNL     1      19.256  26.941  10.606  1.00  0.00     0.091 C 
ATOM      4  C   UNL     1      19.931  28.337  10.486  1.00  0.00     0.045 C 
BRANCH   3   5
ATOM      5  C   UNL     1      18.302  26.753   9.332  1.00  0.00     0.032 C 
ATOM      6  C   UNL     1      16.818  24.817  10.168  1.00  0.00     0.015 C 
ATOM      7  C   UNL     1      17.673  25.357   8.986  1.00  0.00     0.006 C 
ATOM      8  C   UNL     1      18.683  24.245   8.603  1.00  0.00     0.011 C 
ATOM      9  C   UNL     1      16.749  25.697   7.768  1.00  0.00     0.092 C 
ATOM     10  C   UNL     1      19.608  24.641   7.464  1.00  0.00     0.009 C 
ATOM     11  C   UNL     1      17.477  25.672   6.403  1.00  0.00    -0.031 C 
ATOM     12  C   UNL     1      16.234  27.135   8.089  1.00  0.00     0.041 C 
ATOM     13  C   UNL     1      17.149  27.742   9.154  1.00  0.00     0.010 C 
ATOM     14  C   UNL     1      18.832  24.994   6.174  1.00  0.00     0.025 C 
ATOM     15  C   UNL     1      16.815  26.112   5.315  1.00  0.00     0.050 C 
ATOM     16  C   UNL     1      19.698  25.777   5.112  1.00  0.00    -0.013 C 
ATOM     17  C   UNL     1      17.428  26.156   3.980  1.00  0.00     0.159 C 
ATOM     18  C   UNL     1      18.890  25.822   3.764  1.00  0.00     0.070 C 
ATOM     19  C   UNL     1      20.004  27.229   5.616  1.00  0.00     0.042 C 
ATOM     20  C   UNL     1      21.031  25.012   4.877  1.00  0.00     0.013 C 
ATOM     21  O   UNL     1      16.694  26.437   2.993  1.00  0.00    -0.295 OA
ATOM     22  C   UNL     1      19.524  26.774   2.720  1.00  0.00     0.047 C 
ATOM     23  C   UNL     1      20.633  28.138   4.546  1.00  0.00     0.143 C 
ATOM     24  C   UNL     1      19.746  28.185   3.288  1.00  0.00     0.143 C 
BRANCH   9  25
ATOM     25  O   UNL     1      15.679  24.777   7.710  1.00  0.00    -0.385 OA
ATOM     26  H   UNL     1      15.178  24.821   8.566  1.00  0.00     0.211 HD
ENDBRANCH   9  25
BRANCH  23  27
ATOM     27  O   UNL     1      20.769  29.429   5.080  1.00  0.00    -0.390 OA
ATOM     28  H   UNL     1      21.001  30.032   4.326  1.00  0.00     0.211 HD
ENDBRANCH  23  27
BRANCH  24  29
ATOM     29  O   UNL     1      20.310  29.021   2.307  1.00  0.00    -0.390 OA
ATOM     30  H   UNL     1      19.943  28.745   1.428  1.00  0.00     0.211 HD
ENDBRANCH  24  29
ENDBRANCH   3   5
BRANCH   3  31
ATOM     31  O   UNL     1      20.283  25.977  10.557  1.00  0.00    -0.387 OA
ATOM     32  H   UNL     1      20.631  25.926   9.630  1.00  0.00     0.211 HD
ENDBRANCH   3  31
ENDBRANCH   2   3
BRANCH   2  33
ATOM     33  O   UNL     1      19.075  25.813  12.790  1.00  0.00    -0.390 OA
ATOM     34  H   UNL     1      18.553  25.004  12.550  1.00  0.00     0.211 HD
ENDBRANCH   2  33
ENDBRANCH   1   2
BRANCH   1  35
ATOM     35  C   UNL     1      17.285  28.883  12.956  1.00  0.00     0.037 C 
BRANCH  35  36
ATOM     36  C   UNL     1      17.253  30.384  12.546  1.00  0.00     0.059 C 
ATOM     37  C   UNL     1      18.534  31.106  13.004  1.00  0.00     0.042 C 
ATOM     38  C   UNL     1      16.020  31.112  13.125  1.00  0.00     0.042 C 
BRANCH  36  39
ATOM     39  O   UNL     1      17.215  30.462  11.139  1.00  0.00    -0.390 OA
ATOM     40  H   UNL     1      16.558  29.791  10.811  1.00  0.00     0.211 HD
ENDBRANCH  36  39
ENDBRANCH  35  36
ENDBRANCH   1  35
TORSDOF 11
ENDMDL
