MODEL 1
REMARK VINA RESULT:    -3.155      0.000      0.000
REMARK INTER + INTRA:          -3.867
REMARK INTER:                  -3.708
REMARK INTRA:                  -0.159
REMARK UNBOUND:                -0.159
REMARK SMILES O=C([O-])CCC(=O)[O-]
REMARK SMILES IDX 4 1 2 2 1 3 3 4 5 5 6 6 7 7 8 8
REMARK H PARENT
REMARK Flexibility Score: inf
ROOT
ATOM      1  C   UNL     1     -35.232 -55.628  29.707  1.00  0.00     0.059 C 
ENDROOT
BRANCH   1   2
ATOM      2  C   UNL     1     -36.398 -54.912  29.096  1.00  0.00     0.042 C 
ATOM      3  O   UNL     1     -36.338 -54.500  27.908  1.00  0.00    -0.550 OA
ATOM      4  O   UNL     1     -37.536 -54.664  29.854  1.00  0.00    -0.550 OA
ENDBRANCH   1   2
BRANCH   1   5
ATOM      5  C   UNL     1     -33.918 -54.878  29.467  1.00  0.00     0.059 C 
BRANCH   5   6
ATOM      6  C   UNL     1     -33.818 -53.653  30.325  1.00  0.00     0.042 C 
ATOM      7  O   UNL     1     -33.595 -53.762  31.560  1.00  0.00    -0.550 OA
ATOM      8  O   UNL     1     -33.933 -52.392  29.754  1.00  0.00    -0.550 OA
ENDBRANCH   5   6
ENDBRANCH   1   5
TORSDOF 3
ENDMDL
MODEL 2
REMARK VINA RESULT:    -3.125      0.252      3.362
REMARK INTER + INTRA:          -3.832
REMARK INTER:                  -3.677
REMARK INTRA:                  -0.156
REMARK UNBOUND:                -0.159
REMARK SMILES O=C([O-])CCC(=O)[O-]
REMARK SMILES IDX 4 1 2 2 1 3 3 4 5 5 6 6 7 7 8 8
REMARK H PARENT
REMARK Flexibility Score: inf
ROOT
ATOM      1  C   UNL     1     -33.736 -54.738  29.463  1.00  0.00     0.059 C 
ENDROOT
BRANCH   1   2
ATOM      2  C   UNL     1     -33.662 -53.540  30.361  1.00  0.00     0.042 C 
ATOM      3  O   UNL     1     -33.754 -52.380  29.880  1.00  0.00    -0.550 OA
ATOM      4  O   UNL     1     -33.452 -53.706  31.724  1.00  0.00    -0.550 OA
ENDBRANCH   1   2
BRANCH   1   5
ATOM      5  C   UNL     1     -35.037 -55.520  29.672  1.00  0.00     0.059 C 
BRANCH   5   6
ATOM      6  C   UNL     1     -36.209 -54.813  29.063  1.00  0.00     0.042 C 
ATOM      7  O   UNL     1     -37.286 -54.702  29.708  1.00  0.00    -0.550 OA
ATOM      8  O   UNL     1     -36.100 -54.243  27.801  1.00  0.00    -0.550 OA
ENDBRANCH   5   6
ENDBRANCH   1   5
TORSDOF 3
ENDMDL
MODEL 3
REMARK VINA RESULT:    -3.091      2.204      3.064
REMARK INTER + INTRA:          -3.792
REMARK INTER:                  -3.638
REMARK INTRA:                  -0.154
REMARK UNBOUND:                -0.159
REMARK SMILES O=C([O-])CCC(=O)[O-]
REMARK SMILES IDX 4 1 2 2 1 3 3 4 5 5 6 6 7 7 8 8
REMARK H PARENT
REMARK Flexibility Score: inf
ROOT
ATOM      1  C   UNL     1     -36.221 -54.595  28.294  1.00  0.00     0.059 C 
ENDROOT
BRANCH   1   2
ATOM      2  C   UNL     1     -35.378 -55.643  28.955  1.00  0.00     0.042 C 
ATOM      3  O   UNL     1     -34.990 -55.490  30.142  1.00  0.00    -0.550 OA
ATOM      4  O   UNL     1     -34.989 -56.771  28.243  1.00  0.00    -0.550 OA
ENDBRANCH   1   2
BRANCH   1   5
ATOM      5  C   UNL     1     -35.620 -53.196  28.465  1.00  0.00     0.059 C 
BRANCH   5   6
ATOM      6  C   UNL     1     -34.440 -52.988  27.564  1.00  0.00     0.042 C 
ATOM      7  O   UNL     1     -34.611 -52.801  26.330  1.00  0.00    -0.550 OA
ATOM      8  O   UNL     1     -33.156 -52.964  28.093  1.00  0.00    -0.550 OA
ENDBRANCH   5   6
ENDBRANCH   1   5
TORSDOF 3
ENDMDL
MODEL 4
REMARK VINA RESULT:    -3.055      1.511      1.963
REMARK INTER + INTRA:          -3.750
REMARK INTER:                  -3.572
REMARK INTRA:                  -0.177
REMARK UNBOUND:                -0.159
REMARK SMILES O=C([O-])CCC(=O)[O-]
REMARK SMILES IDX 4 1 2 2 1 3 3 4 5 5 6 6 7 7 8 8
REMARK H PARENT
REMARK Flexibility Score: inf
ROOT
ATOM      1  C   UNL     1     -35.571 -53.716  28.021  1.00  0.00     0.059 C 
ENDROOT
BRANCH   1   2
ATOM      2  C   UNL     1     -36.008 -54.925  28.791  1.00  0.00     0.042 C 
ATOM      3  O   UNL     1     -36.979 -54.852  29.589  1.00  0.00    -0.550 OA
ATOM      4  O   UNL     1     -35.317 -56.122  28.655  1.00  0.00    -0.550 OA
ENDBRANCH   1   2
BRANCH   1   5
ATOM      5  C   UNL     1     -34.895 -52.683  28.928  1.00  0.00     0.059 C 
BRANCH   5   6
ATOM      6  C   UNL     1     -33.652 -53.233  29.559  1.00  0.00     0.042 C 
ATOM      7  O   UNL     1     -33.545 -53.278  30.813  1.00  0.00    -0.550 OA
ATOM      8  O   UNL     1     -32.628 -53.730  28.763  1.00  0.00    -0.550 OA
ENDBRANCH   5   6
ENDBRANCH   1   5
TORSDOF 3
ENDMDL
MODEL 5
REMARK VINA RESULT:    -3.052      1.651      2.097
REMARK INTER + INTRA:          -3.746
REMARK INTER:                  -3.574
REMARK INTRA:                  -0.171
REMARK UNBOUND:                -0.159
REMARK SMILES O=C([O-])CCC(=O)[O-]
REMARK SMILES IDX 4 1 2 2 1 3 3 4 5 5 6 6 7 7 8 8
REMARK H PARENT
REMARK Flexibility Score: inf
ROOT
ATOM      1  C   UNL     1     -34.329 -54.674  30.085  1.00  0.00     0.059 C 
ENDROOT
BRANCH   1   2
ATOM      2  C   UNL     1     -35.422 -55.395  29.356  1.00  0.00     0.042 C 
ATOM      3  O   UNL     1     -35.149 -56.363  28.600  1.00  0.00    -0.550 OA
ATOM      4  O   UNL     1     -36.738 -54.969  29.482  1.00  0.00    -0.550 OA
ENDBRANCH   1   2
BRANCH   1   5
ATOM      5  C   UNL     1     -33.467 -53.841  29.130  1.00  0.00     0.059 C 
BRANCH   5   6
ATOM      6  C   UNL     1     -34.289 -52.838  28.379  1.00  0.00     0.042 C 
ATOM      7  O   UNL     1     -34.848 -51.890  28.992  1.00  0.00    -0.550 OA
ATOM      8  O   UNL     1     -34.405 -52.927  26.997  1.00  0.00    -0.550 OA
ENDBRANCH   5   6
ENDBRANCH   1   5
TORSDOF 3
ENDMDL
MODEL 6
REMARK VINA RESULT:    -3.046      1.651      3.332
REMARK INTER + INTRA:          -3.740
REMARK INTER:                  -3.564
REMARK INTRA:                  -0.176
REMARK UNBOUND:                -0.159
REMARK SMILES O=C([O-])CCC(=O)[O-]
REMARK SMILES IDX 4 1 2 2 1 3 3 4 5 5 6 6 7 7 8 8
REMARK H PARENT
REMARK Flexibility Score: inf
ROOT
ATOM      1  C   UNL     1     -33.353 -53.947  28.975  1.00  0.00     0.059 C 
ENDROOT
BRANCH   1   2
ATOM      2  C   UNL     1     -34.141 -52.859  28.310  1.00  0.00     0.042 C 
ATOM      3  O   UNL     1     -34.602 -51.905  28.988  1.00  0.00    -0.550 OA
ATOM      4  O   UNL     1     -34.398 -52.923  26.946  1.00  0.00    -0.550 OA
ENDBRANCH   1   2
BRANCH   1   5
ATOM      5  C   UNL     1     -34.213 -54.747  29.959  1.00  0.00     0.059 C 
BRANCH   5   6
ATOM      6  C   UNL     1     -35.357 -55.423  29.266  1.00  0.00     0.042 C 
ATOM      7  O   UNL     1     -35.150 -56.428  28.535  1.00  0.00    -0.550 OA
ATOM      8  O   UNL     1     -36.655 -54.968  29.460  1.00  0.00    -0.550 OA
ENDBRANCH   5   6
ENDBRANCH   1   5
TORSDOF 3
ENDMDL
MODEL 7
REMARK VINA RESULT:    -3.046      1.501      3.580
REMARK INTER + INTRA:          -3.739
REMARK INTER:                  -3.577
REMARK INTRA:                  -0.163
REMARK UNBOUND:                -0.159
REMARK SMILES O=C([O-])CCC(=O)[O-]
REMARK SMILES IDX 4 1 2 2 1 3 3 4 5 5 6 6 7 7 8 8
REMARK H PARENT
REMARK Flexibility Score: inf
ROOT
ATOM      1  C   UNL     1     -34.776 -52.699  28.844  1.00  0.00     0.059 C 
ENDROOT
BRANCH   1   2
ATOM      2  C   UNL     1     -33.591 -53.302  29.537  1.00  0.00     0.042 C 
ATOM      3  O   UNL     1     -32.588 -53.671  28.873  1.00  0.00    -0.550 OA
ATOM      4  O   UNL     1     -33.614 -53.490  30.913  1.00  0.00    -0.550 OA
ENDBRANCH   1   2
BRANCH   1   5
ATOM      5  C   UNL     1     -35.490 -53.722  27.954  1.00  0.00     0.059 C 
BRANCH   5   6
ATOM      6  C   UNL     1     -35.975 -54.898  28.745  1.00  0.00     0.042 C 
ATOM      7  O   UNL     1     -36.994 -54.793  29.478  1.00  0.00    -0.550 OA
ATOM      8  O   UNL     1     -35.324 -56.121  28.644  1.00  0.00    -0.550 OA
ENDBRANCH   5   6
ENDBRANCH   1   5
TORSDOF 3
ENDMDL
MODEL 8
REMARK VINA RESULT:    -2.880      9.163     10.024
REMARK INTER + INTRA:          -3.544
REMARK INTER:                  -3.425
REMARK INTRA:                  -0.119
REMARK UNBOUND:                -0.159
REMARK SMILES O=C([O-])CCC(=O)[O-]
REMARK SMILES IDX 4 1 2 2 1 3 3 4 5 5 6 6 7 7 8 8
REMARK H PARENT
REMARK Flexibility Score: inf
ROOT
ATOM      1  C   UNL     1     -27.393 -52.994  23.509  1.00  0.00     0.059 C 
ENDROOT
BRANCH   1   2
ATOM      2  C   UNL     1     -27.658 -54.375  24.029  1.00  0.00     0.042 C 
ATOM      3  O   UNL     1     -27.700 -55.353  23.239  1.00  0.00    -0.550 OA
ATOM      4  O   UNL     1     -27.896 -54.572  25.383  1.00  0.00    -0.550 OA
ENDBRANCH   1   2
BRANCH   1   5
ATOM      5  C   UNL     1     -27.286 -51.973  24.646  1.00  0.00     0.059 C 
BRANCH   5   6
ATOM      6  C   UNL     1     -25.857 -51.679  24.990  1.00  0.00     0.042 C 
ATOM      7  O   UNL     1     -25.333 -52.194  26.013  1.00  0.00    -0.550 OA
ATOM      8  O   UNL     1     -25.094 -50.868  24.160  1.00  0.00    -0.550 OA
ENDBRANCH   5   6
ENDBRANCH   1   5
TORSDOF 3
ENDMDL
MODEL 9
REMARK VINA RESULT:    -2.863      8.882      9.970
REMARK INTER + INTRA:          -3.525
REMARK INTER:                  -3.485
REMARK INTRA:                  -0.040
REMARK UNBOUND:                -0.159
REMARK SMILES O=C([O-])CCC(=O)[O-]
REMARK SMILES IDX 4 1 2 2 1 3 3 4 5 5 6 6 7 7 8 8
REMARK H PARENT
REMARK Flexibility Score: inf
ROOT
ATOM      1  C   UNL     1     -26.843 -53.363  26.052  1.00  0.00     0.059 C 
ENDROOT
BRANCH   1   2
ATOM      2  C   UNL     1     -25.940 -53.916  27.113  1.00  0.00     0.042 C 
ATOM      3  O   UNL     1     -26.362 -54.792  27.911  1.00  0.00    -0.550 OA
ATOM      4  O   UNL     1     -24.644 -53.433  27.242  1.00  0.00    -0.550 OA
ENDBRANCH   1   2
BRANCH   1   5
ATOM      5  C   UNL     1     -27.792 -54.433  25.503  1.00  0.00     0.059 C 
BRANCH   5   6
ATOM      6  C   UNL     1     -27.715 -54.525  24.010  1.00  0.00     0.042 C 
ATOM      7  O   UNL     1     -27.810 -55.643  23.438  1.00  0.00    -0.550 OA
ATOM      8  O   UNL     1     -27.578 -53.372  23.248  1.00  0.00    -0.550 OA
ENDBRANCH   5   6
ENDBRANCH   1   5
TORSDOF 3
ENDMDL
