MODEL 1
REMARK VINA RESULT:    -5.062      0.000      0.000
REMARK INTER + INTRA:          -7.599
REMARK INTER:                  -7.133
REMARK INTRA:                  -0.466
REMARK UNBOUND:                -0.466
REMARK SMILES O=c1cc(-c2ccc(O)c(O)c2)oc2cc(O)c([C@H]3O[C@H](CO)[C@@H](O)[C@@H](O)[C@H]3O)c(O)c12
REMARK SMILES IDX 4 1 3 2 2 3 1 4 32 5 14 6 13 7 15 8 16 9 18 10 30 11 5 12
REMARK SMILES IDX 6 13 7 14 8 15 12 16 10 17 9 18 11 20 31 22 17 24 19 26
REMARK SMILES IDX 28 27 20 28 26 29 21 30 24 31 29 32 27 34 22 36 23 37 25 39
REMARK H PARENT 9 19 11 21 31 23 17 25 29 33 27 35 23 38 25 40
REMARK Flexibility Score: inf
ROOT
ATOM      1  C   UNL     1      39.370  25.551  29.352  1.00  0.00     0.138 A 
ATOM      2  C   UNL     1      40.168  24.489  29.803  1.00  0.00     0.100 A 
ATOM      3  C   UNL     1      41.556  24.592  29.716  1.00  0.00     0.197 A 
ATOM      4  O   UNL     1      42.262  23.631  30.125  1.00  0.00    -0.289 OA
ATOM      5  C   UNL     1      42.140  25.763  29.182  1.00  0.00     0.107 A 
ATOM      6  C   UNL     1      41.267  26.781  28.747  1.00  0.00     0.146 A 
ATOM      7  O   UNL     1      39.949  26.634  28.844  1.00  0.00    -0.456 OA
ATOM      8  C   UNL     1      41.776  27.945  28.189  1.00  0.00     0.094 A 
ATOM      9  C   UNL     1      43.155  28.154  28.088  1.00  0.00     0.128 A 
ATOM     10  C   UNL     1      44.069  27.188  28.594  1.00  0.00     0.068 A 
ATOM     11  C   UNL     1      43.540  25.938  29.042  1.00  0.00     0.140 A 
ENDROOT
BRANCH   1  12
ATOM     12  C   UNL     1      37.888  25.491  29.408  1.00  0.00     0.021 A 
ATOM     13  C   UNL     1      37.263  24.392  30.017  1.00  0.00     0.016 A 
ATOM     14  C   UNL     1      35.869  24.312  30.077  1.00  0.00     0.051 A 
ATOM     15  C   UNL     1      35.078  25.322  29.522  1.00  0.00     0.157 A 
ATOM     16  C   UNL     1      37.089  26.500  28.840  1.00  0.00     0.062 A 
ATOM     17  C   UNL     1      35.689  26.421  28.897  1.00  0.00     0.158 A 
BRANCH  15  18
ATOM     18  O   UNL     1      33.689  25.216  29.600  1.00  0.00    -0.504 OA
ATOM     19  H   UNL     1      33.232  24.625  30.284  1.00  0.00     0.293 HD
ENDBRANCH  15  18
BRANCH  17  20
ATOM     20  O   UNL     1      34.906  27.427  28.334  1.00  0.00    -0.504 OA
ATOM     21  H   UNL     1      34.597  28.225  28.876  1.00  0.00     0.293 HD
ENDBRANCH  17  20
ENDBRANCH   1  12
BRANCH  11  22
ATOM     22  O   UNL     1      44.375  24.849  29.319  1.00  0.00    -0.506 OA
ATOM     23  H   UNL     1      44.700  24.190  28.625  1.00  0.00     0.293 HD
ENDBRANCH  11  22
BRANCH   9  24
ATOM     24  O   UNL     1      43.592  29.319  27.465  1.00  0.00    -0.507 OA
ATOM     25  H   UNL     1      42.949  29.976  27.039  1.00  0.00     0.293 HD
ENDBRANCH   9  24
BRANCH  10  26
ATOM     26  C   UNL     1      45.597  27.416  28.620  1.00  0.00     0.188 C 
ATOM     27  C   UNL     1      46.188  28.701  29.299  1.00  0.00     0.179 C 
ATOM     28  O   UNL     1      46.203  27.097  27.375  1.00  0.00    -0.362 OA
ATOM     29  C   UNL     1      47.299  29.306  28.420  1.00  0.00     0.177 C 
ATOM     30  C   UNL     1      46.138  28.162  26.443  1.00  0.00     0.176 C 
ATOM     31  C   UNL     1      46.843  29.458  26.962  1.00  0.00     0.177 C 
BRANCH  27  32
ATOM     32  O   UNL     1      45.205  29.656  29.607  1.00  0.00    -0.387 OA
ATOM     33  H   UNL     1      44.676  29.818  28.783  1.00  0.00     0.211 HD
ENDBRANCH  27  32
BRANCH  29  34
ATOM     34  O   UNL     1      47.720  30.548  28.923  1.00  0.00    -0.387 OA
ATOM     35  H   UNL     1      47.134  31.236  28.514  1.00  0.00     0.211 HD
ENDBRANCH  29  34
BRANCH  30  36
ATOM     36  C   UNL     1      46.779  27.679  25.133  1.00  0.00     0.191 C 
BRANCH  36  37
ATOM     37  O   UNL     1      47.165  28.763  24.333  1.00  0.00    -0.394 OA
ATOM     38  H   UNL     1      47.273  28.412  23.410  1.00  0.00     0.210 HD
ENDBRANCH  36  37
ENDBRANCH  30  36
BRANCH  31  39
ATOM     39  O   UNL     1      45.978  30.559  26.849  1.00  0.00    -0.388 OA
ATOM     40  H   UNL     1      46.529  31.324  26.540  1.00  0.00     0.211 HD
ENDBRANCH  31  39
ENDBRANCH  10  26
TORSDOF 11
ENDMDL
MODEL 2
REMARK VINA RESULT:    -5.043      5.420     10.515
REMARK INTER + INTRA:          -7.573
REMARK INTER:                  -7.203
REMARK INTRA:                  -0.370
REMARK UNBOUND:                -0.466
REMARK SMILES O=c1cc(-c2ccc(O)c(O)c2)oc2cc(O)c([C@H]3O[C@H](CO)[C@@H](O)[C@@H](O)[C@H]3O)c(O)c12
REMARK SMILES IDX 4 1 3 2 2 3 1 4 32 5 14 6 13 7 15 8 16 9 18 10 30 11 5 12
REMARK SMILES IDX 6 13 7 14 8 15 12 16 10 17 9 18 11 20 31 22 17 24 19 26
REMARK SMILES IDX 28 27 20 28 26 29 21 30 24 31 29 32 27 34 22 36 23 37 25 39
REMARK H PARENT 9 19 11 21 31 23 17 25 29 33 27 35 23 38 25 40
REMARK Flexibility Score: inf
ROOT
ATOM      1  C   UNL     1      46.296  30.644  20.741  1.00  0.00     0.138 A 
ATOM      2  C   UNL     1      45.181  29.815  20.551  1.00  0.00     0.100 A 
ATOM      3  C   UNL     1      44.557  29.244  21.660  1.00  0.00     0.197 A 
ATOM      4  O   UNL     1      43.555  28.501  21.476  1.00  0.00    -0.289 OA
ATOM      5  C   UNL     1      45.049  29.512  22.957  1.00  0.00     0.107 A 
ATOM      6  C   UNL     1      46.177  30.351  23.060  1.00  0.00     0.146 A 
ATOM      7  O   UNL     1      46.743  30.867  21.974  1.00  0.00    -0.456 OA
ATOM      8  C   UNL     1      46.727  30.633  24.303  1.00  0.00     0.094 A 
ATOM      9  C   UNL     1      46.152  30.132  25.476  1.00  0.00     0.128 A 
ATOM     10  C   UNL     1      44.964  29.352  25.420  1.00  0.00     0.068 A 
ATOM     11  C   UNL     1      44.485  28.957  24.133  1.00  0.00     0.140 A 
ENDROOT
BRANCH   1  12
ATOM     12  C   UNL     1      47.009  31.267  19.598  1.00  0.00     0.021 A 
ATOM     13  C   UNL     1      48.335  31.696  19.762  1.00  0.00     0.016 A 
ATOM     14  C   UNL     1      49.025  32.289  18.701  1.00  0.00     0.051 A 
ATOM     15  C   UNL     1      48.399  32.473  17.466  1.00  0.00     0.157 A 
ATOM     16  C   UNL     1      46.378  31.465  18.357  1.00  0.00     0.062 A 
ATOM     17  C   UNL     1      47.068  32.063  17.291  1.00  0.00     0.158 A 
BRANCH  15  18
ATOM     18  O   UNL     1      49.114  33.066  16.424  1.00  0.00    -0.504 OA
ATOM     19  H   UNL     1      49.139  32.668  15.493  1.00  0.00     0.293 HD
ENDBRANCH  15  18
BRANCH  17  20
ATOM     20  O   UNL     1      46.435  32.251  16.063  1.00  0.00    -0.504 OA
ATOM     21  H   UNL     1      46.703  33.001  15.438  1.00  0.00     0.293 HD
ENDBRANCH  17  20
ENDBRANCH   1  12
BRANCH  11  22
ATOM     22  O   UNL     1      43.478  27.993  23.993  1.00  0.00    -0.506 OA
ATOM     23  H   UNL     1      42.700  27.887  24.629  1.00  0.00     0.293 HD
ENDBRANCH  11  22
BRANCH   9  24
ATOM     24  O   UNL     1      46.790  30.409  26.681  1.00  0.00    -0.507 OA
ATOM     25  H   UNL     1      47.790  30.300  26.799  1.00  0.00     0.293 HD
ENDBRANCH   9  24
BRANCH  10  26
ATOM     26  C   UNL     1      44.217  28.874  26.685  1.00  0.00     0.188 C 
ATOM     27  C   UNL     1      43.722  29.918  27.746  1.00  0.00     0.179 C 
ATOM     28  O   UNL     1      44.822  27.722  27.255  1.00  0.00    -0.362 OA
ATOM     29  C   UNL     1      44.028  29.417  29.171  1.00  0.00     0.177 C 
ATOM     30  C   UNL     1      45.908  28.037  28.110  1.00  0.00     0.176 C 
ATOM     31  C   UNL     1      45.486  28.956  29.303  1.00  0.00     0.177 C 
BRANCH  27  32
ATOM     32  O   UNL     1      44.247  31.203  27.534  1.00  0.00    -0.387 OA
ATOM     33  H   UNL     1      45.175  31.209  27.885  1.00  0.00     0.211 HD
ENDBRANCH  27  32
BRANCH  29  34
ATOM     34  O   UNL     1      43.750  30.410  30.125  1.00  0.00    -0.387 OA
ATOM     35  H   UNL     1      44.409  30.295  30.858  1.00  0.00     0.211 HD
ENDBRANCH  29  34
BRANCH  30  36
ATOM     36  C   UNL     1      46.502  26.716  28.621  1.00  0.00     0.191 C 
BRANCH  36  37
ATOM     37  O   UNL     1      47.659  26.945  29.379  1.00  0.00    -0.394 OA
ATOM     38  H   UNL     1      47.841  27.920  29.334  1.00  0.00     0.210 HD
ENDBRANCH  36  37
ENDBRANCH  30  36
BRANCH  31  39
ATOM     39  O   UNL     1      46.332  30.074  29.377  1.00  0.00    -0.388 OA
ATOM     40  H   UNL     1      46.450  30.406  28.450  1.00  0.00     0.211 HD
ENDBRANCH  31  39
ENDBRANCH  10  26
TORSDOF 11
ENDMDL
MODEL 3
REMARK VINA RESULT:    -4.995      6.876     13.088
REMARK INTER + INTRA:          -7.505
REMARK INTER:                  -7.066
REMARK INTRA:                  -0.439
REMARK UNBOUND:                -0.466
REMARK SMILES O=c1cc(-c2ccc(O)c(O)c2)oc2cc(O)c([C@H]3O[C@H](CO)[C@@H](O)[C@@H](O)[C@H]3O)c(O)c12
REMARK SMILES IDX 4 1 3 2 2 3 1 4 32 5 14 6 13 7 15 8 16 9 18 10 30 11 5 12
REMARK SMILES IDX 6 13 7 14 8 15 12 16 10 17 9 18 11 20 31 22 17 24 19 26
REMARK SMILES IDX 28 27 20 28 26 29 21 30 24 31 29 32 27 34 22 36 23 37 25 39
REMARK H PARENT 9 19 11 21 31 23 17 25 29 33 27 35 23 38 25 40
REMARK Flexibility Score: inf
ROOT
ATOM      1  C   UNL     1      37.865  32.041  23.349  1.00  0.00     0.138 A 
ATOM      2  C   UNL     1      37.154  32.601  22.277  1.00  0.00     0.100 A 
ATOM      3  C   UNL     1      35.760  32.617  22.316  1.00  0.00     0.197 A 
ATOM      4  O   UNL     1      35.133  33.125  21.347  1.00  0.00    -0.289 OA
ATOM      5  C   UNL     1      35.083  32.077  23.432  1.00  0.00     0.107 A 
ATOM      6  C   UNL     1      35.871  31.528  24.463  1.00  0.00     0.146 A 
ATOM      7  O   UNL     1      37.198  31.529  24.379  1.00  0.00    -0.456 OA
ATOM      8  C   UNL     1      35.268  30.957  25.575  1.00  0.00     0.094 A 
ATOM      9  C   UNL     1      33.878  30.954  25.719  1.00  0.00     0.128 A 
ATOM     10  C   UNL     1      33.051  31.574  24.741  1.00  0.00     0.068 A 
ATOM     11  C   UNL     1      33.670  32.037  23.540  1.00  0.00     0.140 A 
ENDROOT
BRANCH   1  12
ATOM     12  C   UNL     1      39.347  31.984  23.356  1.00  0.00     0.021 A 
ATOM     13  C   UNL     1      40.085  33.122  22.995  1.00  0.00     0.016 A 
ATOM     14  C   UNL     1      41.482  33.091  22.991  1.00  0.00     0.051 A 
ATOM     15  C   UNL     1      42.164  31.921  23.336  1.00  0.00     0.157 A 
ATOM     16  C   UNL     1      40.037  30.805  23.692  1.00  0.00     0.062 A 
ATOM     17  C   UNL     1      41.440  30.770  23.686  1.00  0.00     0.158 A 
BRANCH  15  18
ATOM     18  O   UNL     1      43.559  31.922  23.325  1.00  0.00    -0.504 OA
ATOM     19  H   UNL     1      44.102  32.617  23.824  1.00  0.00     0.293 HD
ENDBRANCH  15  18
BRANCH  17  20
ATOM     20  O   UNL     1      42.115  29.598  24.024  1.00  0.00    -0.504 OA
ATOM     21  H   UNL     1      43.119  29.582  24.153  1.00  0.00     0.293 HD
ENDBRANCH  17  20
ENDBRANCH   1  12
BRANCH  11  22
ATOM     22  O   UNL     1      32.910  32.429  22.430  1.00  0.00    -0.506 OA
ATOM     23  H   UNL     1      33.294  32.611  21.513  1.00  0.00     0.293 HD
ENDBRANCH  11  22
BRANCH   9  24
ATOM     24  O   UNL     1      33.340  30.313  26.832  1.00  0.00    -0.507 OA
ATOM     25  H   UNL     1      33.921  29.959  27.582  1.00  0.00     0.293 HD
ENDBRANCH   9  24
BRANCH  10  26
ATOM     26  C   UNL     1      31.520  31.708  24.903  1.00  0.00     0.188 C 
ATOM     27  C   UNL     1      30.923  32.384  26.187  1.00  0.00     0.179 C 
ATOM     28  O   UNL     1      30.838  30.524  24.512  1.00  0.00    -0.362 OA
ATOM     29  C   UNL     1      29.722  31.572  26.710  1.00  0.00     0.177 C 
ATOM     30  C   UNL     1      30.784  29.553  25.543  1.00  0.00     0.176 C 
ATOM     31  C   UNL     1      30.062  30.080  26.826  1.00  0.00     0.177 C 
BRANCH  27  32
ATOM     32  O   UNL     1      31.881  32.584  27.194  1.00  0.00    -0.387 OA
ATOM     33  H   UNL     1      32.480  33.318  26.897  1.00  0.00     0.211 HD
ENDBRANCH  27  32
BRANCH  29  34
ATOM     34  O   UNL     1      29.283  32.062  27.950  1.00  0.00    -0.387 OA
ATOM     35  H   UNL     1      29.891  32.808  28.195  1.00  0.00     0.211 HD
ENDBRANCH  29  34
BRANCH  30  36
ATOM     36  C   UNL     1      30.071  28.313  24.983  1.00  0.00     0.191 C 
BRANCH  36  37
ATOM     37  O   UNL     1      29.588  27.501  26.019  1.00  0.00    -0.394 OA
ATOM     38  H   UNL     1      28.646  27.774  26.179  1.00  0.00     0.210 HD
ENDBRANCH  36  37
ENDBRANCH  30  36
BRANCH  31  39
ATOM     39  O   UNL     1      30.864  29.863  27.958  1.00  0.00    -0.388 OA
ATOM     40  H   UNL     1      31.270  28.964  27.853  1.00  0.00     0.211 HD
ENDBRANCH  31  39
ENDBRANCH  10  26
TORSDOF 11
ENDMDL
MODEL 4
REMARK VINA RESULT:    -4.912      8.023     13.663
REMARK INTER + INTRA:          -7.388
REMARK INTER:                  -6.918
REMARK INTRA:                  -0.470
REMARK UNBOUND:                -0.466
REMARK SMILES O=c1cc(-c2ccc(O)c(O)c2)oc2cc(O)c([C@H]3O[C@H](CO)[C@@H](O)[C@@H](O)[C@H]3O)c(O)c12
REMARK SMILES IDX 4 1 3 2 2 3 1 4 32 5 14 6 13 7 15 8 16 9 18 10 30 11 5 12
REMARK SMILES IDX 6 13 7 14 8 15 12 16 10 17 9 18 11 20 31 22 17 24 19 26
REMARK SMILES IDX 28 27 20 28 26 29 21 30 24 31 29 32 27 34 22 36 23 37 25 39
REMARK H PARENT 9 19 11 21 31 23 17 25 29 33 27 35 23 38 25 40
REMARK Flexibility Score: inf
ROOT
ATOM      1  C   UNL     1      37.103  32.475  22.108  1.00  0.00     0.138 A 
ATOM      2  C   UNL     1      36.190  32.854  21.113  1.00  0.00     0.100 A 
ATOM      3  C   UNL     1      34.822  32.727  21.354  1.00  0.00     0.197 A 
ATOM      4  O   UNL     1      34.013  33.072  20.451  1.00  0.00    -0.289 OA
ATOM      5  C   UNL     1      34.373  32.226  22.597  1.00  0.00     0.107 A 
ATOM      6  C   UNL     1      35.355  31.863  23.541  1.00  0.00     0.146 A 
ATOM      7  O   UNL     1      36.649  31.995  23.263  1.00  0.00    -0.456 OA
ATOM      8  C   UNL     1      34.982  31.338  24.770  1.00  0.00     0.094 A 
ATOM      9  C   UNL     1      33.634  31.203  25.117  1.00  0.00     0.128 A 
ATOM     10  C   UNL     1      32.614  31.638  24.226  1.00  0.00     0.068 A 
ATOM     11  C   UNL     1      33.003  32.048  22.914  1.00  0.00     0.140 A 
ENDROOT
BRANCH   1  12
ATOM     12  C   UNL     1      38.569  32.575  21.902  1.00  0.00     0.021 A 
ATOM     13  C   UNL     1      39.064  33.010  20.663  1.00  0.00     0.016 A 
ATOM     14  C   UNL     1      40.441  33.109  20.445  1.00  0.00     0.051 A 
ATOM     15  C   UNL     1      41.344  32.764  21.454  1.00  0.00     0.157 A 
ATOM     16  C   UNL     1      39.480  32.217  22.912  1.00  0.00     0.062 A 
ATOM     17  C   UNL     1      40.863  32.313  22.694  1.00  0.00     0.158 A 
BRANCH  15  18
ATOM     18  O   UNL     1      42.712  32.874  21.207  1.00  0.00    -0.504 OA
ATOM     19  H   UNL     1      43.396  32.312  21.700  1.00  0.00     0.293 HD
ENDBRANCH  15  18
BRANCH  17  20
ATOM     20  O   UNL     1      41.759  31.959  23.702  1.00  0.00    -0.504 OA
ATOM     21  H   UNL     1      42.222  32.658  24.269  1.00  0.00     0.293 HD
ENDBRANCH  17  20
ENDBRANCH   1  12
BRANCH  11  22
ATOM     22  O   UNL     1      32.057  32.252  21.901  1.00  0.00    -0.506 OA
ATOM     23  H   UNL     1      31.162  32.701  22.041  1.00  0.00     0.293 HD
ENDBRANCH  11  22
BRANCH   9  24
ATOM     24  O   UNL     1      33.334  30.617  26.343  1.00  0.00    -0.507 OA
ATOM     25  H   UNL     1      33.678  30.992  27.218  1.00  0.00     0.293 HD
ENDBRANCH   9  24
BRANCH  10  26
ATOM     26  C   UNL     1      31.114  31.625  24.600  1.00  0.00     0.188 C 
ATOM     27  C   UNL     1      30.627  32.336  25.911  1.00  0.00     0.179 C 
ATOM     28  O   UNL     1      30.525  30.350  24.388  1.00  0.00    -0.362 OA
ATOM     29  C   UNL     1      29.611  31.447  26.655  1.00  0.00     0.177 C 
ATOM     30  C   UNL     1      30.724  29.463  25.476  1.00  0.00     0.176 C 
ATOM     31  C   UNL     1      30.130  30.012  26.814  1.00  0.00     0.177 C 
BRANCH  27  32
ATOM     32  O   UNL     1      31.686  32.712  26.754  1.00  0.00    -0.387 OA
ATOM     33  H   UNL     1      32.150  31.883  27.040  1.00  0.00     0.211 HD
ENDBRANCH  27  32
BRANCH  29  34
ATOM     34  O   UNL     1      29.294  31.986  27.912  1.00  0.00    -0.387 OA
ATOM     35  H   UNL     1      29.003  31.228  28.483  1.00  0.00     0.211 HD
ENDBRANCH  29  34
BRANCH  30  36
ATOM     36  C   UNL     1      30.086  28.115  25.106  1.00  0.00     0.191 C 
BRANCH  36  37
ATOM     37  O   UNL     1      29.694  27.413  26.254  1.00  0.00    -0.394 OA
ATOM     38  H   UNL     1      29.135  26.653  25.946  1.00  0.00     0.210 HD
ENDBRANCH  36  37
ENDBRANCH  30  36
BRANCH  31  39
ATOM     39  O   UNL     1      31.100  29.969  27.829  1.00  0.00    -0.388 OA
ATOM     40  H   UNL     1      31.799  30.631  27.585  1.00  0.00     0.211 HD
ENDBRANCH  31  39
ENDBRANCH  10  26
TORSDOF 11
ENDMDL
MODEL 5
REMARK VINA RESULT:    -4.827      1.106      1.300
REMARK INTER + INTRA:          -7.268
REMARK INTER:                  -6.895
REMARK INTRA:                  -0.373
REMARK UNBOUND:                -0.466
REMARK SMILES O=c1cc(-c2ccc(O)c(O)c2)oc2cc(O)c([C@H]3O[C@H](CO)[C@@H](O)[C@@H](O)[C@H]3O)c(O)c12
REMARK SMILES IDX 4 1 3 2 2 3 1 4 32 5 14 6 13 7 15 8 16 9 18 10 30 11 5 12
REMARK SMILES IDX 6 13 7 14 8 15 12 16 10 17 9 18 11 20 31 22 17 24 19 26
REMARK SMILES IDX 28 27 20 28 26 29 21 30 24 31 29 32 27 34 22 36 23 37 25 39
REMARK H PARENT 9 19 11 21 31 23 17 25 29 33 27 35 23 38 25 40
REMARK Flexibility Score: inf
ROOT
ATOM      1  C   UNL     1      39.105  26.529  28.623  1.00  0.00     0.138 A 
ATOM      2  C   UNL     1      39.705  25.481  29.337  1.00  0.00     0.100 A 
ATOM      3  C   UNL     1      41.092  25.456  29.479  1.00  0.00     0.197 A 
ATOM      4  O   UNL     1      41.618  24.509  30.124  1.00  0.00    -0.289 OA
ATOM      5  C   UNL     1      41.874  26.486  28.909  1.00  0.00     0.107 A 
ATOM      6  C   UNL     1      41.194  27.499  28.203  1.00  0.00     0.146 A 
ATOM      7  O   UNL     1      39.869  27.477  28.088  1.00  0.00    -0.456 OA
ATOM      8  C   UNL     1      41.905  28.525  27.597  1.00  0.00     0.094 A 
ATOM      9  C   UNL     1      43.296  28.603  27.710  1.00  0.00     0.128 A 
ATOM     10  C   UNL     1      44.011  27.649  28.486  1.00  0.00     0.068 A 
ATOM     11  C   UNL     1      43.288  26.524  28.992  1.00  0.00     0.140 A 
ENDROOT
BRANCH   1  12
ATOM     12  C   UNL     1      37.636  26.600  28.428  1.00  0.00     0.021 A 
ATOM     13  C   UNL     1      36.782  26.340  29.512  1.00  0.00     0.016 A 
ATOM     14  C   UNL     1      35.395  26.397  29.351  1.00  0.00     0.051 A 
ATOM     15  C   UNL     1      34.839  26.703  28.106  1.00  0.00     0.157 A 
ATOM     16  C   UNL     1      37.073  26.896  27.173  1.00  0.00     0.062 A 
ATOM     17  C   UNL     1      35.681  26.951  27.010  1.00  0.00     0.158 A 
BRANCH  15  18
ATOM     18  O   UNL     1      33.451  26.755  27.977  1.00  0.00    -0.504 OA
ATOM     19  H   UNL     1      32.846  26.986  28.757  1.00  0.00     0.293 HD
ENDBRANCH  15  18
BRANCH  17  20
ATOM     20  O   UNL     1      35.132  27.249  25.763  1.00  0.00    -0.504 OA
ATOM     21  H   UNL     1      35.546  26.904  24.906  1.00  0.00     0.293 HD
ENDBRANCH  17  20
ENDBRANCH   1  12
BRANCH  11  22
ATOM     22  O   UNL     1      43.950  25.421  29.547  1.00  0.00    -0.506 OA
ATOM     23  H   UNL     1      44.954  25.315  29.576  1.00  0.00     0.293 HD
ENDBRANCH  11  22
BRANCH   9  24
ATOM     24  O   UNL     1      43.947  29.627  27.029  1.00  0.00    -0.507 OA
ATOM     25  H   UNL     1      44.415  30.384  27.512  1.00  0.00     0.293 HD
ENDBRANCH   9  24
BRANCH  10  26
ATOM     26  C   UNL     1      45.530  27.751  28.748  1.00  0.00     0.188 C 
ATOM     27  C   UNL     1      46.136  29.067  29.348  1.00  0.00     0.179 C 
ATOM     28  O   UNL     1      46.291  27.208  27.677  1.00  0.00    -0.362 OA
ATOM     29  C   UNL     1      47.431  29.448  28.605  1.00  0.00     0.177 C 
ATOM     30  C   UNL     1      46.489  28.131  26.619  1.00  0.00     0.176 C 
ATOM     31  C   UNL     1      47.233  29.426  27.083  1.00  0.00     0.177 C 
BRANCH  27  32
ATOM     32  O   UNL     1      45.222  30.134  29.358  1.00  0.00    -0.387 OA
ATOM     33  H   UNL     1      45.343  30.639  28.512  1.00  0.00     0.211 HD
ENDBRANCH  27  32
BRANCH  29  34
ATOM     34  O   UNL     1      47.894  30.709  29.011  1.00  0.00    -0.387 OA
ATOM     35  H   UNL     1      48.532  30.554  29.756  1.00  0.00     0.211 HD
ENDBRANCH  29  34
BRANCH  30  36
ATOM     36  C   UNL     1      47.277  27.414  25.512  1.00  0.00     0.191 C 
BRANCH  36  37
ATOM     37  O   UNL     1      48.568  27.085  25.948  1.00  0.00    -0.394 OA
ATOM     38  H   UNL     1      49.090  27.930  25.957  1.00  0.00     0.210 HD
ENDBRANCH  36  37
ENDBRANCH  30  36
BRANCH  31  39
ATOM     39  O   UNL     1      46.518  30.566  26.683  1.00  0.00    -0.388 OA
ATOM     40  H   UNL     1      46.632  30.645  25.700  1.00  0.00     0.211 HD
ENDBRANCH  31  39
ENDBRANCH  10  26
TORSDOF 11
ENDMDL
MODEL 6
REMARK VINA RESULT:    -4.768      4.541      8.950
REMARK INTER + INTRA:          -7.185
REMARK INTER:                  -7.588
REMARK INTRA:                   0.403
REMARK UNBOUND:                -0.466
REMARK SMILES O=c1cc(-c2ccc(O)c(O)c2)oc2cc(O)c([C@H]3O[C@H](CO)[C@@H](O)[C@@H](O)[C@H]3O)c(O)c12
REMARK SMILES IDX 4 1 3 2 2 3 1 4 32 5 14 6 13 7 15 8 16 9 18 10 30 11 5 12
REMARK SMILES IDX 6 13 7 14 8 15 12 16 10 17 9 18 11 20 31 22 17 24 19 26
REMARK SMILES IDX 28 27 20 28 26 29 21 30 24 31 29 32 27 34 22 36 23 37 25 39
REMARK H PARENT 9 19 11 21 31 23 17 25 29 33 27 35 23 38 25 40
REMARK Flexibility Score: inf
ROOT
ATOM      1  C   UNL     1      44.404  31.434  22.602  1.00  0.00     0.138 A 
ATOM      2  C   UNL     1      45.740  31.585  23.003  1.00  0.00     0.100 A 
ATOM      3  C   UNL     1      46.112  31.220  24.297  1.00  0.00     0.197 A 
ATOM      4  O   UNL     1      47.315  31.360  24.644  1.00  0.00    -0.289 OA
ATOM      5  C   UNL     1      45.143  30.698  25.183  1.00  0.00     0.107 A 
ATOM      6  C   UNL     1      43.822  30.584  24.704  1.00  0.00     0.146 A 
ATOM      7  O   UNL     1      43.514  30.952  23.464  1.00  0.00    -0.456 OA
ATOM      8  C   UNL     1      42.818  30.104  25.533  1.00  0.00     0.094 A 
ATOM      9  C   UNL     1      43.099  29.682  26.836  1.00  0.00     0.128 A 
ATOM     10  C   UNL     1      44.433  29.701  27.328  1.00  0.00     0.068 A 
ATOM     11  C   UNL     1      45.434  30.321  26.518  1.00  0.00     0.140 A 
ENDROOT
BRANCH   1  12
ATOM     12  C   UNL     1      43.949  31.819  21.244  1.00  0.00     0.021 A 
ATOM     13  C   UNL     1      42.593  31.686  20.906  1.00  0.00     0.016 A 
ATOM     14  C   UNL     1      42.142  32.039  19.631  1.00  0.00     0.051 A 
ATOM     15  C   UNL     1      43.037  32.518  18.671  1.00  0.00     0.157 A 
ATOM     16  C   UNL     1      44.850  32.291  20.271  1.00  0.00     0.062 A 
ATOM     17  C   UNL     1      44.399  32.643  18.990  1.00  0.00     0.158 A 
BRANCH  15  18
ATOM     18  O   UNL     1      42.556  32.864  17.408  1.00  0.00    -0.504 OA
ATOM     19  H   UNL     1      42.056  33.729  17.240  1.00  0.00     0.293 HD
ENDBRANCH  15  18
BRANCH  17  20
ATOM     20  O   UNL     1      45.299  33.113  18.034  1.00  0.00    -0.504 OA
ATOM     21  H   UNL     1      45.518  32.577  17.204  1.00  0.00     0.293 HD
ENDBRANCH  17  20
ENDBRANCH   1  12
BRANCH  11  22
ATOM     22  O   UNL     1      46.710  30.605  27.023  1.00  0.00    -0.506 OA
ATOM     23  H   UNL     1      47.449  29.922  27.119  1.00  0.00     0.293 HD
ENDBRANCH  11  22
BRANCH   9  24
ATOM     24  O   UNL     1      42.032  29.267  27.628  1.00  0.00    -0.507 OA
ATOM     25  H   UNL     1      41.435  29.923  28.116  1.00  0.00     0.293 HD
ENDBRANCH   9  24
BRANCH  10  26
ATOM     26  C   UNL     1      44.823  29.137  28.713  1.00  0.00     0.188 C 
ATOM     27  C   UNL     1      46.201  28.414  28.907  1.00  0.00     0.179 C 
ATOM     28  O   UNL     1      43.735  28.472  29.340  1.00  0.00    -0.362 OA
ATOM     29  C   UNL     1      46.020  27.134  29.745  1.00  0.00     0.177 C 
ATOM     30  C   UNL     1      43.595  27.126  28.918  1.00  0.00     0.176 C 
ATOM     31  C   UNL     1      44.871  26.269  29.210  1.00  0.00     0.177 C 
BRANCH  27  32
ATOM     32  O   UNL     1      46.849  28.139  27.691  1.00  0.00    -0.387 OA
ATOM     33  H   UNL     1      46.147  28.006  27.001  1.00  0.00     0.211 HD
ENDBRANCH  27  32
BRANCH  29  34
ATOM     34  O   UNL     1      47.207  26.385  29.784  1.00  0.00    -0.387 OA
ATOM     35  H   UNL     1      47.227  25.837  28.957  1.00  0.00     0.211 HD
ENDBRANCH  29  34
BRANCH  30  36
ATOM     36  C   UNL     1      42.366  26.537  29.626  1.00  0.00     0.191 C 
BRANCH  36  37
ATOM     37  O   UNL     1      41.180  27.029  29.065  1.00  0.00    -0.394 OA
ATOM     38  H   UNL     1      40.497  27.016  29.787  1.00  0.00     0.210 HD
ENDBRANCH  36  37
ENDBRANCH  30  36
BRANCH  31  39
ATOM     39  O   UNL     1      45.283  25.601  28.046  1.00  0.00    -0.388 OA
ATOM     40  H   UNL     1      45.882  26.222  27.556  1.00  0.00     0.211 HD
ENDBRANCH  31  39
ENDBRANCH  10  26
TORSDOF 11
ENDMDL
MODEL 7
REMARK VINA RESULT:    -4.726      8.137     13.396
REMARK INTER + INTRA:          -7.126
REMARK INTER:                  -7.522
REMARK INTRA:                   0.396
REMARK UNBOUND:                -0.466
REMARK SMILES O=c1cc(-c2ccc(O)c(O)c2)oc2cc(O)c([C@H]3O[C@H](CO)[C@@H](O)[C@@H](O)[C@H]3O)c(O)c12
REMARK SMILES IDX 4 1 3 2 2 3 1 4 32 5 14 6 13 7 15 8 16 9 18 10 30 11 5 12
REMARK SMILES IDX 6 13 7 14 8 15 12 16 10 17 9 18 11 20 31 22 17 24 19 26
REMARK SMILES IDX 28 27 20 28 26 29 21 30 24 31 29 32 27 34 22 36 23 37 25 39
REMARK H PARENT 9 19 11 21 31 23 17 25 29 33 27 35 23 38 25 40
REMARK Flexibility Score: inf
ROOT
ATOM      1  C   UNL     1      37.598  32.791  23.513  1.00  0.00     0.138 A 
ATOM      2  C   UNL     1      37.559  32.980  24.903  1.00  0.00     0.100 A 
ATOM      3  C   UNL     1      36.331  32.953  25.563  1.00  0.00     0.197 A 
ATOM      4  O   UNL     1      36.311  33.123  26.812  1.00  0.00    -0.289 OA
ATOM      5  C   UNL     1      35.145  32.731  24.828  1.00  0.00     0.107 A 
ATOM      6  C   UNL     1      35.270  32.556  23.435  1.00  0.00     0.146 A 
ATOM      7  O   UNL     1      36.462  32.597  22.848  1.00  0.00    -0.456 OA
ATOM      8  C   UNL     1      34.141  32.361  22.651  1.00  0.00     0.094 A 
ATOM      9  C   UNL     1      32.869  32.287  23.226  1.00  0.00     0.128 A 
ATOM     10  C   UNL     1      32.709  32.373  24.637  1.00  0.00     0.068 A 
ATOM     11  C   UNL     1      33.857  32.708  25.420  1.00  0.00     0.140 A 
ENDROOT
BRANCH   1  12
ATOM     12  C   UNL     1      38.873  32.823  22.757  1.00  0.00     0.021 A 
ATOM     13  C   UNL     1      38.853  33.093  21.379  1.00  0.00     0.016 A 
ATOM     14  C   UNL     1      40.042  33.125  20.645  1.00  0.00     0.051 A 
ATOM     15  C   UNL     1      41.266  32.877  21.271  1.00  0.00     0.157 A 
ATOM     16  C   UNL     1      40.107  32.563  23.381  1.00  0.00     0.062 A 
ATOM     17  C   UNL     1      41.301  32.592  22.645  1.00  0.00     0.158 A 
BRANCH  15  18
ATOM     18  O   UNL     1      42.436  32.918  20.512  1.00  0.00    -0.504 OA
ATOM     19  H   UNL     1      42.575  32.322  19.704  1.00  0.00     0.293 HD
ENDBRANCH  15  18
BRANCH  17  20
ATOM     20  O   UNL     1      42.519  32.335  23.274  1.00  0.00    -0.504 OA
ATOM     21  H   UNL     1      42.599  31.651  24.015  1.00  0.00     0.293 HD
ENDBRANCH  17  20
ENDBRANCH   1  12
BRANCH  11  22
ATOM     22  O   UNL     1      33.743  33.055  26.772  1.00  0.00    -0.506 OA
ATOM     23  H   UNL     1      34.061  33.931  27.163  1.00  0.00     0.293 HD
ENDBRANCH  11  22
BRANCH   9  24
ATOM     24  O   UNL     1      31.778  32.147  22.373  1.00  0.00    -0.507 OA
ATOM     25  H   UNL     1      30.950  32.725  22.457  1.00  0.00     0.293 HD
ENDBRANCH   9  24
BRANCH  10  26
ATOM     26  C   UNL     1      31.346  32.179  25.338  1.00  0.00     0.188 C 
ATOM     27  C   UNL     1      31.276  31.465  26.734  1.00  0.00     0.179 C 
ATOM     28  O   UNL     1      30.337  31.759  24.430  1.00  0.00    -0.362 OA
ATOM     29  C   UNL     1      30.104  30.464  26.764  1.00  0.00     0.177 C 
ATOM     30  C   UNL     1      30.338  30.358  24.215  1.00  0.00     0.176 C 
ATOM     31  C   UNL     1      30.116  29.547  25.533  1.00  0.00     0.177 C 
BRANCH  27  32
ATOM     32  O   UNL     1      32.484  30.845  27.091  1.00  0.00    -0.387 OA
ATOM     33  H   UNL     1      33.084  30.879  26.300  1.00  0.00     0.211 HD
ENDBRANCH  27  32
BRANCH  29  34
ATOM     34  O   UNL     1      30.129  29.694  27.938  1.00  0.00    -0.387 OA
ATOM     35  H   UNL     1      29.876  28.770  27.679  1.00  0.00     0.211 HD
ENDBRANCH  29  34
BRANCH  30  36
ATOM     36  C   UNL     1      29.242  30.040  23.186  1.00  0.00     0.191 C 
BRANCH  36  37
ATOM     37  O   UNL     1      29.227  30.993  22.158  1.00  0.00    -0.394 OA
ATOM     38  H   UNL     1      29.241  30.489  21.302  1.00  0.00     0.210 HD
ENDBRANCH  36  37
ENDBRANCH  30  36
BRANCH  31  39
ATOM     39  O   UNL     1      31.118  28.574  25.678  1.00  0.00    -0.388 OA
ATOM     40  H   UNL     1      31.967  29.059  25.843  1.00  0.00     0.211 HD
ENDBRANCH  31  39
ENDBRANCH  10  26
TORSDOF 11
ENDMDL
MODEL 8
REMARK VINA RESULT:    -4.707      5.911      8.894
REMARK INTER + INTRA:          -7.100
REMARK INTER:                  -6.764
REMARK INTRA:                  -0.336
REMARK UNBOUND:                -0.466
REMARK SMILES O=c1cc(-c2ccc(O)c(O)c2)oc2cc(O)c([C@H]3O[C@H](CO)[C@@H](O)[C@@H](O)[C@H]3O)c(O)c12
REMARK SMILES IDX 4 1 3 2 2 3 1 4 32 5 14 6 13 7 15 8 16 9 18 10 30 11 5 12
REMARK SMILES IDX 6 13 7 14 8 15 12 16 10 17 9 18 11 20 31 22 17 24 19 26
REMARK SMILES IDX 28 27 20 28 26 29 21 30 24 31 29 32 27 34 22 36 23 37 25 39
REMARK H PARENT 9 19 11 21 31 23 17 25 29 33 27 35 23 38 25 40
REMARK Flexibility Score: inf
ROOT
ATOM      1  C   UNL     1      43.222  32.068  21.502  1.00  0.00     0.138 A 
ATOM      2  C   UNL     1      44.437  32.770  21.482  1.00  0.00     0.100 A 
ATOM      3  C   UNL     1      45.407  32.484  22.442  1.00  0.00     0.197 A 
ATOM      4  O   UNL     1      46.494  33.122  22.413  1.00  0.00    -0.289 OA
ATOM      5  C   UNL     1      45.159  31.491  23.416  1.00  0.00     0.107 A 
ATOM      6  C   UNL     1      43.912  30.836  23.369  1.00  0.00     0.146 A 
ATOM      7  O   UNL     1      43.014  31.147  22.439  1.00  0.00    -0.456 OA
ATOM      8  C   UNL     1      43.594  29.870  24.313  1.00  0.00     0.094 A 
ATOM      9  C   UNL     1      44.515  29.493  25.296  1.00  0.00     0.128 A 
ATOM     10  C   UNL     1      45.815  30.068  25.324  1.00  0.00     0.068 A 
ATOM     11  C   UNL     1      46.084  31.155  24.436  1.00  0.00     0.140 A 
ENDROOT
BRANCH   1  12
ATOM     12  C   UNL     1      42.149  32.338  20.514  1.00  0.00     0.021 A 
ATOM     13  C   UNL     1      42.472  32.438  19.152  1.00  0.00     0.016 A 
ATOM     14  C   UNL     1      41.478  32.696  18.204  1.00  0.00     0.051 A 
ATOM     15  C   UNL     1      40.150  32.870  18.601  1.00  0.00     0.157 A 
ATOM     16  C   UNL     1      40.812  32.525  20.912  1.00  0.00     0.062 A 
ATOM     17  C   UNL     1      39.813  32.787  19.962  1.00  0.00     0.158 A 
BRANCH  15  18
ATOM     18  O   UNL     1      39.179  33.124  17.631  1.00  0.00    -0.504 OA
ATOM     19  H   UNL     1      39.412  33.517  16.727  1.00  0.00     0.293 HD
ENDBRANCH  15  18
BRANCH  17  20
ATOM     20  O   UNL     1      38.491  32.968  20.366  1.00  0.00    -0.504 OA
ATOM     21  H   UNL     1      37.728  32.958  19.701  1.00  0.00     0.293 HD
ENDBRANCH  17  20
ENDBRANCH   1  12
BRANCH  11  22
ATOM     22  O   UNL     1      47.239  31.936  24.567  1.00  0.00    -0.506 OA
ATOM     23  H   UNL     1      47.518  32.653  23.910  1.00  0.00     0.293 HD
ENDBRANCH  11  22
BRANCH   9  24
ATOM     24  O   UNL     1      44.107  28.558  26.244  1.00  0.00    -0.507 OA
ATOM     25  H   UNL     1      43.298  27.965  26.102  1.00  0.00     0.293 HD
ENDBRANCH   9  24
BRANCH  10  26
ATOM     26  C   UNL     1      46.914  29.606  26.308  1.00  0.00     0.188 C 
ATOM     27  C   UNL     1      47.413  28.119  26.286  1.00  0.00     0.179 C 
ATOM     28  O   UNL     1      46.703  30.119  27.617  1.00  0.00    -0.362 OA
ATOM     29  C   UNL     1      47.549  27.579  27.723  1.00  0.00     0.177 C 
ATOM     30  C   UNL     1      45.801  29.334  28.378  1.00  0.00     0.176 C 
ATOM     31  C   UNL     1      46.287  27.858  28.550  1.00  0.00     0.177 C 
BRANCH  27  32
ATOM     32  O   UNL     1      46.601  27.283  25.502  1.00  0.00    -0.387 OA
ATOM     33  H   UNL     1      47.062  26.407  25.423  1.00  0.00     0.211 HD
ENDBRANCH  27  32
BRANCH  29  34
ATOM     34  O   UNL     1      47.828  26.203  27.720  1.00  0.00    -0.387 OA
ATOM     35  H   UNL     1      48.339  26.013  28.550  1.00  0.00     0.211 HD
ENDBRANCH  29  34
BRANCH  30  36
ATOM     36  C   UNL     1      45.623  30.014  29.743  1.00  0.00     0.191 C 
BRANCH  36  37
ATOM     37  O   UNL     1      44.543  30.908  29.722  1.00  0.00    -0.394 OA
ATOM     38  H   UNL     1      44.631  31.442  28.889  1.00  0.00     0.210 HD
ENDBRANCH  36  37
ENDBRANCH  30  36
BRANCH  31  39
ATOM     39  O   UNL     1      45.269  26.965  28.176  1.00  0.00    -0.388 OA
ATOM     40  H   UNL     1      45.423  26.127  28.683  1.00  0.00     0.211 HD
ENDBRANCH  31  39
ENDBRANCH  10  26
TORSDOF 11
ENDMDL
MODEL 9
REMARK VINA RESULT:    -4.671      4.694     10.424
REMARK INTER + INTRA:          -7.049
REMARK INTER:                  -6.695
REMARK INTRA:                  -0.354
REMARK UNBOUND:                -0.466
REMARK SMILES O=c1cc(-c2ccc(O)c(O)c2)oc2cc(O)c([C@H]3O[C@H](CO)[C@@H](O)[C@@H](O)[C@H]3O)c(O)c12
REMARK SMILES IDX 4 1 3 2 2 3 1 4 32 5 14 6 13 7 15 8 16 9 18 10 30 11 5 12
REMARK SMILES IDX 6 13 7 14 8 15 12 16 10 17 9 18 11 20 31 22 17 24 19 26
REMARK SMILES IDX 28 27 20 28 26 29 21 30 24 31 29 32 27 34 22 36 23 37 25 39
REMARK H PARENT 9 19 11 21 31 23 17 25 29 33 27 35 23 38 25 40
REMARK Flexibility Score: inf
ROOT
ATOM      1  C   UNL     1      46.320  30.680  20.804  1.00  0.00     0.138 A 
ATOM      2  C   UNL     1      46.301  31.931  21.438  1.00  0.00     0.100 A 
ATOM      3  C   UNL     1      46.217  31.992  22.829  1.00  0.00     0.197 A 
ATOM      4  O   UNL     1      46.202  33.122  23.386  1.00  0.00    -0.289 OA
ATOM      5  C   UNL     1      46.158  30.796  23.581  1.00  0.00     0.107 A 
ATOM      6  C   UNL     1      46.176  29.581  22.867  1.00  0.00     0.146 A 
ATOM      7  O   UNL     1      46.250  29.573  21.539  1.00  0.00    -0.456 OA
ATOM      8  C   UNL     1      46.094  28.372  23.543  1.00  0.00     0.094 A 
ATOM      9  C   UNL     1      46.039  28.330  24.939  1.00  0.00     0.128 A 
ATOM     10  C   UNL     1      46.104  29.530  25.700  1.00  0.00     0.068 A 
ATOM     11  C   UNL     1      46.052  30.772  24.994  1.00  0.00     0.140 A 
ENDROOT
BRANCH   1  12
ATOM     12  C   UNL     1      46.394  30.554  19.328  1.00  0.00     0.021 A 
ATOM     13  C   UNL     1      45.786  29.458  18.696  1.00  0.00     0.016 A 
ATOM     14  C   UNL     1      45.846  29.317  17.307  1.00  0.00     0.051 A 
ATOM     15  C   UNL     1      46.523  30.260  16.529  1.00  0.00     0.157 A 
ATOM     16  C   UNL     1      47.085  31.495  18.543  1.00  0.00     0.062 A 
ATOM     17  C   UNL     1      47.149  31.354  17.148  1.00  0.00     0.158 A 
BRANCH  15  18
ATOM     18  O   UNL     1      46.564  30.093  15.144  1.00  0.00    -0.504 OA
ATOM     19  H   UNL     1      45.729  29.919  14.598  1.00  0.00     0.293 HD
ENDBRANCH  15  18
BRANCH  17  20
ATOM     20  O   UNL     1      47.833  32.294  16.378  1.00  0.00    -0.504 OA
ATOM     21  H   UNL     1      47.490  33.240  16.269  1.00  0.00     0.293 HD
ENDBRANCH  17  20
ENDBRANCH   1  12
BRANCH  11  22
ATOM     22  O   UNL     1      45.862  31.986  25.666  1.00  0.00    -0.506 OA
ATOM     23  H   UNL     1      46.258  32.205  26.570  1.00  0.00     0.293 HD
ENDBRANCH  11  22
BRANCH   9  24
ATOM     24  O   UNL     1      45.900  27.085  25.547  1.00  0.00    -0.507 OA
ATOM     25  H   UNL     1      45.966  26.965  26.550  1.00  0.00     0.293 HD
ENDBRANCH   9  24
BRANCH  10  26
ATOM     26  C   UNL     1      46.169  29.540  27.244  1.00  0.00     0.188 C 
ATOM     27  C   UNL     1      47.261  28.697  27.990  1.00  0.00     0.179 C 
ATOM     28  O   UNL     1      44.877  29.449  27.830  1.00  0.00    -0.362 OA
ATOM     29  C   UNL     1      46.640  27.964  29.195  1.00  0.00     0.177 C 
ATOM     30  C   UNL     1      44.414  28.113  27.935  1.00  0.00     0.176 C 
ATOM     31  C   UNL     1      45.359  27.216  28.798  1.00  0.00     0.177 C 
BRANCH  27  32
ATOM     32  O   UNL     1      47.933  27.802  27.141  1.00  0.00    -0.387 OA
ATOM     33  H   UNL     1      48.482  27.203  27.711  1.00  0.00     0.211 HD
ENDBRANCH  27  32
BRANCH  29  34
ATOM     34  O   UNL     1      47.558  27.072  29.771  1.00  0.00    -0.387 OA
ATOM     35  H   UNL     1      47.154  26.751  30.618  1.00  0.00     0.211 HD
ENDBRANCH  29  34
BRANCH  30  36
ATOM     36  C   UNL     1      43.000  28.153  28.534  1.00  0.00     0.191 C 
BRANCH  36  37
ATOM     37  O   UNL     1      42.396  29.399  28.316  1.00  0.00    -0.394 OA
ATOM     38  H   UNL     1      41.475  29.217  27.991  1.00  0.00     0.210 HD
ENDBRANCH  36  37
ENDBRANCH  30  36
BRANCH  31  39
ATOM     39  O   UNL     1      45.692  26.046  28.097  1.00  0.00    -0.388 OA
ATOM     40  H   UNL     1      46.617  25.806  28.362  1.00  0.00     0.211 HD
ENDBRANCH  31  39
ENDBRANCH  10  26
TORSDOF 11
ENDMDL
