MODEL 1
REMARK VINA RESULT:    -4.302      0.000      0.000
REMARK INTER + INTRA:         -13.526
REMARK INTER:                  -9.332
REMARK INTRA:                  -4.194
REMARK UNBOUND:                -4.194
REMARK SMILES CCCCCCCCCCCCCCCCCCCCCC(=O)[O-]
REMARK SMILES IDX 12 1 11 2 10 3 9 4 8 5 7 6 6 7 5 8 4 9 3 10 2 11 1 12 13 13
REMARK SMILES IDX 14 14 15 15 16 16 17 17 18 18 19 19 20 20 21 21 22 22 23 23
REMARK SMILES IDX 24 24
REMARK H PARENT
REMARK Flexibility Score: inf
ROOT
ATOM      1  C   UNL     1      43.845  63.885  12.051  1.00  0.00     0.000 C 
ENDROOT
BRANCH   1   2
ATOM      2  C   UNL     1      44.724  62.625  12.027  1.00  0.00     0.000 C 
BRANCH   2   3
ATOM      3  C   UNL     1      44.951  62.030  13.427  1.00  0.00     0.000 C 
BRANCH   3   4
ATOM      4  C   UNL     1      43.969  60.883  13.750  1.00  0.00    -0.000 C 
BRANCH   4   5
ATOM      5  C   UNL     1      43.781  59.882  12.594  1.00  0.00    -0.000 C 
BRANCH   5   6
ATOM      6  C   UNL     1      42.367  59.847  11.983  1.00  0.00    -0.000 C 
BRANCH   6   7
ATOM      7  C   UNL     1      42.315  60.019  10.452  1.00  0.00    -0.000 C 
BRANCH   7   8
ATOM      8  C   UNL     1      43.639  59.731   9.719  1.00  0.00    -0.000 C 
BRANCH   8   9
ATOM      9  C   UNL     1      44.170  60.892   8.854  1.00  0.00    -0.000 C 
BRANCH   9  10
ATOM     10  C   UNL     1      43.146  62.007   8.559  1.00  0.00    -0.000 C 
BRANCH  10  11
ATOM     11  C   UNL     1      43.238  62.613   7.148  1.00  0.00    -0.003 C 
ATOM     12  C   UNL     1      42.014  62.304   6.287  1.00  0.00     0.004 C 
ENDBRANCH  10  11
ENDBRANCH   9  10
ENDBRANCH   8   9
ENDBRANCH   7   8
ENDBRANCH   6   7
ENDBRANCH   5   6
ENDBRANCH   4   5
ENDBRANCH   3   4
ENDBRANCH   2   3
ENDBRANCH   1   2
BRANCH   1  13
ATOM     13  C   UNL     1      42.370  63.587  11.727  1.00  0.00     0.000 C 
BRANCH  13  14
ATOM     14  C   UNL     1      41.498  63.505  12.991  1.00  0.00     0.000 C 
BRANCH  14  15
ATOM     15  C   UNL     1      40.213  62.689  12.764  1.00  0.00     0.000 C 
BRANCH  15  16
ATOM     16  C   UNL     1      39.360  63.243  11.612  1.00  0.00     0.000 C 
BRANCH  16  17
ATOM     17  C   UNL     1      39.308  62.290  10.404  1.00  0.00     0.000 C 
BRANCH  17  18
ATOM     18  C   UNL     1      39.676  62.999   9.084  1.00  0.00     0.000 C 
BRANCH  18  19
ATOM     19  C   UNL     1      39.530  64.529   9.145  1.00  0.00     0.000 C 
BRANCH  19  20
ATOM     20  C   UNL     1      40.446  65.256   8.146  1.00  0.00     0.006 C 
BRANCH  20  21
ATOM     21  C   UNL     1      41.798  65.637   8.767  1.00  0.00     0.053 C 
BRANCH  21  22
ATOM     22  C   UNL     1      42.604  66.510   7.854  1.00  0.00     0.041 C 
ATOM     23  O   UNL     1      42.109  66.924   6.773  1.00  0.00    -0.550 OA
ATOM     24  O   UNL     1      43.894  66.885   8.209  1.00  0.00    -0.550 OA
ENDBRANCH  21  22
ENDBRANCH  20  21
ENDBRANCH  19  20
ENDBRANCH  18  19
ENDBRANCH  17  18
ENDBRANCH  16  17
ENDBRANCH  15  16
ENDBRANCH  14  15
ENDBRANCH  13  14
ENDBRANCH   1  13
TORSDOF 20
ENDMDL
MODEL 2
REMARK VINA RESULT:    -4.176      1.468      2.408
REMARK INTER + INTRA:         -13.253
REMARK INTER:                  -9.447
REMARK INTRA:                  -3.807
REMARK UNBOUND:                -4.194
REMARK SMILES CCCCCCCCCCCCCCCCCCCCCC(=O)[O-]
REMARK SMILES IDX 12 1 11 2 10 3 9 4 8 5 7 6 6 7 5 8 4 9 3 10 2 11 1 12 13 13
REMARK SMILES IDX 14 14 15 15 16 16 17 17 18 18 19 19 20 20 21 21 22 22 23 23
REMARK SMILES IDX 24 24
REMARK H PARENT
REMARK Flexibility Score: inf
ROOT
ATOM      1  C   UNL     1      43.396  63.729  11.990  1.00  0.00     0.000 C 
ENDROOT
BRANCH   1   2
ATOM      2  C   UNL     1      44.617  62.916  12.450  1.00  0.00     0.000 C 
BRANCH   2   3
ATOM      3  C   UNL     1      44.262  61.856  13.507  1.00  0.00     0.000 C 
BRANCH   3   4
ATOM      4  C   UNL     1      44.418  60.414  12.976  1.00  0.00    -0.000 C 
BRANCH   4   5
ATOM      5  C   UNL     1      43.159  59.869  12.276  1.00  0.00    -0.000 C 
BRANCH   5   6
ATOM      6  C   UNL     1      43.168  59.973  10.740  1.00  0.00    -0.000 C 
BRANCH   6   7
ATOM      7  C   UNL     1      44.568  60.088  10.103  1.00  0.00    -0.000 C 
BRANCH   7   8
ATOM      8  C   UNL     1      44.601  60.767   8.720  1.00  0.00    -0.000 C 
BRANCH   8   9
ATOM      9  C   UNL     1      43.578  61.904   8.528  1.00  0.00    -0.000 C 
BRANCH   9  10
ATOM     10  C   UNL     1      43.212  62.213   7.062  1.00  0.00    -0.000 C 
BRANCH  10  11
ATOM     11  C   UNL     1      41.783  61.815   6.655  1.00  0.00    -0.003 C 
ATOM     12  C   UNL     1      41.180  60.747   7.567  1.00  0.00     0.004 C 
ENDBRANCH  10  11
ENDBRANCH   9  10
ENDBRANCH   8   9
ENDBRANCH   7   8
ENDBRANCH   6   7
ENDBRANCH   5   6
ENDBRANCH   4   5
ENDBRANCH   3   4
ENDBRANCH   2   3
ENDBRANCH   1   2
BRANCH   1  13
ATOM     13  C   UNL     1      42.127  63.404  12.798  1.00  0.00     0.000 C 
BRANCH  13  14
ATOM     14  C   UNL     1      40.931  63.060  11.896  1.00  0.00     0.000 C 
BRANCH  14  15
ATOM     15  C   UNL     1      41.270  63.186  10.400  1.00  0.00     0.000 C 
BRANCH  15  16
ATOM     16  C   UNL     1      40.170  63.907   9.606  1.00  0.00     0.000 C 
BRANCH  16  17
ATOM     17  C   UNL     1      40.739  64.857   8.536  1.00  0.00     0.000 C 
BRANCH  17  18
ATOM     18  C   UNL     1      42.158  65.351   8.890  1.00  0.00     0.000 C 
BRANCH  18  19
ATOM     19  C   UNL     1      42.689  66.435   7.937  1.00  0.00     0.000 C 
BRANCH  19  20
ATOM     20  C   UNL     1      43.490  65.854   6.760  1.00  0.00     0.006 C 
BRANCH  20  21
ATOM     21  C   UNL     1      42.666  65.803   5.465  1.00  0.00     0.053 C 
BRANCH  21  22
ATOM     22  C   UNL     1      42.762  67.085   4.694  1.00  0.00     0.041 C 
ATOM     23  O   UNL     1      43.593  67.200   3.756  1.00  0.00    -0.550 OA
ATOM     24  O   UNL     1      41.915  68.145   4.998  1.00  0.00    -0.550 OA
ENDBRANCH  21  22
ENDBRANCH  20  21
ENDBRANCH  19  20
ENDBRANCH  18  19
ENDBRANCH  17  18
ENDBRANCH  16  17
ENDBRANCH  15  16
ENDBRANCH  14  15
ENDBRANCH  13  14
ENDBRANCH   1  13
TORSDOF 20
ENDMDL
MODEL 3
REMARK VINA RESULT:    -4.160      1.439      4.445
REMARK INTER + INTRA:         -13.217
REMARK INTER:                  -9.465
REMARK INTRA:                  -3.753
REMARK UNBOUND:                -4.194
REMARK SMILES CCCCCCCCCCCCCCCCCCCCCC(=O)[O-]
REMARK SMILES IDX 12 1 11 2 10 3 9 4 8 5 7 6 6 7 5 8 4 9 3 10 2 11 1 12 13 13
REMARK SMILES IDX 14 14 15 15 16 16 17 17 18 18 19 19 20 20 21 21 22 22 23 23
REMARK SMILES IDX 24 24
REMARK H PARENT
REMARK Flexibility Score: inf
ROOT
ATOM      1  C   UNL     1      44.405  60.893   8.757  1.00  0.00     0.000 C 
ENDROOT
BRANCH   1   2
ATOM      2  C   UNL     1      44.815  60.251  10.091  1.00  0.00     0.000 C 
BRANCH   2   3
ATOM      3  C   UNL     1      43.624  60.034  11.040  1.00  0.00     0.000 C 
BRANCH   3   4
ATOM      4  C   UNL     1      43.960  60.391  12.505  1.00  0.00    -0.000 C 
BRANCH   4   5
ATOM      5  C   UNL     1      45.076  61.443  12.648  1.00  0.00    -0.000 C 
BRANCH   5   6
ATOM      6  C   UNL     1      44.588  62.882  12.901  1.00  0.00    -0.000 C 
BRANCH   6   7
ATOM      7  C   UNL     1      44.065  63.622  11.654  1.00  0.00    -0.000 C 
BRANCH   7   8
ATOM      8  C   UNL     1      42.560  63.950  11.674  1.00  0.00    -0.000 C 
BRANCH   8   9
ATOM      9  C   UNL     1      41.805  63.469  12.930  1.00  0.00    -0.000 C 
BRANCH   9  10
ATOM     10  C   UNL     1      40.677  62.452  12.665  1.00  0.00    -0.000 C 
BRANCH  10  11
ATOM     11  C   UNL     1      40.453  62.106  11.183  1.00  0.00    -0.003 C 
ATOM     12  C   UNL     1      40.049  60.648  10.967  1.00  0.00     0.004 C 
ENDBRANCH  10  11
ENDBRANCH   9  10
ENDBRANCH   8   9
ENDBRANCH   7   8
ENDBRANCH   6   7
ENDBRANCH   5   6
ENDBRANCH   4   5
ENDBRANCH   3   4
ENDBRANCH   2   3
ENDBRANCH   1   2
BRANCH   1  13
ATOM     13  C   UNL     1      42.880  60.894   8.542  1.00  0.00     0.000 C 
BRANCH  13  14
ATOM     14  C   UNL     1      42.349  62.276   8.126  1.00  0.00     0.000 C 
BRANCH  14  15
ATOM     15  C   UNL     1      43.206  62.926   7.026  1.00  0.00     0.000 C 
BRANCH  15  16
ATOM     16  C   UNL     1      42.489  62.967   5.668  1.00  0.00     0.000 C 
BRANCH  16  17
ATOM     17  C   UNL     1      42.572  64.350   4.997  1.00  0.00     0.000 C 
BRANCH  17  18
ATOM     18  C   UNL     1      43.631  65.257   5.660  1.00  0.00     0.000 C 
BRANCH  18  19
ATOM     19  C   UNL     1      43.060  66.577   6.204  1.00  0.00     0.000 C 
BRANCH  19  20
ATOM     20  C   UNL     1      43.332  66.771   7.706  1.00  0.00     0.006 C 
BRANCH  20  21
ATOM     21  C   UNL     1      42.346  65.986   8.582  1.00  0.00     0.053 C 
BRANCH  21  22
ATOM     22  C   UNL     1      40.937  66.119   8.090  1.00  0.00     0.041 C 
ATOM     23  O   UNL     1      40.316  65.110   7.664  1.00  0.00    -0.550 OA
ATOM     24  O   UNL     1      40.301  67.354   8.124  1.00  0.00    -0.550 OA
ENDBRANCH  21  22
ENDBRANCH  20  21
ENDBRANCH  19  20
ENDBRANCH  18  19
ENDBRANCH  17  18
ENDBRANCH  16  17
ENDBRANCH  15  16
ENDBRANCH  14  15
ENDBRANCH  13  14
ENDBRANCH   1  13
TORSDOF 20
ENDMDL
MODEL 4
REMARK VINA RESULT:    -4.123      2.180      5.463
REMARK INTER + INTRA:         -13.137
REMARK INTER:                  -9.534
REMARK INTRA:                  -3.603
REMARK UNBOUND:                -4.194
REMARK SMILES CCCCCCCCCCCCCCCCCCCCCC(=O)[O-]
REMARK SMILES IDX 12 1 11 2 10 3 9 4 8 5 7 6 6 7 5 8 4 9 3 10 2 11 1 12 13 13
REMARK SMILES IDX 14 14 15 15 16 16 17 17 18 18 19 19 20 20 21 21 22 22 23 23
REMARK SMILES IDX 24 24
REMARK H PARENT
REMARK Flexibility Score: inf
ROOT
ATOM      1  C   UNL     1      44.830  60.477  10.174  1.00  0.00     0.000 C 
ENDROOT
BRANCH   1   2
ATOM      2  C   UNL     1      44.477  60.697   8.694  1.00  0.00     0.000 C 
BRANCH   2   3
ATOM      3  C   UNL     1      43.514  61.877   8.481  1.00  0.00     0.000 C 
BRANCH   3   4
ATOM      4  C   UNL     1      42.326  61.513   7.563  1.00  0.00    -0.000 C 
BRANCH   4   5
ATOM      5  C   UNL     1      41.969  62.611   6.543  1.00  0.00    -0.000 C 
BRANCH   5   6
ATOM      6  C   UNL     1      43.153  63.474   6.070  1.00  0.00    -0.000 C 
BRANCH   6   7
ATOM      7  C   UNL     1      42.799  64.549   5.023  1.00  0.00    -0.000 C 
BRANCH   7   8
ATOM      8  C   UNL     1      43.277  65.974   5.365  1.00  0.00    -0.000 C 
BRANCH   8   9
ATOM      9  C   UNL     1      43.646  66.199   6.845  1.00  0.00    -0.000 C 
BRANCH   9  10
ATOM     10  C   UNL     1      42.722  67.170   7.608  1.00  0.00    -0.000 C 
BRANCH  10  11
ATOM     11  C   UNL     1      41.299  66.645   7.861  1.00  0.00    -0.003 C 
ATOM     12  C   UNL     1      41.271  65.419   8.773  1.00  0.00     0.004 C 
ENDBRANCH  10  11
ENDBRANCH   9  10
ENDBRANCH   8   9
ENDBRANCH   7   8
ENDBRANCH   6   7
ENDBRANCH   5   6
ENDBRANCH   4   5
ENDBRANCH   3   4
ENDBRANCH   2   3
ENDBRANCH   1   2
BRANCH   1  13
ATOM     13  C   UNL     1      43.613  60.057  11.018  1.00  0.00     0.000 C 
BRANCH  13  14
ATOM     14  C   UNL     1      43.828  60.308  12.520  1.00  0.00     0.000 C 
BRANCH  14  15
ATOM     15  C   UNL     1      45.002  61.266  12.791  1.00  0.00     0.000 C 
BRANCH  15  16
ATOM     16  C   UNL     1      44.539  62.624  13.340  1.00  0.00     0.000 C 
BRANCH  16  17
ATOM     17  C   UNL     1      44.358  63.678  12.233  1.00  0.00     0.000 C 
BRANCH  17  18
ATOM     18  C   UNL     1      42.907  63.729  11.708  1.00  0.00     0.000 C 
BRANCH  18  19
ATOM     19  C   UNL     1      41.847  63.532  12.805  1.00  0.00     0.000 C 
BRANCH  19  20
ATOM     20  C   UNL     1      40.778  62.494  12.423  1.00  0.00     0.006 C 
BRANCH  20  21
ATOM     21  C   UNL     1      40.697  62.273  10.906  1.00  0.00     0.053 C 
BRANCH  21  22
ATOM     22  C   UNL     1      39.360  62.668  10.357  1.00  0.00     0.041 C 
ATOM     23  O   UNL     1      39.128  62.574   9.124  1.00  0.00    -0.550 OA
ATOM     24  O   UNL     1      38.362  63.119  11.213  1.00  0.00    -0.550 OA
ENDBRANCH  21  22
ENDBRANCH  20  21
ENDBRANCH  19  20
ENDBRANCH  18  19
ENDBRANCH  17  18
ENDBRANCH  16  17
ENDBRANCH  15  16
ENDBRANCH  14  15
ENDBRANCH  13  14
ENDBRANCH   1  13
TORSDOF 20
ENDMDL
MODEL 5
REMARK VINA RESULT:    -4.119      2.314      6.407
REMARK INTER + INTRA:         -13.128
REMARK INTER:                  -9.602
REMARK INTRA:                  -3.527
REMARK UNBOUND:                -4.194
REMARK SMILES CCCCCCCCCCCCCCCCCCCCCC(=O)[O-]
REMARK SMILES IDX 12 1 11 2 10 3 9 4 8 5 7 6 6 7 5 8 4 9 3 10 2 11 1 12 13 13
REMARK SMILES IDX 14 14 15 15 16 16 17 17 18 18 19 19 20 20 21 21 22 22 23 23
REMARK SMILES IDX 24 24
REMARK H PARENT
REMARK Flexibility Score: inf
ROOT
ATOM      1  C   UNL     1      43.436  62.407   7.132  1.00  0.00     0.000 C 
ENDROOT
BRANCH   1   2
ATOM      2  C   UNL     1      42.138  62.739   6.379  1.00  0.00     0.000 C 
BRANCH   2   3
ATOM      3  C   UNL     1      42.275  63.975   5.474  1.00  0.00     0.000 C 
BRANCH   3   4
ATOM      4  C   UNL     1      43.463  64.876   5.876  1.00  0.00    -0.000 C 
BRANCH   4   5
ATOM      5  C   UNL     1      43.106  66.371   5.973  1.00  0.00    -0.000 C 
BRANCH   5   6
ATOM      6  C   UNL     1      42.953  66.915   7.405  1.00  0.00    -0.000 C 
BRANCH   6   7
ATOM      7  C   UNL     1      43.012  65.849   8.517  1.00  0.00    -0.000 C 
BRANCH   7   8
ATOM      8  C   UNL     1      41.645  65.287   8.954  1.00  0.00    -0.000 C 
BRANCH   8   9
ATOM      9  C   UNL     1      40.428  66.137   8.538  1.00  0.00    -0.000 C 
BRANCH   9  10
ATOM     10  C   UNL     1      39.483  65.469   7.519  1.00  0.00    -0.000 C 
BRANCH  10  11
ATOM     11  C   UNL     1      39.342  66.216   6.181  1.00  0.00    -0.003 C 
ATOM     12  C   UNL     1      39.555  67.723   6.316  1.00  0.00     0.004 C 
ENDBRANCH  10  11
ENDBRANCH   9  10
ENDBRANCH   8   9
ENDBRANCH   7   8
ENDBRANCH   6   7
ENDBRANCH   5   6
ENDBRANCH   4   5
ENDBRANCH   3   4
ENDBRANCH   2   3
ENDBRANCH   1   2
BRANCH   1  13
ATOM     13  C   UNL     1      43.190  61.564   8.397  1.00  0.00     0.000 C 
BRANCH  13  14
ATOM     14  C   UNL     1      44.453  60.818   8.857  1.00  0.00     0.000 C 
BRANCH  14  15
ATOM     15  C   UNL     1      44.263  60.129  10.220  1.00  0.00     0.000 C 
BRANCH  15  16
ATOM     16  C   UNL     1      45.250  60.641  11.280  1.00  0.00     0.000 C 
BRANCH  16  17
ATOM     17  C   UNL     1      44.724  60.455  12.715  1.00  0.00     0.000 C 
BRANCH  17  18
ATOM     18  C   UNL     1      44.244  61.784  13.337  1.00  0.00     0.000 C 
BRANCH  18  19
ATOM     19  C   UNL     1      44.632  63.025  12.515  1.00  0.00     0.000 C 
BRANCH  19  20
ATOM     20  C   UNL     1      43.420  63.708  11.859  1.00  0.00     0.006 C 
BRANCH  20  21
ATOM     21  C   UNL     1      42.117  63.442  12.625  1.00  0.00     0.053 C 
BRANCH  21  22
ATOM     22  C   UNL     1      41.102  62.744  11.771  1.00  0.00     0.041 C 
ATOM     23  O   UNL     1      41.324  61.581  11.346  1.00  0.00    -0.550 OA
ATOM     24  O   UNL     1      39.900  63.372  11.464  1.00  0.00    -0.550 OA
ENDBRANCH  21  22
ENDBRANCH  20  21
ENDBRANCH  19  20
ENDBRANCH  18  19
ENDBRANCH  17  18
ENDBRANCH  16  17
ENDBRANCH  15  16
ENDBRANCH  14  15
ENDBRANCH  13  14
ENDBRANCH   1  13
TORSDOF 20
ENDMDL
MODEL 6
REMARK VINA RESULT:    -4.108      2.139      4.856
REMARK INTER + INTRA:         -13.104
REMARK INTER:                 -10.143
REMARK INTRA:                  -2.962
REMARK UNBOUND:                -4.194
REMARK SMILES CCCCCCCCCCCCCCCCCCCCCC(=O)[O-]
REMARK SMILES IDX 12 1 11 2 10 3 9 4 8 5 7 6 6 7 5 8 4 9 3 10 2 11 1 12 13 13
REMARK SMILES IDX 14 14 15 15 16 16 17 17 18 18 19 19 20 20 21 21 22 22 23 23
REMARK SMILES IDX 24 24
REMARK H PARENT
REMARK Flexibility Score: inf
ROOT
ATOM      1  C   UNL     1      42.670  63.454   5.702  1.00  0.00     0.000 C 
ENDROOT
BRANCH   1   2
ATOM      2  C   UNL     1      42.391  62.344   6.727  1.00  0.00     0.000 C 
BRANCH   2   3
ATOM      3  C   UNL     1      43.290  62.443   7.972  1.00  0.00     0.000 C 
BRANCH   3   4
ATOM      4  C   UNL     1      43.395  61.104   8.735  1.00  0.00    -0.000 C 
BRANCH   4   5
ATOM      5  C   UNL     1      44.843  60.633   8.970  1.00  0.00    -0.000 C 
BRANCH   5   6
ATOM      6  C   UNL     1      45.278  60.570  10.446  1.00  0.00    -0.000 C 
BRANCH   6   7
ATOM      7  C   UNL     1      44.177  60.924  11.465  1.00  0.00    -0.000 C 
BRANCH   7   8
ATOM      8  C   UNL     1      44.658  61.725  12.691  1.00  0.00    -0.000 C 
BRANCH   8   9
ATOM      9  C   UNL     1      44.606  63.258  12.527  1.00  0.00    -0.000 C 
BRANCH   9  10
ATOM     10  C   UNL     1      43.457  63.782  11.642  1.00  0.00    -0.000 C 
BRANCH  10  11
ATOM     11  C   UNL     1      42.045  63.455  12.156  1.00  0.00    -0.003 C 
ATOM     12  C   UNL     1      41.077  63.074  11.036  1.00  0.00     0.004 C 
ENDBRANCH  10  11
ENDBRANCH   9  10
ENDBRANCH   8   9
ENDBRANCH   7   8
ENDBRANCH   6   7
ENDBRANCH   5   6
ENDBRANCH   4   5
ENDBRANCH   3   4
ENDBRANCH   2   3
ENDBRANCH   1   2
BRANCH   1  13
ATOM     13  C   UNL     1      43.711  64.473   6.197  1.00  0.00     0.000 C 
BRANCH  13  14
ATOM     14  C   UNL     1      43.157  65.906   6.233  1.00  0.00     0.000 C 
BRANCH  14  15
ATOM     15  C   UNL     1      43.407  66.598   7.584  1.00  0.00     0.000 C 
BRANCH  15  16
ATOM     16  C   UNL     1      42.613  65.954   8.732  1.00  0.00     0.000 C 
BRANCH  16  17
ATOM     17  C   UNL     1      41.155  65.652   8.344  1.00  0.00     0.000 C 
BRANCH  17  18
ATOM     18  C   UNL     1      40.316  66.937   8.180  1.00  0.00     0.000 C 
BRANCH  18  19
ATOM     19  C   UNL     1      39.593  67.034   6.826  1.00  0.00     0.000 C 
BRANCH  19  20
ATOM     20  C   UNL     1      39.853  68.367   6.105  1.00  0.00     0.006 C 
BRANCH  20  21
ATOM     21  C   UNL     1      41.010  69.154   6.735  1.00  0.00     0.053 C 
BRANCH  21  22
ATOM     22  C   UNL     1      41.633  70.106   5.759  1.00  0.00     0.041 C 
ATOM     23  O   UNL     1      41.780  69.772   4.555  1.00  0.00    -0.550 OA
ATOM     24  O   UNL     1      42.031  71.370   6.177  1.00  0.00    -0.550 OA
ENDBRANCH  21  22
ENDBRANCH  20  21
ENDBRANCH  19  20
ENDBRANCH  18  19
ENDBRANCH  17  18
ENDBRANCH  16  17
ENDBRANCH  15  16
ENDBRANCH  14  15
ENDBRANCH  13  14
ENDBRANCH   1  13
TORSDOF 20
ENDMDL
MODEL 7
REMARK VINA RESULT:    -4.058      1.995      4.537
REMARK INTER + INTRA:         -12.997
REMARK INTER:                  -9.768
REMARK INTRA:                  -3.229
REMARK UNBOUND:                -4.194
REMARK SMILES CCCCCCCCCCCCCCCCCCCCCC(=O)[O-]
REMARK SMILES IDX 12 1 11 2 10 3 9 4 8 5 7 6 6 7 5 8 4 9 3 10 2 11 1 12 13 13
REMARK SMILES IDX 14 14 15 15 16 16 17 17 18 18 19 19 20 20 21 21 22 22 23 23
REMARK SMILES IDX 24 24
REMARK H PARENT
REMARK Flexibility Score: inf
ROOT
ATOM      1  C   UNL     1      44.344  61.222   9.313  1.00  0.00     0.000 C 
ENDROOT
BRANCH   1   2
ATOM      2  C   UNL     1      44.181  59.954  10.166  1.00  0.00     0.000 C 
BRANCH   2   3
ATOM      3  C   UNL     1      42.757  59.790  10.724  1.00  0.00     0.000 C 
BRANCH   3   4
ATOM      4  C   UNL     1      42.722  59.789  12.268  1.00  0.00    -0.000 C 
BRANCH   4   5
ATOM      5  C   UNL     1      44.075  60.129  12.921  1.00  0.00    -0.000 C 
BRANCH   5   6
ATOM      6  C   UNL     1      44.109  61.454  13.704  1.00  0.00    -0.000 C 
BRANCH   6   7
ATOM      7  C   UNL     1      45.039  62.534  13.117  1.00  0.00    -0.000 C 
BRANCH   7   8
ATOM      8  C   UNL     1      44.331  63.626  12.291  1.00  0.00    -0.000 C 
BRANCH   8   9
ATOM      9  C   UNL     1      42.791  63.545  12.289  1.00  0.00    -0.000 C 
BRANCH   9  10
ATOM     10  C   UNL     1      42.140  63.529  10.891  1.00  0.00    -0.000 C 
BRANCH  10  11
ATOM     11  C   UNL     1      40.669  63.081  10.868  1.00  0.00    -0.003 C 
ATOM     12  C   UNL     1      40.187  62.551  12.218  1.00  0.00     0.004 C 
ENDBRANCH  10  11
ENDBRANCH   9  10
ENDBRANCH   8   9
ENDBRANCH   7   8
ENDBRANCH   6   7
ENDBRANCH   5   6
ENDBRANCH   4   5
ENDBRANCH   3   4
ENDBRANCH   2   3
ENDBRANCH   1   2
BRANCH   1  13
ATOM     13  C   UNL     1      43.334  61.294   8.154  1.00  0.00     0.000 C 
BRANCH  13  14
ATOM     14  C   UNL     1      43.438  62.610   7.368  1.00  0.00     0.000 C 
BRANCH  14  15
ATOM     15  C   UNL     1      42.069  63.101   6.863  1.00  0.00     0.000 C 
BRANCH  15  16
ATOM     16  C   UNL     1      41.785  64.559   7.256  1.00  0.00     0.000 C 
BRANCH  16  17
ATOM     17  C   UNL     1      43.071  65.391   7.408  1.00  0.00     0.000 C 
BRANCH  17  18
ATOM     18  C   UNL     1      43.412  66.177   6.124  1.00  0.00     0.000 C 
BRANCH  18  19
ATOM     19  C   UNL     1      42.203  66.406   5.201  1.00  0.00     0.000 C 
BRANCH  19  20
ATOM     20  C   UNL     1      41.900  67.897   4.974  1.00  0.00     0.006 C 
BRANCH  20  21
ATOM     21  C   UNL     1      41.516  68.617   6.274  1.00  0.00     0.053 C 
BRANCH  21  22
ATOM     22  C   UNL     1      41.196  70.062   6.036  1.00  0.00     0.041 C 
ATOM     23  O   UNL     1      40.197  70.383   5.341  1.00  0.00    -0.550 OA
ATOM     24  O   UNL     1      41.989  71.053   6.602  1.00  0.00    -0.550 OA
ENDBRANCH  21  22
ENDBRANCH  20  21
ENDBRANCH  19  20
ENDBRANCH  18  19
ENDBRANCH  17  18
ENDBRANCH  16  17
ENDBRANCH  15  16
ENDBRANCH  14  15
ENDBRANCH  13  14
ENDBRANCH   1  13
TORSDOF 20
ENDMDL
MODEL 8
REMARK VINA RESULT:    -4.055      1.674      3.604
REMARK INTER + INTRA:         -12.990
REMARK INTER:                  -8.870
REMARK INTRA:                  -4.119
REMARK UNBOUND:                -4.194
REMARK SMILES CCCCCCCCCCCCCCCCCCCCCC(=O)[O-]
REMARK SMILES IDX 12 1 11 2 10 3 9 4 8 5 7 6 6 7 5 8 4 9 3 10 2 11 1 12 13 13
REMARK SMILES IDX 14 14 15 15 16 16 17 17 18 18 19 19 20 20 21 21 22 22 23 23
REMARK SMILES IDX 24 24
REMARK H PARENT
REMARK Flexibility Score: inf
ROOT
ATOM      1  C   UNL     1      44.808  60.465  12.332  1.00  0.00     0.000 C 
ENDROOT
BRANCH   1   2
ATOM      2  C   UNL     1      44.429  61.659  13.223  1.00  0.00     0.000 C 
BRANCH   2   3
ATOM      3  C   UNL     1      44.623  63.013  12.519  1.00  0.00     0.000 C 
BRANCH   3   4
ATOM      4  C   UNL     1      43.284  63.728  12.232  1.00  0.00    -0.000 C 
BRANCH   4   5
ATOM      5  C   UNL     1      42.046  62.950  12.718  1.00  0.00    -0.000 C 
BRANCH   5   6
ATOM      6  C   UNL     1      40.868  62.910  11.727  1.00  0.00    -0.000 C 
BRANCH   6   7
ATOM      7  C   UNL     1      40.387  61.497  11.344  1.00  0.00    -0.000 C 
BRANCH   7   8
ATOM      8  C   UNL     1      41.311  60.349  11.796  1.00  0.00    -0.000 C 
BRANCH   8   9
ATOM      9  C   UNL     1      41.506  59.224  10.759  1.00  0.00    -0.000 C 
BRANCH   9  10
ATOM     10  C   UNL     1      40.360  59.073   9.737  1.00  0.00    -0.000 C 
BRANCH  10  11
ATOM     11  C   UNL     1      40.742  59.403   8.284  1.00  0.00    -0.003 C 
ATOM     12  C   UNL     1      39.857  60.486   7.668  1.00  0.00     0.004 C 
ENDBRANCH  10  11
ENDBRANCH   9  10
ENDBRANCH   8   9
ENDBRANCH   7   8
ENDBRANCH   6   7
ENDBRANCH   5   6
ENDBRANCH   4   5
ENDBRANCH   3   4
ENDBRANCH   2   3
ENDBRANCH   1   2
BRANCH   1  13
ATOM     13  C   UNL     1      45.376  60.897  10.969  1.00  0.00     0.000 C 
BRANCH  13  14
ATOM     14  C   UNL     1      44.903  59.989   9.823  1.00  0.00     0.000 C 
BRANCH  14  15
ATOM     15  C   UNL     1      44.328  60.788   8.640  1.00  0.00     0.000 C 
BRANCH  15  16
ATOM     16  C   UNL     1      43.375  61.905   9.092  1.00  0.00     0.000 C 
BRANCH  16  17
ATOM     17  C   UNL     1      42.775  62.685   7.908  1.00  0.00     0.000 C 
BRANCH  17  18
ATOM     18  C   UNL     1      41.727  63.722   8.365  1.00  0.00     0.000 C 
BRANCH  18  19
ATOM     19  C   UNL     1      42.337  65.065   8.799  1.00  0.00     0.000 C 
BRANCH  19  20
ATOM     20  C   UNL     1      42.230  66.149   7.713  1.00  0.00     0.006 C 
BRANCH  20  21
ATOM     21  C   UNL     1      43.541  66.325   6.935  1.00  0.00     0.053 C 
BRANCH  21  22
ATOM     22  C   UNL     1      43.372  66.007   5.480  1.00  0.00     0.041 C 
ATOM     23  O   UNL     1      43.504  66.910   4.614  1.00  0.00    -0.550 OA
ATOM     24  O   UNL     1      43.091  64.705   5.080  1.00  0.00    -0.550 OA
ENDBRANCH  21  22
ENDBRANCH  20  21
ENDBRANCH  19  20
ENDBRANCH  18  19
ENDBRANCH  17  18
ENDBRANCH  16  17
ENDBRANCH  15  16
ENDBRANCH  14  15
ENDBRANCH  13  14
ENDBRANCH   1  13
TORSDOF 20
ENDMDL
MODEL 9
REMARK VINA RESULT:    -4.013      2.525      6.109
REMARK INTER + INTRA:         -12.899
REMARK INTER:                  -9.391
REMARK INTRA:                  -3.508
REMARK UNBOUND:                -4.194
REMARK SMILES CCCCCCCCCCCCCCCCCCCCCC(=O)[O-]
REMARK SMILES IDX 12 1 11 2 10 3 9 4 8 5 7 6 6 7 5 8 4 9 3 10 2 11 1 12 13 13
REMARK SMILES IDX 14 14 15 15 16 16 17 17 18 18 19 19 20 20 21 21 22 22 23 23
REMARK SMILES IDX 24 24
REMARK H PARENT
REMARK Flexibility Score: inf
ROOT
ATOM      1  C   UNL     1      43.164  62.381   7.169  1.00  0.00     0.000 C 
ENDROOT
BRANCH   1   2
ATOM      2  C   UNL     1      41.711  62.210   6.698  1.00  0.00     0.000 C 
BRANCH   2   3
ATOM      3  C   UNL     1      41.054  63.542   6.299  1.00  0.00     0.000 C 
BRANCH   3   4
ATOM      4  C   UNL     1      39.989  64.006   7.317  1.00  0.00    -0.000 C 
BRANCH   4   5
ATOM      5  C   UNL     1      40.568  64.385   8.693  1.00  0.00    -0.000 C 
BRANCH   5   6
ATOM      6  C   UNL     1      41.253  65.763   8.757  1.00  0.00    -0.000 C 
BRANCH   6   7
ATOM      7  C   UNL     1      42.786  65.737   8.603  1.00  0.00    -0.000 C 
BRANCH   7   8
ATOM      8  C   UNL     1      43.347  66.668   7.510  1.00  0.00    -0.000 C 
BRANCH   8   9
ATOM      9  C   UNL     1      42.327  67.103   6.439  1.00  0.00    -0.000 C 
BRANCH   9  10
ATOM     10  C   UNL     1      42.764  66.852   4.981  1.00  0.00    -0.000 C 
BRANCH  10  11
ATOM     11  C   UNL     1      43.562  65.556   4.759  1.00  0.00    -0.003 C 
ATOM     12  C   UNL     1      43.184  64.840   3.462  1.00  0.00     0.004 C 
ENDBRANCH  10  11
ENDBRANCH   9  10
ENDBRANCH   8   9
ENDBRANCH   7   8
ENDBRANCH   6   7
ENDBRANCH   5   6
ENDBRANCH   4   5
ENDBRANCH   3   4
ENDBRANCH   2   3
ENDBRANCH   1   2
BRANCH   1  13
ATOM     13  C   UNL     1      43.354  62.025   8.654  1.00  0.00     0.000 C 
BRANCH  13  14
ATOM     14  C   UNL     1      43.362  60.507   8.896  1.00  0.00     0.000 C 
BRANCH  14  15
ATOM     15  C   UNL     1      44.615  60.041   9.658  1.00  0.00     0.000 C 
BRANCH  15  16
ATOM     16  C   UNL     1      45.094  61.074  10.690  1.00  0.00     0.000 C 
BRANCH  16  17
ATOM     17  C   UNL     1      44.638  60.735  12.121  1.00  0.00     0.000 C 
BRANCH  17  18
ATOM     18  C   UNL     1      44.351  62.001  12.957  1.00  0.00     0.000 C 
BRANCH  18  19
ATOM     19  C   UNL     1      44.376  63.301  12.135  1.00  0.00     0.000 C 
BRANCH  19  20
ATOM     20  C   UNL     1      42.969  63.856  11.854  1.00  0.00     0.006 C 
BRANCH  20  21
ATOM     21  C   UNL     1      41.914  63.276  12.806  1.00  0.00     0.053 C 
BRANCH  21  22
ATOM     22  C   UNL     1      40.838  62.542  12.063  1.00  0.00     0.041 C 
ATOM     23  O   UNL     1      39.708  63.071  11.899  1.00  0.00    -0.550 OA
ATOM     24  O   UNL     1      41.093  61.283  11.533  1.00  0.00    -0.550 OA
ENDBRANCH  21  22
ENDBRANCH  20  21
ENDBRANCH  19  20
ENDBRANCH  18  19
ENDBRANCH  17  18
ENDBRANCH  16  17
ENDBRANCH  15  16
ENDBRANCH  14  15
ENDBRANCH  13  14
ENDBRANCH   1  13
TORSDOF 20
ENDMDL
