MODEL 1
REMARK VINA RESULT:    -5.347      0.000      0.000
REMARK INTER + INTRA:          -6.407
REMARK INTER:                  -6.285
REMARK INTRA:                  -0.122
REMARK UNBOUND:                -0.122
REMARK SMILES O=C([O-])C=Cc1ccc(O)c(O)c1
REMARK SMILES IDX 6 1 13 2 7 3 11 4 8 5 9 6 5 7 4 8 2 9 1 10 3 11 12 12 10 14
REMARK H PARENT 12 13 10 15
REMARK Flexibility Score: inf
ROOT
ATOM      1  C   UNL     1       0.939 -13.257 -39.185  1.00  0.00    -0.022 A 
ATOM      2  C   UNL     1       0.862 -12.586 -37.947  1.00  0.00     0.058 A 
ATOM      3  C   UNL     1      -0.234 -13.799 -39.735  1.00  0.00     0.012 A 
ATOM      4  C   UNL     1      -0.370 -12.441 -37.291  1.00  0.00     0.157 A 
ATOM      5  C   UNL     1      -1.461 -13.653 -39.083  1.00  0.00     0.051 A 
ATOM      6  C   UNL     1      -1.533 -12.972 -37.862  1.00  0.00     0.157 A 
ENDROOT
BRANCH   1   7
ATOM      7  C   UNL     1       2.218 -13.448 -39.911  1.00  0.00     0.010 C 
ATOM      8  C   UNL     1       3.149 -12.493 -40.044  1.00  0.00     0.025 C 
BRANCH   8   9
ATOM      9  C   UNL     1       4.399 -12.722 -40.786  1.00  0.00     0.064 C 
ATOM     10  O   UNL     1       5.423 -13.114 -40.169  1.00  0.00    -0.545 OA
ATOM     11  O   UNL     1       4.466 -12.516 -42.159  1.00  0.00    -0.545 OA
ENDBRANCH   8   9
ENDBRANCH   1   7
BRANCH   4  12
ATOM     12  O   UNL     1      -0.444 -11.774 -36.070  1.00  0.00    -0.504 OA
ATOM     13  H   UNL     1      -0.311 -12.260 -35.190  1.00  0.00     0.293 HD
ENDBRANCH   4  12
BRANCH   6  14
ATOM     14  O   UNL     1      -2.755 -12.821 -37.209  1.00  0.00    -0.504 OA
ATOM     15  H   UNL     1      -2.828 -12.885 -36.200  1.00  0.00     0.293 HD
ENDBRANCH   6  14
TORSDOF 4
ENDMDL
MODEL 2
REMARK VINA RESULT:    -5.313      3.490      5.176
REMARK INTER + INTRA:          -6.367
REMARK INTER:                  -6.239
REMARK INTRA:                  -0.128
REMARK UNBOUND:                -0.122
REMARK SMILES O=C([O-])C=Cc1ccc(O)c(O)c1
REMARK SMILES IDX 6 1 13 2 7 3 11 4 8 5 9 6 5 7 4 8 2 9 1 10 3 11 12 12 10 14
REMARK H PARENT 12 13 10 15
REMARK Flexibility Score: inf
ROOT
ATOM      1  C   UNL     1      -0.883 -12.733 -40.037  1.00  0.00    -0.022 A 
ATOM      2  C   UNL     1       0.487 -12.409 -40.099  1.00  0.00     0.058 A 
ATOM      3  C   UNL     1      -1.276 -13.880 -39.327  1.00  0.00     0.012 A 
ATOM      4  C   UNL     1       1.438 -13.204 -39.441  1.00  0.00     0.157 A 
ATOM      5  C   UNL     1      -0.330 -14.670 -38.670  1.00  0.00     0.051 A 
ATOM      6  C   UNL     1       1.028 -14.333 -38.723  1.00  0.00     0.157 A 
ENDROOT
BRANCH   1   7
ATOM      7  C   UNL     1      -1.926 -11.933 -40.726  1.00  0.00     0.010 C 
ATOM      8  C   UNL     1      -1.693 -11.189 -41.817  1.00  0.00     0.025 C 
BRANCH   8   9
ATOM      9  C   UNL     1      -2.755 -10.399 -42.460  1.00  0.00     0.064 C 
ATOM     10  O   UNL     1      -3.940 -10.820 -42.441  1.00  0.00    -0.545 OA
ATOM     11  O   UNL     1      -2.470  -9.191 -43.087  1.00  0.00    -0.545 OA
ENDBRANCH   8   9
ENDBRANCH   1   7
BRANCH   4  12
ATOM     12  O   UNL     1       2.791 -12.879 -39.501  1.00  0.00    -0.504 OA
ATOM     13  H   UNL     1       3.309 -12.916 -40.372  1.00  0.00     0.293 HD
ENDBRANCH   4  12
BRANCH   6  14
ATOM     14  O   UNL     1       1.975 -15.117 -38.067  1.00  0.00    -0.504 OA
ATOM     15  H   UNL     1       2.238 -14.937 -37.105  1.00  0.00     0.293 HD
ENDBRANCH   6  14
TORSDOF 4
ENDMDL
MODEL 3
REMARK VINA RESULT:    -5.241      1.473      2.241
REMARK INTER + INTRA:          -6.282
REMARK INTER:                  -6.147
REMARK INTRA:                  -0.135
REMARK UNBOUND:                -0.122
REMARK SMILES O=C([O-])C=Cc1ccc(O)c(O)c1
REMARK SMILES IDX 6 1 13 2 7 3 11 4 8 5 9 6 5 7 4 8 2 9 1 10 3 11 12 12 10 14
REMARK H PARENT 12 13 10 15
REMARK Flexibility Score: inf
ROOT
ATOM      1  C   UNL     1       1.939 -12.604 -39.423  1.00  0.00    -0.022 A 
ATOM      2  C   UNL     1       1.381 -13.715 -38.757  1.00  0.00     0.058 A 
ATOM      3  C   UNL     1       1.606 -11.313 -38.983  1.00  0.00     0.012 A 
ATOM      4  C   UNL     1       0.529 -13.531 -37.657  1.00  0.00     0.157 A 
ATOM      5  C   UNL     1       0.760 -11.130 -37.886  1.00  0.00     0.051 A 
ATOM      6  C   UNL     1       0.222 -12.237 -37.219  1.00  0.00     0.157 A 
ENDROOT
BRANCH   1   7
ATOM      7  C   UNL     1       2.833 -12.745 -40.599  1.00  0.00     0.010 C 
ATOM      8  C   UNL     1       4.078 -12.251 -40.650  1.00  0.00     0.025 C 
BRANCH   8   9
ATOM      9  C   UNL     1       4.926 -12.403 -41.843  1.00  0.00     0.064 C 
ATOM     10  O   UNL     1       4.637 -11.774 -42.894  1.00  0.00    -0.545 OA
ATOM     11  O   UNL     1       6.046 -13.226 -41.826  1.00  0.00    -0.545 OA
ENDBRANCH   8   9
ENDBRANCH   1   7
BRANCH   4  12
ATOM     12  O   UNL     1      -0.017 -14.630 -36.997  1.00  0.00    -0.504 OA
ATOM     13  H   UNL     1       0.567 -15.371 -36.626  1.00  0.00     0.293 HD
ENDBRANCH   4  12
BRANCH   6  14
ATOM     14  O   UNL     1      -0.621 -12.060 -36.123  1.00  0.00    -0.504 OA
ATOM     15  H   UNL     1      -1.105 -12.840 -35.696  1.00  0.00     0.293 HD
ENDBRANCH   6  14
TORSDOF 4
ENDMDL
MODEL 4
REMARK VINA RESULT:    -5.127      9.373     11.687
REMARK INTER + INTRA:          -6.148
REMARK INTER:                  -6.025
REMARK INTRA:                  -0.123
REMARK UNBOUND:                -0.122
REMARK SMILES O=C([O-])C=Cc1ccc(O)c(O)c1
REMARK SMILES IDX 6 1 13 2 7 3 11 4 8 5 9 6 5 7 4 8 2 9 1 10 3 11 12 12 10 14
REMARK H PARENT 12 13 10 15
REMARK Flexibility Score: inf
ROOT
ATOM      1  C   UNL     1       8.540  -4.887 -40.141  1.00  0.00    -0.022 A 
ATOM      2  C   UNL     1       8.444  -5.013 -38.740  1.00  0.00     0.058 A 
ATOM      3  C   UNL     1       9.813  -4.864 -40.734  1.00  0.00     0.012 A 
ATOM      4  C   UNL     1       9.600  -5.139 -37.956  1.00  0.00     0.157 A 
ATOM      5  C   UNL     1      10.964  -4.992 -39.953  1.00  0.00     0.051 A 
ATOM      6  C   UNL     1      10.861  -5.133 -38.564  1.00  0.00     0.157 A 
ENDROOT
BRANCH   1   7
ATOM      7  C   UNL     1       7.348  -4.737 -41.013  1.00  0.00     0.010 C 
ATOM      8  C   UNL     1       6.346  -5.626 -41.063  1.00  0.00     0.025 C 
BRANCH   8   9
ATOM      9  C   UNL     1       5.189  -5.444 -41.954  1.00  0.00     0.064 C 
ATOM     10  O   UNL     1       4.187  -4.800 -41.546  1.00  0.00    -0.545 OA
ATOM     11  O   UNL     1       5.185  -5.969 -43.241  1.00  0.00    -0.545 OA
ENDBRANCH   8   9
ENDBRANCH   1   7
BRANCH   4  12
ATOM     12  O   UNL     1       9.503  -5.268 -36.572  1.00  0.00    -0.504 OA
ATOM     13  H   UNL     1      10.098  -5.905 -36.055  1.00  0.00     0.293 HD
ENDBRANCH   4  12
BRANCH   6  14
ATOM     14  O   UNL     1      12.007  -5.263 -37.781  1.00  0.00    -0.504 OA
ATOM     15  H   UNL     1      12.680  -4.510 -37.698  1.00  0.00     0.293 HD
ENDBRANCH   6  14
TORSDOF 4
ENDMDL
MODEL 5
REMARK VINA RESULT:    -5.101      7.715      8.401
REMARK INTER + INTRA:          -6.118
REMARK INTER:                  -5.993
REMARK INTRA:                  -0.125
REMARK UNBOUND:                -0.122
REMARK SMILES O=C([O-])C=Cc1ccc(O)c(O)c1
REMARK SMILES IDX 6 1 13 2 7 3 11 4 8 5 9 6 5 7 4 8 2 9 1 10 3 11 12 12 10 14
REMARK H PARENT 12 13 10 15
REMARK Flexibility Score: inf
ROOT
ATOM      1  C   UNL     1       3.299  -6.981 -43.612  1.00  0.00    -0.022 A 
ATOM      2  C   UNL     1       4.278  -6.143 -43.041  1.00  0.00     0.058 A 
ATOM      3  C   UNL     1       2.009  -6.992 -43.056  1.00  0.00     0.012 A 
ATOM      4  C   UNL     1       3.961  -5.316 -41.953  1.00  0.00     0.157 A 
ATOM      5  C   UNL     1       1.693  -6.166 -41.974  1.00  0.00     0.051 A 
ATOM      6  C   UNL     1       2.666  -5.325 -41.422  1.00  0.00     0.157 A 
ENDROOT
BRANCH   1   7
ATOM      7  C   UNL     1       3.587  -7.884 -44.754  1.00  0.00     0.010 C 
ATOM      8  C   UNL     1       4.823  -8.152 -45.197  1.00  0.00     0.025 C 
BRANCH   8   9
ATOM      9  C   UNL     1       5.062  -9.044 -46.343  1.00  0.00     0.064 C 
ATOM     10  O   UNL     1       4.570 -10.201 -46.343  1.00  0.00    -0.545 OA
ATOM     11  O   UNL     1       5.822  -8.626 -47.430  1.00  0.00    -0.545 OA
ENDBRANCH   8   9
ENDBRANCH   1   7
BRANCH   4  12
ATOM     12  O   UNL     1       4.930  -4.485 -41.393  1.00  0.00    -0.504 OA
ATOM     13  H   UNL     1       4.865  -4.166 -40.433  1.00  0.00     0.293 HD
ENDBRANCH   4  12
BRANCH   6  14
ATOM     14  O   UNL     1       2.355  -4.498 -40.344  1.00  0.00    -0.504 OA
ATOM     15  H   UNL     1       2.956  -4.439 -39.531  1.00  0.00     0.293 HD
ENDBRANCH   6  14
TORSDOF 4
ENDMDL
MODEL 6
REMARK VINA RESULT:    -5.019      5.260      7.223
REMARK INTER + INTRA:          -6.021
REMARK INTER:                  -5.896
REMARK INTRA:                  -0.125
REMARK UNBOUND:                -0.122
REMARK SMILES O=C([O-])C=Cc1ccc(O)c(O)c1
REMARK SMILES IDX 6 1 13 2 7 3 11 4 8 5 9 6 5 7 4 8 2 9 1 10 3 11 12 12 10 14
REMARK H PARENT 12 13 10 15
REMARK Flexibility Score: inf
ROOT
ATOM      1  C   UNL     1       5.963 -11.582 -42.981  1.00  0.00    -0.022 A 
ATOM      2  C   UNL     1       4.967 -12.257 -42.245  1.00  0.00     0.058 A 
ATOM      3  C   UNL     1       7.246 -11.454 -42.424  1.00  0.00     0.012 A 
ATOM      4  C   UNL     1       5.261 -12.812 -40.991  1.00  0.00     0.157 A 
ATOM      5  C   UNL     1       7.539 -12.009 -41.176  1.00  0.00     0.051 A 
ATOM      6  C   UNL     1       6.550 -12.691 -40.458  1.00  0.00     0.157 A 
ENDROOT
BRANCH   1   7
ATOM      7  C   UNL     1       5.698 -10.967 -44.305  1.00  0.00     0.010 C 
ATOM      8  C   UNL     1       4.475 -10.841 -44.836  1.00  0.00     0.025 C 
BRANCH   8   9
ATOM      9  C   UNL     1       4.260 -10.235 -46.160  1.00  0.00     0.064 C 
ATOM     10  O   UNL     1       3.351 -10.682 -46.907  1.00  0.00    -0.545 OA
ATOM     11  O   UNL     1       5.043  -9.174 -46.598  1.00  0.00    -0.545 OA
ENDBRANCH   8   9
ENDBRANCH   1   7
BRANCH   4  12
ATOM     12  O   UNL     1       4.276 -13.482 -40.267  1.00  0.00    -0.504 OA
ATOM     13  H   UNL     1       3.607 -12.982 -39.692  1.00  0.00     0.293 HD
ENDBRANCH   4  12
BRANCH   6  14
ATOM     14  O   UNL     1       6.838 -13.248 -39.213  1.00  0.00    -0.504 OA
ATOM     15  H   UNL     1       7.508 -14.001 -39.112  1.00  0.00     0.293 HD
ENDBRANCH   6  14
TORSDOF 4
ENDMDL
MODEL 7
REMARK VINA RESULT:    -5.005      7.548      8.083
REMARK INTER + INTRA:          -6.004
REMARK INTER:                  -5.856
REMARK INTRA:                  -0.148
REMARK UNBOUND:                -0.122
REMARK SMILES O=C([O-])C=Cc1ccc(O)c(O)c1
REMARK SMILES IDX 6 1 13 2 7 3 11 4 8 5 9 6 5 7 4 8 2 9 1 10 3 11 12 12 10 14
REMARK H PARENT 12 13 10 15
REMARK Flexibility Score: inf
ROOT
ATOM      1  C   UNL     1       2.608  -6.935 -43.442  1.00  0.00    -0.022 A 
ATOM      2  C   UNL     1       1.366  -6.672 -42.828  1.00  0.00     0.058 A 
ATOM      3  C   UNL     1       3.760  -6.312 -42.935  1.00  0.00     0.012 A 
ATOM      4  C   UNL     1       1.289  -5.823 -41.714  1.00  0.00     0.157 A 
ATOM      5  C   UNL     1       3.683  -5.468 -41.825  1.00  0.00     0.051 A 
ATOM      6  C   UNL     1       2.449  -5.223 -41.210  1.00  0.00     0.157 A 
ENDROOT
BRANCH   1   7
ATOM      7  C   UNL     1       2.740  -7.815 -44.630  1.00  0.00     0.010 C 
ATOM      8  C   UNL     1       3.873  -8.448 -44.965  1.00  0.00     0.025 C 
BRANCH   8   9
ATOM      9  C   UNL     1       3.964  -9.301 -46.160  1.00  0.00     0.064 C 
ATOM     10  O   UNL     1       4.998  -9.258 -46.877  1.00  0.00    -0.545 OA
ATOM     11  O   UNL     1       2.927 -10.158 -46.510  1.00  0.00    -0.545 OA
ENDBRANCH   8   9
ENDBRANCH   1   7
BRANCH   4  12
ATOM     12  O   UNL     1       0.061  -5.567 -41.106  1.00  0.00    -0.504 OA
ATOM     13  H   UNL     1      -0.004  -5.318 -40.125  1.00  0.00     0.293 HD
ENDBRANCH   4  12
BRANCH   6  14
ATOM     14  O   UNL     1       2.368  -4.384 -40.100  1.00  0.00    -0.504 OA
ATOM     15  H   UNL     1       3.168  -4.218 -39.501  1.00  0.00     0.293 HD
ENDBRANCH   6  14
TORSDOF 4
ENDMDL
MODEL 8
REMARK VINA RESULT:    -4.978      7.876      9.697
REMARK INTER + INTRA:          -5.972
REMARK INTER:                  -5.846
REMARK INTRA:                  -0.126
REMARK UNBOUND:                -0.122
REMARK SMILES O=C([O-])C=Cc1ccc(O)c(O)c1
REMARK SMILES IDX 6 1 13 2 7 3 11 4 8 5 9 6 5 7 4 8 2 9 1 10 3 11 12 12 10 14
REMARK H PARENT 12 13 10 15
REMARK Flexibility Score: inf
ROOT
ATOM      1  C   UNL     1       3.537  -7.735 -44.412  1.00  0.00    -0.022 A 
ATOM      2  C   UNL     1       4.853  -7.571 -43.933  1.00  0.00     0.058 A 
ATOM      3  C   UNL     1       3.324  -8.535 -45.546  1.00  0.00     0.012 A 
ATOM      4  C   UNL     1       5.926  -8.216 -44.564  1.00  0.00     0.157 A 
ATOM      5  C   UNL     1       4.393  -9.181 -46.173  1.00  0.00     0.051 A 
ATOM      6  C   UNL     1       5.695  -9.026 -45.683  1.00  0.00     0.157 A 
ENDROOT
BRANCH   1   7
ATOM      7  C   UNL     1       2.370  -7.063 -43.788  1.00  0.00     0.010 C 
ATOM      8  C   UNL     1       2.462  -5.956 -43.038  1.00  0.00     0.025 C 
BRANCH   8   9
ATOM      9  C   UNL     1       1.279  -5.330 -42.426  1.00  0.00     0.064 C 
ATOM     10  O   UNL     1       0.370  -4.869 -43.164  1.00  0.00    -0.545 OA
ATOM     11  O   UNL     1       1.148  -5.243 -41.045  1.00  0.00    -0.545 OA
ENDBRANCH   8   9
ENDBRANCH   1   7
BRANCH   4  12
ATOM     12  O   UNL     1       7.225  -8.056 -44.087  1.00  0.00    -0.504 OA
ATOM     13  H   UNL     1       7.423  -8.000 -43.094  1.00  0.00     0.293 HD
ENDBRANCH   4  12
BRANCH   6  14
ATOM     14  O   UNL     1       6.764  -9.669 -46.304  1.00  0.00    -0.504 OA
ATOM     15  H   UNL     1       7.724  -9.413 -46.107  1.00  0.00     0.293 HD
ENDBRANCH   6  14
TORSDOF 4
ENDMDL
MODEL 9
REMARK VINA RESULT:    -4.977      5.910      7.746
REMARK INTER + INTRA:          -5.972
REMARK INTER:                  -5.824
REMARK INTRA:                  -0.148
REMARK UNBOUND:                -0.122
REMARK SMILES O=C([O-])C=Cc1ccc(O)c(O)c1
REMARK SMILES IDX 6 1 13 2 7 3 11 4 8 5 9 6 5 7 4 8 2 9 1 10 3 11 12 12 10 14
REMARK H PARENT 12 13 10 15
REMARK Flexibility Score: inf
ROOT
ATOM      1  C   UNL     1       6.625 -11.530 -42.940  1.00  0.00    -0.022 A 
ATOM      2  C   UNL     1       7.846 -11.635 -42.243  1.00  0.00     0.058 A 
ATOM      3  C   UNL     1       5.466 -12.070 -42.361  1.00  0.00     0.012 A 
ATOM      4  C   UNL     1       7.895 -12.247 -40.981  1.00  0.00     0.157 A 
ATOM      5  C   UNL     1       5.514 -12.677 -41.103  1.00  0.00     0.051 A 
ATOM      6  C   UNL     1       6.727 -12.765 -40.410  1.00  0.00     0.157 A 
ENDROOT
BRANCH   1   7
ATOM      7  C   UNL     1       6.523 -10.904 -44.282  1.00  0.00     0.010 C 
ATOM      8  C   UNL     1       5.400 -10.353 -44.762  1.00  0.00     0.025 C 
BRANCH   8   9
ATOM      9  C   UNL     1       5.340  -9.754 -46.105  1.00  0.00     0.064 C 
ATOM     10  O   UNL     1       4.294  -9.877 -46.793  1.00  0.00    -0.545 OA
ATOM     11  O   UNL     1       6.421  -9.052 -46.626  1.00  0.00    -0.545 OA
ENDBRANCH   8   9
ENDBRANCH   1   7
BRANCH   4  12
ATOM     12  O   UNL     1       9.102 -12.347 -40.292  1.00  0.00    -0.504 OA
ATOM     13  H   UNL     1       9.392 -11.643 -39.623  1.00  0.00     0.293 HD
ENDBRANCH   4  12
BRANCH   6  14
ATOM     14  O   UNL     1       6.780 -13.368 -39.154  1.00  0.00    -0.504 OA
ATOM     15  H   UNL     1       7.566 -13.944 -38.875  1.00  0.00     0.293 HD
ENDBRANCH   6  14
TORSDOF 4
ENDMDL
