MODEL 1
REMARK VINA RESULT:    -4.227      0.000      0.000
REMARK INTER + INTRA:          -6.927
REMARK INTER:                  -5.833
REMARK INTRA:                  -1.094
REMARK UNBOUND:                -1.094
REMARK SMILES CCCCc1cccc(O)c1CCCC
REMARK SMILES IDX 5 1 11 2 9 3 8 4 7 5 6 6 4 7 3 8 2 9 1 10 12 11 13 12 14 13
REMARK SMILES IDX 15 14 10 15
REMARK H PARENT 10 16
REMARK Flexibility Score: inf
ROOT
ATOM      1  C   UNL     1      24.503   0.023  33.634  1.00  0.00    -0.041 A 
ATOM      2  C   UNL     1      24.729  -0.928  34.672  1.00  0.00    -0.003 A 
ATOM      3  C   UNL     1      23.758  -1.078  35.689  1.00  0.00     0.119 A 
ATOM      4  C   UNL     1      22.576  -0.329  35.654  1.00  0.00     0.046 A 
ATOM      5  C   UNL     1      22.351   0.583  34.627  1.00  0.00     0.004 A 
ATOM      6  C   UNL     1      23.305   0.760  33.629  1.00  0.00     0.004 A 
ENDROOT
BRANCH   1   7
ATOM      7  C   UNL     1      25.490   0.282  32.509  1.00  0.00     0.036 C 
BRANCH   7   8
ATOM      8  C   UNL     1      25.963   1.744  32.476  1.00  0.00     0.004 C 
BRANCH   8   9
ATOM      9  C   UNL     1      27.068   2.029  33.501  1.00  0.00    -0.003 C 
ATOM     10  C   UNL     1      26.523   2.812  34.692  1.00  0.00     0.004 C 
ENDBRANCH   8   9
ENDBRANCH   7   8
ENDBRANCH   1   7
BRANCH   2  11
ATOM     11  C   UNL     1      26.008  -1.737  34.759  1.00  0.00     0.040 C 
BRANCH  11  12
ATOM     12  C   UNL     1      27.033  -1.032  35.660  1.00  0.00     0.005 C 
BRANCH  12  13
ATOM     13  C   UNL     1      27.883  -2.022  36.470  1.00  0.00    -0.003 C 
ATOM     14  C   UNL     1      27.334  -2.257  37.877  1.00  0.00     0.004 C 
ENDBRANCH  12  13
ENDBRANCH  11  12
ENDBRANCH   2  11
BRANCH   3  15
ATOM     15  O   UNL     1      23.972  -1.970  36.740  1.00  0.00    -0.508 OA
ATOM     16  H   UNL     1      23.205  -2.349  37.284  1.00  0.00     0.293 HD
ENDBRANCH   3  15
TORSDOF 7
ENDMDL
MODEL 2
REMARK VINA RESULT:    -4.134      2.170      3.570
REMARK INTER + INTRA:          -6.799
REMARK INTER:                  -5.654
REMARK INTRA:                  -1.144
REMARK UNBOUND:                -1.094
REMARK SMILES CCCCc1cccc(O)c1CCCC
REMARK SMILES IDX 5 1 11 2 9 3 8 4 7 5 6 6 4 7 3 8 2 9 1 10 12 11 13 12 14 13
REMARK SMILES IDX 15 14 10 15
REMARK H PARENT 10 16
REMARK Flexibility Score: inf
ROOT
ATOM      1  C   UNL     1      24.789  -0.088  33.790  1.00  0.00    -0.041 A 
ATOM      2  C   UNL     1      23.486  -0.398  34.277  1.00  0.00    -0.003 A 
ATOM      3  C   UNL     1      23.119  -1.753  34.448  1.00  0.00     0.119 A 
ATOM      4  C   UNL     1      24.039  -2.773  34.177  1.00  0.00     0.046 A 
ATOM      5  C   UNL     1      25.318  -2.465  33.722  1.00  0.00     0.004 A 
ATOM      6  C   UNL     1      25.689  -1.137  33.527  1.00  0.00     0.004 A 
ENDROOT
BRANCH   1   7
ATOM      7  C   UNL     1      25.274   1.330  33.546  1.00  0.00     0.036 C 
BRANCH   7   8
ATOM      8  C   UNL     1      25.539   1.606  32.058  1.00  0.00     0.004 C 
BRANCH   8   9
ATOM      9  C   UNL     1      24.246   1.760  31.248  1.00  0.00    -0.003 C 
ATOM     10  C   UNL     1      23.434   2.958  31.732  1.00  0.00     0.004 C 
ENDBRANCH   8   9
ENDBRANCH   7   8
ENDBRANCH   1   7
BRANCH   2  11
ATOM     11  C   UNL     1      22.453   0.677  34.556  1.00  0.00     0.040 C 
BRANCH  11  12
ATOM     12  C   UNL     1      22.368   0.968  36.062  1.00  0.00     0.005 C 
BRANCH  12  13
ATOM     13  C   UNL     1      23.286   2.121  36.491  1.00  0.00    -0.003 C 
ATOM     14  C   UNL     1      24.534   1.637  37.229  1.00  0.00     0.004 C 
ENDBRANCH  12  13
ENDBRANCH  11  12
ENDBRANCH   2  11
BRANCH   3  15
ATOM     15  O   UNL     1      21.836  -2.087  34.883  1.00  0.00    -0.508 OA
ATOM     16  H   UNL     1      21.215  -1.398  35.291  1.00  0.00     0.293 HD
ENDBRANCH   3  15
TORSDOF 7
ENDMDL
MODEL 3
REMARK VINA RESULT:    -4.126      2.246      4.387
REMARK INTER + INTRA:          -6.788
REMARK INTER:                  -5.670
REMARK INTRA:                  -1.118
REMARK UNBOUND:                -1.094
REMARK SMILES CCCCc1cccc(O)c1CCCC
REMARK SMILES IDX 5 1 11 2 9 3 8 4 7 5 6 6 4 7 3 8 2 9 1 10 12 11 13 12 14 13
REMARK SMILES IDX 15 14 10 15
REMARK H PARENT 10 16
REMARK Flexibility Score: inf
ROOT
ATOM      1  C   UNL     1      24.475   0.198  33.595  1.00  0.00    -0.041 A 
ATOM      2  C   UNL     1      23.246  -0.213  34.187  1.00  0.00    -0.003 A 
ATOM      3  C   UNL     1      23.072  -1.573  34.537  1.00  0.00     0.119 A 
ATOM      4  C   UNL     1      24.109  -2.491  34.338  1.00  0.00     0.046 A 
ATOM      5  C   UNL     1      25.315  -2.080  33.779  1.00  0.00     0.004 A 
ATOM      6  C   UNL     1      25.497  -0.750  33.408  1.00  0.00     0.004 A 
ENDROOT
BRANCH   1   7
ATOM      7  C   UNL     1      24.756   1.626  33.159  1.00  0.00     0.036 C 
BRANCH   7   8
ATOM      8  C   UNL     1      24.565   1.820  31.647  1.00  0.00     0.004 C 
BRANCH   8   9
ATOM      9  C   UNL     1      23.242   2.516  31.305  1.00  0.00    -0.003 C 
ATOM     10  C   UNL     1      22.768   2.139  29.905  1.00  0.00     0.004 C 
ENDBRANCH   8   9
ENDBRANCH   7   8
ENDBRANCH   1   7
BRANCH   2  11
ATOM     11  C   UNL     1      22.090   0.746  34.394  1.00  0.00     0.040 C 
BRANCH  11  12
ATOM     12  C   UNL     1      22.146   1.367  35.798  1.00  0.00     0.005 C 
BRANCH  12  13
ATOM     13  C   UNL     1      22.418   2.878  35.763  1.00  0.00    -0.003 C 
ATOM     14  C   UNL     1      21.785   3.563  34.551  1.00  0.00     0.004 C 
ENDBRANCH  12  13
ENDBRANCH  11  12
ENDBRANCH   2  11
BRANCH   3  15
ATOM     15  O   UNL     1      21.864  -2.011  35.078  1.00  0.00    -0.508 OA
ATOM     16  H   UNL     1      21.396  -1.504  35.820  1.00  0.00     0.293 HD
ENDBRANCH   3  15
TORSDOF 7
ENDMDL
MODEL 4
REMARK VINA RESULT:    -4.094      2.000      2.995
REMARK INTER + INTRA:          -6.743
REMARK INTER:                  -5.324
REMARK INTRA:                  -1.420
REMARK UNBOUND:                -1.094
REMARK SMILES CCCCc1cccc(O)c1CCCC
REMARK SMILES IDX 5 1 11 2 9 3 8 4 7 5 6 6 4 7 3 8 2 9 1 10 12 11 13 12 14 13
REMARK SMILES IDX 15 14 10 15
REMARK H PARENT 10 16
REMARK Flexibility Score: inf
ROOT
ATOM      1  C   UNL     1      25.202   1.148  35.740  1.00  0.00    -0.041 A 
ATOM      2  C   UNL     1      24.252   0.192  36.205  1.00  0.00    -0.003 A 
ATOM      3  C   UNL     1      23.160   0.632  36.988  1.00  0.00     0.119 A 
ATOM      4  C   UNL     1      22.996   1.993  37.269  1.00  0.00     0.046 A 
ATOM      5  C   UNL     1      23.913   2.926  36.795  1.00  0.00     0.004 A 
ATOM      6  C   UNL     1      25.008   2.508  36.041  1.00  0.00     0.004 A 
ENDROOT
BRANCH   1   7
ATOM      7  C   UNL     1      26.423   0.780  34.917  1.00  0.00     0.036 C 
BRANCH   7   8
ATOM      8  C   UNL     1      26.430   1.471  33.544  1.00  0.00     0.004 C 
BRANCH   8   9
ATOM      9  C   UNL     1      25.528   0.765  32.525  1.00  0.00    -0.003 C 
ATOM     10  C   UNL     1      24.288   1.599  32.218  1.00  0.00     0.004 C 
ENDBRANCH   8   9
ENDBRANCH   7   8
ENDBRANCH   1   7
BRANCH   2  11
ATOM     11  C   UNL     1      24.411  -1.294  35.945  1.00  0.00     0.040 C 
BRANCH  11  12
ATOM     12  C   UNL     1      23.678  -1.699  34.657  1.00  0.00     0.005 C 
BRANCH  12  13
ATOM     13  C   UNL     1      24.360  -2.870  33.935  1.00  0.00    -0.003 C 
ATOM     14  C   UNL     1      25.881  -2.723  33.880  1.00  0.00     0.004 C 
ENDBRANCH  12  13
ENDBRANCH  11  12
ENDBRANCH   2  11
BRANCH   3  15
ATOM     15  O   UNL     1      22.239  -0.287  37.492  1.00  0.00    -0.508 OA
ATOM     16  H   UNL     1      21.979  -1.119  36.976  1.00  0.00     0.293 HD
ENDBRANCH   3  15
TORSDOF 7
ENDMDL
MODEL 5
REMARK VINA RESULT:    -4.034      1.997      3.937
REMARK INTER + INTRA:          -6.661
REMARK INTER:                  -5.368
REMARK INTRA:                  -1.293
REMARK UNBOUND:                -1.094
REMARK SMILES CCCCc1cccc(O)c1CCCC
REMARK SMILES IDX 5 1 11 2 9 3 8 4 7 5 6 6 4 7 3 8 2 9 1 10 12 11 13 12 14 13
REMARK SMILES IDX 15 14 10 15
REMARK H PARENT 10 16
REMARK Flexibility Score: inf
ROOT
ATOM      1  C   UNL     1      24.597  -0.755  33.739  1.00  0.00    -0.041 A 
ATOM      2  C   UNL     1      23.365  -0.102  34.036  1.00  0.00    -0.003 A 
ATOM      3  C   UNL     1      23.097   1.158  33.450  1.00  0.00     0.119 A 
ATOM      4  C   UNL     1      24.013   1.733  32.562  1.00  0.00     0.046 A 
ATOM      5  C   UNL     1      25.204   1.082  32.259  1.00  0.00     0.004 A 
ATOM      6  C   UNL     1      25.496  -0.148  32.844  1.00  0.00     0.004 A 
ENDROOT
BRANCH   1   7
ATOM      7  C   UNL     1      24.996  -2.094  34.333  1.00  0.00     0.036 C 
BRANCH   7   8
ATOM      8  C   UNL     1      26.384  -2.048  34.992  1.00  0.00     0.004 C 
BRANCH   8   9
ATOM      9  C   UNL     1      26.398  -1.215  36.279  1.00  0.00    -0.003 C 
ATOM     10  C   UNL     1      27.352  -0.031  36.158  1.00  0.00     0.004 C 
ENDBRANCH   8   9
ENDBRANCH   7   8
ENDBRANCH   1   7
BRANCH   2  11
ATOM     11  C   UNL     1      22.361  -0.681  35.013  1.00  0.00     0.040 C 
BRANCH  11  12
ATOM     12  C   UNL     1      22.865  -0.535  36.457  1.00  0.00     0.005 C 
BRANCH  12  13
ATOM     13  C   UNL     1      22.692   0.892  36.999  1.00  0.00    -0.003 C 
ATOM     14  C   UNL     1      24.023   1.628  37.155  1.00  0.00     0.004 C 
ENDBRANCH  12  13
ENDBRANCH  11  12
ENDBRANCH   2  11
BRANCH   3  15
ATOM     15  O   UNL     1      21.919   1.839  33.756  1.00  0.00    -0.508 OA
ATOM     16  H   UNL     1      21.713   2.752  33.366  1.00  0.00     0.293 HD
ENDBRANCH   3  15
TORSDOF 7
ENDMDL
MODEL 6
REMARK VINA RESULT:    -4.002      2.008      3.640
REMARK INTER + INTRA:          -6.617
REMARK INTER:                  -5.395
REMARK INTRA:                  -1.222
REMARK UNBOUND:                -1.094
REMARK SMILES CCCCc1cccc(O)c1CCCC
REMARK SMILES IDX 5 1 11 2 9 3 8 4 7 5 6 6 4 7 3 8 2 9 1 10 12 11 13 12 14 13
REMARK SMILES IDX 15 14 10 15
REMARK H PARENT 10 16
REMARK Flexibility Score: inf
ROOT
ATOM      1  C   UNL     1      23.138   0.683  33.847  1.00  0.00    -0.041 A 
ATOM      2  C   UNL     1      24.046  -0.408  33.976  1.00  0.00    -0.003 A 
ATOM      3  C   UNL     1      25.220  -0.422  33.187  1.00  0.00     0.119 A 
ATOM      4  C   UNL     1      25.502   0.641  32.321  1.00  0.00     0.046 A 
ATOM      5  C   UNL     1      24.623   1.715  32.215  1.00  0.00     0.004 A 
ATOM      6  C   UNL     1      23.451   1.735  32.967  1.00  0.00     0.004 A 
ENDROOT
BRANCH   1   7
ATOM      7  C   UNL     1      21.838   0.785  34.625  1.00  0.00     0.036 C 
BRANCH   7   8
ATOM      8  C   UNL     1      21.737   2.094  35.423  1.00  0.00     0.004 C 
BRANCH   8   9
ATOM      9  C   UNL     1      22.710   2.138  36.608  1.00  0.00    -0.003 C 
ATOM     10  C   UNL     1      22.035   1.664  37.891  1.00  0.00     0.004 C 
ENDBRANCH   8   9
ENDBRANCH   7   8
ENDBRANCH   1   7
BRANCH   2  11
ATOM     11  C   UNL     1      23.762  -1.590  34.882  1.00  0.00     0.040 C 
BRANCH  11  12
ATOM     12  C   UNL     1      24.046  -1.228  36.348  1.00  0.00     0.005 C 
BRANCH  12  13
ATOM     13  C   UNL     1      25.547  -1.098  36.641  1.00  0.00    -0.003 C 
ATOM     14  C   UNL     1      25.946   0.319  37.053  1.00  0.00     0.004 C 
ENDBRANCH  12  13
ENDBRANCH  11  12
ENDBRANCH   2  11
BRANCH   3  15
ATOM     15  O   UNL     1      26.105  -1.497  33.261  1.00  0.00    -0.508 OA
ATOM     16  H   UNL     1      26.782  -1.581  34.010  1.00  0.00     0.293 HD
ENDBRANCH   3  15
TORSDOF 7
ENDMDL
MODEL 7
REMARK VINA RESULT:    -3.971      2.138      3.146
REMARK INTER + INTRA:          -6.574
REMARK INTER:                  -5.486
REMARK INTRA:                  -1.088
REMARK UNBOUND:                -1.094
REMARK SMILES CCCCc1cccc(O)c1CCCC
REMARK SMILES IDX 5 1 11 2 9 3 8 4 7 5 6 6 4 7 3 8 2 9 1 10 12 11 13 12 14 13
REMARK SMILES IDX 15 14 10 15
REMARK H PARENT 10 16
REMARK Flexibility Score: inf
ROOT
ATOM      1  C   UNL     1      22.465   1.564  34.557  1.00  0.00    -0.041 A 
ATOM      2  C   UNL     1      22.382   0.456  35.449  1.00  0.00    -0.003 A 
ATOM      3  C   UNL     1      22.228   0.698  36.834  1.00  0.00     0.119 A 
ATOM      4  C   UNL     1      22.122   2.009  37.314  1.00  0.00     0.046 A 
ATOM      5  C   UNL     1      22.183   3.087  36.437  1.00  0.00     0.004 A 
ATOM      6  C   UNL     1      22.356   2.868  35.072  1.00  0.00     0.004 A 
ENDROOT
BRANCH   1   7
ATOM      7  C   UNL     1      22.657   1.417  33.058  1.00  0.00     0.036 C 
BRANCH   7   8
ATOM      8  C   UNL     1      23.638   2.456  32.491  1.00  0.00     0.004 C 
BRANCH   8   9
ATOM      9  C   UNL     1      25.103   2.036  32.661  1.00  0.00    -0.003 C 
ATOM     10  C   UNL     1      25.328   0.612  32.161  1.00  0.00     0.004 C 
ENDBRANCH   8   9
ENDBRANCH   7   8
ENDBRANCH   1   7
BRANCH   2  11
ATOM     11  C   UNL     1      22.520  -0.976  34.971  1.00  0.00     0.040 C 
BRANCH  11  12
ATOM     12  C   UNL     1      23.995  -1.408  34.976  1.00  0.00     0.005 C 
BRANCH  12  13
ATOM     13  C   UNL     1      24.266  -2.590  34.035  1.00  0.00    -0.003 C 
ATOM     14  C   UNL     1      25.758  -2.833  33.807  1.00  0.00     0.004 C 
ENDBRANCH  12  13
ENDBRANCH  11  12
ENDBRANCH   2  11
BRANCH   3  15
ATOM     15  O   UNL     1      22.187  -0.366  37.735  1.00  0.00    -0.508 OA
ATOM     16  H   UNL     1      22.105  -1.327  37.423  1.00  0.00     0.293 HD
ENDBRANCH   3  15
TORSDOF 7
ENDMDL
MODEL 8
REMARK VINA RESULT:    -3.918      1.902      3.881
REMARK INTER + INTRA:          -6.501
REMARK INTER:                  -5.197
REMARK INTRA:                  -1.304
REMARK UNBOUND:                -1.094
REMARK SMILES CCCCc1cccc(O)c1CCCC
REMARK SMILES IDX 5 1 11 2 9 3 8 4 7 5 6 6 4 7 3 8 2 9 1 10 12 11 13 12 14 13
REMARK SMILES IDX 15 14 10 15
REMARK H PARENT 10 16
REMARK Flexibility Score: inf
ROOT
ATOM      1  C   UNL     1      25.493  -1.108  35.908  1.00  0.00    -0.041 A 
ATOM      2  C   UNL     1      24.070  -1.143  35.847  1.00  0.00    -0.003 A 
ATOM      3  C   UNL     1      23.443  -1.910  34.836  1.00  0.00     0.119 A 
ATOM      4  C   UNL     1      24.214  -2.653  33.934  1.00  0.00     0.046 A 
ATOM      5  C   UNL     1      25.603  -2.632  34.011  1.00  0.00     0.004 A 
ATOM      6  C   UNL     1      26.237  -1.865  34.985  1.00  0.00     0.004 A 
ENDROOT
BRANCH   1   7
ATOM      7  C   UNL     1      26.266  -0.298  36.934  1.00  0.00     0.036 C 
BRANCH   7   8
ATOM      8  C   UNL     1      27.359   0.568  36.288  1.00  0.00     0.004 C 
BRANCH   8   9
ATOM      9  C   UNL     1      26.793   1.824  35.614  1.00  0.00    -0.003 C 
ATOM     10  C   UNL     1      26.854   1.706  34.094  1.00  0.00     0.004 C 
ENDBRANCH   8   9
ENDBRANCH   7   8
ENDBRANCH   1   7
BRANCH   2  11
ATOM     11  C   UNL     1      23.203  -0.331  36.788  1.00  0.00     0.040 C 
BRANCH  11  12
ATOM     12  C   UNL     1      22.988   1.087  36.238  1.00  0.00     0.005 C 
BRANCH  12  13
ATOM     13  C   UNL     1      22.766   2.123  37.350  1.00  0.00    -0.003 C 
ATOM     14  C   UNL     1      24.070   2.555  38.022  1.00  0.00     0.004 C 
ENDBRANCH  12  13
ENDBRANCH  11  12
ENDBRANCH   2  11
BRANCH   3  15
ATOM     15  O   UNL     1      22.053  -1.928  34.727  1.00  0.00    -0.508 OA
ATOM     16  H   UNL     1      21.579  -2.516  34.051  1.00  0.00     0.293 HD
ENDBRANCH   3  15
TORSDOF 7
ENDMDL
MODEL 9
REMARK VINA RESULT:    -3.906      2.032      4.059
REMARK INTER + INTRA:          -6.484
REMARK INTER:                  -4.988
REMARK INTRA:                  -1.496
REMARK UNBOUND:                -1.094
REMARK SMILES CCCCc1cccc(O)c1CCCC
REMARK SMILES IDX 5 1 11 2 9 3 8 4 7 5 6 6 4 7 3 8 2 9 1 10 12 11 13 12 14 13
REMARK SMILES IDX 15 14 10 15
REMARK H PARENT 10 16
REMARK Flexibility Score: inf
ROOT
ATOM      1  C   UNL     1      24.569   0.268  34.061  1.00  0.00    -0.041 A 
ATOM      2  C   UNL     1      23.310  -0.229  34.507  1.00  0.00    -0.003 A 
ATOM      3  C   UNL     1      23.090  -1.626  34.523  1.00  0.00     0.119 A 
ATOM      4  C   UNL     1      24.109  -2.507  34.142  1.00  0.00     0.046 A 
ATOM      5  C   UNL     1      25.344  -2.017  33.728  1.00  0.00     0.004 A 
ATOM      6  C   UNL     1      25.572  -0.644  33.684  1.00  0.00     0.004 A 
ENDROOT
BRANCH   1   7
ATOM      7  C   UNL     1      24.902   1.748  33.979  1.00  0.00     0.036 C 
BRANCH   7   8
ATOM      8  C   UNL     1      26.056   2.138  34.914  1.00  0.00     0.004 C 
BRANCH   8   9
ATOM      9  C   UNL     1      25.579   2.462  36.335  1.00  0.00    -0.003 C 
ATOM     10  C   UNL     1      25.842   1.295  37.282  1.00  0.00     0.004 C 
ENDBRANCH   8   9
ENDBRANCH   7   8
ENDBRANCH   1   7
BRANCH   2  11
ATOM     11  C   UNL     1      22.173   0.693  34.901  1.00  0.00     0.040 C 
BRANCH  11  12
ATOM     12  C   UNL     1      22.201   0.971  36.412  1.00  0.00     0.005 C 
BRANCH  12  13
ATOM     13  C   UNL     1      21.855   2.428  36.749  1.00  0.00    -0.003 C 
ATOM     14  C   UNL     1      21.949   3.352  35.534  1.00  0.00     0.004 C 
ENDBRANCH  12  13
ENDBRANCH  11  12
ENDBRANCH   2  11
BRANCH   3  15
ATOM     15  O   UNL     1      21.853  -2.139  34.914  1.00  0.00    -0.508 OA
ATOM     16  H   UNL     1      21.695  -2.497  35.849  1.00  0.00     0.293 HD
ENDBRANCH   3  15
TORSDOF 7
ENDMDL
