MODEL 1
REMARK VINA RESULT:    -4.153      0.000      0.000
REMARK INTER + INTRA:          -8.599
REMARK INTER:                  -7.309
REMARK INTRA:                  -1.289
REMARK UNBOUND:                -1.289
REMARK SMILES CCCCCCCCCCCCCCC(=O)[O-]
REMARK SMILES IDX 9 1 10 2 11 3 12 4 13 5 14 6 15 7 16 8 17 9 8 10 7 11 6 12
REMARK SMILES IDX 5 13 4 14 3 15 2 16 1 17
REMARK H PARENT
REMARK Flexibility Score: inf
ROOT
ATOM      1  C   UNL     1       7.267  -2.460  -8.610  1.00  0.00     0.000 C 
ENDROOT
BRANCH   1   2
ATOM      2  C   UNL     1       7.725  -2.629  -7.151  1.00  0.00     0.000 C 
BRANCH   2   3
ATOM      3  C   UNL     1       8.904  -3.617  -7.020  1.00  0.00     0.000 C 
BRANCH   3   4
ATOM      4  C   UNL     1       8.565  -5.049  -7.472  1.00  0.00     0.000 C 
BRANCH   4   5
ATOM      5  C   UNL     1       8.323  -6.050  -6.327  1.00  0.00     0.006 C 
BRANCH   5   6
ATOM      6  C   UNL     1       6.894  -6.028  -5.760  1.00  0.00     0.053 C 
BRANCH   6   7
ATOM      7  C   UNL     1       6.158  -7.301  -6.046  1.00  0.00     0.041 C 
ATOM      8  O   UNL     1       6.679  -8.412  -5.766  1.00  0.00    -0.550 OA
ATOM      9  O   UNL     1       4.909  -7.261  -6.654  1.00  0.00    -0.550 OA
ENDBRANCH   6   7
ENDBRANCH   5   6
ENDBRANCH   4   5
ENDBRANCH   3   4
ENDBRANCH   2   3
ENDBRANCH   1   2
BRANCH   1  10
ATOM     10  C   UNL     1       5.743  -2.579  -8.772  1.00  0.00     0.000 C 
BRANCH  10  11
ATOM     11  C   UNL     1       5.277  -4.032  -8.955  1.00  0.00    -0.000 C 
BRANCH  11  12
ATOM     12  C   UNL     1       4.248  -4.417  -7.882  1.00  0.00    -0.000 C 
BRANCH  12  13
ATOM     13  C   UNL     1       4.190  -3.411  -6.720  1.00  0.00    -0.000 C 
BRANCH  13  14
ATOM     14  C   UNL     1       3.150  -3.734  -5.629  1.00  0.00    -0.000 C 
BRANCH  14  15
ATOM     15  C   UNL     1       2.707  -2.534  -4.768  1.00  0.00    -0.000 C 
BRANCH  15  16
ATOM     16  C   UNL     1       1.874  -2.903  -3.527  1.00  0.00    -0.003 C 
ATOM     17  C   UNL     1       2.547  -2.497  -2.217  1.00  0.00     0.004 C 
ENDBRANCH  15  16
ENDBRANCH  14  15
ENDBRANCH  13  14
ENDBRANCH  12  13
ENDBRANCH  11  12
ENDBRANCH  10  11
ENDBRANCH   1  10
TORSDOF 13
ENDMDL
MODEL 2
REMARK VINA RESULT:    -4.015      2.406      3.557
REMARK INTER + INTRA:          -8.355
REMARK INTER:                  -6.778
REMARK INTRA:                  -1.578
REMARK UNBOUND:                -1.289
REMARK SMILES CCCCCCCCCCCCCCC(=O)[O-]
REMARK SMILES IDX 9 1 10 2 11 3 12 4 13 5 14 6 15 7 16 8 17 9 8 10 7 11 6 12
REMARK SMILES IDX 5 13 4 14 3 15 2 16 1 17
REMARK H PARENT
REMARK Flexibility Score: inf
ROOT
ATOM      1  C   UNL     1       5.833  -7.175  -7.290  1.00  0.00     0.000 C 
ENDROOT
BRANCH   1   2
ATOM      2  C   UNL     1       6.034  -6.497  -5.925  1.00  0.00     0.000 C 
BRANCH   2   3
ATOM      3  C   UNL     1       7.501  -6.079  -5.690  1.00  0.00     0.000 C 
BRANCH   3   4
ATOM      4  C   UNL     1       8.271  -5.767  -6.987  1.00  0.00     0.000 C 
BRANCH   4   5
ATOM      5  C   UNL     1       8.872  -4.351  -7.059  1.00  0.00     0.006 C 
BRANCH   5   6
ATOM      6  C   UNL     1       7.831  -3.220  -7.011  1.00  0.00     0.053 C 
BRANCH   6   7
ATOM      7  C   UNL     1       7.917  -2.328  -8.212  1.00  0.00     0.041 C 
ATOM      8  O   UNL     1       9.024  -1.844  -8.564  1.00  0.00    -0.550 OA
ATOM      9  O   UNL     1       6.768  -2.004  -8.922  1.00  0.00    -0.550 OA
ENDBRANCH   6   7
ENDBRANCH   5   6
ENDBRANCH   4   5
ENDBRANCH   3   4
ENDBRANCH   2   3
ENDBRANCH   1   2
BRANCH   1  10
ATOM     10  C   UNL     1       4.664  -6.573  -8.087  1.00  0.00     0.000 C 
BRANCH  10  11
ATOM     11  C   UNL     1       4.882  -5.092  -8.433  1.00  0.00    -0.000 C 
BRANCH  11  12
ATOM     12  C   UNL     1       3.765  -4.220  -7.841  1.00  0.00    -0.000 C 
BRANCH  12  13
ATOM     13  C   UNL     1       4.254  -3.321  -6.692  1.00  0.00    -0.000 C 
BRANCH  13  14
ATOM     14  C   UNL     1       3.620  -3.615  -5.318  1.00  0.00    -0.000 C 
BRANCH  14  15
ATOM     15  C   UNL     1       2.546  -2.608  -4.861  1.00  0.00    -0.000 C 
BRANCH  15  16
ATOM     16  C   UNL     1       1.828  -2.980  -3.551  1.00  0.00    -0.003 C 
ATOM     17  C   UNL     1       2.587  -2.522  -2.306  1.00  0.00     0.004 C 
ENDBRANCH  15  16
ENDBRANCH  14  15
ENDBRANCH  13  14
ENDBRANCH  12  13
ENDBRANCH  11  12
ENDBRANCH  10  11
ENDBRANCH   1  10
TORSDOF 13
ENDMDL
MODEL 3
REMARK VINA RESULT:    -3.916      2.186      5.382
REMARK INTER + INTRA:          -8.182
REMARK INTER:                  -6.246
REMARK INTRA:                  -1.936
REMARK UNBOUND:                -1.289
REMARK SMILES CCCCCCCCCCCCCCC(=O)[O-]
REMARK SMILES IDX 9 1 10 2 11 3 12 4 13 5 14 6 15 7 16 8 17 9 8 10 7 11 6 12
REMARK SMILES IDX 5 13 4 14 3 15 2 16 1 17
REMARK H PARENT
REMARK Flexibility Score: inf
ROOT
ATOM      1  C   UNL     1       4.496  -3.704  -6.709  1.00  0.00     0.000 C 
ENDROOT
BRANCH   1   2
ATOM      2  C   UNL     1       5.108  -2.879  -7.853  1.00  0.00     0.000 C 
BRANCH   2   3
ATOM      3  C   UNL     1       4.727  -3.433  -9.242  1.00  0.00     0.000 C 
BRANCH   3   4
ATOM      4  C   UNL     1       3.396  -4.207  -9.257  1.00  0.00     0.000 C 
BRANCH   4   5
ATOM      5  C   UNL     1       3.502  -5.670  -9.728  1.00  0.00     0.006 C 
BRANCH   5   6
ATOM      6  C   UNL     1       4.752  -6.408  -9.221  1.00  0.00     0.053 C 
BRANCH   6   7
ATOM      7  C   UNL     1       4.468  -7.206  -7.986  1.00  0.00     0.041 C 
ATOM      8  O   UNL     1       3.303  -7.247  -7.510  1.00  0.00    -0.550 OA
ATOM      9  O   UNL     1       5.499  -7.878  -7.340  1.00  0.00    -0.550 OA
ENDBRANCH   6   7
ENDBRANCH   5   6
ENDBRANCH   4   5
ENDBRANCH   3   4
ENDBRANCH   2   3
ENDBRANCH   1   2
BRANCH   1  10
ATOM     10  C   UNL     1       5.553  -4.468  -5.895  1.00  0.00     0.000 C 
BRANCH  10  11
ATOM     11  C   UNL     1       6.989  -4.060  -6.258  1.00  0.00    -0.000 C 
BRANCH  11  12
ATOM     12  C   UNL     1       7.797  -5.272  -6.743  1.00  0.00    -0.000 C 
BRANCH  12  13
ATOM     13  C   UNL     1       9.131  -4.877  -7.401  1.00  0.00    -0.000 C 
BRANCH  13  14
ATOM     14  C   UNL     1       9.501  -3.386  -7.279  1.00  0.00    -0.000 C 
BRANCH  14  15
ATOM     15  C   UNL     1       9.755  -2.660  -8.616  1.00  0.00    -0.000 C 
BRANCH  15  16
ATOM     16  C   UNL     1       8.622  -2.796  -9.649  1.00  0.00    -0.003 C 
ATOM     17  C   UNL     1       7.917  -1.470  -9.935  1.00  0.00     0.004 C 
ENDBRANCH  15  16
ENDBRANCH  14  15
ENDBRANCH  13  14
ENDBRANCH  12  13
ENDBRANCH  11  12
ENDBRANCH  10  11
ENDBRANCH   1  10
TORSDOF 13
ENDMDL
MODEL 4
REMARK VINA RESULT:    -3.898      2.655      4.034
REMARK INTER + INTRA:          -8.151
REMARK INTER:                  -6.269
REMARK INTRA:                  -1.881
REMARK UNBOUND:                -1.289
REMARK SMILES CCCCCCCCCCCCCCC(=O)[O-]
REMARK SMILES IDX 9 1 10 2 11 3 12 4 13 5 14 6 15 7 16 8 17 9 8 10 7 11 6 12
REMARK SMILES IDX 5 13 4 14 3 15 2 16 1 17
REMARK H PARENT
REMARK Flexibility Score: inf
ROOT
ATOM      1  C   UNL     1       6.270  -6.637  -5.993  1.00  0.00     0.000 C 
ENDROOT
BRANCH   1   2
ATOM      2  C   UNL     1       7.695  -6.092  -5.795  1.00  0.00     0.000 C 
BRANCH   2   3
ATOM      3  C   UNL     1       8.442  -5.909  -7.134  1.00  0.00     0.000 C 
BRANCH   3   4
ATOM      4  C   UNL     1       9.318  -4.644  -7.186  1.00  0.00     0.000 C 
BRANCH   4   5
ATOM      5  C   UNL     1       8.554  -3.338  -7.477  1.00  0.00     0.006 C 
BRANCH   5   6
ATOM      6  C   UNL     1       7.980  -3.246  -8.900  1.00  0.00     0.053 C 
BRANCH   6   7
ATOM      7  C   UNL     1       7.500  -1.865  -9.223  1.00  0.00     0.041 C 
ATOM      8  O   UNL     1       8.243  -0.870  -9.015  1.00  0.00    -0.550 OA
ATOM      9  O   UNL     1       6.217  -1.672  -9.722  1.00  0.00    -0.550 OA
ENDBRANCH   6   7
ENDBRANCH   5   6
ENDBRANCH   4   5
ENDBRANCH   3   4
ENDBRANCH   2   3
ENDBRANCH   1   2
BRANCH   1  10
ATOM     10  C   UNL     1       5.998  -7.074  -7.441  1.00  0.00     0.000 C 
BRANCH  10  11
ATOM     11  C   UNL     1       4.650  -6.562  -7.972  1.00  0.00    -0.000 C 
BRANCH  11  12
ATOM     12  C   UNL     1       4.835  -5.271  -8.783  1.00  0.00    -0.000 C 
BRANCH  12  13
ATOM     13  C   UNL     1       4.068  -4.077  -8.189  1.00  0.00    -0.000 C 
BRANCH  13  14
ATOM     14  C   UNL     1       4.738  -3.414  -6.969  1.00  0.00    -0.000 C 
BRANCH  14  15
ATOM     15  C   UNL     1       4.098  -3.749  -5.607  1.00  0.00    -0.000 C 
BRANCH  15  16
ATOM     16  C   UNL     1       2.696  -3.153  -5.389  1.00  0.00    -0.003 C 
ATOM     17  C   UNL     1       2.451  -2.720  -3.943  1.00  0.00     0.004 C 
ENDBRANCH  15  16
ENDBRANCH  14  15
ENDBRANCH  13  14
ENDBRANCH  12  13
ENDBRANCH  11  12
ENDBRANCH  10  11
ENDBRANCH   1  10
TORSDOF 13
ENDMDL
MODEL 5
REMARK VINA RESULT:    -3.895      2.587      4.898
REMARK INTER + INTRA:          -8.145
REMARK INTER:                  -5.649
REMARK INTRA:                  -2.496
REMARK UNBOUND:                -1.289
REMARK SMILES CCCCCCCCCCCCCCC(=O)[O-]
REMARK SMILES IDX 9 1 10 2 11 3 12 4 13 5 14 6 15 7 16 8 17 9 8 10 7 11 6 12
REMARK SMILES IDX 5 13 4 14 3 15 2 16 1 17
REMARK H PARENT
REMARK Flexibility Score: inf
ROOT
ATOM      1  C   UNL     1       6.519  -3.041  -7.653  1.00  0.00     0.000 C 
ENDROOT
BRANCH   1   2
ATOM      2  C   UNL     1       6.803  -2.613  -9.103  1.00  0.00     0.000 C 
BRANCH   2   3
ATOM      3  C   UNL     1       6.541  -3.753 -10.110  1.00  0.00     0.000 C 
BRANCH   3   4
ATOM      4  C   UNL     1       5.906  -5.005  -9.477  1.00  0.00     0.000 C 
BRANCH   4   5
ATOM      5  C   UNL     1       4.442  -5.264  -9.881  1.00  0.00     0.006 C 
BRANCH   5   6
ATOM      6  C   UNL     1       3.407  -4.556  -8.991  1.00  0.00     0.053 C 
BRANCH   6   7
ATOM      7  C   UNL     1       3.384  -5.119  -7.603  1.00  0.00     0.041 C 
ATOM      8  O   UNL     1       3.335  -4.350  -6.608  1.00  0.00    -0.550 OA
ATOM      9  O   UNL     1       3.450  -6.493  -7.408  1.00  0.00    -0.550 OA
ENDBRANCH   6   7
ENDBRANCH   5   6
ENDBRANCH   4   5
ENDBRANCH   3   4
ENDBRANCH   2   3
ENDBRANCH   1   2
BRANCH   1  10
ATOM     10  C   UNL     1       7.743  -2.883  -6.737  1.00  0.00     0.000 C 
BRANCH  10  11
ATOM     11  C   UNL     1       9.068  -2.862  -7.514  1.00  0.00    -0.000 C 
BRANCH  11  12
ATOM     12  C   UNL     1       9.846  -4.170  -7.307  1.00  0.00    -0.000 C 
BRANCH  12  13
ATOM     13  C   UNL     1       9.568  -5.211  -8.406  1.00  0.00    -0.000 C 
BRANCH  13  14
ATOM     14  C   UNL     1       9.044  -6.569  -7.899  1.00  0.00    -0.000 C 
BRANCH  14  15
ATOM     15  C   UNL     1       8.448  -6.554  -6.477  1.00  0.00    -0.000 C 
BRANCH  15  16
ATOM     16  C   UNL     1       6.914  -6.662  -6.419  1.00  0.00    -0.003 C 
ATOM     17  C   UNL     1       6.307  -5.886  -5.250  1.00  0.00     0.004 C 
ENDBRANCH  15  16
ENDBRANCH  14  15
ENDBRANCH  13  14
ENDBRANCH  12  13
ENDBRANCH  11  12
ENDBRANCH  10  11
ENDBRANCH   1  10
TORSDOF 13
ENDMDL
MODEL 6
REMARK VINA RESULT:    -3.821      3.373      5.567
REMARK INTER + INTRA:          -8.014
REMARK INTER:                  -5.650
REMARK INTRA:                  -2.364
REMARK UNBOUND:                -1.289
REMARK SMILES CCCCCCCCCCCCCCC(=O)[O-]
REMARK SMILES IDX 9 1 10 2 11 3 12 4 13 5 14 6 15 7 16 8 17 9 8 10 7 11 6 12
REMARK SMILES IDX 5 13 4 14 3 15 2 16 1 17
REMARK H PARENT
REMARK Flexibility Score: inf
ROOT
ATOM      1  C   UNL     1       3.463  -4.693  -7.881  1.00  0.00     0.000 C 
ENDROOT
BRANCH   1   2
ATOM      2  C   UNL     1       4.490  -4.126  -6.887  1.00  0.00     0.000 C 
BRANCH   2   3
ATOM      3  C   UNL     1       5.343  -3.000  -7.507  1.00  0.00     0.000 C 
BRANCH   3   4
ATOM      4  C   UNL     1       5.138  -2.831  -9.024  1.00  0.00     0.000 C 
BRANCH   4   5
ATOM      5  C   UNL     1       6.351  -2.258  -9.782  1.00  0.00     0.006 C 
BRANCH   5   6
ATOM      6  C   UNL     1       7.711  -2.764  -9.272  1.00  0.00     0.053 C 
BRANCH   6   7
ATOM      7  C   UNL     1       8.624  -1.636  -8.901  1.00  0.00     0.041 C 
ATOM      8  O   UNL     1       8.286  -0.445  -9.127  1.00  0.00    -0.550 OA
ATOM      9  O   UNL     1       9.866  -1.903  -8.338  1.00  0.00    -0.550 OA
ENDBRANCH   6   7
ENDBRANCH   5   6
ENDBRANCH   4   5
ENDBRANCH   3   4
ENDBRANCH   2   3
ENDBRANCH   1   2
BRANCH   1  10
ATOM     10  C   UNL     1       3.700  -6.178  -8.199  1.00  0.00     0.000 C 
BRANCH  10  11
ATOM     11  C   UNL     1       4.063  -6.420  -9.672  1.00  0.00    -0.000 C 
BRANCH  11  12
ATOM     12  C   UNL     1       5.423  -7.121  -9.794  1.00  0.00    -0.000 C 
BRANCH  12  13
ATOM     13  C   UNL     1       6.597  -6.231  -9.349  1.00  0.00    -0.000 C 
BRANCH  13  14
ATOM     14  C   UNL     1       7.440  -6.797  -8.189  1.00  0.00    -0.000 C 
BRANCH  14  15
ATOM     15  C   UNL     1       7.910  -5.757  -7.152  1.00  0.00    -0.000 C 
BRANCH  15  16
ATOM     16  C   UNL     1       7.396  -5.996  -5.720  1.00  0.00    -0.003 C 
ATOM     17  C   UNL     1       6.356  -7.114  -5.641  1.00  0.00     0.004 C 
ENDBRANCH  15  16
ENDBRANCH  14  15
ENDBRANCH  13  14
ENDBRANCH  12  13
ENDBRANCH  11  12
ENDBRANCH  10  11
ENDBRANCH   1  10
TORSDOF 13
ENDMDL
MODEL 7
REMARK VINA RESULT:    -3.804      1.875      3.064
REMARK INTER + INTRA:          -7.984
REMARK INTER:                  -5.746
REMARK INTRA:                  -2.238
REMARK UNBOUND:                -1.289
REMARK SMILES CCCCCCCCCCCCCCC(=O)[O-]
REMARK SMILES IDX 9 1 10 2 11 3 12 4 13 5 14 6 15 7 16 8 17 9 8 10 7 11 6 12
REMARK SMILES IDX 5 13 4 14 3 15 2 16 1 17
REMARK H PARENT
REMARK Flexibility Score: inf
ROOT
ATOM      1  C   UNL     1       7.818  -2.588  -7.025  1.00  0.00     0.000 C 
ENDROOT
BRANCH   1   2
ATOM      2  C   UNL     1       7.874  -3.985  -6.383  1.00  0.00     0.000 C 
BRANCH   2   3
ATOM      3  C   UNL     1       8.905  -4.904  -7.074  1.00  0.00     0.000 C 
BRANCH   3   4
ATOM      4  C   UNL     1       8.287  -6.171  -7.694  1.00  0.00     0.000 C 
BRANCH   4   5
ATOM      5  C   UNL     1       6.811  -6.034  -8.113  1.00  0.00     0.006 C 
BRANCH   5   6
ATOM      6  C   UNL     1       5.905  -7.171  -7.612  1.00  0.00     0.053 C 
BRANCH   6   7
ATOM      7  C   UNL     1       6.095  -7.436  -6.149  1.00  0.00     0.041 C 
ATOM      8  O   UNL     1       5.777  -6.563  -5.300  1.00  0.00    -0.550 OA
ATOM      9  O   UNL     1       6.656  -8.635  -5.727  1.00  0.00    -0.550 OA
ENDBRANCH   6   7
ENDBRANCH   5   6
ENDBRANCH   4   5
ENDBRANCH   3   4
ENDBRANCH   2   3
ENDBRANCH   1   2
BRANCH   1  10
ATOM     10  C   UNL     1       8.766  -2.448  -8.226  1.00  0.00     0.000 C 
BRANCH  10  11
ATOM     11  C   UNL     1       8.057  -1.919  -9.483  1.00  0.00    -0.000 C 
BRANCH  11  12
ATOM     12  C   UNL     1       6.923  -2.861  -9.911  1.00  0.00    -0.000 C 
BRANCH  12  13
ATOM     13  C   UNL     1       5.566  -2.145 -10.036  1.00  0.00    -0.000 C 
BRANCH  13  14
ATOM     14  C   UNL     1       4.557  -2.462  -8.914  1.00  0.00    -0.000 C 
BRANCH  14  15
ATOM     15  C   UNL     1       3.874  -3.840  -9.015  1.00  0.00    -0.000 C 
BRANCH  15  16
ATOM     16  C   UNL     1       3.500  -4.475  -7.664  1.00  0.00    -0.003 C 
ATOM     17  C   UNL     1       4.096  -3.729  -6.470  1.00  0.00     0.004 C 
ENDBRANCH  15  16
ENDBRANCH  14  15
ENDBRANCH  13  14
ENDBRANCH  12  13
ENDBRANCH  11  12
ENDBRANCH  10  11
ENDBRANCH   1  10
TORSDOF 13
ENDMDL
MODEL 8
REMARK VINA RESULT:    -3.801      2.170      4.774
REMARK INTER + INTRA:          -7.979
REMARK INTER:                  -6.035
REMARK INTRA:                  -1.944
REMARK UNBOUND:                -1.289
REMARK SMILES CCCCCCCCCCCCCCC(=O)[O-]
REMARK SMILES IDX 9 1 10 2 11 3 12 4 13 5 14 6 15 7 16 8 17 9 8 10 7 11 6 12
REMARK SMILES IDX 5 13 4 14 3 15 2 16 1 17
REMARK H PARENT
REMARK Flexibility Score: inf
ROOT
ATOM      1  C   UNL     1       4.009  -4.006  -6.894  1.00  0.00     0.000 C 
ENDROOT
BRANCH   1   2
ATOM      2  C   UNL     1       3.310  -4.836  -7.985  1.00  0.00     0.000 C 
BRANCH   2   3
ATOM      3  C   UNL     1       3.960  -6.224  -8.169  1.00  0.00     0.000 C 
BRANCH   3   4
ATOM      4  C   UNL     1       5.297  -6.186  -8.933  1.00  0.00     0.000 C 
BRANCH   4   5
ATOM      5  C   UNL     1       6.544  -6.462  -8.071  1.00  0.00     0.006 C 
BRANCH   5   6
ATOM      6  C   UNL     1       6.284  -7.372  -6.859  1.00  0.00     0.053 C 
BRANCH   6   7
ATOM      7  C   UNL     1       6.709  -6.729  -5.574  1.00  0.00     0.041 C 
ATOM      8  O   UNL     1       5.895  -6.031  -4.915  1.00  0.00    -0.550 OA
ATOM      9  O   UNL     1       8.015  -6.872  -5.123  1.00  0.00    -0.550 OA
ENDBRANCH   6   7
ENDBRANCH   5   6
ENDBRANCH   4   5
ENDBRANCH   3   4
ENDBRANCH   2   3
ENDBRANCH   1   2
BRANCH   1  10
ATOM     10  C   UNL     1       4.979  -2.963  -7.471  1.00  0.00     0.000 C 
BRANCH  10  11
ATOM     11  C   UNL     1       4.542  -2.445  -8.850  1.00  0.00    -0.000 C 
BRANCH  11  12
ATOM     12  C   UNL     1       5.756  -2.230  -9.766  1.00  0.00    -0.000 C 
BRANCH  12  13
ATOM     13  C   UNL     1       7.036  -2.893  -9.227  1.00  0.00    -0.000 C 
BRANCH  13  14
ATOM     14  C   UNL     1       8.230  -1.939  -9.029  1.00  0.00    -0.000 C 
BRANCH  14  15
ATOM     15  C   UNL     1       9.318  -2.441  -8.059  1.00  0.00    -0.000 C 
BRANCH  15  16
ATOM     16  C   UNL     1       8.874  -3.580  -7.125  1.00  0.00    -0.003 C 
ATOM     17  C   UNL     1       9.952  -4.646  -6.931  1.00  0.00     0.004 C 
ENDBRANCH  15  16
ENDBRANCH  14  15
ENDBRANCH  13  14
ENDBRANCH  12  13
ENDBRANCH  11  12
ENDBRANCH  10  11
ENDBRANCH   1  10
TORSDOF 13
ENDMDL
MODEL 9
REMARK VINA RESULT:    -3.744      3.276      6.245
REMARK INTER + INTRA:          -7.879
REMARK INTER:                  -6.024
REMARK INTRA:                  -1.855
REMARK UNBOUND:                -1.289
REMARK SMILES CCCCCCCCCCCCCCC(=O)[O-]
REMARK SMILES IDX 9 1 10 2 11 3 12 4 13 5 14 6 15 7 16 8 17 9 8 10 7 11 6 12
REMARK SMILES IDX 5 13 4 14 3 15 2 16 1 17
REMARK H PARENT
REMARK Flexibility Score: inf
ROOT
ATOM      1  C   UNL     1       4.240  -5.853  -8.052  1.00  0.00     0.000 C 
ENDROOT
BRANCH   1   2
ATOM      2  C   UNL     1       3.689  -4.632  -7.295  1.00  0.00     0.000 C 
BRANCH   2   3
ATOM      3  C   UNL     1       4.747  -3.520  -7.131  1.00  0.00     0.000 C 
BRANCH   3   4
ATOM      4  C   UNL     1       4.876  -2.602  -8.360  1.00  0.00     0.000 C 
BRANCH   4   5
ATOM      5  C   UNL     1       6.261  -2.613  -9.035  1.00  0.00     0.006 C 
BRANCH   5   6
ATOM      6  C   UNL     1       7.433  -2.841  -8.066  1.00  0.00     0.053 C 
BRANCH   6   7
ATOM      7  C   UNL     1       8.571  -1.906  -8.334  1.00  0.00     0.041 C 
ATOM      8  O   UNL     1       9.729  -2.182  -7.926  1.00  0.00    -0.550 OA
ATOM      9  O   UNL     1       8.346  -0.710  -9.006  1.00  0.00    -0.550 OA
ENDBRANCH   6   7
ENDBRANCH   5   6
ENDBRANCH   4   5
ENDBRANCH   3   4
ENDBRANCH   2   3
ENDBRANCH   1   2
BRANCH   1  10
ATOM     10  C   UNL     1       5.735  -6.092  -7.786  1.00  0.00     0.000 C 
BRANCH  10  11
ATOM     11  C   UNL     1       5.985  -6.950  -6.536  1.00  0.00    -0.000 C 
BRANCH  11  12
ATOM     12  C   UNL     1       6.955  -6.249  -5.574  1.00  0.00    -0.000 C 
BRANCH  12  13
ATOM     13  C   UNL     1       8.182  -7.110  -5.228  1.00  0.00    -0.000 C 
BRANCH  13  14
ATOM     14  C   UNL     1       9.320  -7.071  -6.266  1.00  0.00    -0.000 C 
BRANCH  14  15
ATOM     15  C   UNL     1       9.670  -5.668  -6.803  1.00  0.00    -0.000 C 
BRANCH  15  16
ATOM     16  C   UNL     1       9.970  -5.612  -8.312  1.00  0.00    -0.003 C 
ATOM     17  C   UNL     1       9.126  -6.595  -9.123  1.00  0.00     0.004 C 
ENDBRANCH  15  16
ENDBRANCH  14  15
ENDBRANCH  13  14
ENDBRANCH  12  13
ENDBRANCH  11  12
ENDBRANCH  10  11
ENDBRANCH   1  10
TORSDOF 13
ENDMDL
