MODEL 1
REMARK VINA RESULT:    -4.033      0.000      0.000
REMARK INTER + INTRA:          -5.210
REMARK INTER:                  -4.976
REMARK INTRA:                  -0.234
REMARK UNBOUND:                -0.234
REMARK SMILES C=CC[C@H](C)C(=O)CC
REMARK SMILES IDX 4 1 5 2 6 3 7 4 8 5 9 6 3 7 2 8 1 9
REMARK H PARENT
REMARK Flexibility Score: inf
ROOT
ATOM      1  C   UNL     1     103.141 115.686 125.183  1.00  0.00     0.057 C 
ATOM      2  C   UNL     1     102.798 116.235 123.794  1.00  0.00     0.016 C 
ENDROOT
BRANCH   1   3
ATOM      3  C   UNL     1     102.799 114.211 125.254  1.00  0.00     0.135 C 
ATOM      4  O   UNL     1     102.683 113.668 126.345  1.00  0.00    -0.299 OA
BRANCH   3   5
ATOM      5  C   UNL     1     102.582 113.400 124.003  1.00  0.00     0.072 C 
ATOM      6  C   UNL     1     101.116 113.008 123.853  1.00  0.00     0.012 C 
ENDBRANCH   3   5
ENDBRANCH   1   3
BRANCH   1   7
ATOM      7  C   UNL     1     102.401 116.485 126.277  1.00  0.00     0.038 C 
BRANCH   7   8
ATOM      8  C   UNL     1     101.395 117.444 125.698  1.00  0.00    -0.034 C 
ATOM      9  C   UNL     1     100.637 118.224 126.475  1.00  0.00     0.004 C 
ENDBRANCH   7   8
ENDBRANCH   1   7
TORSDOF 4
ENDMDL
MODEL 2
REMARK VINA RESULT:    -4.030      0.979      1.369
REMARK INTER + INTRA:          -5.207
REMARK INTER:                  -5.003
REMARK INTRA:                  -0.203
REMARK UNBOUND:                -0.234
REMARK SMILES C=CC[C@H](C)C(=O)CC
REMARK SMILES IDX 4 1 5 2 6 3 7 4 8 5 9 6 3 7 2 8 1 9
REMARK H PARENT
REMARK Flexibility Score: inf
ROOT
ATOM      1  C   UNL     1     102.585 115.783 126.424  1.00  0.00     0.057 C 
ATOM      2  C   UNL     1     103.983 116.215 126.880  1.00  0.00     0.016 C 
ENDROOT
BRANCH   1   3
ATOM      3  C   UNL     1     102.656 114.422 125.759  1.00  0.00     0.135 C 
ATOM      4  O   UNL     1     102.840 113.424 126.442  1.00  0.00    -0.299 OA
BRANCH   3   5
ATOM      5  C   UNL     1     102.487 114.274 124.270  1.00  0.00     0.072 C 
ATOM      6  C   UNL     1     101.341 113.323 123.942  1.00  0.00     0.012 C 
ENDBRANCH   3   5
ENDBRANCH   1   3
BRANCH   1   7
ATOM      7  C   UNL     1     101.976 116.838 125.477  1.00  0.00     0.038 C 
BRANCH   7   8
ATOM      8  C   UNL     1     101.108 117.827 126.209  1.00  0.00    -0.034 C 
ATOM      9  C   UNL     1     100.601 118.904 125.601  1.00  0.00     0.004 C 
ENDBRANCH   7   8
ENDBRANCH   1   7
TORSDOF 4
ENDMDL
MODEL 3
REMARK VINA RESULT:    -3.976      1.744      3.601
REMARK INTER + INTRA:          -5.140
REMARK INTER:                  -4.758
REMARK INTRA:                  -0.382
REMARK UNBOUND:                -0.234
REMARK SMILES C=CC[C@H](C)C(=O)CC
REMARK SMILES IDX 4 1 5 2 6 3 7 4 8 5 9 6 3 7 2 8 1 9
REMARK H PARENT
REMARK Flexibility Score: inf
ROOT
ATOM      1  C   UNL     1     103.121 115.617 125.621  1.00  0.00     0.057 C 
ATOM      2  C   UNL     1     103.853 116.063 126.892  1.00  0.00     0.016 C 
ENDROOT
BRANCH   1   3
ATOM      3  C   UNL     1     102.063 116.638 125.249  1.00  0.00     0.135 C 
ATOM      4  O   UNL     1     101.508 117.282 126.129  1.00  0.00    -0.299 OA
BRANCH   3   5
ATOM      5  C   UNL     1     101.693 116.887 123.810  1.00  0.00     0.072 C 
ATOM      6  C   UNL     1     100.194 116.709 123.593  1.00  0.00     0.012 C 
ENDBRANCH   3   5
ENDBRANCH   1   3
BRANCH   1   7
ATOM      7  C   UNL     1     102.502 114.218 125.819  1.00  0.00     0.038 C 
BRANCH   7   8
ATOM      8  C   UNL     1     102.476 113.422 124.540  1.00  0.00    -0.034 C 
ATOM      9  C   UNL     1     101.329 113.101 123.933  1.00  0.00     0.004 C 
ENDBRANCH   7   8
ENDBRANCH   1   7
TORSDOF 4
ENDMDL
MODEL 4
REMARK VINA RESULT:    -3.941      2.606      4.496
REMARK INTER + INTRA:          -5.097
REMARK INTER:                  -4.864
REMARK INTRA:                  -0.233
REMARK UNBOUND:                -0.234
REMARK SMILES C=CC[C@H](C)C(=O)CC
REMARK SMILES IDX 4 1 5 2 6 3 7 4 8 5 9 6 3 7 2 8 1 9
REMARK H PARENT
REMARK Flexibility Score: inf
ROOT
ATOM      1  C   UNL     1     101.284 117.814 125.009  1.00  0.00     0.057 C 
ATOM      2  C   UNL     1     100.624 118.097 126.363  1.00  0.00     0.016 C 
ENDROOT
BRANCH   1   3
ATOM      3  C   UNL     1     100.235 117.809 123.914  1.00  0.00     0.135 C 
ATOM      4  O   UNL     1      99.767 116.747 123.528  1.00  0.00    -0.299 OA
BRANCH   3   5
ATOM      5  C   UNL     1      99.743 119.094 123.301  1.00  0.00     0.072 C 
ATOM      6  C   UNL     1     100.862 120.129 123.230  1.00  0.00     0.012 C 
ENDBRANCH   3   5
ENDBRANCH   1   3
BRANCH   1   7
ATOM      7  C   UNL     1     102.052 116.477 125.053  1.00  0.00     0.038 C 
BRANCH   7   8
ATOM      8  C   UNL     1     102.516 116.132 126.443  1.00  0.00    -0.034 C 
ATOM      9  C   UNL     1     103.812 116.122 126.771  1.00  0.00     0.004 C 
ENDBRANCH   7   8
ENDBRANCH   1   7
TORSDOF 4
ENDMDL
MODEL 5
REMARK VINA RESULT:    -3.922      1.553      4.037
REMARK INTER + INTRA:          -5.073
REMARK INTER:                  -4.848
REMARK INTRA:                  -0.225
REMARK UNBOUND:                -0.234
REMARK SMILES C=CC[C@H](C)C(=O)CC
REMARK SMILES IDX 4 1 5 2 6 3 7 4 8 5 9 6 3 7 2 8 1 9
REMARK H PARENT
REMARK Flexibility Score: inf
ROOT
ATOM      1  C   UNL     1     103.132 115.626 125.616  1.00  0.00     0.057 C 
ATOM      2  C   UNL     1     103.858 116.139 126.863  1.00  0.00     0.016 C 
ENDROOT
BRANCH   1   3
ATOM      3  C   UNL     1     102.047 116.604 125.210  1.00  0.00     0.135 C 
ATOM      4  O   UNL     1     101.713 116.686 124.036  1.00  0.00    -0.299 OA
BRANCH   3   5
ATOM      5  C   UNL     1     101.357 117.470 126.232  1.00  0.00     0.072 C 
ATOM      6  C   UNL     1     100.539 118.566 125.558  1.00  0.00     0.012 C 
ENDBRANCH   3   5
ENDBRANCH   1   3
BRANCH   1   7
ATOM      7  C   UNL     1     102.550 114.220 125.870  1.00  0.00     0.038 C 
BRANCH   7   8
ATOM      8  C   UNL     1     102.507 113.387 124.616  1.00  0.00    -0.034 C 
ATOM      9  C   UNL     1     101.355 113.100 124.000  1.00  0.00     0.004 C 
ENDBRANCH   7   8
ENDBRANCH   1   7
TORSDOF 4
ENDMDL
MODEL 6
REMARK VINA RESULT:    -3.886      3.344      4.938
REMARK INTER + INTRA:          -5.029
REMARK INTER:                  -4.552
REMARK INTRA:                  -0.478
REMARK UNBOUND:                -0.234
REMARK SMILES C=CC[C@H](C)C(=O)CC
REMARK SMILES IDX 4 1 5 2 6 3 7 4 8 5 9 6 3 7 2 8 1 9
REMARK H PARENT
REMARK Flexibility Score: inf
ROOT
ATOM      1  C   UNL     1     100.441 117.809 123.757  1.00  0.00     0.057 C 
ATOM      2  C   UNL     1      99.928 116.833 122.692  1.00  0.00     0.016 C 
ENDROOT
BRANCH   1   3
ATOM      3  C   UNL     1     101.007 119.049 123.091  1.00  0.00     0.135 C 
ATOM      4  O   UNL     1     101.753 118.932 122.129  1.00  0.00    -0.299 OA
BRANCH   3   5
ATOM      5  C   UNL     1     100.653 120.427 123.585  1.00  0.00     0.072 C 
ATOM      6  C   UNL     1      99.155 120.549 123.840  1.00  0.00     0.012 C 
ENDBRANCH   3   5
ENDBRANCH   1   3
BRANCH   1   7
ATOM      7  C   UNL     1     101.495 117.125 124.653  1.00  0.00     0.038 C 
BRANCH   7   8
ATOM      8  C   UNL     1     101.530 117.713 126.039  1.00  0.00    -0.034 C 
ATOM      9  C   UNL     1     100.430 118.183 126.633  1.00  0.00     0.004 C 
ENDBRANCH   7   8
ENDBRANCH   1   7
TORSDOF 4
ENDMDL
MODEL 7
REMARK VINA RESULT:    -3.806      1.555      2.360
REMARK INTER + INTRA:          -4.930
REMARK INTER:                  -4.468
REMARK INTRA:                  -0.462
REMARK UNBOUND:                -0.234
REMARK SMILES C=CC[C@H](C)C(=O)CC
REMARK SMILES IDX 4 1 5 2 6 3 7 4 8 5 9 6 3 7 2 8 1 9
REMARK H PARENT
REMARK Flexibility Score: inf
ROOT
ATOM      1  C   UNL     1     102.196 116.447 124.094  1.00  0.00     0.057 C 
ATOM      2  C   UNL     1     102.541 116.322 122.606  1.00  0.00     0.016 C 
ENDROOT
BRANCH   1   3
ATOM      3  C   UNL     1     102.298 115.090 124.763  1.00  0.00     0.135 C 
ATOM      4  O   UNL     1     101.967 114.086 124.148  1.00  0.00    -0.299 OA
BRANCH   3   5
ATOM      5  C   UNL     1     102.815 114.952 126.171  1.00  0.00     0.072 C 
ATOM      6  C   UNL     1     103.671 116.153 126.558  1.00  0.00     0.012 C 
ENDBRANCH   3   5
ENDBRANCH   1   3
BRANCH   1   7
ATOM      7  C   UNL     1     100.790 117.055 124.273  1.00  0.00     0.038 C 
BRANCH   7   8
ATOM      8  C   UNL     1     100.808 118.283 125.145  1.00  0.00    -0.034 C 
ATOM      9  C   UNL     1     100.578 118.218 126.459  1.00  0.00     0.004 C 
ENDBRANCH   7   8
ENDBRANCH   1   7
TORSDOF 4
ENDMDL
MODEL 8
REMARK VINA RESULT:    -3.757      2.363      3.594
REMARK INTER + INTRA:          -4.870
REMARK INTER:                  -4.694
REMARK INTRA:                  -0.175
REMARK UNBOUND:                -0.234
REMARK SMILES C=CC[C@H](C)C(=O)CC
REMARK SMILES IDX 4 1 5 2 6 3 7 4 8 5 9 6 3 7 2 8 1 9
REMARK H PARENT
REMARK Flexibility Score: inf
ROOT
ATOM      1  C   UNL     1     100.659 117.743 125.064  1.00  0.00     0.057 C 
ATOM      2  C   UNL     1     100.578 118.332 126.477  1.00  0.00     0.016 C 
ENDROOT
BRANCH   1   3
ATOM      3  C   UNL     1     101.855 116.817 124.958  1.00  0.00     0.135 C 
ATOM      4  O   UNL     1     102.242 116.452 123.856  1.00  0.00    -0.299 OA
BRANCH   3   5
ATOM      5  C   UNL     1     102.589 116.349 126.187  1.00  0.00     0.072 C 
ATOM      6  C   UNL     1     102.854 114.849 126.128  1.00  0.00     0.012 C 
ENDBRANCH   3   5
ENDBRANCH   1   3
BRANCH   1   7
ATOM      7  C   UNL     1     100.729 118.870 124.013  1.00  0.00     0.038 C 
BRANCH   7   8
ATOM      8  C   UNL     1      99.375 119.464 123.725  1.00  0.00    -0.034 C 
ATOM      9  C   UNL     1      99.189 120.785 123.643  1.00  0.00     0.004 C 
ENDBRANCH   7   8
ENDBRANCH   1   7
TORSDOF 4
ENDMDL
MODEL 9
REMARK VINA RESULT:    -3.683      2.046      3.544
REMARK INTER + INTRA:          -4.778
REMARK INTER:                  -4.378
REMARK INTRA:                  -0.400
REMARK UNBOUND:                -0.234
REMARK SMILES C=CC[C@H](C)C(=O)CC
REMARK SMILES IDX 4 1 5 2 6 3 7 4 8 5 9 6 3 7 2 8 1 9
REMARK H PARENT
REMARK Flexibility Score: inf
ROOT
ATOM      1  C   UNL     1     101.558 114.242 124.109  1.00  0.00     0.057 C 
ATOM      2  C   UNL     1     101.426 112.966 123.270  1.00  0.00     0.016 C 
ENDROOT
BRANCH   1   3
ATOM      3  C   UNL     1     101.358 115.461 123.230  1.00  0.00     0.135 C 
ATOM      4  O   UNL     1     102.068 115.621 122.246  1.00  0.00    -0.299 OA
BRANCH   3   5
ATOM      5  C   UNL     1     100.287 116.475 123.535  1.00  0.00     0.072 C 
ATOM      6  C   UNL     1     100.828 117.592 124.422  1.00  0.00     0.012 C 
ENDBRANCH   3   5
ENDBRANCH   1   3
BRANCH   1   7
ATOM      7  C   UNL     1     102.927 114.283 124.819  1.00  0.00     0.038 C 
BRANCH   7   8
ATOM      8  C   UNL     1     102.835 114.881 126.198  1.00  0.00    -0.034 C 
ATOM      9  C   UNL     1     103.500 115.991 126.531  1.00  0.00     0.004 C 
ENDBRANCH   7   8
ENDBRANCH   1   7
TORSDOF 4
ENDMDL
