MODEL 1
REMARK VINA RESULT:    -5.452      0.000      0.000
REMARK INTER + INTRA:          -6.100
REMARK INTER:                  -5.930
REMARK INTRA:                  -0.171
REMARK UNBOUND:                -0.171
REMARK SMILES C[C@@H]1[C@H](C)CC[C@]2(C(=O)[O-])CC[C@]3(C)C(=CC[C@@H]4[C@]5(C)CC[C@H](O)C(C)(C)[C@H]5CC[C@]43C)[C@H]12
REMARK SMILES IDX 7 1 6 2 11 3 33 4 5 5 12 6 15 7 2 8 3 9 13 10 16 11 1 12
REMARK SMILES IDX 4 13 14 14 31 15 17 16 18 17 30 18 32 19 19 20 29 21 28 22
REMARK SMILES IDX 21 23 20 24 25 25 22 26 23 27 26 28 27 29 8 30 9 31 10 32
REMARK SMILES IDX 24 33
REMARK H PARENT 24 34
REMARK Flexibility Score: inf
ROOT
ATOM      1  C   UNL     1      20.898 -31.517  31.542  1.00  0.00     0.017 C 
ATOM      2  C   UNL     1      21.465 -31.444  32.991  1.00  0.00     0.014 C 
ATOM      3  C   UNL     1      21.669 -32.576  30.721  1.00  0.00     0.014 C 
ATOM      4  C   UNL     1      20.962 -30.129  30.793  1.00  0.00     0.030 C 
ATOM      5  C   UNL     1      22.749 -30.632  33.125  1.00  0.00     0.004 C 
ATOM      6  C   UNL     1      21.024 -32.808  29.343  1.00  0.00     0.013 C 
ATOM      7  C   UNL     1      20.669 -30.239  29.281  1.00  0.00    -0.063 C 
ATOM      8  C   UNL     1      22.185 -29.189  31.123  1.00  0.00    -0.003 C 
ATOM      9  C   UNL     1      22.506 -29.202  32.640  1.00  0.00    -0.011 C 
ATOM     10  C   UNL     1      20.930 -31.526  28.446  1.00  0.00    -0.006 C 
ATOM     11  C   UNL     1      20.132 -29.143  28.684  1.00  0.00    -0.027 C 
ATOM     12  C   UNL     1      23.434 -29.394  30.245  1.00  0.00     0.008 C 
ATOM     13  C   UNL     1      23.671 -28.281  33.039  1.00  0.00     0.008 C 
ATOM     14  C   UNL     1      22.343 -31.374  27.787  1.00  0.00     0.017 C 
ATOM     15  C   UNL     1      19.747 -31.680  27.360  1.00  0.00    -0.020 C 
ATOM     16  C   UNL     1      19.392 -29.157  27.366  1.00  0.00     0.032 C 
ATOM     17  C   UNL     1      19.700 -30.382  26.471  1.00  0.00     0.006 C 
ATOM     18  C   UNL     1      19.992 -32.887  26.412  1.00  0.00     0.008 C 
ATOM     19  C   UNL     1      18.383 -31.888  28.117  1.00  0.00     0.012 C 
ATOM     20  C   UNL     1      18.939 -30.499  25.039  1.00  0.00    -0.025 C 
ATOM     21  C   UNL     1      18.897 -33.112  25.356  1.00  0.00     0.005 C 
ATOM     22  C   UNL     1      18.110 -31.840  24.922  1.00  0.00     0.003 C 
ATOM     23  C   UNL     1      17.982 -29.270  24.754  1.00  0.00     0.010 C 
ATOM     24  C   UNL     1      20.044 -30.486  23.934  1.00  0.00     0.012 C 
ATOM     25  C   UNL     1      17.256 -32.044  23.584  1.00  0.00    -0.006 C 
ATOM     26  C   UNL     1      16.663 -29.595  24.031  1.00  0.00     0.033 C 
ATOM     27  C   UNL     1      16.838 -30.666  22.956  1.00  0.00     0.120 C 
ATOM     28  C   UNL     1      15.979 -32.860  23.945  1.00  0.00     0.014 C 
ATOM     29  C   UNL     1      18.001 -32.856  22.489  1.00  0.00     0.014 C 
ENDROOT
BRANCH   1  30
ATOM     30  C   UNL     1      19.446 -31.981  31.718  1.00  0.00     0.048 C 
ATOM     31  O   UNL     1      19.198 -33.117  32.205  1.00  0.00    -0.550 OA
ATOM     32  O   UNL     1      18.379 -31.124  31.468  1.00  0.00    -0.550 OA
ENDBRANCH   1  30
BRANCH  27  33
ATOM     33  O   UNL     1      15.646 -30.789  22.217  1.00  0.00    -0.393 OA
ATOM     34  H   UNL     1      15.877 -30.664  21.259  1.00  0.00     0.210 HD
ENDBRANCH  27  33
TORSDOF 2
ENDMDL
MODEL 2
REMARK VINA RESULT:    -4.370      3.018      4.001
REMARK INTER + INTRA:          -4.924
REMARK INTER:                  -4.737
REMARK INTRA:                  -0.187
REMARK UNBOUND:                -0.171
REMARK SMILES C[C@@H]1[C@H](C)CC[C@]2(C(=O)[O-])CC[C@]3(C)C(=CC[C@@H]4[C@]5(C)CC[C@H](O)C(C)(C)[C@H]5CC[C@]43C)[C@H]12
REMARK SMILES IDX 7 1 6 2 11 3 33 4 5 5 12 6 15 7 2 8 3 9 13 10 16 11 1 12
REMARK SMILES IDX 4 13 14 14 31 15 17 16 18 17 30 18 32 19 19 20 29 21 28 22
REMARK SMILES IDX 21 23 20 24 25 25 22 26 23 27 26 28 27 29 8 30 9 31 10 32
REMARK SMILES IDX 24 33
REMARK H PARENT 24 34
REMARK Flexibility Score: inf
ROOT
ATOM      1  C   UNL     1      20.937 -30.862  29.988  1.00  0.00     0.017 C 
ATOM      2  C   UNL     1      20.541 -30.711  31.487  1.00  0.00     0.014 C 
ATOM      3  C   UNL     1      21.425 -32.302  29.707  1.00  0.00     0.014 C 
ATOM      4  C   UNL     1      22.055 -29.838  29.548  1.00  0.00     0.030 C 
ATOM      5  C   UNL     1      21.720 -30.510  32.433  1.00  0.00     0.004 C 
ATOM      6  C   UNL     1      21.653 -32.543  28.205  1.00  0.00     0.013 C 
ATOM      7  C   UNL     1      22.656 -30.151  28.160  1.00  0.00    -0.063 C 
ATOM      8  C   UNL     1      23.143 -29.455  30.625  1.00  0.00    -0.003 C 
ATOM      9  C   UNL     1      22.501 -29.260  32.022  1.00  0.00    -0.011 C 
ATOM     10  C   UNL     1      22.698 -31.579  27.544  1.00  0.00    -0.006 C 
ATOM     11  C   UNL     1      23.142 -29.095  27.457  1.00  0.00    -0.027 C 
ATOM     12  C   UNL     1      24.389 -30.358  30.659  1.00  0.00     0.008 C 
ATOM     13  C   UNL     1      23.500 -28.853  33.117  1.00  0.00     0.008 C 
ATOM     14  C   UNL     1      24.100 -32.190  27.881  1.00  0.00     0.017 C 
ATOM     15  C   UNL     1      22.433 -31.459  25.957  1.00  0.00    -0.020 C 
ATOM     16  C   UNL     1      23.375 -29.092  25.963  1.00  0.00     0.032 C 
ATOM     17  C   UNL     1      23.513 -30.499  25.332  1.00  0.00     0.006 C 
ATOM     18  C   UNL     1      22.566 -32.835  25.247  1.00  0.00     0.008 C 
ATOM     19  C   UNL     1      20.982 -30.896  25.723  1.00  0.00     0.012 C 
ATOM     20  C   UNL     1      23.746 -30.602  23.726  1.00  0.00    -0.025 C 
ATOM     21  C   UNL     1      22.311 -32.808  23.731  1.00  0.00     0.005 C 
ATOM     22  C   UNL     1      22.618 -31.456  23.022  1.00  0.00     0.003 C 
ATOM     23  C   UNL     1      23.835 -29.183  23.030  1.00  0.00     0.010 C 
ATOM     24  C   UNL     1      25.125 -31.305  23.512  1.00  0.00     0.012 C 
ATOM     25  C   UNL     1      22.695 -31.575  21.428  1.00  0.00    -0.006 C 
ATOM     26  C   UNL     1      23.193 -29.074  21.636  1.00  0.00     0.033 C 
ATOM     27  C   UNL     1      23.413 -30.330  20.795  1.00  0.00     0.120 C 
ATOM     28  C   UNL     1      21.240 -31.672  20.879  1.00  0.00     0.014 C 
ATOM     29  C   UNL     1      23.436 -32.849  20.935  1.00  0.00     0.014 C 
ENDROOT
BRANCH   1  30
ATOM     30  C   UNL     1      19.633 -30.617  29.217  1.00  0.00     0.048 C 
ATOM     31  O   UNL     1      18.683 -31.442  29.298  1.00  0.00    -0.550 OA
ATOM     32  O   UNL     1      19.419 -29.432  28.519  1.00  0.00    -0.550 OA
ENDBRANCH   1  30
BRANCH  27  33
ATOM     33  O   UNL     1      22.962 -30.101  19.481  1.00  0.00    -0.393 OA
ATOM     34  H   UNL     1      23.655 -30.453  18.863  1.00  0.00     0.210 HD
ENDBRANCH  27  33
TORSDOF 2
ENDMDL
MODEL 3
REMARK VINA RESULT:    -4.243      3.549      7.097
REMARK INTER + INTRA:          -4.786
REMARK INTER:                  -4.633
REMARK INTRA:                  -0.152
REMARK UNBOUND:                -0.171
REMARK SMILES C[C@@H]1[C@H](C)CC[C@]2(C(=O)[O-])CC[C@]3(C)C(=CC[C@@H]4[C@]5(C)CC[C@H](O)C(C)(C)[C@H]5CC[C@]43C)[C@H]12
REMARK SMILES IDX 7 1 6 2 11 3 33 4 5 5 12 6 15 7 2 8 3 9 13 10 16 11 1 12
REMARK SMILES IDX 4 13 14 14 31 15 17 16 18 17 30 18 32 19 19 20 29 21 28 22
REMARK SMILES IDX 21 23 20 24 25 25 22 26 23 27 26 28 27 29 8 30 9 31 10 32
REMARK SMILES IDX 24 33
REMARK H PARENT 24 34
REMARK Flexibility Score: inf
ROOT
ATOM      1  C   UNL     1      23.368 -27.606  24.895  1.00  0.00     0.017 C 
ATOM      2  C   UNL     1      24.214 -26.883  23.805  1.00  0.00     0.014 C 
ATOM      3  C   UNL     1      24.231 -27.873  26.149  1.00  0.00     0.014 C 
ATOM      4  C   UNL     1      22.756 -28.969  24.384  1.00  0.00     0.030 C 
ATOM      5  C   UNL     1      25.125 -27.803  23.000  1.00  0.00     0.004 C 
ATOM      6  C   UNL     1      23.388 -28.421  27.314  1.00  0.00     0.013 C 
ATOM      7  C   UNL     1      22.155 -29.829  25.517  1.00  0.00    -0.063 C 
ATOM      8  C   UNL     1      23.616 -29.804  23.358  1.00  0.00    -0.003 C 
ATOM      9  C   UNL     1      24.286 -28.880  22.309  1.00  0.00    -0.011 C 
ATOM     10  C   UNL     1      22.634 -29.758  26.996  1.00  0.00    -0.006 C 
ATOM     11  C   UNL     1      21.139 -30.663  25.173  1.00  0.00    -0.027 C 
ATOM     12  C   UNL     1      24.598 -30.812  23.982  1.00  0.00     0.008 C 
ATOM     13  C   UNL     1      25.116 -29.631  21.256  1.00  0.00     0.008 C 
ATOM     14  C   UNL     1      23.694 -30.893  27.196  1.00  0.00     0.017 C 
ATOM     15  C   UNL     1      21.348 -29.926  27.958  1.00  0.00    -0.020 C 
ATOM     16  C   UNL     1      20.150 -31.259  26.147  1.00  0.00     0.032 C 
ATOM     17  C   UNL     1      20.633 -31.287  27.618  1.00  0.00     0.006 C 
ATOM     18  C   UNL     1      21.756 -29.975  29.456  1.00  0.00     0.008 C 
ATOM     19  C   UNL     1      20.376 -28.711  27.726  1.00  0.00     0.012 C 
ATOM     20  C   UNL     1      19.631 -31.892  28.746  1.00  0.00    -0.025 C 
ATOM     21  C   UNL     1      20.583 -30.117  30.441  1.00  0.00     0.005 C 
ATOM     22  C   UNL     1      19.321 -30.838  29.882  1.00  0.00     0.003 C 
ATOM     23  C   UNL     1      18.267 -32.414  28.134  1.00  0.00     0.010 C 
ATOM     24  C   UNL     1      20.351 -33.125  29.379  1.00  0.00     0.012 C 
ATOM     25  C   UNL     1      18.288 -31.288  31.019  1.00  0.00    -0.006 C 
ATOM     26  C   UNL     1      17.009 -32.173  28.987  1.00  0.00     0.033 C 
ATOM     27  C   UNL     1      17.274 -32.360  30.480  1.00  0.00     0.120 C 
ATOM     28  C   UNL     1      17.508 -30.025  31.492  1.00  0.00     0.014 C 
ATOM     29  C   UNL     1      18.974 -31.879  32.282  1.00  0.00     0.014 C 
ENDROOT
BRANCH   1  30
ATOM     30  C   UNL     1      22.261 -26.606  25.253  1.00  0.00     0.048 C 
ATOM     31  O   UNL     1      22.520 -25.603  25.972  1.00  0.00    -0.550 OA
ATOM     32  O   UNL     1      20.990 -26.706  24.696  1.00  0.00    -0.550 OA
ENDBRANCH   1  30
BRANCH  27  33
ATOM     33  O   UNL     1      16.057 -32.302  31.184  1.00  0.00    -0.393 OA
ATOM     34  H   UNL     1      15.892 -33.204  31.566  1.00  0.00     0.210 HD
ENDBRANCH  27  33
TORSDOF 2
ENDMDL
MODEL 4
REMARK VINA RESULT:    -4.232      3.372      5.221
REMARK INTER + INTRA:          -4.774
REMARK INTER:                  -4.625
REMARK INTRA:                  -0.149
REMARK UNBOUND:                -0.171
REMARK SMILES C[C@@H]1[C@H](C)CC[C@]2(C(=O)[O-])CC[C@]3(C)C(=CC[C@@H]4[C@]5(C)CC[C@H](O)C(C)(C)[C@H]5CC[C@]43C)[C@H]12
REMARK SMILES IDX 7 1 6 2 11 3 33 4 5 5 12 6 15 7 2 8 3 9 13 10 16 11 1 12
REMARK SMILES IDX 4 13 14 14 31 15 17 16 18 17 30 18 32 19 19 20 29 21 28 22
REMARK SMILES IDX 21 23 20 24 25 25 22 26 23 27 26 28 27 29 8 30 9 31 10 32
REMARK SMILES IDX 24 33
REMARK H PARENT 24 34
REMARK Flexibility Score: inf
ROOT
ATOM      1  C   UNL     1      21.952 -30.340  30.204  1.00  0.00     0.017 C 
ATOM      2  C   UNL     1      21.730 -30.302  31.745  1.00  0.00     0.014 C 
ATOM      3  C   UNL     1      21.176 -29.189  29.524  1.00  0.00     0.014 C 
ATOM      4  C   UNL     1      21.515 -31.714  29.561  1.00  0.00     0.030 C 
ATOM      5  C   UNL     1      20.407 -30.903  32.207  1.00  0.00     0.004 C 
ATOM      6  C   UNL     1      21.512 -29.082  28.026  1.00  0.00     0.013 C 
ATOM      7  C   UNL     1      21.463 -31.676  28.018  1.00  0.00    -0.063 C 
ATOM      8  C   UNL     1      20.276 -32.449  30.207  1.00  0.00    -0.003 C 
ATOM      9  C   UNL     1      20.320 -32.362  31.754  1.00  0.00    -0.011 C 
ATOM     10  C   UNL     1      21.207 -30.378  27.199  1.00  0.00    -0.006 C 
ATOM     11  C   UNL     1      21.681 -32.852  27.373  1.00  0.00    -0.027 C 
ATOM     12  C   UNL     1      18.902 -32.069  29.624  1.00  0.00     0.008 C 
ATOM     13  C   UNL     1      19.157 -33.084  32.453  1.00  0.00     0.008 C 
ATOM     14  C   UNL     1      19.674 -30.321  26.884  1.00  0.00     0.017 C 
ATOM     15  C   UNL     1      22.117 -30.427  25.866  1.00  0.00    -0.020 C 
ATOM     16  C   UNL     1      22.090 -32.974  25.923  1.00  0.00     0.032 C 
ATOM     17  C   UNL     1      21.766 -31.731  25.058  1.00  0.00     0.006 C 
ATOM     18  C   UNL     1      21.839 -29.213  24.937  1.00  0.00     0.008 C 
ATOM     19  C   UNL     1      23.634 -30.419  26.285  1.00  0.00     0.012 C 
ATOM     20  C   UNL     1      22.185 -31.757  23.487  1.00  0.00    -0.025 C 
ATOM     21  C   UNL     1      22.681 -29.177  23.651  1.00  0.00     0.005 C 
ATOM     22  C   UNL     1      23.152 -30.562  23.117  1.00  0.00     0.003 C 
ATOM     23  C   UNL     1      22.860 -33.124  23.058  1.00  0.00     0.010 C 
ATOM     24  C   UNL     1      20.865 -31.617  22.663  1.00  0.00     0.012 C 
ATOM     25  C   UNL     1      23.694 -30.515  21.613  1.00  0.00    -0.006 C 
ATOM     26  C   UNL     1      24.009 -33.018  22.040  1.00  0.00     0.033 C 
ATOM     27  C   UNL     1      23.749 -31.951  20.978  1.00  0.00     0.120 C 
ATOM     28  C   UNL     1      25.125 -29.900  21.633  1.00  0.00     0.014 C 
ATOM     29  C   UNL     1      22.843 -29.616  20.674  1.00  0.00     0.014 C 
ENDROOT
BRANCH   1  30
ATOM     30  C   UNL     1      23.457 -30.103  30.023  1.00  0.00     0.048 C 
ATOM     31  O   UNL     1      23.937 -28.945  30.153  1.00  0.00    -0.550 OA
ATOM     32  O   UNL     1      24.338 -31.165  29.841  1.00  0.00    -0.550 OA
ENDBRANCH   1  30
BRANCH  27  33
ATOM     33  O   UNL     1      24.743 -32.026  19.984  1.00  0.00    -0.393 OA
ATOM     34  H   UNL     1      24.607 -32.879  19.493  1.00  0.00     0.210 HD
ENDBRANCH  27  33
TORSDOF 2
ENDMDL
MODEL 5
REMARK VINA RESULT:    -4.226      3.680      5.285
REMARK INTER + INTRA:          -4.768
REMARK INTER:                  -4.608
REMARK INTRA:                  -0.160
REMARK UNBOUND:                -0.171
REMARK SMILES C[C@@H]1[C@H](C)CC[C@]2(C(=O)[O-])CC[C@]3(C)C(=CC[C@@H]4[C@]5(C)CC[C@H](O)C(C)(C)[C@H]5CC[C@]43C)[C@H]12
REMARK SMILES IDX 7 1 6 2 11 3 33 4 5 5 12 6 15 7 2 8 3 9 13 10 16 11 1 12
REMARK SMILES IDX 4 13 14 14 31 15 17 16 18 17 30 18 32 19 19 20 29 21 28 22
REMARK SMILES IDX 21 23 20 24 25 25 22 26 23 27 26 28 27 29 8 30 9 31 10 32
REMARK SMILES IDX 24 33
REMARK H PARENT 24 34
REMARK Flexibility Score: inf
ROOT
ATOM      1  C   UNL     1      22.501 -27.986  29.435  1.00  0.00     0.017 C 
ATOM      2  C   UNL     1      22.499 -27.365  30.863  1.00  0.00     0.014 C 
ATOM      3  C   UNL     1      21.087 -28.493  29.071  1.00  0.00     0.014 C 
ATOM      4  C   UNL     1      23.533 -29.172  29.289  1.00  0.00     0.030 C 
ATOM      5  C   UNL     1      22.559 -28.386  31.995  1.00  0.00     0.004 C 
ATOM      6  C   UNL     1      21.005 -28.948  27.604  1.00  0.00     0.013 C 
ATOM      7  C   UNL     1      23.357 -29.976  27.982  1.00  0.00    -0.063 C 
ATOM      8  C   UNL     1      23.764 -30.085  30.555  1.00  0.00    -0.003 C 
ATOM      9  C   UNL     1      23.823 -29.236  31.851  1.00  0.00    -0.011 C 
ATOM     10  C   UNL     1      22.004 -30.095  27.223  1.00  0.00    -0.006 C 
ATOM     11  C   UNL     1      24.468 -30.579  27.485  1.00  0.00    -0.027 C 
ATOM     12  C   UNL     1      22.825 -31.299  30.676  1.00  0.00     0.008 C 
ATOM     13  C   UNL     1      24.077 -30.060  33.125  1.00  0.00     0.008 C 
ATOM     14  C   UNL     1      21.318 -31.420  27.698  1.00  0.00     0.017 C 
ATOM     15  C   UNL     1      22.305 -30.080  25.637  1.00  0.00    -0.020 C 
ATOM     16  C   UNL     1      24.628 -31.040  26.054  1.00  0.00     0.032 C 
ATOM     17  C   UNL     1      23.295 -31.255  25.296  1.00  0.00     0.006 C 
ATOM     18  C   UNL     1      21.011 -30.304  24.806  1.00  0.00     0.008 C 
ATOM     19  C   UNL     1      22.933 -28.690  25.250  1.00  0.00     0.012 C 
ATOM     20  C   UNL     1      23.361 -31.734  23.744  1.00  0.00    -0.025 C 
ATOM     21  C   UNL     1      21.212 -30.286  23.281  1.00  0.00     0.005 C 
ATOM     22  C   UNL     1      22.623 -30.717  22.784  1.00  0.00     0.003 C 
ATOM     23  C   UNL     1      24.845 -31.947  23.234  1.00  0.00     0.010 C 
ATOM     24  C   UNL     1      22.645 -33.120  23.664  1.00  0.00     0.012 C 
ATOM     25  C   UNL     1      22.677 -31.038  21.217  1.00  0.00    -0.006 C 
ATOM     26  C   UNL     1      25.125 -31.529  21.779  1.00  0.00     0.033 C 
ATOM     27  C   UNL     1      23.962 -31.861  20.845  1.00  0.00     0.120 C 
ATOM     28  C   UNL     1      22.685 -29.685  20.446  1.00  0.00     0.014 C 
ATOM     29  C   UNL     1      21.444 -31.830  20.703  1.00  0.00     0.014 C 
ENDROOT
BRANCH   1  30
ATOM     30  C   UNL     1      22.867 -26.821  28.507  1.00  0.00     0.048 C 
ATOM     31  O   UNL     1      22.124 -25.805  28.440  1.00  0.00    -0.550 OA
ATOM     32  O   UNL     1      24.078 -26.797  27.821  1.00  0.00    -0.550 OA
ENDBRANCH   1  30
BRANCH  27  33
ATOM     33  O   UNL     1      24.347 -31.621  19.513  1.00  0.00    -0.393 OA
ATOM     34  H   UNL     1      24.792 -30.733  19.488  1.00  0.00     0.210 HD
ENDBRANCH  27  33
TORSDOF 2
ENDMDL
MODEL 6
REMARK VINA RESULT:    -3.973      2.253      8.147
REMARK INTER + INTRA:          -4.492
REMARK INTER:                  -4.325
REMARK INTRA:                  -0.167
REMARK UNBOUND:                -0.171
REMARK SMILES C[C@@H]1[C@H](C)CC[C@]2(C(=O)[O-])CC[C@]3(C)C(=CC[C@@H]4[C@]5(C)CC[C@H](O)C(C)(C)[C@H]5CC[C@]43C)[C@H]12
REMARK SMILES IDX 7 1 6 2 11 3 33 4 5 5 12 6 15 7 2 8 3 9 13 10 16 11 1 12
REMARK SMILES IDX 4 13 14 14 31 15 17 16 18 17 30 18 32 19 19 20 29 21 28 22
REMARK SMILES IDX 21 23 20 24 25 25 22 26 23 27 26 28 27 29 8 30 9 31 10 32
REMARK SMILES IDX 24 33
REMARK H PARENT 24 34
REMARK Flexibility Score: inf
ROOT
ATOM      1  C   UNL     1      19.533 -31.797  23.740  1.00  0.00     0.017 C 
ATOM      2  C   UNL     1      18.893 -31.999  22.335  1.00  0.00     0.014 C 
ATOM      3  C   UNL     1      19.512 -33.125  24.532  1.00  0.00     0.014 C 
ATOM      4  C   UNL     1      18.806 -30.677  24.584  1.00  0.00     0.030 C 
ATOM      5  C   UNL     1      17.368 -31.994  22.329  1.00  0.00     0.004 C 
ATOM      6  C   UNL     1      20.296 -33.013  25.851  1.00  0.00     0.013 C 
ATOM      7  C   UNL     1      19.239 -30.653  26.066  1.00  0.00    -0.063 C 
ATOM      8  C   UNL     1      17.248 -30.526  24.389  1.00  0.00    -0.003 C 
ATOM      9  C   UNL     1      16.856 -30.668  22.895  1.00  0.00    -0.011 C 
ATOM     10  C   UNL     1      19.771 -31.903  26.826  1.00  0.00    -0.006 C 
ATOM     11  C   UNL     1      19.162 -29.456  26.703  1.00  0.00    -0.027 C 
ATOM     12  C   UNL     1      16.376 -31.389  25.321  1.00  0.00     0.008 C 
ATOM     13  C   UNL     1      15.352 -30.501  22.626  1.00  0.00     0.008 C 
ATOM     14  C   UNL     1      18.554 -32.546  27.573  1.00  0.00     0.017 C 
ATOM     15  C   UNL     1      20.943 -31.431  27.830  1.00  0.00    -0.020 C 
ATOM     16  C   UNL     1      19.904 -29.108  27.973  1.00  0.00     0.032 C 
ATOM     17  C   UNL     1      20.369 -30.332  28.800  1.00  0.00     0.006 C 
ATOM     18  C   UNL     1      21.455 -32.606  28.707  1.00  0.00     0.008 C 
ATOM     19  C   UNL     1      22.140 -30.858  26.983  1.00  0.00     0.012 C 
ATOM     20  C   UNL     1      21.194 -30.062  30.175  1.00  0.00    -0.025 C 
ATOM     21  C   UNL     1      22.587 -32.240  29.681  1.00  0.00     0.005 C 
ATOM     22  C   UNL     1      22.614 -30.757  30.153  1.00  0.00     0.003 C 
ATOM     23  C   UNL     1      21.374 -28.520  30.486  1.00  0.00     0.010 C 
ATOM     24  C   UNL     1      20.348 -30.670  31.339  1.00  0.00     0.012 C 
ATOM     25  C   UNL     1      23.556 -30.509  31.423  1.00  0.00    -0.006 C 
ATOM     26  C   UNL     1      22.720 -28.110  31.109  1.00  0.00     0.033 C 
ATOM     27  C   UNL     1      23.231 -29.137  32.118  1.00  0.00     0.120 C 
ATOM     28  C   UNL     1      25.035 -30.508  30.936  1.00  0.00     0.014 C 
ATOM     29  C   UNL     1      23.449 -31.621  32.502  1.00  0.00     0.014 C 
ENDROOT
BRANCH   1  30
ATOM     30  C   UNL     1      20.989 -31.410  23.451  1.00  0.00     0.048 C 
ATOM     31  O   UNL     1      21.752 -32.215  22.854  1.00  0.00    -0.550 OA
ATOM     32  O   UNL     1      21.462 -30.130  23.721  1.00  0.00    -0.550 OA
ENDBRANCH   1  30
BRANCH  27  33
ATOM     33  O   UNL     1      24.364 -28.625  32.777  1.00  0.00    -0.393 OA
ATOM     34  H   UNL     1      25.067 -29.326  32.747  1.00  0.00     0.210 HD
ENDBRANCH  27  33
TORSDOF 2
ENDMDL
MODEL 7
REMARK VINA RESULT:    -3.286      2.148      8.131
REMARK INTER + INTRA:          -3.745
REMARK INTER:                  -3.930
REMARK INTRA:                   0.185
REMARK UNBOUND:                -0.171
REMARK SMILES C[C@@H]1[C@H](C)CC[C@]2(C(=O)[O-])CC[C@]3(C)C(=CC[C@@H]4[C@]5(C)CC[C@H](O)C(C)(C)[C@H]5CC[C@]43C)[C@H]12
REMARK SMILES IDX 7 1 6 2 11 3 33 4 5 5 12 6 15 7 2 8 3 9 13 10 16 11 1 12
REMARK SMILES IDX 4 13 14 14 31 15 17 16 18 17 30 18 32 19 19 20 29 21 28 22
REMARK SMILES IDX 21 23 20 24 25 25 22 26 23 27 26 28 27 29 8 30 9 31 10 32
REMARK SMILES IDX 24 33
REMARK H PARENT 24 34
REMARK Flexibility Score: inf
ROOT
ATOM      1  C   UNL     1      18.310 -31.881  24.284  1.00  0.00     0.017 C 
ATOM      2  C   UNL     1      17.489 -32.375  23.056  1.00  0.00     0.014 C 
ATOM      3  C   UNL     1      18.225 -30.342  24.398  1.00  0.00     0.014 C 
ATOM      4  C   UNL     1      19.826 -32.316  24.216  1.00  0.00     0.030 C 
ATOM      5  C   UNL     1      18.203 -32.223  21.717  1.00  0.00     0.004 C 
ATOM      6  C   UNL     1      18.870 -29.831  25.698  1.00  0.00     0.013 C 
ATOM      7  C   UNL     1      20.710 -31.609  25.267  1.00  0.00    -0.063 C 
ATOM      8  C   UNL     1      20.492 -32.382  22.787  1.00  0.00    -0.003 C 
ATOM      9  C   UNL     1      19.521 -32.999  21.747  1.00  0.00    -0.011 C 
ATOM     10  C   UNL     1      20.382 -30.210  25.864  1.00  0.00    -0.006 C 
ATOM     11  C   UNL     1      21.811 -32.284  25.687  1.00  0.00    -0.027 C 
ATOM     12  C   UNL     1      21.143 -31.076  22.297  1.00  0.00     0.008 C 
ATOM     13  C   UNL     1      20.116 -33.124  20.335  1.00  0.00     0.008 C 
ATOM     14  C   UNL     1      21.172 -29.150  25.025  1.00  0.00     0.017 C 
ATOM     15  C   UNL     1      20.798 -30.210  27.423  1.00  0.00    -0.020 C 
ATOM     16  C   UNL     1      22.558 -31.995  26.969  1.00  0.00     0.032 C 
ATOM     17  C   UNL     1      22.325 -30.576  27.543  1.00  0.00     0.006 C 
ATOM     18  C   UNL     1      20.603 -28.810  28.069  1.00  0.00     0.008 C 
ATOM     19  C   UNL     1      19.910 -31.260  28.188  1.00  0.00     0.012 C 
ATOM     20  C   UNL     1      23.070 -30.175  28.931  1.00  0.00    -0.025 C 
ATOM     21  C   UNL     1      20.962 -28.731  29.562  1.00  0.00     0.005 C 
ATOM     22  C   UNL     1      22.039 -29.746  30.049  1.00  0.00     0.003 C 
ATOM     23  C   UNL     1      23.988 -31.339  29.489  1.00  0.00     0.010 C 
ATOM     24  C   UNL     1      24.006 -28.966  28.611  1.00  0.00     0.012 C 
ATOM     25  C   UNL     1      22.643 -29.393  31.488  1.00  0.00    -0.006 C 
ATOM     26  C   UNL     1      24.014 -31.502  31.019  1.00  0.00     0.033 C 
ATOM     27  C   UNL     1      23.989 -30.160  31.748  1.00  0.00     0.120 C 
ATOM     28  C   UNL     1      21.595 -29.802  32.566  1.00  0.00     0.014 C 
ATOM     29  C   UNL     1      22.915 -27.877  31.693  1.00  0.00     0.014 C 
ENDROOT
BRANCH   1  30
ATOM     30  C   UNL     1      17.611 -32.512  25.495  1.00  0.00     0.048 C 
ATOM     31  O   UNL     1      18.284 -33.125  26.367  1.00  0.00    -0.550 OA
ATOM     32  O   UNL     1      16.253 -32.316  25.728  1.00  0.00    -0.550 OA
ENDBRANCH   1  30
BRANCH  27  33
ATOM     33  O   UNL     1      24.193 -30.369  33.125  1.00  0.00    -0.393 OA
ATOM     34  H   UNL     1      25.164 -30.530  33.259  1.00  0.00     0.210 HD
ENDBRANCH  27  33
TORSDOF 2
ENDMDL
