MODEL 1
REMARK VINA RESULT:    -2.973      0.000      0.000
REMARK INTER + INTRA:          -6.685
REMARK INTER:                  -5.754
REMARK INTRA:                  -0.932
REMARK UNBOUND:                -0.932
REMARK SMILES CCCCCCCCCCCCCCCCCC(=O)[O-]
REMARK SMILES IDX 10 1 11 2 12 3 13 4 14 5 15 6 16 7 17 8 18 9 19 10 20 11
REMARK SMILES IDX 9 12 8 13 7 14 6 15 5 16 4 17 3 18 2 19 1 20
REMARK H PARENT
REMARK Flexibility Score: inf
ROOT
ATOM      1  C   UNL     1     -17.542 -12.921   2.864  1.00  0.00     0.000 C 
ENDROOT
BRANCH   1   2
ATOM      2  C   UNL     1     -16.402 -12.216   2.108  1.00  0.00     0.000 C 
BRANCH   2   3
ATOM      3  C   UNL     1     -16.076 -10.825   2.678  1.00  0.00     0.000 C 
BRANCH   3   4
ATOM      4  C   UNL     1     -14.583 -10.466   2.524  1.00  0.00     0.000 C 
BRANCH   4   5
ATOM      5  C   UNL     1     -13.654 -11.694   2.458  1.00  0.00     0.000 C 
BRANCH   5   6
ATOM      6  C   UNL     1     -12.333 -11.547   3.232  1.00  0.00     0.000 C 
BRANCH   6   7
ATOM      7  C   UNL     1     -11.856 -12.818   3.961  1.00  0.00     0.006 C 
BRANCH   7   8
ATOM      8  C   UNL     1     -11.332 -12.564   5.389  1.00  0.00     0.053 C 
BRANCH   8   9
ATOM      9  C   UNL     1     -12.346 -12.904   6.440  1.00  0.00     0.041 C 
ATOM     10  O   UNL     1     -11.993 -13.045   7.641  1.00  0.00    -0.550 OA
ATOM     11  O   UNL     1     -13.677 -13.089   6.091  1.00  0.00    -0.550 OA
ENDBRANCH   8   9
ENDBRANCH   7   8
ENDBRANCH   6   7
ENDBRANCH   5   6
ENDBRANCH   4   5
ENDBRANCH   3   4
ENDBRANCH   2   3
ENDBRANCH   1   2
BRANCH   1  12
ATOM     12  C   UNL     1     -18.944 -12.760   2.240  1.00  0.00     0.000 C 
BRANCH  12  13
ATOM     13  C   UNL     1     -18.965 -12.440   0.734  1.00  0.00    -0.000 C 
BRANCH  13  14
ATOM     14  C   UNL     1     -20.374 -12.503   0.123  1.00  0.00    -0.000 C 
BRANCH  14  15
ATOM     15  C   UNL     1     -21.473 -12.710   1.178  1.00  0.00    -0.000 C 
BRANCH  15  16
ATOM     16  C   UNL     1     -22.896 -12.788   0.587  1.00  0.00    -0.000 C 
BRANCH  16  17
ATOM     17  C   UNL     1     -23.950 -12.171   1.521  1.00  0.00    -0.000 C 
BRANCH  17  18
ATOM     18  C   UNL     1     -23.284 -11.371   2.652  1.00  0.00    -0.000 C 
BRANCH  18  19
ATOM     19  C   UNL     1     -23.773 -11.795   4.045  1.00  0.00    -0.003 C 
ATOM     20  C   UNL     1     -25.137 -11.206   4.405  1.00  0.00     0.004 C 
ENDBRANCH  18  19
ENDBRANCH  17  18
ENDBRANCH  16  17
ENDBRANCH  15  16
ENDBRANCH  14  15
ENDBRANCH  13  14
ENDBRANCH  12  13
ENDBRANCH   1  12
TORSDOF 16
ENDMDL
MODEL 2
REMARK VINA RESULT:    -2.892      4.355      9.498
REMARK INTER + INTRA:          -6.529
REMARK INTER:                  -5.605
REMARK INTRA:                  -0.924
REMARK UNBOUND:                -0.932
REMARK SMILES CCCCCCCCCCCCCCCCCC(=O)[O-]
REMARK SMILES IDX 10 1 11 2 12 3 13 4 14 5 15 6 16 7 17 8 18 9 19 10 20 11
REMARK SMILES IDX 9 12 8 13 7 14 6 15 5 16 4 17 3 18 2 19 1 20
REMARK H PARENT
REMARK Flexibility Score: inf
ROOT
ATOM      1  C   UNL     1     -16.133 -12.070   3.477  1.00  0.00     0.000 C 
ENDROOT
BRANCH   1   2
ATOM      2  C   UNL     1     -16.354 -12.923   2.216  1.00  0.00     0.000 C 
BRANCH   2   3
ATOM      3  C   UNL     1     -17.842 -13.124   1.883  1.00  0.00     0.000 C 
BRANCH   3   4
ATOM      4  C   UNL     1     -18.760 -12.771   3.073  1.00  0.00     0.000 C 
BRANCH   4   5
ATOM      5  C   UNL     1     -20.207 -12.437   2.660  1.00  0.00     0.000 C 
BRANCH   5   6
ATOM      6  C   UNL     1     -21.282 -12.849   3.681  1.00  0.00     0.000 C 
BRANCH   6   7
ATOM      7  C   UNL     1     -22.737 -12.631   3.224  1.00  0.00     0.006 C 
BRANCH   7   8
ATOM      8  C   UNL     1     -23.231 -11.178   3.375  1.00  0.00     0.053 C 
BRANCH   8   9
ATOM      9  C   UNL     1     -24.402 -10.876   2.489  1.00  0.00     0.041 C 
ATOM     10  O   UNL     1     -24.386  -9.866   1.737  1.00  0.00    -0.550 OA
ATOM     11  O   UNL     1     -25.524 -11.695   2.512  1.00  0.00    -0.550 OA
ENDBRANCH   8   9
ENDBRANCH   7   8
ENDBRANCH   6   7
ENDBRANCH   5   6
ENDBRANCH   4   5
ENDBRANCH   3   4
ENDBRANCH   2   3
ENDBRANCH   1   2
BRANCH   1  12
ATOM     12  C   UNL     1     -15.857 -10.573   3.221  1.00  0.00     0.000 C 
BRANCH  12  13
ATOM     13  C   UNL     1     -14.409 -10.227   2.825  1.00  0.00    -0.000 C 
BRANCH  13  14
ATOM     14  C   UNL     1     -13.781 -11.257   1.874  1.00  0.00    -0.000 C 
BRANCH  14  15
ATOM     15  C   UNL     1     -12.307 -11.551   2.201  1.00  0.00    -0.000 C 
BRANCH  15  16
ATOM     16  C   UNL     1     -12.038 -13.016   2.603  1.00  0.00    -0.000 C 
BRANCH  16  17
ATOM     17  C   UNL     1     -11.250 -13.125   3.919  1.00  0.00    -0.000 C 
BRANCH  17  18
ATOM     18  C   UNL     1     -11.982 -12.403   5.061  1.00  0.00    -0.000 C 
BRANCH  18  19
ATOM     19  C   UNL     1     -13.358 -13.015   5.365  1.00  0.00    -0.003 C 
ATOM     20  C   UNL     1     -13.646 -13.125   6.862  1.00  0.00     0.004 C 
ENDBRANCH  18  19
ENDBRANCH  17  18
ENDBRANCH  16  17
ENDBRANCH  15  16
ENDBRANCH  14  15
ENDBRANCH  13  14
ENDBRANCH  12  13
ENDBRANCH   1  12
TORSDOF 16
ENDMDL
MODEL 3
REMARK VINA RESULT:    -2.701     16.465     18.592
REMARK INTER + INTRA:          -6.160
REMARK INTER:                  -4.779
REMARK INTRA:                  -1.381
REMARK UNBOUND:                -0.932
REMARK SMILES CCCCCCCCCCCCCCCCCC(=O)[O-]
REMARK SMILES IDX 10 1 11 2 12 3 13 4 14 5 15 6 16 7 17 8 18 9 19 10 20 11
REMARK SMILES IDX 9 12 8 13 7 14 6 15 5 16 4 17 3 18 2 19 1 20
REMARK H PARENT
REMARK Flexibility Score: inf
ROOT
ATOM      1  C   UNL     1     -19.291   1.586   0.921  1.00  0.00     0.000 C 
ENDROOT
BRANCH   1   2
ATOM      2  C   UNL     1     -20.702   1.466   0.319  1.00  0.00     0.000 C 
BRANCH   2   3
ATOM      3  C   UNL     1     -21.636   0.577   1.157  1.00  0.00     0.000 C 
BRANCH   3   4
ATOM      4  C   UNL     1     -23.100   1.067   1.118  1.00  0.00     0.000 C 
BRANCH   4   5
ATOM      5  C   UNL     1     -23.649   1.484   2.497  1.00  0.00     0.000 C 
BRANCH   5   6
ATOM      6  C   UNL     1     -24.886   2.398   2.449  1.00  0.00     0.000 C 
BRANCH   6   7
ATOM      7  C   UNL     1     -24.819   3.639   3.360  1.00  0.00     0.006 C 
BRANCH   7   8
ATOM      8  C   UNL     1     -26.121   4.464   3.392  1.00  0.00     0.053 C 
BRANCH   8   9
ATOM      9  C   UNL     1     -26.046   5.617   4.347  1.00  0.00     0.041 C 
ATOM     10  O   UNL     1     -26.068   5.415   5.590  1.00  0.00    -0.550 OA
ATOM     11  O   UNL     1     -25.976   6.918   3.865  1.00  0.00    -0.550 OA
ENDBRANCH   8   9
ENDBRANCH   7   8
ENDBRANCH   6   7
ENDBRANCH   5   6
ENDBRANCH   4   5
ENDBRANCH   3   4
ENDBRANCH   2   3
ENDBRANCH   1   2
BRANCH   1  12
ATOM     12  C   UNL     1     -18.429   2.736   0.357  1.00  0.00     0.000 C 
BRANCH  12  13
ATOM     13  C   UNL     1     -19.209   3.984  -0.097  1.00  0.00    -0.000 C 
BRANCH  13  14
ATOM     14  C   UNL     1     -18.486   5.299   0.231  1.00  0.00    -0.000 C 
BRANCH  14  15
ATOM     15  C   UNL     1     -19.443   6.499   0.326  1.00  0.00    -0.000 C 
BRANCH  15  16
ATOM     16  C   UNL     1     -20.905   6.160  -0.034  1.00  0.00    -0.000 C 
BRANCH  16  17
ATOM     17  C   UNL     1     -21.903   6.720   0.992  1.00  0.00    -0.000 C 
BRANCH  17  18
ATOM     18  C   UNL     1     -23.224   5.935   0.961  1.00  0.00    -0.000 C 
BRANCH  18  19
ATOM     19  C   UNL     1     -24.355   6.704   0.263  1.00  0.00    -0.003 C 
ATOM     20  C   UNL     1     -25.644   5.891   0.143  1.00  0.00     0.004 C 
ENDBRANCH  18  19
ENDBRANCH  17  18
ENDBRANCH  16  17
ENDBRANCH  15  16
ENDBRANCH  14  15
ENDBRANCH  13  14
ENDBRANCH  12  13
ENDBRANCH   1  12
TORSDOF 16
ENDMDL
MODEL 4
REMARK VINA RESULT:    -2.681     16.106     18.489
REMARK INTER + INTRA:          -6.121
REMARK INTER:                  -4.061
REMARK INTRA:                  -2.061
REMARK UNBOUND:                -0.932
REMARK SMILES CCCCCCCCCCCCCCCCCC(=O)[O-]
REMARK SMILES IDX 10 1 11 2 12 3 13 4 14 5 15 6 16 7 17 8 18 9 19 10 20 11
REMARK SMILES IDX 9 12 8 13 7 14 6 15 5 16 4 17 3 18 2 19 1 20
REMARK H PARENT
REMARK Flexibility Score: inf
ROOT
ATOM      1  C   UNL     1     -24.232   3.622   3.242  1.00  0.00     0.000 C 
ENDROOT
BRANCH   1   2
ATOM      2  C   UNL     1     -24.445   4.850   4.144  1.00  0.00     0.000 C 
BRANCH   2   3
ATOM      3  C   UNL     1     -24.147   6.178   3.427  1.00  0.00     0.000 C 
BRANCH   3   4
ATOM      4  C   UNL     1     -25.393   6.752   2.718  1.00  0.00     0.000 C 
BRANCH   4   5
ATOM      5  C   UNL     1     -25.697   6.080   1.365  1.00  0.00     0.000 C 
BRANCH   5   6
ATOM      6  C   UNL     1     -25.344   6.928   0.130  1.00  0.00     0.000 C 
BRANCH   6   7
ATOM      7  C   UNL     1     -23.836   7.117  -0.125  1.00  0.00     0.006 C 
BRANCH   7   8
ATOM      8  C   UNL     1     -23.009   5.824   0.013  1.00  0.00     0.053 C 
BRANCH   8   9
ATOM      9  C   UNL     1     -21.647   6.072   0.587  1.00  0.00     0.041 C 
ATOM     10  O   UNL     1     -21.446   7.060   1.342  1.00  0.00    -0.550 OA
ATOM     11  O   UNL     1     -20.592   5.228   0.268  1.00  0.00    -0.550 OA
ENDBRANCH   8   9
ENDBRANCH   7   8
ENDBRANCH   6   7
ENDBRANCH   5   6
ENDBRANCH   4   5
ENDBRANCH   3   4
ENDBRANCH   2   3
ENDBRANCH   1   2
BRANCH   1  12
ATOM     12  C   UNL     1     -25.381   2.593   3.248  1.00  0.00     0.000 C 
BRANCH  12  13
ATOM     13  C   UNL     1     -26.008   2.293   1.874  1.00  0.00    -0.000 C 
BRANCH  13  14
ATOM     14  C   UNL     1     -25.013   2.440   0.712  1.00  0.00    -0.000 C 
BRANCH  14  15
ATOM     15  C   UNL     1     -24.829   1.138  -0.085  1.00  0.00    -0.000 C 
BRANCH  15  16
ATOM     16  C   UNL     1     -23.432   0.504   0.071  1.00  0.00    -0.000 C 
BRANCH  16  17
ATOM     17  C   UNL     1     -22.951   0.502   1.532  1.00  0.00    -0.000 C 
BRANCH  17  18
ATOM     18  C   UNL     1     -21.819   1.519   1.741  1.00  0.00    -0.000 C 
BRANCH  18  19
ATOM     19  C   UNL     1     -20.998   1.764   0.466  1.00  0.00    -0.003 C 
ATOM     20  C   UNL     1     -19.507   1.487   0.654  1.00  0.00     0.004 C 
ENDBRANCH  18  19
ENDBRANCH  17  18
ENDBRANCH  16  17
ENDBRANCH  15  16
ENDBRANCH  14  15
ENDBRANCH  13  14
ENDBRANCH  12  13
ENDBRANCH   1  12
TORSDOF 16
ENDMDL
MODEL 5
REMARK VINA RESULT:    -2.672      1.370      1.734
REMARK INTER + INTRA:          -6.103
REMARK INTER:                  -5.180
REMARK INTRA:                  -0.923
REMARK UNBOUND:                -0.932
REMARK SMILES CCCCCCCCCCCCCCCCCC(=O)[O-]
REMARK SMILES IDX 10 1 11 2 12 3 13 4 14 5 15 6 16 7 17 8 18 9 19 10 20 11
REMARK SMILES IDX 9 12 8 13 7 14 6 15 5 16 4 17 3 18 2 19 1 20
REMARK H PARENT
REMARK Flexibility Score: inf
ROOT
ATOM      1  C   UNL     1     -16.942 -12.348   2.707  1.00  0.00     0.000 C 
ENDROOT
BRANCH   1   2
ATOM      2  C   UNL     1     -15.887 -11.238   2.562  1.00  0.00     0.000 C 
BRANCH   2   3
ATOM      3  C   UNL     1     -14.751 -11.615   1.595  1.00  0.00     0.000 C 
BRANCH   3   4
ATOM      4  C   UNL     1     -13.466 -10.800   1.857  1.00  0.00     0.000 C 
BRANCH   4   5
ATOM      5  C   UNL     1     -12.172 -11.628   1.732  1.00  0.00     0.000 C 
BRANCH   5   6
ATOM      6  C   UNL     1     -12.229 -13.017   2.391  1.00  0.00     0.000 C 
BRANCH   6   7
ATOM      7  C   UNL     1     -11.535 -13.119   3.763  1.00  0.00     0.006 C 
BRANCH   7   8
ATOM      8  C   UNL     1     -12.497 -13.010   4.963  1.00  0.00     0.053 C 
BRANCH   8   9
ATOM      9  C   UNL     1     -11.777 -12.785   6.258  1.00  0.00     0.041 C 
ATOM     10  O   UNL     1     -10.520 -12.846   6.304  1.00  0.00    -0.550 OA
ATOM     11  O   UNL     1     -12.494 -12.532   7.420  1.00  0.00    -0.550 OA
ENDBRANCH   8   9
ENDBRANCH   7   8
ENDBRANCH   6   7
ENDBRANCH   5   6
ENDBRANCH   4   5
ENDBRANCH   3   4
ENDBRANCH   2   3
ENDBRANCH   1   2
BRANCH   1  12
ATOM     12  C   UNL     1     -17.799 -12.611   1.451  1.00  0.00     0.000 C 
BRANCH  12  13
ATOM     13  C   UNL     1     -19.282 -12.930   1.718  1.00  0.00    -0.000 C 
BRANCH  13  14
ATOM     14  C   UNL     1     -19.666 -12.815   3.202  1.00  0.00    -0.000 C 
BRANCH  14  15
ATOM     15  C   UNL     1     -21.168 -13.033   3.448  1.00  0.00    -0.000 C 
BRANCH  15  16
ATOM     16  C   UNL     1     -22.046 -12.786   2.203  1.00  0.00    -0.000 C 
BRANCH  16  17
ATOM     17  C   UNL     1     -23.477 -12.362   2.573  1.00  0.00    -0.000 C 
BRANCH  17  18
ATOM     18  C   UNL     1     -23.706 -10.873   2.271  1.00  0.00    -0.000 C 
BRANCH  18  19
ATOM     19  C   UNL     1     -25.192 -10.484   2.295  1.00  0.00    -0.003 C 
ATOM     20  C   UNL     1     -26.125 -11.681   2.115  1.00  0.00     0.004 C 
ENDBRANCH  18  19
ENDBRANCH  17  18
ENDBRANCH  16  17
ENDBRANCH  15  16
ENDBRANCH  14  15
ENDBRANCH  13  14
ENDBRANCH  12  13
ENDBRANCH   1  12
TORSDOF 16
ENDMDL
MODEL 6
REMARK VINA RESULT:    -2.633     15.754     17.940
REMARK INTER + INTRA:          -6.027
REMARK INTER:                  -3.998
REMARK INTRA:                  -2.030
REMARK UNBOUND:                -0.932
REMARK SMILES CCCCCCCCCCCCCCCCCC(=O)[O-]
REMARK SMILES IDX 10 1 11 2 12 3 13 4 14 5 15 6 16 7 17 8 18 9 19 10 20 11
REMARK SMILES IDX 9 12 8 13 7 14 6 15 5 16 4 17 3 18 2 19 1 20
REMARK H PARENT
REMARK Flexibility Score: inf
ROOT
ATOM      1  C   UNL     1     -24.566   5.304   4.262  1.00  0.00     0.000 C 
ENDROOT
BRANCH   1   2
ATOM      2  C   UNL     1     -24.543   6.796   3.888  1.00  0.00     0.000 C 
BRANCH   2   3
ATOM      3  C   UNL     1     -23.741   7.080   2.606  1.00  0.00     0.000 C 
BRANCH   3   4
ATOM      4  C   UNL     1     -24.618   7.002   1.338  1.00  0.00     0.000 C 
BRANCH   4   5
ATOM      5  C   UNL     1     -24.530   5.647   0.608  1.00  0.00     0.000 C 
BRANCH   5   6
ATOM      6  C   UNL     1     -23.201   5.394  -0.125  1.00  0.00     0.000 C 
BRANCH   6   7
ATOM      7  C   UNL     1     -22.113   4.697   0.714  1.00  0.00     0.006 C 
BRANCH   7   8
ATOM      8  C   UNL     1     -21.013   4.016  -0.125  1.00  0.00     0.053 C 
BRANCH   8   9
ATOM      9  C   UNL     1     -19.639   4.497   0.233  1.00  0.00     0.041 C 
ATOM     10  O   UNL     1     -19.414   5.727   0.379  1.00  0.00    -0.550 OA
ATOM     11  O   UNL     1     -18.599   3.589   0.381  1.00  0.00    -0.550 OA
ENDBRANCH   8   9
ENDBRANCH   7   8
ENDBRANCH   6   7
ENDBRANCH   5   6
ENDBRANCH   4   5
ENDBRANCH   3   4
ENDBRANCH   2   3
ENDBRANCH   1   2
BRANCH   1  12
ATOM     12  C   UNL     1     -25.971   4.682   4.407  1.00  0.00     0.000 C 
BRANCH  12  13
ATOM     13  C   UNL     1     -26.035   3.152   4.246  1.00  0.00    -0.000 C 
BRANCH  13  14
ATOM     14  C   UNL     1     -26.097   2.702   2.778  1.00  0.00    -0.000 C 
BRANCH  14  15
ATOM     15  C   UNL     1     -24.770   2.104   2.281  1.00  0.00    -0.000 C 
BRANCH  15  16
ATOM     16  C   UNL     1     -24.677   1.984   0.746  1.00  0.00    -0.000 C 
BRANCH  16  17
ATOM     17  C   UNL     1     -24.149   0.610   0.299  1.00  0.00    -0.000 C 
BRANCH  17  18
ATOM     18  C   UNL     1     -22.614   0.573   0.331  1.00  0.00    -0.000 C 
BRANCH  18  19
ATOM     19  C   UNL     1     -22.067  -0.455   1.333  1.00  0.00    -0.003 C 
ATOM     20  C   UNL     1     -21.524   0.186   2.610  1.00  0.00     0.004 C 
ENDBRANCH  18  19
ENDBRANCH  17  18
ENDBRANCH  16  17
ENDBRANCH  15  16
ENDBRANCH  14  15
ENDBRANCH  13  14
ENDBRANCH  12  13
ENDBRANCH   1  12
TORSDOF 16
ENDMDL
MODEL 7
REMARK VINA RESULT:    -2.552      4.792     10.312
REMARK INTER + INTRA:          -5.870
REMARK INTER:                  -4.833
REMARK INTRA:                  -1.037
REMARK UNBOUND:                -0.932
REMARK SMILES CCCCCCCCCCCCCCCCCC(=O)[O-]
REMARK SMILES IDX 10 1 11 2 12 3 13 4 14 5 15 6 16 7 17 8 18 9 19 10 20 11
REMARK SMILES IDX 9 12 8 13 7 14 6 15 5 16 4 17 3 18 2 19 1 20
REMARK H PARENT
REMARK Flexibility Score: inf
ROOT
ATOM      1  C   UNL     1     -18.231 -12.102   3.003  1.00  0.00     0.000 C 
ENDROOT
BRANCH   1   2
ATOM      2  C   UNL     1     -19.508 -12.779   2.473  1.00  0.00     0.000 C 
BRANCH   2   3
ATOM      3  C   UNL     1     -20.636 -12.830   3.518  1.00  0.00     0.000 C 
BRANCH   3   4
ATOM      4  C   UNL     1     -22.012 -13.114   2.878  1.00  0.00     0.000 C 
BRANCH   4   5
ATOM      5  C   UNL     1     -22.500 -11.994   1.939  1.00  0.00     0.000 C 
BRANCH   5   6
ATOM      6  C   UNL     1     -23.976 -12.102   1.517  1.00  0.00     0.000 C 
BRANCH   6   7
ATOM      7  C   UNL     1     -24.382 -11.216   0.323  1.00  0.00     0.006 C 
BRANCH   7   8
ATOM      8  C   UNL     1     -24.244  -9.704   0.589  1.00  0.00     0.053 C 
BRANCH   8   9
ATOM      9  C   UNL     1     -25.448  -9.129   1.272  1.00  0.00     0.041 C 
ATOM     10  O   UNL     1     -25.883  -9.646   2.335  1.00  0.00    -0.550 OA
ATOM     11  O   UNL     1     -26.106  -8.036   0.723  1.00  0.00    -0.550 OA
ENDBRANCH   8   9
ENDBRANCH   7   8
ENDBRANCH   6   7
ENDBRANCH   5   6
ENDBRANCH   4   5
ENDBRANCH   3   4
ENDBRANCH   2   3
ENDBRANCH   1   2
BRANCH   1  12
ATOM     12  C   UNL     1     -17.024 -12.131   2.044  1.00  0.00     0.000 C 
BRANCH  12  13
ATOM     13  C   UNL     1     -15.985 -11.014   2.255  1.00  0.00    -0.000 C 
BRANCH  13  14
ATOM     14  C   UNL     1     -15.197 -11.162   3.566  1.00  0.00    -0.000 C 
BRANCH  14  15
ATOM     15  C   UNL     1     -14.780 -12.615   3.850  1.00  0.00    -0.000 C 
BRANCH  15  16
ATOM     16  C   UNL     1     -13.295 -12.772   4.237  1.00  0.00    -0.000 C 
BRANCH  16  17
ATOM     17  C   UNL     1     -12.362 -11.982   3.305  1.00  0.00    -0.000 C 
BRANCH  17  18
ATOM     18  C   UNL     1     -11.902 -12.847   2.122  1.00  0.00    -0.000 C 
BRANCH  18  19
ATOM     19  C   UNL     1     -12.280 -12.241   0.762  1.00  0.00    -0.003 C 
ATOM     20  C   UNL     1     -13.465 -12.946   0.102  1.00  0.00     0.004 C 
ENDBRANCH  18  19
ENDBRANCH  17  18
ENDBRANCH  16  17
ENDBRANCH  15  16
ENDBRANCH  14  15
ENDBRANCH  13  14
ENDBRANCH  12  13
ENDBRANCH   1  12
TORSDOF 16
ENDMDL
