MODEL 1
REMARK VINA RESULT:    -4.171      0.000      0.000
REMARK INTER + INTRA:          -7.135
REMARK INTER:                  -6.366
REMARK INTRA:                  -0.769
REMARK UNBOUND:                -0.769
REMARK SMILES O=C([O-])CCCCCCCCC(=O)[O-]
REMARK SMILES IDX 7 1 6 2 5 3 4 4 2 5 1 6 3 7 8 8 9 9 10 10 11 11 12 12 13 13
REMARK SMILES IDX 14 14
REMARK H PARENT
REMARK Flexibility Score: inf
ROOT
ATOM      1  C   UNL     1       1.776  51.574  23.032  1.00  0.00     0.000 C 
ENDROOT
BRANCH   1   2
ATOM      2  C   UNL     1       2.530  51.535  24.373  1.00  0.00     0.000 C 
BRANCH   2   3
ATOM      3  C   UNL     1       1.832  50.657  25.425  1.00  0.00     0.006 C 
BRANCH   3   4
ATOM      4  C   UNL     1       2.508  49.287  25.577  1.00  0.00     0.053 C 
BRANCH   4   5
ATOM      5  C   UNL     1       2.866  48.996  27.002  1.00  0.00     0.041 C 
ATOM      6  O   UNL     1       1.959  48.804  27.856  1.00  0.00    -0.550 OA
ATOM      7  O   UNL     1       4.198  48.967  27.394  1.00  0.00    -0.550 OA
ENDBRANCH   4   5
ENDBRANCH   3   4
ENDBRANCH   2   3
ENDBRANCH   1   2
BRANCH   1   8
ATOM      8  C   UNL     1       2.159  50.465  22.033  1.00  0.00     0.000 C 
BRANCH   8   9
ATOM      9  C   UNL     1       0.985  49.612  21.518  1.00  0.00     0.000 C 
BRANCH   9  10
ATOM     10  C   UNL     1       0.944  48.211  22.152  1.00  0.00     0.006 C 
BRANCH  10  11
ATOM     11  C   UNL     1      -0.154  48.090  23.217  1.00  0.00     0.053 C 
BRANCH  11  12
ATOM     12  C   UNL     1      -0.437  46.662  23.568  1.00  0.00     0.041 C 
ATOM     13  O   UNL     1      -0.946  45.889  22.715  1.00  0.00    -0.550 OA
ATOM     14  O   UNL     1      -0.166  46.192  24.847  1.00  0.00    -0.550 OA
ENDBRANCH  11  12
ENDBRANCH  10  11
ENDBRANCH   9  10
ENDBRANCH   8   9
ENDBRANCH   1   8
TORSDOF 9
ENDMDL
MODEL 2
REMARK VINA RESULT:    -4.106      3.020      5.647
REMARK INTER + INTRA:          -7.034
REMARK INTER:                  -6.465
REMARK INTRA:                  -0.569
REMARK UNBOUND:                -0.769
REMARK SMILES O=C([O-])CCCCCCCCC(=O)[O-]
REMARK SMILES IDX 7 1 6 2 5 3 4 4 2 5 1 6 3 7 8 8 9 9 10 10 11 11 12 12 13 13
REMARK SMILES IDX 14 14
REMARK H PARENT
REMARK Flexibility Score: inf
ROOT
ATOM      1  C   UNL     1       1.981  49.298  22.211  1.00  0.00     0.000 C 
ENDROOT
BRANCH   1   2
ATOM      2  C   UNL     1       1.717  49.633  23.689  1.00  0.00     0.000 C 
BRANCH   2   3
ATOM      3  C   UNL     1       0.689  48.693  24.339  1.00  0.00     0.006 C 
BRANCH   3   4
ATOM      4  C   UNL     1      -0.230  48.032  23.302  1.00  0.00     0.053 C 
BRANCH   4   5
ATOM      5  C   UNL     1      -0.475  46.588  23.614  1.00  0.00     0.041 C 
ATOM      6  O   UNL     1      -1.019  45.838  22.759  1.00  0.00    -0.550 OA
ATOM      7  O   UNL     1      -0.131  46.075  24.859  1.00  0.00    -0.550 OA
ENDBRANCH   4   5
ENDBRANCH   3   4
ENDBRANCH   2   3
ENDBRANCH   1   2
BRANCH   1   8
ATOM      8  C   UNL     1       1.794  50.472  21.229  1.00  0.00     0.000 C 
BRANCH   8   9
ATOM      9  C   UNL     1       0.945  51.641  21.759  1.00  0.00     0.000 C 
BRANCH   9  10
ATOM     10  C   UNL     1       1.399  53.004  21.211  1.00  0.00     0.006 C 
BRANCH  10  11
ATOM     11  C   UNL     1       1.747  53.992  22.333  1.00  0.00     0.053 C 
BRANCH  11  12
ATOM     12  C   UNL     1       3.219  54.032  22.604  1.00  0.00     0.041 C 
ATOM     13  O   UNL     1       3.860  55.107  22.465  1.00  0.00    -0.550 OA
ATOM     14  O   UNL     1       3.891  52.875  22.980  1.00  0.00    -0.550 OA
ENDBRANCH  11  12
ENDBRANCH  10  11
ENDBRANCH   9  10
ENDBRANCH   8   9
ENDBRANCH   1   8
TORSDOF 9
ENDMDL
MODEL 3
REMARK VINA RESULT:    -4.080      3.237      4.060
REMARK INTER + INTRA:          -6.996
REMARK INTER:                  -6.499
REMARK INTRA:                  -0.497
REMARK UNBOUND:                -0.769
REMARK SMILES O=C([O-])CCCCCCCCC(=O)[O-]
REMARK SMILES IDX 7 1 6 2 5 3 4 4 2 5 1 6 3 7 8 8 9 9 10 10 11 11 12 12 13 13
REMARK SMILES IDX 14 14
REMARK H PARENT
REMARK Flexibility Score: inf
ROOT
ATOM      1  C   UNL     1       1.430  51.745  21.721  1.00  0.00     0.000 C 
ENDROOT
BRANCH   1   2
ATOM      2  C   UNL     1       1.882  51.918  23.181  1.00  0.00     0.000 C 
BRANCH   2   3
ATOM      3  C   UNL     1       3.249  52.612  23.304  1.00  0.00     0.006 C 
BRANCH   3   4
ATOM      4  C   UNL     1       3.274  53.974  22.597  1.00  0.00     0.053 C 
BRANCH   4   5
ATOM      5  C   UNL     1       3.338  55.108  23.573  1.00  0.00     0.041 C 
ATOM      6  O   UNL     1       3.347  54.878  24.812  1.00  0.00    -0.550 OA
ATOM      7  O   UNL     1       3.357  56.420  23.116  1.00  0.00    -0.550 OA
ENDBRANCH   4   5
ENDBRANCH   3   4
ENDBRANCH   2   3
ENDBRANCH   1   2
BRANCH   1   8
ATOM      8  C   UNL     1       1.768  50.381  21.087  1.00  0.00     0.000 C 
BRANCH   8   9
ATOM      9  C   UNL     1       2.013  49.236  22.087  1.00  0.00     0.000 C 
BRANCH   9  10
ATOM     10  C   UNL     1       0.957  48.123  21.990  1.00  0.00     0.006 C 
BRANCH  10  11
ATOM     11  C   UNL     1      -0.050  48.178  23.147  1.00  0.00     0.053 C 
BRANCH  11  12
ATOM     12  C   UNL     1      -0.417  46.810  23.634  1.00  0.00     0.041 C 
ATOM     13  O   UNL     1      -0.213  46.488  24.834  1.00  0.00    -0.550 OA
ATOM     14  O   UNL     1      -0.958  45.880  22.755  1.00  0.00    -0.550 OA
ENDBRANCH  11  12
ENDBRANCH  10  11
ENDBRANCH   9  10
ENDBRANCH   8   9
ENDBRANCH   1   8
TORSDOF 9
ENDMDL
MODEL 4
REMARK VINA RESULT:    -4.022      3.655      5.562
REMARK INTER + INTRA:          -6.907
REMARK INTER:                  -6.565
REMARK INTRA:                  -0.342
REMARK UNBOUND:                -0.769
REMARK SMILES O=C([O-])CCCCCCCCC(=O)[O-]
REMARK SMILES IDX 7 1 6 2 5 3 4 4 2 5 1 6 3 7 8 8 9 9 10 10 11 11 12 12 13 13
REMARK SMILES IDX 14 14
REMARK H PARENT
REMARK Flexibility Score: inf
ROOT
ATOM      1  C   UNL     1       1.726  50.437  21.243  1.00  0.00     0.000 C 
ENDROOT
BRANCH   1   2
ATOM      2  C   UNL     1       1.972  49.225  22.158  1.00  0.00     0.000 C 
BRANCH   2   3
ATOM      3  C   UNL     1       0.910  48.126  21.992  1.00  0.00     0.006 C 
BRANCH   3   4
ATOM      4  C   UNL     1      -0.066  48.080  23.176  1.00  0.00     0.053 C 
BRANCH   4   5
ATOM      5  C   UNL     1      -0.463  46.677  23.519  1.00  0.00     0.041 C 
ATOM      6  O   UNL     1      -0.884  45.901  22.619  1.00  0.00    -0.550 OA
ATOM      7  O   UNL     1      -0.395  46.235  24.833  1.00  0.00    -0.550 OA
ENDBRANCH   4   5
ENDBRANCH   3   4
ENDBRANCH   2   3
ENDBRANCH   1   2
BRANCH   1   8
ATOM      8  C   UNL     1       1.095  51.662  21.934  1.00  0.00     0.000 C 
BRANCH   8   9
ATOM      9  C   UNL     1       1.447  53.023  21.307  1.00  0.00     0.000 C 
BRANCH   9  10
ATOM     10  C   UNL     1       0.211  53.903  21.059  1.00  0.00     0.006 C 
BRANCH  10  11
ATOM     11  C   UNL     1      -0.772  53.866  22.237  1.00  0.00     0.053 C 
BRANCH  11  12
ATOM     12  C   UNL     1      -2.190  53.722  21.776  1.00  0.00     0.041 C 
ATOM     13  O   UNL     1      -2.699  54.586  21.014  1.00  0.00    -0.550 OA
ATOM     14  O   UNL     1      -2.960  52.652  22.213  1.00  0.00    -0.550 OA
ENDBRANCH  11  12
ENDBRANCH  10  11
ENDBRANCH   9  10
ENDBRANCH   8   9
ENDBRANCH   1   8
TORSDOF 9
ENDMDL
MODEL 5
REMARK VINA RESULT:    -4.014      1.158      4.500
REMARK INTER + INTRA:          -6.895
REMARK INTER:                  -6.110
REMARK INTRA:                  -0.784
REMARK UNBOUND:                -0.769
REMARK SMILES O=C([O-])CCCCCCCCC(=O)[O-]
REMARK SMILES IDX 7 1 6 2 5 3 4 4 2 5 1 6 3 7 8 8 9 9 10 10 11 11 12 12 13 13
REMARK SMILES IDX 14 14
REMARK H PARENT
REMARK Flexibility Score: inf
ROOT
ATOM      1  C   UNL     1       1.367  51.476  22.289  1.00  0.00     0.000 C 
ENDROOT
BRANCH   1   2
ATOM      2  C   UNL     1       1.793  50.401  21.274  1.00  0.00     0.000 C 
BRANCH   2   3
ATOM      3  C   UNL     1       2.071  49.038  21.929  1.00  0.00     0.006 C 
BRANCH   3   4
ATOM      4  C   UNL     1       1.049  47.973  21.510  1.00  0.00     0.053 C 
BRANCH   4   5
ATOM      5  C   UNL     1       0.107  47.636  22.625  1.00  0.00     0.041 C 
ATOM      6  O   UNL     1      -0.391  46.480  22.705  1.00  0.00    -0.550 OA
ATOM      7  O   UNL     1      -0.246  48.603  23.556  1.00  0.00    -0.550 OA
ENDBRANCH   4   5
ENDBRANCH   3   4
ENDBRANCH   2   3
ENDBRANCH   1   2
BRANCH   1   8
ATOM      8  C   UNL     1       2.524  52.281  22.915  1.00  0.00     0.000 C 
BRANCH   8   9
ATOM      9  C   UNL     1       2.919  51.858  24.342  1.00  0.00     0.000 C 
BRANCH   9  10
ATOM     10  C   UNL     1       1.861  50.968  25.015  1.00  0.00     0.006 C 
BRANCH  10  11
ATOM     11  C   UNL     1       2.456  49.647  25.523  1.00  0.00     0.053 C 
BRANCH  11  12
ATOM     12  C   UNL     1       1.851  49.229  26.828  1.00  0.00     0.041 C 
ATOM     13  O   UNL     1       2.557  48.655  27.699  1.00  0.00    -0.550 OA
ATOM     14  O   UNL     1       0.500  49.445  27.071  1.00  0.00    -0.550 OA
ENDBRANCH  11  12
ENDBRANCH  10  11
ENDBRANCH   9  10
ENDBRANCH   8   9
ENDBRANCH   1   8
TORSDOF 9
ENDMDL
MODEL 6
REMARK VINA RESULT:    -4.013      2.877      3.782
REMARK INTER + INTRA:          -6.893
REMARK INTER:                  -6.495
REMARK INTRA:                  -0.397
REMARK UNBOUND:                -0.769
REMARK SMILES O=C([O-])CCCCCCCCC(=O)[O-]
REMARK SMILES IDX 7 1 6 2 5 3 4 4 2 5 1 6 3 7 8 8 9 9 10 10 11 11 12 12 13 13
REMARK SMILES IDX 14 14
REMARK H PARENT
REMARK Flexibility Score: inf
ROOT
ATOM      1  C   UNL     1       2.111  49.155  21.838  1.00  0.00     0.000 C 
ENDROOT
BRANCH   1   2
ATOM      2  C   UNL     1       1.811  50.525  21.205  1.00  0.00     0.000 C 
BRANCH   2   3
ATOM      3  C   UNL     1       1.224  51.530  22.210  1.00  0.00     0.006 C 
BRANCH   3   4
ATOM      4  C   UNL     1       2.117  51.703  23.447  1.00  0.00     0.053 C 
BRANCH   4   5
ATOM      5  C   UNL     1       2.820  53.025  23.447  1.00  0.00     0.041 C 
ATOM      6  O   UNL     1       3.373  53.448  24.498  1.00  0.00    -0.550 OA
ATOM      7  O   UNL     1       2.838  53.805  22.298  1.00  0.00    -0.550 OA
ENDBRANCH   4   5
ENDBRANCH   3   4
ENDBRANCH   2   3
ENDBRANCH   1   2
BRANCH   1   8
ATOM      8  C   UNL     1       0.982  48.114  21.714  1.00  0.00     0.000 C 
BRANCH   8   9
ATOM      9  C   UNL     1       0.095  47.955  22.962  1.00  0.00     0.000 C 
BRANCH   9  10
ATOM     10  C   UNL     1      -0.575  46.574  23.046  1.00  0.00     0.006 C 
BRANCH  10  11
ATOM     11  C   UNL     1      -0.744  46.100  24.496  1.00  0.00     0.053 C 
BRANCH  11  12
ATOM     12  C   UNL     1      -2.180  45.847  24.837  1.00  0.00     0.041 C 
ATOM     13  O   UNL     1      -2.845  44.997  24.188  1.00  0.00    -0.550 OA
ATOM     14  O   UNL     1      -2.794  46.572  25.851  1.00  0.00    -0.550 OA
ENDBRANCH  11  12
ENDBRANCH  10  11
ENDBRANCH   9  10
ENDBRANCH   8   9
ENDBRANCH   1   8
TORSDOF 9
ENDMDL
MODEL 7
REMARK VINA RESULT:    -3.998      2.331      5.458
REMARK INTER + INTRA:          -6.870
REMARK INTER:                  -6.388
REMARK INTRA:                  -0.481
REMARK UNBOUND:                -0.769
REMARK SMILES O=C([O-])CCCCCCCCC(=O)[O-]
REMARK SMILES IDX 7 1 6 2 5 3 4 4 2 5 1 6 3 7 8 8 9 9 10 10 11 11 12 12 13 13
REMARK SMILES IDX 14 14
REMARK H PARENT
REMARK Flexibility Score: inf
ROOT
ATOM      1  C   UNL     1       0.249  48.017  22.969  1.00  0.00     0.000 C 
ENDROOT
BRANCH   1   2
ATOM      2  C   UNL     1      -0.535  46.698  23.092  1.00  0.00     0.000 C 
BRANCH   2   3
ATOM      3  C   UNL     1      -0.639  46.200  24.543  1.00  0.00     0.006 C 
BRANCH   3   4
ATOM      4  C   UNL     1      -1.978  46.579  25.192  1.00  0.00     0.053 C 
BRANCH   4   5
ATOM      5  C   UNL     1      -3.126  45.842  24.573  1.00  0.00     0.041 C 
ATOM      6  O   UNL     1      -4.239  46.413  24.425  1.00  0.00    -0.550 OA
ATOM      7  O   UNL     1      -2.976  44.516  24.188  1.00  0.00    -0.550 OA
ENDBRANCH   4   5
ENDBRANCH   3   4
ENDBRANCH   2   3
ENDBRANCH   1   2
BRANCH   1   8
ATOM      8  C   UNL     1       1.029  48.194  21.651  1.00  0.00     0.000 C 
BRANCH   8   9
ATOM      9  C   UNL     1       2.203  49.188  21.713  1.00  0.00     0.000 C 
BRANCH   9  10
ATOM     10  C   UNL     1       1.768  50.641  21.464  1.00  0.00     0.006 C 
BRANCH  10  11
ATOM     11  C   UNL     1       2.300  51.597  22.540  1.00  0.00     0.053 C 
BRANCH  11  12
ATOM     12  C   UNL     1       1.776  51.255  23.900  1.00  0.00     0.041 C 
ATOM     13  O   UNL     1       0.550  51.387  24.159  1.00  0.00    -0.550 OA
ATOM     14  O   UNL     1       2.644  50.817  24.892  1.00  0.00    -0.550 OA
ENDBRANCH  11  12
ENDBRANCH  10  11
ENDBRANCH   9  10
ENDBRANCH   8   9
ENDBRANCH   1   8
TORSDOF 9
ENDMDL
MODEL 8
REMARK VINA RESULT:    -3.941      3.348      5.356
REMARK INTER + INTRA:          -6.782
REMARK INTER:                  -6.254
REMARK INTRA:                  -0.529
REMARK UNBOUND:                -0.769
REMARK SMILES O=C([O-])CCCCCCCCC(=O)[O-]
REMARK SMILES IDX 7 1 6 2 5 3 4 4 2 5 1 6 3 7 8 8 9 9 10 10 11 11 12 12 13 13
REMARK SMILES IDX 14 14
REMARK H PARENT
REMARK Flexibility Score: inf
ROOT
ATOM      1  C   UNL     1       0.252  47.632  22.528  1.00  0.00     0.000 C 
ENDROOT
BRANCH   1   2
ATOM      2  C   UNL     1       0.128  48.483  23.804  1.00  0.00     0.000 C 
BRANCH   2   3
ATOM      3  C   UNL     1      -0.351  47.672  25.019  1.00  0.00     0.006 C 
BRANCH   3   4
ATOM      4  C   UNL     1      -0.728  46.233  24.643  1.00  0.00     0.053 C 
BRANCH   4   5
ATOM      5  C   UNL     1      -2.213  46.044  24.579  1.00  0.00     0.041 C 
ATOM      6  O   UNL     1      -2.984  47.026  24.745  1.00  0.00    -0.550 OA
ATOM      7  O   UNL     1      -2.746  44.779  24.367  1.00  0.00    -0.550 OA
ENDBRANCH   4   5
ENDBRANCH   3   4
ENDBRANCH   2   3
ENDBRANCH   1   2
BRANCH   1   8
ATOM      8  C   UNL     1       1.310  48.117  21.517  1.00  0.00     0.000 C 
BRANCH   8   9
ATOM      9  C   UNL     1       2.134  49.337  21.965  1.00  0.00     0.000 C 
BRANCH   9  10
ATOM     10  C   UNL     1       1.770  50.618  21.195  1.00  0.00     0.006 C 
BRANCH  10  11
ATOM     11  C   UNL     1       1.754  51.854  22.104  1.00  0.00     0.053 C 
BRANCH  11  12
ATOM     12  C   UNL     1       0.446  52.579  22.038  1.00  0.00     0.041 C 
ATOM     13  O   UNL     1      -0.593  52.057  22.523  1.00  0.00    -0.550 OA
ATOM     14  O   UNL     1       0.365  53.817  21.414  1.00  0.00    -0.550 OA
ENDBRANCH  11  12
ENDBRANCH  10  11
ENDBRANCH   9  10
ENDBRANCH   8   9
ENDBRANCH   1   8
TORSDOF 9
ENDMDL
MODEL 9
REMARK VINA RESULT:    -3.937      3.883      5.339
REMARK INTER + INTRA:          -6.777
REMARK INTER:                  -6.290
REMARK INTRA:                  -0.487
REMARK UNBOUND:                -0.769
REMARK SMILES O=C([O-])CCCCCCCCC(=O)[O-]
REMARK SMILES IDX 7 1 6 2 5 3 4 4 2 5 1 6 3 7 8 8 9 9 10 10 11 11 12 12 13 13
REMARK SMILES IDX 14 14
REMARK H PARENT
REMARK Flexibility Score: inf
ROOT
ATOM      1  C   UNL     1       1.925  53.157  22.232  1.00  0.00     0.000 C 
ENDROOT
BRANCH   1   2
ATOM      2  C   UNL     1       1.236  53.386  20.875  1.00  0.00     0.000 C 
BRANCH   2   3
ATOM      3  C   UNL     1      -0.130  54.078  21.009  1.00  0.00     0.006 C 
BRANCH   3   4
ATOM      4  C   UNL     1      -1.005  53.429  22.090  1.00  0.00     0.053 C 
BRANCH   4   5
ATOM      5  C   UNL     1      -2.464  53.665  21.843  1.00  0.00     0.041 C 
ATOM      6  O   UNL     1      -3.326  52.928  22.392  1.00  0.00    -0.550 OA
ATOM      7  O   UNL     1      -2.870  54.678  20.985  1.00  0.00    -0.550 OA
ENDBRANCH   4   5
ENDBRANCH   3   4
ENDBRANCH   2   3
ENDBRANCH   1   2
BRANCH   1   8
ATOM      8  C   UNL     1       2.165  51.680  22.603  1.00  0.00     0.000 C 
BRANCH   8   9
ATOM      9  C   UNL     1       1.728  50.657  21.540  1.00  0.00     0.000 C 
BRANCH   9  10
ATOM     10  C   UNL     1       2.124  49.215  21.900  1.00  0.00     0.006 C 
BRANCH  10  11
ATOM     11  C   UNL     1       1.009  48.211  21.581  1.00  0.00     0.053 C 
BRANCH  11  12
ATOM     12  C   UNL     1       0.241  47.821  22.806  1.00  0.00     0.041 C 
ATOM     13  O   UNL     1       0.302  48.531  23.845  1.00  0.00    -0.550 OA
ATOM     14  O   UNL     1      -0.518  46.658  22.813  1.00  0.00    -0.550 OA
ENDBRANCH  11  12
ENDBRANCH  10  11
ENDBRANCH   9  10
ENDBRANCH   8   9
ENDBRANCH   1   8
TORSDOF 9
ENDMDL
