MODEL 1
REMARK VINA RESULT:    -3.574      0.000      0.000
REMARK INTER + INTRA:          -4.245
REMARK INTER:                  -4.201
REMARK INTRA:                  -0.044
REMARK UNBOUND:                -0.044
REMARK SMILES CCCCC(=O)[O-]
REMARK SMILES IDX 4 1 5 2 6 3 7 4 3 5 2 6 1 7
REMARK H PARENT
REMARK Flexibility Score: inf
ROOT
ATOM      1  C   UNL     1       8.263 125.125 110.537  1.00  0.00     0.053 C 
ENDROOT
BRANCH   1   2
ATOM      2  C   UNL     1       8.114 124.064 111.581  1.00  0.00     0.041 C 
ATOM      3  O   UNL     1       8.905 124.023 112.560  1.00  0.00    -0.550 OA
ATOM      4  O   UNL     1       7.132 123.090 111.447  1.00  0.00    -0.550 OA
ENDBRANCH   1   2
BRANCH   1   5
ATOM      5  C   UNL     1       7.257 124.908 109.403  1.00  0.00     0.006 C 
BRANCH   5   6
ATOM      6  C   UNL     1       7.973 124.618 108.079  1.00  0.00    -0.003 C 
ATOM      7  C   UNL     1       7.223 125.231 106.901  1.00  0.00     0.004 C 
ENDBRANCH   5   6
ENDBRANCH   1   5
TORSDOF 3
ENDMDL
MODEL 2
REMARK VINA RESULT:    -3.433      1.227      1.532
REMARK INTER + INTRA:          -4.079
REMARK INTER:                  -4.048
REMARK INTRA:                  -0.032
REMARK UNBOUND:                -0.044
REMARK SMILES CCCCC(=O)[O-]
REMARK SMILES IDX 4 1 5 2 6 3 7 4 3 5 2 6 1 7
REMARK H PARENT
REMARK Flexibility Score: inf
ROOT
ATOM      1  C   UNL     1       7.541 124.220 109.971  1.00  0.00     0.053 C 
ENDROOT
BRANCH   1   2
ATOM      2  C   UNL     1       7.947 124.844 111.269  1.00  0.00     0.041 C 
ATOM      3  O   UNL     1       7.545 125.998 111.569  1.00  0.00    -0.550 OA
ATOM      4  O   UNL     1       8.809 124.170 112.124  1.00  0.00    -0.550 OA
ENDBRANCH   1   2
BRANCH   1   5
ATOM      5  C   UNL     1       8.375 124.787 108.818  1.00  0.00     0.006 C 
BRANCH   5   6
ATOM      6  C   UNL     1       7.664 124.588 107.475  1.00  0.00    -0.003 C 
ATOM      7  C   UNL     1       6.506 125.567 107.313  1.00  0.00     0.004 C 
ENDBRANCH   5   6
ENDBRANCH   1   5
TORSDOF 3
ENDMDL
MODEL 3
REMARK VINA RESULT:    -3.009      2.730      3.255
REMARK INTER + INTRA:          -3.581
REMARK INTER:                  -3.535
REMARK INTRA:                  -0.046
REMARK UNBOUND:                -0.044
REMARK SMILES CCCCC(=O)[O-]
REMARK SMILES IDX 4 1 5 2 6 3 7 4 3 5 2 6 1 7
REMARK H PARENT
REMARK Flexibility Score: inf
ROOT
ATOM      1  C   UNL     1       6.515 123.395 111.302  1.00  0.00     0.053 C 
ENDROOT
BRANCH   1   2
ATOM      2  C   UNL     1       7.665 123.941 112.090  1.00  0.00     0.041 C 
ATOM      3  O   UNL     1       8.002 125.147 111.965  1.00  0.00    -0.550 OA
ATOM      4  O   UNL     1       8.394 123.105 112.926  1.00  0.00    -0.550 OA
ENDBRANCH   1   2
BRANCH   1   5
ATOM      5  C   UNL     1       5.193 123.982 111.804  1.00  0.00     0.006 C 
BRANCH   5   6
ATOM      6  C   UNL     1       4.643 125.019 110.818  1.00  0.00    -0.003 C 
ATOM      7  C   UNL     1       3.128 124.905 110.686  1.00  0.00     0.004 C 
ENDBRANCH   5   6
ENDBRANCH   1   5
TORSDOF 3
ENDMDL
MODEL 4
REMARK VINA RESULT:    -2.978      2.719      4.109
REMARK INTER + INTRA:          -3.545
REMARK INTER:                  -3.489
REMARK INTRA:                  -0.056
REMARK UNBOUND:                -0.044
REMARK SMILES CCCCC(=O)[O-]
REMARK SMILES IDX 4 1 5 2 6 3 7 4 3 5 2 6 1 7
REMARK H PARENT
REMARK Flexibility Score: inf
ROOT
ATOM      1  C   UNL     1       6.521 124.192 111.406  1.00  0.00     0.053 C 
ENDROOT
BRANCH   1   2
ATOM      2  C   UNL     1       7.916 123.986 111.908  1.00  0.00     0.041 C 
ATOM      3  O   UNL     1       8.878 124.595 111.373  1.00  0.00    -0.550 OA
ATOM      4  O   UNL     1       8.158 123.083 112.936  1.00  0.00    -0.550 OA
ENDBRANCH   1   2
BRANCH   1   5
ATOM      5  C   UNL     1       5.665 122.951 111.676  1.00  0.00     0.006 C 
BRANCH   5   6
ATOM      6  C   UNL     1       4.480 123.288 112.588  1.00  0.00    -0.003 C 
ATOM      7  C   UNL     1       4.084 122.090 113.444  1.00  0.00     0.004 C 
ENDBRANCH   5   6
ENDBRANCH   1   5
TORSDOF 3
ENDMDL
MODEL 5
REMARK VINA RESULT:    -2.924      2.718      3.351
REMARK INTER + INTRA:          -3.481
REMARK INTER:                  -3.447
REMARK INTRA:                  -0.033
REMARK UNBOUND:                -0.044
REMARK SMILES CCCCC(=O)[O-]
REMARK SMILES IDX 4 1 5 2 6 3 7 4 3 5 2 6 1 7
REMARK H PARENT
REMARK Flexibility Score: inf
ROOT
ATOM      1  C   UNL     1       6.532 123.368 111.403  1.00  0.00     0.053 C 
ENDROOT
BRANCH   1   2
ATOM      2  C   UNL     1       7.682 123.842 112.236  1.00  0.00     0.041 C 
ATOM      3  O   UNL     1       8.383 123.016 112.876  1.00  0.00    -0.550 OA
ATOM      4  O   UNL     1       7.947 125.201 112.345  1.00  0.00    -0.550 OA
ENDBRANCH   1   2
BRANCH   1   5
ATOM      5  C   UNL     1       5.584 124.528 111.088  1.00  0.00     0.006 C 
BRANCH   5   6
ATOM      6  C   UNL     1       4.161 124.222 111.567  1.00  0.00    -0.003 C 
ATOM      7  C   UNL     1       3.122 124.893 110.675  1.00  0.00     0.004 C 
ENDBRANCH   5   6
ENDBRANCH   1   5
TORSDOF 3
ENDMDL
MODEL 6
REMARK VINA RESULT:    -2.805      8.599      9.509
REMARK INTER + INTRA:          -3.341
REMARK INTER:                  -3.305
REMARK INTRA:                  -0.036
REMARK UNBOUND:                -0.044
REMARK SMILES CCCCC(=O)[O-]
REMARK SMILES IDX 4 1 5 2 6 3 7 4 3 5 2 6 1 7
REMARK H PARENT
REMARK Flexibility Score: inf
ROOT
ATOM      1  C   UNL     1       6.903 131.850 115.577  1.00  0.00     0.053 C 
ENDROOT
BRANCH   1   2
ATOM      2  C   UNL     1       7.368 130.661 114.798  1.00  0.00     0.041 C 
ATOM      3  O   UNL     1       8.114 130.812 113.795  1.00  0.00    -0.550 OA
ATOM      4  O   UNL     1       6.937 129.388 115.150  1.00  0.00    -0.550 OA
ENDBRANCH   1   2
BRANCH   1   5
ATOM      5  C   UNL     1       5.384 132.006 115.462  1.00  0.00     0.006 C 
BRANCH   5   6
ATOM      6  C   UNL     1       4.932 133.382 115.967  1.00  0.00    -0.003 C 
ATOM      7  C   UNL     1       6.051 134.410 115.840  1.00  0.00     0.004 C 
ENDBRANCH   5   6
ENDBRANCH   1   5
TORSDOF 3
ENDMDL
MODEL 7
REMARK VINA RESULT:    -2.802      7.692      8.477
REMARK INTER + INTRA:          -3.337
REMARK INTER:                  -3.280
REMARK INTRA:                  -0.058
REMARK UNBOUND:                -0.044
REMARK SMILES CCCCC(=O)[O-]
REMARK SMILES IDX 4 1 5 2 6 3 7 4 3 5 2 6 1 7
REMARK H PARENT
REMARK Flexibility Score: inf
ROOT
ATOM      1  C   UNL     1       6.004 130.187 114.970  1.00  0.00     0.053 C 
ENDROOT
BRANCH   1   2
ATOM      2  C   UNL     1       7.372 130.793 115.000  1.00  0.00     0.041 C 
ATOM      3  O   UNL     1       7.717 131.528 115.962  1.00  0.00    -0.550 OA
ATOM      4  O   UNL     1       8.248 130.586 113.942  1.00  0.00    -0.550 OA
ENDBRANCH   1   2
BRANCH   1   5
ATOM      5  C   UNL     1       5.344 130.421 113.608  1.00  0.00     0.006 C 
BRANCH   5   6
ATOM      6  C   UNL     1       3.944 131.024 113.772  1.00  0.00    -0.003 C 
ATOM      7  C   UNL     1       3.957 132.190 114.754  1.00  0.00     0.004 C 
ENDBRANCH   5   6
ENDBRANCH   1   5
TORSDOF 3
ENDMDL
MODEL 8
REMARK VINA RESULT:    -2.725      9.700     10.903
REMARK INTER + INTRA:          -3.247
REMARK INTER:                  -3.152
REMARK INTRA:                  -0.095
REMARK UNBOUND:                -0.044
REMARK SMILES CCCCC(=O)[O-]
REMARK SMILES IDX 4 1 5 2 6 3 7 4 3 5 2 6 1 7
REMARK H PARENT
REMARK Flexibility Score: inf
ROOT
ATOM      1  C   UNL     1      12.725 124.899 120.334  1.00  0.00     0.053 C 
ENDROOT
BRANCH   1   2
ATOM      2  C   UNL     1      14.099 125.326 119.921  1.00  0.00     0.041 C 
ATOM      3  O   UNL     1      14.805 124.575 119.199  1.00  0.00    -0.550 OA
ATOM      4  O   UNL     1      14.617 126.533 120.375  1.00  0.00    -0.550 OA
ENDBRANCH   1   2
BRANCH   1   5
ATOM      5  C   UNL     1      11.679 125.431 119.350  1.00  0.00     0.006 C 
BRANCH   5   6
ATOM      6  C   UNL     1      10.824 124.291 118.787  1.00  0.00    -0.003 C 
ATOM      7  C   UNL     1      11.610 123.455 117.782  1.00  0.00     0.004 C 
ENDBRANCH   5   6
ENDBRANCH   1   5
TORSDOF 3
ENDMDL
MODEL 9
REMARK VINA RESULT:    -2.699      7.045      7.817
REMARK INTER + INTRA:          -3.216
REMARK INTER:                  -3.132
REMARK INTRA:                  -0.085
REMARK UNBOUND:                -0.044
REMARK SMILES CCCCC(=O)[O-]
REMARK SMILES IDX 4 1 5 2 6 3 7 4 3 5 2 6 1 7
REMARK H PARENT
REMARK Flexibility Score: inf
ROOT
ATOM      1  C   UNL     1       6.028 130.005 114.931  1.00  0.00     0.053 C 
ENDROOT
BRANCH   1   2
ATOM      2  C   UNL     1       7.326 130.751 114.914  1.00  0.00     0.041 C 
ATOM      3  O   UNL     1       8.088 130.674 113.915  1.00  0.00    -0.550 OA
ATOM      4  O   UNL     1       7.715 131.491 116.023  1.00  0.00    -0.550 OA
ENDBRANCH   1   2
BRANCH   1   5
ATOM      5  C   UNL     1       4.948 130.790 114.182  1.00  0.00     0.006 C 
BRANCH   5   6
ATOM      6  C   UNL     1       4.355 129.958 113.040  1.00  0.00    -0.003 C 
ATOM      7  C   UNL     1       4.776 128.496 113.145  1.00  0.00     0.004 C 
ENDBRANCH   5   6
ENDBRANCH   1   5
TORSDOF 3
ENDMDL
