MODEL 1
REMARK VINA RESULT:    -6.644      0.000      0.000
REMARK INTER + INTRA:          -8.768
REMARK INTER:                  -8.974
REMARK INTRA:                   0.206
REMARK UNBOUND:                 0.206
REMARK SMILES CC[C@@H](CC[C@@H](C)[C@H]1CC[C@H]2[C@H]3CC(=O)C4=CC(=O)CC[C@@]4(C)[C@@H]3CC[C@@]12C)C(C)C
REMARK SMILES IDX 4 1 3 2 2 3 1 4 29 5 30 6 31 7 5 8 6 9 7 10 8 11 9 12 27 13
REMARK SMILES IDX 10 14 11 15 26 16 28 17 12 18 25 19 24 20 13 21 22 22 14 23
REMARK SMILES IDX 16 24 21 25 23 26 15 27 17 28 20 29 18 30 19 31
REMARK H PARENT
REMARK Flexibility Score: inf
ROOT
ATOM      1  C   UNL     1      16.958  25.174  15.824  1.00  0.00     0.004 C 
ENDROOT
BRANCH   1   2
ATOM      2  C   UNL     1      18.148  25.767  15.019  1.00  0.00    -0.009 C 
BRANCH   2   3
ATOM      3  C   UNL     1      17.655  26.225  13.611  1.00  0.00     0.000 C 
ATOM      4  C   UNL     1      17.903  27.713  13.355  1.00  0.00     0.004 C 
ENDBRANCH   2   3
BRANCH   2   5
ATOM      5  C   UNL     1      19.388  24.808  14.945  1.00  0.00    -0.014 C 
ATOM      6  C   UNL     1      20.643  25.531  14.422  1.00  0.00     0.007 C 
ATOM      7  C   UNL     1      19.719  24.187  16.315  1.00  0.00     0.007 C 
ENDBRANCH   2   5
ENDBRANCH   1   2
BRANCH   1   8
ATOM      8  C   UNL     1      15.657  25.026  15.004  1.00  0.00     0.004 C 
BRANCH   8   9
ATOM      9  C   UNL     1      14.445  25.700  15.715  1.00  0.00    -0.011 C 
ATOM     10  C   UNL     1      14.633  27.230  15.646  1.00  0.00     0.008 C 
BRANCH   9  11
ATOM     11  C   UNL     1      13.078  25.235  15.093  1.00  0.00    -0.002 C 
ATOM     12  C   UNL     1      12.136  24.638  16.162  1.00  0.00     0.005 C 
ATOM     13  C   UNL     1      12.199  26.297  14.350  1.00  0.00    -0.026 C 
ATOM     14  C   UNL     1      10.705  24.963  15.754  1.00  0.00     0.005 C 
ATOM     15  C   UNL     1      10.794  25.647  14.388  1.00  0.00    -0.001 C 
ATOM     16  C   UNL     1      12.183  27.660  15.109  1.00  0.00     0.007 C 
ATOM     17  C   UNL     1      12.648  26.483  12.875  1.00  0.00     0.012 C 
ATOM     18  C   UNL     1       9.613  26.610  14.052  1.00  0.00     0.004 C 
ATOM     19  C   UNL     1      11.062  28.600  14.656  1.00  0.00     0.005 C 
ATOM     20  C   UNL     1       9.673  27.955  14.854  1.00  0.00     0.003 C 
ATOM     21  C   UNL     1       8.247  25.879  14.168  1.00  0.00     0.085 C 
ATOM     22  C   UNL     1       8.466  28.910  14.501  1.00  0.00    -0.000 C 
ATOM     23  C   UNL     1       7.080  26.815  14.094  1.00  0.00     0.159 C 
ATOM     24  C   UNL     1       7.193  28.111  14.772  1.00  0.00     0.005 C 
ATOM     25  C   UNL     1       8.461  30.245  15.322  1.00  0.00     0.020 C 
ATOM     26  C   UNL     1       8.468  29.322  13.000  1.00  0.00     0.017 C 
ATOM     27  O   UNL     1       5.990  26.449  13.577  1.00  0.00    -0.295 OA
ATOM     28  C   UNL     1       6.389  28.348  15.823  1.00  0.00     0.055 C 
ATOM     29  C   UNL     1       8.047  30.054  16.780  1.00  0.00     0.081 C 
ATOM     30  C   UNL     1       6.718  29.370  16.826  1.00  0.00     0.156 C 
ATOM     31  O   UNL     1       5.921  29.603  17.775  1.00  0.00    -0.295 OA
ENDBRANCH   9  11
ENDBRANCH   8   9
ENDBRANCH   1   8
TORSDOF 6
ENDMDL
MODEL 2
REMARK VINA RESULT:    -6.095      3.210      6.782
REMARK INTER + INTRA:          -8.027
REMARK INTER:                  -6.699
REMARK INTRA:                  -1.328
REMARK UNBOUND:                 0.206
REMARK SMILES CC[C@@H](CC[C@@H](C)[C@H]1CC[C@H]2[C@H]3CC(=O)C4=CC(=O)CC[C@@]4(C)[C@@H]3CC[C@@]12C)C(C)C
REMARK SMILES IDX 4 1 3 2 2 3 1 4 29 5 30 6 31 7 5 8 6 9 7 10 8 11 9 12 27 13
REMARK SMILES IDX 10 14 11 15 26 16 28 17 12 18 25 19 24 20 13 21 22 22 14 23
REMARK SMILES IDX 16 24 21 25 23 26 15 27 17 28 20 29 18 30 19 31
REMARK H PARENT
REMARK Flexibility Score: inf
ROOT
ATOM      1  C   UNL     1      11.160  28.245  14.934  1.00  0.00     0.004 C 
ENDROOT
BRANCH   1   2
ATOM      2  C   UNL     1      11.567  26.892  14.285  1.00  0.00    -0.009 C 
BRANCH   2   3
ATOM      3  C   UNL     1      10.588  25.769  14.752  1.00  0.00     0.000 C 
ATOM      4  C   UNL     1       9.640  25.314  13.641  1.00  0.00     0.004 C 
ENDBRANCH   2   3
BRANCH   2   5
ATOM      5  C   UNL     1      13.073  26.518  14.517  1.00  0.00    -0.014 C 
ATOM      6  C   UNL     1      14.005  27.253  13.535  1.00  0.00     0.007 C 
ATOM      7  C   UNL     1      13.532  26.835  15.953  1.00  0.00     0.007 C 
ENDBRANCH   2   5
ENDBRANCH   1   2
BRANCH   1   8
ATOM      8  C   UNL     1       9.857  28.847  14.365  1.00  0.00     0.004 C 
BRANCH   8   9
ATOM      9  C   UNL     1       8.957  29.444  15.489  1.00  0.00    -0.011 C 
ATOM     10  C   UNL     1       9.516  30.830  15.872  1.00  0.00     0.008 C 
BRANCH   9  11
ATOM     11  C   UNL     1       7.448  29.507  15.048  1.00  0.00    -0.002 C 
ATOM     12  C   UNL     1       7.266  29.102  13.569  1.00  0.00     0.005 C 
ATOM     13  C   UNL     1       6.411  28.626  15.824  1.00  0.00    -0.026 C 
ATOM     14  C   UNL     1       5.911  28.419  13.438  1.00  0.00     0.005 C 
ATOM     15  C   UNL     1       5.243  28.525  14.810  1.00  0.00    -0.001 C 
ATOM     16  C   UNL     1       6.980  27.207  16.133  1.00  0.00     0.007 C 
ATOM     17  C   UNL     1       5.918  29.327  17.119  1.00  0.00     0.012 C 
ATOM     18  C   UNL     1       4.194  27.413  15.124  1.00  0.00     0.004 C 
ATOM     19  C   UNL     1       5.908  26.191  16.536  1.00  0.00     0.005 C 
ATOM     20  C   UNL     1       4.849  26.021  15.426  1.00  0.00     0.003 C 
ATOM     21  C   UNL     1       3.096  27.357  14.026  1.00  0.00     0.085 C 
ATOM     22  C   UNL     1       3.767  24.912  15.735  1.00  0.00    -0.000 C 
ATOM     23  C   UNL     1       2.209  26.156  14.152  1.00  0.00     0.159 C 
ATOM     24  C   UNL     1       2.828  24.880  14.530  1.00  0.00     0.005 C 
ATOM     25  C   UNL     1       4.380  23.493  15.990  1.00  0.00     0.020 C 
ATOM     26  C   UNL     1       2.924  25.256  16.997  1.00  0.00     0.017 C 
ATOM     27  O   UNL     1       0.995  26.212  13.819  1.00  0.00    -0.295 OA
ATOM     28  C   UNL     1       2.828  23.885  13.627  1.00  0.00     0.055 C 
ATOM     29  C   UNL     1       4.890  22.819  14.717  1.00  0.00     0.081 C 
ATOM     30  C   UNL     1       3.785  22.773  13.711  1.00  0.00     0.156 C 
ATOM     31  O   UNL     1       3.730  21.828  12.877  1.00  0.00    -0.295 OA
ENDBRANCH   9  11
ENDBRANCH   8   9
ENDBRANCH   1   8
TORSDOF 6
ENDMDL
MODEL 3
REMARK VINA RESULT:    -5.870      1.321      2.015
REMARK INTER + INTRA:          -7.723
REMARK INTER:                  -6.988
REMARK INTRA:                  -0.734
REMARK UNBOUND:                 0.206
REMARK SMILES CC[C@@H](CC[C@@H](C)[C@H]1CC[C@H]2[C@H]3CC(=O)C4=CC(=O)CC[C@@]4(C)[C@@H]3CC[C@@]12C)C(C)C
REMARK SMILES IDX 4 1 3 2 2 3 1 4 29 5 30 6 31 7 5 8 6 9 7 10 8 11 9 12 27 13
REMARK SMILES IDX 10 14 11 15 26 16 28 17 12 18 25 19 24 20 13 21 22 22 14 23
REMARK SMILES IDX 16 24 21 25 23 26 15 27 17 28 20 29 18 30 19 31
REMARK H PARENT
REMARK Flexibility Score: inf
ROOT
ATOM      1  C   UNL     1      14.976  23.701  15.110  1.00  0.00     0.004 C 
ENDROOT
BRANCH   1   2
ATOM      2  C   UNL     1      15.836  23.702  13.815  1.00  0.00    -0.009 C 
BRANCH   2   3
ATOM      3  C   UNL     1      15.401  22.520  12.892  1.00  0.00     0.000 C 
ATOM      4  C   UNL     1      14.150  21.804  13.403  1.00  0.00     0.004 C 
ENDBRANCH   2   3
BRANCH   2   5
ATOM      5  C   UNL     1      17.380  23.717  14.094  1.00  0.00    -0.014 C 
ATOM      6  C   UNL     1      18.094  22.520  13.438  1.00  0.00     0.007 C 
ATOM      7  C   UNL     1      18.044  25.013  13.593  1.00  0.00     0.007 C 
ENDBRANCH   2   5
ENDBRANCH   1   2
BRANCH   1   8
ATOM      8  C   UNL     1      15.254  24.895  16.049  1.00  0.00     0.004 C 
BRANCH   8   9
ATOM      9  C   UNL     1      14.363  26.125  15.700  1.00  0.00    -0.011 C 
ATOM     10  C   UNL     1      15.204  27.109  14.860  1.00  0.00     0.008 C 
BRANCH   9  11
ATOM     11  C   UNL     1      13.039  25.692  14.970  1.00  0.00    -0.002 C 
ATOM     12  C   UNL     1      12.070  24.962  15.926  1.00  0.00     0.005 C 
ATOM     13  C   UNL     1      12.162  26.803  14.300  1.00  0.00    -0.026 C 
ATOM     14  C   UNL     1      10.649  25.291  15.487  1.00  0.00     0.005 C 
ATOM     15  C   UNL     1      10.776  26.116  14.205  1.00  0.00    -0.001 C 
ATOM     16  C   UNL     1      12.070  28.078  15.194  1.00  0.00     0.007 C 
ATOM     17  C   UNL     1      12.670  27.154  12.875  1.00  0.00     0.012 C 
ATOM     18  C   UNL     1       9.583  27.079  13.915  1.00  0.00     0.004 C 
ATOM     19  C   UNL     1      10.943  29.031  14.789  1.00  0.00     0.005 C 
ATOM     20  C   UNL     1       9.567  28.333  14.854  1.00  0.00     0.003 C 
ATOM     21  C   UNL     1       8.236  26.304  13.891  1.00  0.00     0.085 C 
ATOM     22  C   UNL     1       8.347  29.289  14.545  1.00  0.00    -0.000 C 
ATOM     23  C   UNL     1       7.045  27.212  13.859  1.00  0.00     0.159 C 
ATOM     24  C   UNL     1       7.088  28.433  14.672  1.00  0.00     0.005 C 
ATOM     25  C   UNL     1       8.266  30.529  15.499  1.00  0.00     0.020 C 
ATOM     26  C   UNL     1       8.403  29.855  13.097  1.00  0.00     0.017 C 
ATOM     27  O   UNL     1       5.991  26.874  13.257  1.00  0.00    -0.295 OA
ATOM     28  C   UNL     1       6.232  28.537  15.703  1.00  0.00     0.055 C 
ATOM     29  C   UNL     1       7.794  30.176  16.908  1.00  0.00     0.081 C 
ATOM     30  C   UNL     1       6.486  29.457  16.821  1.00  0.00     0.156 C 
ATOM     31  O   UNL     1       5.641  29.569  17.750  1.00  0.00    -0.295 OA
ENDBRANCH   9  11
ENDBRANCH   8   9
ENDBRANCH   1   8
TORSDOF 6
ENDMDL
MODEL 4
REMARK VINA RESULT:    -5.865      2.935      5.847
REMARK INTER + INTRA:          -7.716
REMARK INTER:                  -6.966
REMARK INTRA:                  -0.750
REMARK UNBOUND:                 0.206
REMARK SMILES CC[C@@H](CC[C@@H](C)[C@H]1CC[C@H]2[C@H]3CC(=O)C4=CC(=O)CC[C@@]4(C)[C@@H]3CC[C@@]12C)C(C)C
REMARK SMILES IDX 4 1 3 2 2 3 1 4 29 5 30 6 31 7 5 8 6 9 7 10 8 11 9 12 27 13
REMARK SMILES IDX 10 14 11 15 26 16 28 17 12 18 25 19 24 20 13 21 22 22 14 23
REMARK SMILES IDX 16 24 21 25 23 26 15 27 17 28 20 29 18 30 19 31
REMARK H PARENT
REMARK Flexibility Score: inf
ROOT
ATOM      1  C   UNL     1      11.835  26.597  14.248  1.00  0.00     0.004 C 
ENDROOT
BRANCH   1   2
ATOM      2  C   UNL     1      12.401  25.701  15.385  1.00  0.00    -0.009 C 
BRANCH   2   3
ATOM      3  C   UNL     1      13.924  25.986  15.573  1.00  0.00     0.000 C 
ATOM      4  C   UNL     1      14.311  27.409  15.167  1.00  0.00     0.004 C 
ENDBRANCH   2   3
BRANCH   2   5
ATOM      5  C   UNL     1      12.090  24.176  15.188  1.00  0.00    -0.014 C 
ATOM      6  C   UNL     1      13.287  23.418  14.584  1.00  0.00     0.007 C 
ATOM      7  C   UNL     1      11.699  23.491  16.511  1.00  0.00     0.007 C 
ENDBRANCH   2   5
ENDBRANCH   1   2
BRANCH   1   8
ATOM      8  C   UNL     1      10.394  27.092  14.498  1.00  0.00     0.004 C 
BRANCH   8   9
ATOM      9  C   UNL     1      10.363  28.589  14.930  1.00  0.00    -0.011 C 
ATOM     10  C   UNL     1      11.680  29.251  14.477  1.00  0.00     0.008 C 
BRANCH   9  11
ATOM     11  C   UNL     1       9.094  29.328  14.365  1.00  0.00    -0.002 C 
ATOM     12  C   UNL     1       8.668  28.766  12.991  1.00  0.00     0.005 C 
ATOM     13  C   UNL     1       7.781  29.307  15.219  1.00  0.00    -0.026 C 
ATOM     14  C   UNL     1       7.152  28.875  12.895  1.00  0.00     0.005 C 
ATOM     15  C   UNL     1       6.694  29.608  14.156  1.00  0.00    -0.001 C 
ATOM     16  C   UNL     1       7.534  27.906  15.858  1.00  0.00     0.007 C 
ATOM     17  C   UNL     1       7.780  30.424  16.297  1.00  0.00     0.012 C 
ATOM     18  C   UNL     1       5.231  29.302  14.606  1.00  0.00     0.004 C 
ATOM     19  C   UNL     1       6.106  27.710  16.374  1.00  0.00     0.005 C 
ATOM     20  C   UNL     1       5.071  27.878  15.240  1.00  0.00     0.003 C 
ATOM     21  C   UNL     1       4.224  29.587  13.457  1.00  0.00     0.085 C 
ATOM     22  C   UNL     1       3.582  27.590  15.682  1.00  0.00    -0.000 C 
ATOM     23  C   UNL     1       2.846  29.082  13.756  1.00  0.00     0.159 C 
ATOM     24  C   UNL     1       2.719  27.789  14.438  1.00  0.00     0.005 C 
ATOM     25  C   UNL     1       3.371  26.154  16.273  1.00  0.00     0.020 C 
ATOM     26  C   UNL     1       3.095  28.587  16.773  1.00  0.00     0.017 C 
ATOM     27  O   UNL     1       1.828  29.685  13.321  1.00  0.00    -0.295 OA
ATOM     28  C   UNL     1       2.162  26.769  13.762  1.00  0.00     0.055 C 
ATOM     29  C   UNL     1       3.401  25.055  15.212  1.00  0.00     0.081 C 
ATOM     30  C   UNL     1       2.397  25.371  14.151  1.00  0.00     0.156 C 
ATOM     31  O   UNL     1       1.822  24.438  13.528  1.00  0.00    -0.295 OA
ENDBRANCH   9  11
ENDBRANCH   8   9
ENDBRANCH   1   8
TORSDOF 6
ENDMDL
MODEL 5
REMARK VINA RESULT:    -5.575      4.444     10.418
REMARK INTER + INTRA:          -7.324
REMARK INTER:                  -5.972
REMARK INTRA:                  -1.353
REMARK UNBOUND:                 0.206
REMARK SMILES CC[C@@H](CC[C@@H](C)[C@H]1CC[C@H]2[C@H]3CC(=O)C4=CC(=O)CC[C@@]4(C)[C@@H]3CC[C@@]12C)C(C)C
REMARK SMILES IDX 4 1 3 2 2 3 1 4 29 5 30 6 31 7 5 8 6 9 7 10 8 11 9 12 27 13
REMARK SMILES IDX 10 14 11 15 26 16 28 17 12 18 25 19 24 20 13 21 22 22 14 23
REMARK SMILES IDX 16 24 21 25 23 26 15 27 17 28 20 29 18 30 19 31
REMARK H PARENT
REMARK Flexibility Score: inf
ROOT
ATOM      1  C   UNL     1      11.538  26.028  13.577  1.00  0.00     0.004 C 
ENDROOT
BRANCH   1   2
ATOM      2  C   UNL     1      10.747  25.492  14.802  1.00  0.00    -0.009 C 
BRANCH   2   3
ATOM      3  C   UNL     1      11.242  24.057  15.164  1.00  0.00     0.000 C 
ATOM      4  C   UNL     1      11.627  23.920  16.638  1.00  0.00     0.004 C 
ENDBRANCH   2   3
BRANCH   2   5
ATOM      5  C   UNL     1       9.190  25.568  14.619  1.00  0.00    -0.014 C 
ATOM      6  C   UNL     1       8.664  27.009  14.759  1.00  0.00     0.007 C 
ATOM      7  C   UNL     1       8.743  25.016  13.252  1.00  0.00     0.007 C 
ENDBRANCH   2   5
ENDBRANCH   1   2
BRANCH   1   8
ATOM      8  C   UNL     1      12.955  25.430  13.436  1.00  0.00     0.004 C 
BRANCH   8   9
ATOM      9  C   UNL     1      14.030  26.537  13.215  1.00  0.00    -0.011 C 
ATOM     10  C   UNL     1      13.308  27.893  13.074  1.00  0.00     0.008 C 
BRANCH   9  11
ATOM     11  C   UNL     1      15.099  26.544  14.370  1.00  0.00    -0.002 C 
ATOM     12  C   UNL     1      14.748  25.529  15.480  1.00  0.00     0.005 C 
ATOM     13  C   UNL     1      16.588  26.223  14.005  1.00  0.00    -0.026 C 
ATOM     14  C   UNL     1      16.055  25.002  16.057  1.00  0.00     0.005 C 
ATOM     15  C   UNL     1      17.175  25.789  15.372  1.00  0.00    -0.001 C 
ATOM     16  C   UNL     1      16.689  25.052  12.980  1.00  0.00     0.007 C 
ATOM     17  C   UNL     1      17.337  27.483  13.493  1.00  0.00     0.012 C 
ATOM     18  C   UNL     1      18.550  25.054  15.295  1.00  0.00     0.004 C 
ATOM     19  C   UNL     1      18.091  24.445  12.878  1.00  0.00     0.005 C 
ATOM     20  C   UNL     1      18.566  23.896  14.241  1.00  0.00     0.003 C 
ATOM     21  C   UNL     1      19.026  24.615  16.708  1.00  0.00     0.085 C 
ATOM     22  C   UNL     1      19.965  23.165  14.186  1.00  0.00    -0.000 C 
ATOM     23  C   UNL     1      20.211  23.700  16.662  1.00  0.00     0.159 C 
ATOM     24  C   UNL     1      20.254  22.682  15.605  1.00  0.00     0.005 C 
ATOM     25  C   UNL     1      20.006  21.964  13.179  1.00  0.00     0.020 C 
ATOM     26  C   UNL     1      21.110  24.129  13.760  1.00  0.00     0.017 C 
ATOM     27  O   UNL     1      21.078  23.719  17.576  1.00  0.00    -0.295 OA
ATOM     28  C   UNL     1      20.183  21.390  15.969  1.00  0.00     0.055 C 
ATOM     29  C   UNL     1      19.243  20.736  13.674  1.00  0.00     0.081 C 
ATOM     30  C   UNL     1      19.762  20.348  15.022  1.00  0.00     0.156 C 
ATOM     31  O   UNL     1      19.752  19.139  15.377  1.00  0.00    -0.295 OA
ENDBRANCH   9  11
ENDBRANCH   8   9
ENDBRANCH   1   8
TORSDOF 6
ENDMDL
MODEL 6
REMARK VINA RESULT:    -5.454      4.954      9.463
REMARK INTER + INTRA:          -7.161
REMARK INTER:                  -5.805
REMARK INTRA:                  -1.357
REMARK UNBOUND:                 0.206
REMARK SMILES CC[C@@H](CC[C@@H](C)[C@H]1CC[C@H]2[C@H]3CC(=O)C4=CC(=O)CC[C@@]4(C)[C@@H]3CC[C@@]12C)C(C)C
REMARK SMILES IDX 4 1 3 2 2 3 1 4 29 5 30 6 31 7 5 8 6 9 7 10 8 11 9 12 27 13
REMARK SMILES IDX 10 14 11 15 26 16 28 17 12 18 25 19 24 20 13 21 22 22 14 23
REMARK SMILES IDX 16 24 21 25 23 26 15 27 17 28 20 29 18 30 19 31
REMARK H PARENT
REMARK Flexibility Score: inf
ROOT
ATOM      1  C   UNL     1       4.736  22.428  13.723  1.00  0.00     0.004 C 
ENDROOT
BRANCH   1   2
ATOM      2  C   UNL     1       4.524  20.971  13.226  1.00  0.00    -0.009 C 
BRANCH   2   3
ATOM      3  C   UNL     1       3.273  20.351  13.926  1.00  0.00     0.000 C 
ATOM      4  C   UNL     1       2.122  20.090  12.953  1.00  0.00     0.004 C 
ENDBRANCH   2   3
BRANCH   2   5
ATOM      5  C   UNL     1       5.802  20.073  13.364  1.00  0.00    -0.014 C 
ATOM      6  C   UNL     1       6.464  20.224  14.747  1.00  0.00     0.007 C 
ATOM      7  C   UNL     1       5.489  18.582  13.135  1.00  0.00     0.007 C 
ENDBRANCH   2   5
ENDBRANCH   1   2
BRANCH   1   8
ATOM      8  C   UNL     1       3.708  22.885  14.781  1.00  0.00     0.004 C 
BRANCH   8   9
ATOM      9  C   UNL     1       2.935  24.159  14.323  1.00  0.00    -0.011 C 
ATOM     10  C   UNL     1       1.426  23.836  14.322  1.00  0.00     0.008 C 
BRANCH   9  11
ATOM     11  C   UNL     1       3.281  25.401  15.225  1.00  0.00    -0.002 C 
ATOM     12  C   UNL     1       4.269  25.031  16.353  1.00  0.00     0.005 C 
ATOM     13  C   UNL     1       3.921  26.658  14.544  1.00  0.00    -0.026 C 
ATOM     14  C   UNL     1       5.142  26.250  16.623  1.00  0.00     0.005 C 
ATOM     15  C   UNL     1       4.595  27.374  15.741  1.00  0.00    -0.001 C 
ATOM     16  C   UNL     1       4.992  26.255  13.485  1.00  0.00     0.007 C 
ATOM     17  C   UNL     1       2.841  27.585  13.923  1.00  0.00     0.012 C 
ATOM     18  C   UNL     1       5.630  28.475  15.352  1.00  0.00     0.004 C 
ATOM     19  C   UNL     1       5.909  27.408  13.069  1.00  0.00     0.005 C 
ATOM     20  C   UNL     1       6.667  27.989  14.283  1.00  0.00     0.003 C 
ATOM     21  C   UNL     1       6.287  29.094  16.618  1.00  0.00     0.085 C 
ATOM     22  C   UNL     1       7.707  29.118  13.910  1.00  0.00    -0.000 C 
ATOM     23  C   UNL     1       7.453  29.976  16.293  1.00  0.00     0.159 C 
ATOM     24  C   UNL     1       8.361  29.550  15.221  1.00  0.00     0.005 C 
ATOM     25  C   UNL     1       8.795  28.654  12.882  1.00  0.00     0.020 C 
ATOM     26  C   UNL     1       7.015  30.362  13.281  1.00  0.00     0.017 C 
ATOM     27  O   UNL     1       7.719  30.982  17.003  1.00  0.00    -0.295 OA
ATOM     28  C   UNL     1       9.623  29.228  15.552  1.00  0.00     0.055 C 
ATOM     29  C   UNL     1       9.839  27.719  13.490  1.00  0.00     0.081 C 
ATOM     30  C   UNL     1      10.451  28.378  14.684  1.00  0.00     0.156 C 
ATOM     31  O   UNL     1      11.647  28.132  14.996  1.00  0.00    -0.295 OA
ENDBRANCH   9  11
ENDBRANCH   8   9
ENDBRANCH   1   8
TORSDOF 6
ENDMDL
MODEL 7
REMARK VINA RESULT:    -5.123      6.077      9.400
REMARK INTER + INTRA:          -6.714
REMARK INTER:                  -5.654
REMARK INTRA:                  -1.061
REMARK UNBOUND:                 0.206
REMARK SMILES CC[C@@H](CC[C@@H](C)[C@H]1CC[C@H]2[C@H]3CC(=O)C4=CC(=O)CC[C@@]4(C)[C@@H]3CC[C@@]12C)C(C)C
REMARK SMILES IDX 4 1 3 2 2 3 1 4 29 5 30 6 31 7 5 8 6 9 7 10 8 11 9 12 27 13
REMARK SMILES IDX 10 14 11 15 26 16 28 17 12 18 25 19 24 20 13 21 22 22 14 23
REMARK SMILES IDX 16 24 21 25 23 26 15 27 17 28 20 29 18 30 19 31
REMARK H PARENT
REMARK Flexibility Score: inf
ROOT
ATOM      1  C   UNL     1       4.298  19.744  13.912  1.00  0.00     0.004 C 
ENDROOT
BRANCH   1   2
ATOM      2  C   UNL     1       5.446  18.704  13.785  1.00  0.00    -0.009 C 
BRANCH   2   3
ATOM      3  C   UNL     1       5.079  17.414  14.584  1.00  0.00     0.000 C 
ATOM      4  C   UNL     1       3.846  17.601  15.471  1.00  0.00     0.004 C 
ENDBRANCH   2   3
BRANCH   2   5
ATOM      5  C   UNL     1       6.852  19.278  14.175  1.00  0.00    -0.014 C 
ATOM      6  C   UNL     1       7.624  18.326  15.107  1.00  0.00     0.007 C 
ATOM      7  C   UNL     1       7.724  19.559  12.936  1.00  0.00     0.007 C 
ENDBRANCH   2   5
ENDBRANCH   1   2
BRANCH   1   8
ATOM      8  C   UNL     1       4.762  21.210  13.777  1.00  0.00     0.004 C 
BRANCH   8   9
ATOM      9  C   UNL     1       3.589  22.155  13.376  1.00  0.00    -0.011 C 
ATOM     10  C   UNL     1       2.334  21.291  13.133  1.00  0.00     0.008 C 
BRANCH   9  11
ATOM     11  C   UNL     1       3.349  23.271  14.458  1.00  0.00    -0.002 C 
ATOM     12  C   UNL     1       4.343  23.151  15.634  1.00  0.00     0.005 C 
ATOM     13  C   UNL     1       3.450  24.770  14.014  1.00  0.00    -0.026 C 
ATOM     14  C   UNL     1       4.624  24.556  16.149  1.00  0.00     0.005 C 
ATOM     15  C   UNL     1       3.710  25.494  15.359  1.00  0.00    -0.001 C 
ATOM     16  C   UNL     1       4.646  25.000  13.039  1.00  0.00     0.007 C 
ATOM     17  C   UNL     1       2.118  25.276  13.397  1.00  0.00     0.012 C 
ATOM     18  C   UNL     1       4.221  26.963  15.228  1.00  0.00     0.004 C 
ATOM     19  C   UNL     1       5.028  26.473  12.875  1.00  0.00     0.005 C 
ATOM     20  C   UNL     1       5.419  27.106  14.228  1.00  0.00     0.003 C 
ATOM     21  C   UNL     1       4.501  27.582  16.626  1.00  0.00     0.085 C 
ATOM     22  C   UNL     1       5.922  28.600  14.117  1.00  0.00    -0.000 C 
ATOM     23  C   UNL     1       5.218  28.894  16.545  1.00  0.00     0.159 C 
ATOM     24  C   UNL     1       6.273  29.042  15.536  1.00  0.00     0.005 C 
ATOM     25  C   UNL     1       7.155  28.777  13.166  1.00  0.00     0.020 C 
ATOM     26  C   UNL     1       4.813  29.549  13.575  1.00  0.00     0.017 C 
ATOM     27  O   UNL     1       5.011  29.797  17.400  1.00  0.00    -0.295 OA
ATOM     28  C   UNL     1       7.538  29.200  15.962  1.00  0.00     0.055 C 
ATOM     29  C   UNL     1       8.458  28.251  13.765  1.00  0.00     0.081 C 
ATOM     30  C   UNL     1       8.684  28.900  15.092  1.00  0.00     0.156 C 
ATOM     31  O   UNL     1       9.859  29.105  15.503  1.00  0.00    -0.295 OA
ENDBRANCH   9  11
ENDBRANCH   8   9
ENDBRANCH   1   8
TORSDOF 6
ENDMDL
MODEL 8
REMARK VINA RESULT:    -5.006      1.848      4.363
REMARK INTER + INTRA:          -6.557
REMARK INTER:                  -6.163
REMARK INTRA:                  -0.394
REMARK UNBOUND:                 0.206
REMARK SMILES CC[C@@H](CC[C@@H](C)[C@H]1CC[C@H]2[C@H]3CC(=O)C4=CC(=O)CC[C@@]4(C)[C@@H]3CC[C@@]12C)C(C)C
REMARK SMILES IDX 4 1 3 2 2 3 1 4 29 5 30 6 31 7 5 8 6 9 7 10 8 11 9 12 27 13
REMARK SMILES IDX 10 14 11 15 26 16 28 17 12 18 25 19 24 20 13 21 22 22 14 23
REMARK SMILES IDX 16 24 21 25 23 26 15 27 17 28 20 29 18 30 19 31
REMARK H PARENT
REMARK Flexibility Score: inf
ROOT
ATOM      1  C   UNL     1      13.647  25.664  14.317  1.00  0.00     0.004 C 
ENDROOT
BRANCH   1   2
ATOM      2  C   UNL     1      15.112  26.164  14.457  1.00  0.00    -0.009 C 
BRANCH   2   3
ATOM      3  C   UNL     1      15.769  25.524  15.721  1.00  0.00     0.000 C 
ATOM      4  C   UNL     1      16.925  24.586  15.373  1.00  0.00     0.004 C 
ENDBRANCH   2   3
BRANCH   2   5
ATOM      5  C   UNL     1      15.241  27.727  14.433  1.00  0.00    -0.014 C 
ATOM      6  C   UNL     1      14.045  28.413  15.119  1.00  0.00     0.007 C 
ATOM      7  C   UNL     1      16.536  28.210  15.114  1.00  0.00     0.007 C 
ENDBRANCH   2   5
ENDBRANCH   1   2
BRANCH   1   8
ATOM      8  C   UNL     1      13.083  25.766  12.883  1.00  0.00     0.004 C 
BRANCH   8   9
ATOM      9  C   UNL     1      11.526  25.812  12.875  1.00  0.00    -0.011 C 
ATOM     10  C   UNL     1      10.999  24.363  12.915  1.00  0.00     0.008 C 
BRANCH   9  11
ATOM     11  C   UNL     1      10.967  26.686  14.057  1.00  0.00    -0.002 C 
ATOM     12  C   UNL     1      10.698  28.142  13.616  1.00  0.00     0.005 C 
ATOM     13  C   UNL     1       9.635  26.237  14.749  1.00  0.00    -0.026 C 
ATOM     14  C   UNL     1       9.507  28.656  14.414  1.00  0.00     0.005 C 
ATOM     15  C   UNL     1       9.147  27.551  15.409  1.00  0.00    -0.001 C 
ATOM     16  C   UNL     1       8.588  25.736  13.708  1.00  0.00     0.007 C 
ATOM     17  C   UNL     1       9.892  25.167  15.845  1.00  0.00     0.012 C 
ATOM     18  C   UNL     1       7.659  27.539  15.877  1.00  0.00     0.004 C 
ATOM     19  C   UNL     1       7.164  25.648  14.263  1.00  0.00     0.005 C 
ATOM     20  C   UNL     1       6.675  27.020  14.773  1.00  0.00     0.003 C 
ATOM     21  C   UNL     1       7.252  28.915  16.475  1.00  0.00     0.085 C 
ATOM     22  C   UNL     1       5.174  27.023  15.269  1.00  0.00    -0.000 C 
ATOM     23  C   UNL     1       5.778  29.031  16.713  1.00  0.00     0.159 C 
ATOM     24  C   UNL     1       4.871  28.453  15.713  1.00  0.00     0.005 C 
ATOM     25  C   UNL     1       4.152  26.561  14.174  1.00  0.00     0.020 C 
ATOM     26  C   UNL     1       4.962  26.082  16.489  1.00  0.00     0.017 C 
ATOM     27  O   UNL     1       5.330  29.714  17.672  1.00  0.00    -0.295 OA
ATOM     28  C   UNL     1       4.090  29.289  15.009  1.00  0.00     0.055 C 
ATOM     29  C   UNL     1       3.925  27.605  13.083  1.00  0.00     0.081 C 
ATOM     30  C   UNL     1       3.513  28.895  13.716  1.00  0.00     0.156 C 
ATOM     31  O   UNL     1       2.744  29.682  13.101  1.00  0.00    -0.295 OA
ENDBRANCH   9  11
ENDBRANCH   8   9
ENDBRANCH   1   8
TORSDOF 6
ENDMDL
