MODEL 1
REMARK VINA RESULT:    -4.282      0.000      0.000
REMARK INTER + INTRA:          -6.372
REMARK INTER:                  -5.783
REMARK INTRA:                  -0.589
REMARK UNBOUND:                -0.589
REMARK SMILES CC(=O)CCC=C(C)CCC=C(C)C
REMARK SMILES IDX 7 1 6 2 8 3 9 4 10 5 11 6 13 7 12 8 14 9 5 10 4 11 2 12 3 13
REMARK SMILES IDX 1 14
REMARK H PARENT
REMARK Flexibility Score: inf
ROOT
ATOM      1  C   UNL     1     165.162 200.732 303.723  1.00  0.00    -0.077 C 
ATOM      2  C   UNL     1     166.059 199.902 304.299  1.00  0.00    -0.028 C 
ATOM      3  C   UNL     1     164.411 201.762 304.533  1.00  0.00     0.039 C 
ENDROOT
BRANCH   1   4
ATOM      4  C   UNL     1     164.899 200.620 302.237  1.00  0.00     0.034 C 
BRANCH   4   5
ATOM      5  C   UNL     1     166.106 201.113 301.431  1.00  0.00     0.032 C 
BRANCH   5   6
ATOM      6  C   UNL     1     166.883 199.950 300.865  1.00  0.00    -0.028 C 
ATOM      7  C   UNL     1     167.684 201.246 298.878  1.00  0.00     0.039 C 
ATOM      8  C   UNL     1     167.617 200.001 299.732  1.00  0.00    -0.080 C 
ATOM      9  C   UNL     1     168.372 198.768 299.310  1.00  0.00     0.039 C 
ENDBRANCH   5   6
ENDBRANCH   4   5
ENDBRANCH   1   4
BRANCH   2  10
ATOM     10  C   UNL     1     166.388 199.936 305.772  1.00  0.00     0.035 C 
BRANCH  10  11
ATOM     11  C   UNL     1     166.001 198.623 306.458  1.00  0.00     0.079 C 
BRANCH  11  12
ATOM     12  C   UNL     1     164.883 198.842 307.439  1.00  0.00     0.130 C 
ATOM     13  O   UNL     1     164.263 197.884 307.876  1.00  0.00    -0.300 OA
ATOM     14  C   UNL     1     164.508 200.229 307.866  1.00  0.00     0.087 C 
ENDBRANCH  11  12
ENDBRANCH  10  11
ENDBRANCH   2  10
TORSDOF 6
ENDMDL
MODEL 2
REMARK VINA RESULT:    -4.217      1.628      2.270
REMARK INTER + INTRA:          -6.284
REMARK INTER:                  -5.330
REMARK INTRA:                  -0.955
REMARK UNBOUND:                -0.589
REMARK SMILES CC(=O)CCC=C(C)CCC=C(C)C
REMARK SMILES IDX 7 1 6 2 8 3 9 4 10 5 11 6 13 7 12 8 14 9 5 10 4 11 2 12 3 13
REMARK SMILES IDX 1 14
REMARK H PARENT
REMARK Flexibility Score: inf
ROOT
ATOM      1  C   UNL     1     165.895 199.289 303.229  1.00  0.00    -0.077 C 
ATOM      2  C   UNL     1     165.524 199.848 304.402  1.00  0.00    -0.028 C 
ATOM      3  C   UNL     1     167.236 198.611 303.071  1.00  0.00     0.039 C 
ENDROOT
BRANCH   1   4
ATOM      4  C   UNL     1     164.953 199.356 302.047  1.00  0.00     0.034 C 
BRANCH   4   5
ATOM      5  C   UNL     1     164.630 200.812 301.689  1.00  0.00     0.032 C 
BRANCH   5   6
ATOM      6  C   UNL     1     165.666 201.373 300.747  1.00  0.00    -0.028 C 
ATOM      7  C   UNL     1     166.692 202.842 302.496  1.00  0.00     0.039 C 
ATOM      8  C   UNL     1     166.615 202.268 301.100  1.00  0.00    -0.080 C 
ATOM      9  C   UNL     1     167.608 202.710 300.058  1.00  0.00     0.039 C 
ENDBRANCH   5   6
ENDBRANCH   4   5
ENDBRANCH   1   4
BRANCH   2  10
ATOM     10  C   UNL     1     166.395 199.833 305.635  1.00  0.00     0.035 C 
BRANCH  10  11
ATOM     11  C   UNL     1     166.070 198.632 306.529  1.00  0.00     0.079 C 
BRANCH  11  12
ATOM     12  C   UNL     1     164.934 198.952 307.461  1.00  0.00     0.130 C 
ATOM     13  O   UNL     1     164.227 198.052 307.886  1.00  0.00    -0.300 OA
ATOM     14  C   UNL     1     164.649 200.370 307.853  1.00  0.00     0.087 C 
ENDBRANCH  11  12
ENDBRANCH  10  11
ENDBRANCH   2  10
TORSDOF 6
ENDMDL
MODEL 3
REMARK VINA RESULT:    -4.214      2.912      6.759
REMARK INTER + INTRA:          -6.281
REMARK INTER:                  -5.525
REMARK INTRA:                  -0.756
REMARK UNBOUND:                -0.589
REMARK SMILES CC(=O)CCC=C(C)CCC=C(C)C
REMARK SMILES IDX 7 1 6 2 8 3 9 4 10 5 11 6 13 7 12 8 14 9 5 10 4 11 2 12 3 13
REMARK SMILES IDX 1 14
REMARK H PARENT
REMARK Flexibility Score: inf
ROOT
ATOM      1  C   UNL     1     165.967 200.088 303.203  1.00  0.00    -0.077 C 
ATOM      2  C   UNL     1     166.127 201.428 303.282  1.00  0.00    -0.028 C 
ATOM      3  C   UNL     1     165.101 199.461 302.136  1.00  0.00     0.039 C 
ENDROOT
BRANCH   1   4
ATOM      4  C   UNL     1     166.662 199.200 304.212  1.00  0.00     0.034 C 
BRANCH   4   5
ATOM      5  C   UNL     1     166.469 199.738 305.635  1.00  0.00     0.032 C 
BRANCH   5   6
ATOM      6  C   UNL     1     165.784 198.713 306.505  1.00  0.00    -0.028 C 
ATOM      7  C   UNL     1     164.537 200.436 307.827  1.00  0.00     0.039 C 
ATOM      8  C   UNL     1     164.895 199.010 307.478  1.00  0.00    -0.080 C 
ATOM      9  C   UNL     1     164.261 197.876 308.241  1.00  0.00     0.039 C 
ENDBRANCH   5   6
ENDBRANCH   4   5
ENDBRANCH   1   4
BRANCH   2  10
ATOM     10  C   UNL     1     165.474 202.394 302.323  1.00  0.00     0.035 C 
BRANCH  10  11
ATOM     11  C   UNL     1     166.485 202.934 301.306  1.00  0.00     0.079 C 
BRANCH  11  12
ATOM     12  C   UNL     1     166.443 202.133 300.034  1.00  0.00     0.130 C 
ATOM     13  O   UNL     1     165.546 202.323 299.228  1.00  0.00    -0.300 OA
ATOM     14  C   UNL     1     167.480 201.087 299.761  1.00  0.00     0.087 C 
ENDBRANCH  11  12
ENDBRANCH  10  11
ENDBRANCH   2  10
TORSDOF 6
ENDMDL
MODEL 4
REMARK VINA RESULT:    -4.187      3.251      5.943
REMARK INTER + INTRA:          -6.244
REMARK INTER:                  -5.214
REMARK INTRA:                  -1.030
REMARK UNBOUND:                -0.589
REMARK SMILES CC(=O)CCC=C(C)CCC=C(C)C
REMARK SMILES IDX 7 1 6 2 8 3 9 4 10 5 11 6 13 7 12 8 14 9 5 10 4 11 2 12 3 13
REMARK SMILES IDX 1 14
REMARK H PARENT
REMARK Flexibility Score: inf
ROOT
ATOM      1  C   UNL     1     165.592 202.810 301.905  1.00  0.00    -0.077 C 
ATOM      2  C   UNL     1     166.886 202.531 301.639  1.00  0.00    -0.028 C 
ATOM      3  C   UNL     1     164.557 202.858 300.805  1.00  0.00     0.039 C 
ENDROOT
BRANCH   1   4
ATOM      4  C   UNL     1     165.173 203.090 303.332  1.00  0.00     0.034 C 
BRANCH   4   5
ATOM      5  C   UNL     1     164.391 201.906 303.913  1.00  0.00     0.032 C 
BRANCH   5   6
ATOM      6  C   UNL     1     165.317 200.953 304.627  1.00  0.00    -0.028 C 
ATOM      7  C   UNL     1     165.258 199.261 302.782  1.00  0.00     0.039 C 
ATOM      8  C   UNL     1     165.735 199.772 304.122  1.00  0.00    -0.080 C 
ATOM      9  C   UNL     1     166.692 198.941 304.936  1.00  0.00     0.039 C 
ENDBRANCH   5   6
ENDBRANCH   4   5
ENDBRANCH   1   4
BRANCH   2  10
ATOM     10  C   UNL     1     167.400 202.239 300.250  1.00  0.00     0.035 C 
BRANCH  10  11
ATOM     11  C   UNL     1     167.059 200.808 299.821  1.00  0.00     0.079 C 
BRANCH  11  12
ATOM     12  C   UNL     1     168.303 199.969 299.724  1.00  0.00     0.130 C 
ATOM     13  O   UNL     1     169.143 200.226 298.875  1.00  0.00    -0.300 OA
ATOM     14  C   UNL     1     168.507 198.805 300.646  1.00  0.00     0.087 C 
ENDBRANCH  11  12
ENDBRANCH  10  11
ENDBRANCH   2  10
TORSDOF 6
ENDMDL
MODEL 5
REMARK VINA RESULT:    -4.132      1.783      2.565
REMARK INTER + INTRA:          -6.170
REMARK INTER:                  -5.299
REMARK INTRA:                  -0.871
REMARK UNBOUND:                -0.589
REMARK SMILES CC(=O)CCC=C(C)CCC=C(C)C
REMARK SMILES IDX 7 1 6 2 8 3 9 4 10 5 11 6 13 7 12 8 14 9 5 10 4 11 2 12 3 13
REMARK SMILES IDX 1 14
REMARK H PARENT
REMARK Flexibility Score: inf
ROOT
ATOM      1  C   UNL     1     165.609 202.725 302.116  1.00  0.00    -0.077 C 
ATOM      2  C   UNL     1     166.097 202.251 303.283  1.00  0.00    -0.028 C 
ATOM      3  C   UNL     1     164.131 202.976 301.926  1.00  0.00     0.039 C 
ENDROOT
BRANCH   1   4
ATOM      4  C   UNL     1     166.562 202.999 300.972  1.00  0.00     0.034 C 
BRANCH   4   5
ATOM      5  C   UNL     1     166.395 201.954 299.863  1.00  0.00     0.032 C 
BRANCH   5   6
ATOM      6  C   UNL     1     167.542 200.974 299.874  1.00  0.00    -0.028 C 
ATOM      7  C   UNL     1     166.358 199.360 301.378  1.00  0.00     0.039 C 
ATOM      8  C   UNL     1     167.531 199.793 300.530  1.00  0.00    -0.080 C 
ATOM      9  C   UNL     1     168.738 198.899 300.418  1.00  0.00     0.039 C 
ENDBRANCH   5   6
ENDBRANCH   4   5
ENDBRANCH   1   4
BRANCH   2  10
ATOM     10  C   UNL     1     165.227 201.946 304.478  1.00  0.00     0.035 C 
BRANCH  10  11
ATOM     11  C   UNL     1     164.910 200.450 304.567  1.00  0.00     0.079 C 
BRANCH  11  12
ATOM     12  C   UNL     1     165.912 199.741 305.435  1.00  0.00     0.130 C 
ATOM     13  O   UNL     1     166.889 199.212 304.926  1.00  0.00    -0.300 OA
ATOM     14  C   UNL     1     165.709 199.659 306.917  1.00  0.00     0.087 C 
ENDBRANCH  11  12
ENDBRANCH  10  11
ENDBRANCH   2  10
TORSDOF 6
ENDMDL
MODEL 6
REMARK VINA RESULT:    -4.129      2.894      5.876
REMARK INTER + INTRA:          -6.166
REMARK INTER:                  -5.448
REMARK INTRA:                  -0.718
REMARK UNBOUND:                -0.589
REMARK SMILES CC(=O)CCC=C(C)CCC=C(C)C
REMARK SMILES IDX 7 1 6 2 8 3 9 4 10 5 11 6 13 7 12 8 14 9 5 10 4 11 2 12 3 13
REMARK SMILES IDX 1 14
REMARK H PARENT
REMARK Flexibility Score: inf
ROOT
ATOM      1  C   UNL     1     165.269 200.512 303.542  1.00  0.00    -0.077 C 
ATOM      2  C   UNL     1     164.696 201.396 304.388  1.00  0.00    -0.028 C 
ATOM      3  C   UNL     1     164.880 200.455 302.083  1.00  0.00     0.039 C 
ENDROOT
BRANCH   1   4
ATOM      4  C   UNL     1     166.313 199.552 304.070  1.00  0.00     0.034 C 
BRANCH   4   5
ATOM      5  C   UNL     1     166.568 199.792 305.563  1.00  0.00     0.032 C 
BRANCH   5   6
ATOM      6  C   UNL     1     165.880 198.742 306.399  1.00  0.00    -0.028 C 
ATOM      7  C   UNL     1     164.588 200.422 307.733  1.00  0.00     0.039 C 
ATOM      8  C   UNL     1     164.969 199.007 307.361  1.00  0.00    -0.080 C 
ATOM      9  C   UNL     1     164.335 197.851 308.089  1.00  0.00     0.039 C 
ENDBRANCH   5   6
ENDBRANCH   4   5
ENDBRANCH   1   4
BRANCH   2  10
ATOM     10  C   UNL     1     163.646 202.391 303.956  1.00  0.00     0.035 C 
BRANCH  10  11
ATOM     11  C   UNL     1     162.826 202.886 305.152  1.00  0.00     0.079 C 
BRANCH  11  12
ATOM     12  C   UNL     1     161.356 202.866 304.837  1.00  0.00     0.130 C 
ATOM     13  O   UNL     1     160.985 202.899 303.673  1.00  0.00    -0.300 OA
ATOM     14  C   UNL     1     160.343 202.832 305.940  1.00  0.00     0.087 C 
ENDBRANCH  11  12
ENDBRANCH  10  11
ENDBRANCH   2  10
TORSDOF 6
ENDMDL
MODEL 7
REMARK VINA RESULT:    -4.129      2.922      6.888
REMARK INTER + INTRA:          -6.166
REMARK INTER:                  -5.409
REMARK INTRA:                  -0.757
REMARK UNBOUND:                -0.589
REMARK SMILES CC(=O)CCC=C(C)CCC=C(C)C
REMARK SMILES IDX 7 1 6 2 8 3 9 4 10 5 11 6 13 7 12 8 14 9 5 10 4 11 2 12 3 13
REMARK SMILES IDX 1 14
REMARK H PARENT
REMARK Flexibility Score: inf
ROOT
ATOM      1  C   UNL     1     166.303 200.186 304.205  1.00  0.00    -0.077 C 
ATOM      2  C   UNL     1     166.321 199.194 303.289  1.00  0.00    -0.028 C 
ATOM      3  C   UNL     1     166.058 201.622 303.804  1.00  0.00     0.039 C 
ENDROOT
BRANCH   1   4
ATOM      4  C   UNL     1     166.545 199.853 305.661  1.00  0.00     0.034 C 
BRANCH   4   5
ATOM      5  C   UNL     1     165.288 199.246 306.297  1.00  0.00     0.032 C 
BRANCH   5   6
ATOM      6  C   UNL     1     165.069 199.802 307.682  1.00  0.00    -0.028 C 
ATOM      7  C   UNL     1     163.524 201.605 306.888  1.00  0.00     0.039 C 
ATOM      8  C   UNL     1     164.260 200.846 307.967  1.00  0.00    -0.080 C 
ATOM      9  C   UNL     1     164.109 201.266 309.406  1.00  0.00     0.039 C 
ENDBRANCH   5   6
ENDBRANCH   4   5
ENDBRANCH   1   4
BRANCH   2  10
ATOM     10  C   UNL     1     166.092 199.427 301.815  1.00  0.00     0.035 C 
BRANCH  10  11
ATOM     11  C   UNL     1     167.406 199.348 301.031  1.00  0.00     0.079 C 
BRANCH  11  12
ATOM     12  C   UNL     1     167.489 200.454 300.015  1.00  0.00     0.130 C 
ATOM     13  O   UNL     1     167.852 200.205 298.876  1.00  0.00    -0.300 OA
ATOM     14  C   UNL     1     167.153 201.863 300.398  1.00  0.00     0.087 C 
ENDBRANCH  11  12
ENDBRANCH  10  11
ENDBRANCH   2  10
TORSDOF 6
ENDMDL
MODEL 8
REMARK VINA RESULT:    -4.096      1.928      3.377
REMARK INTER + INTRA:          -6.121
REMARK INTER:                  -5.199
REMARK INTRA:                  -0.922
REMARK UNBOUND:                -0.589
REMARK SMILES CC(=O)CCC=C(C)CCC=C(C)C
REMARK SMILES IDX 7 1 6 2 8 3 9 4 10 5 11 6 13 7 12 8 14 9 5 10 4 11 2 12 3 13
REMARK SMILES IDX 1 14
REMARK H PARENT
REMARK Flexibility Score: inf
ROOT
ATOM      1  C   UNL     1     166.167 200.826 302.228  1.00  0.00    -0.077 C 
ATOM      2  C   UNL     1     165.864 201.264 303.469  1.00  0.00    -0.028 C 
ATOM      3  C   UNL     1     165.962 199.383 301.832  1.00  0.00     0.039 C 
ENDROOT
BRANCH   1   4
ATOM      4  C   UNL     1     166.734 201.800 301.218  1.00  0.00     0.034 C 
BRANCH   4   5
ATOM      5  C   UNL     1     165.706 202.881 300.867  1.00  0.00     0.032 C 
BRANCH   5   6
ATOM      6  C   UNL     1     164.547 202.289 300.104  1.00  0.00    -0.028 C 
ATOM      7  C   UNL     1     162.884 202.829 301.896  1.00  0.00     0.039 C 
ATOM      8  C   UNL     1     163.269 202.280 300.542  1.00  0.00    -0.080 C 
ATOM      9  C   UNL     1     162.209 201.687 299.652  1.00  0.00     0.039 C 
ENDBRANCH   5   6
ENDBRANCH   4   5
ENDBRANCH   1   4
BRANCH   2  10
ATOM     10  C   UNL     1     165.296 200.370 304.544  1.00  0.00     0.035 C 
BRANCH  10  11
ATOM     11  C   UNL     1     166.406 199.783 305.421  1.00  0.00     0.079 C 
BRANCH  11  12
ATOM     12  C   UNL     1     165.850 199.286 306.727  1.00  0.00     0.130 C 
ATOM     13  O   UNL     1     166.116 198.156 307.109  1.00  0.00    -0.300 OA
ATOM     14  C   UNL     1     164.951 200.157 307.550  1.00  0.00     0.087 C 
ENDBRANCH  11  12
ENDBRANCH  10  11
ENDBRANCH   2  10
TORSDOF 6
ENDMDL
MODEL 9
REMARK VINA RESULT:    -3.937      2.327      3.227
REMARK INTER + INTRA:          -5.907
REMARK INTER:                  -5.441
REMARK INTRA:                  -0.466
REMARK UNBOUND:                -0.589
REMARK SMILES CC(=O)CCC=C(C)CCC=C(C)C
REMARK SMILES IDX 7 1 6 2 8 3 9 4 10 5 11 6 13 7 12 8 14 9 5 10 4 11 2 12 3 13
REMARK SMILES IDX 1 14
REMARK H PARENT
REMARK Flexibility Score: inf
ROOT
ATOM      1  C   UNL     1     165.707 200.096 304.549  1.00  0.00    -0.077 C 
ATOM      2  C   UNL     1     164.984 201.171 304.168  1.00  0.00    -0.028 C 
ATOM      3  C   UNL     1     165.775 199.667 305.996  1.00  0.00     0.039 C 
ENDROOT
BRANCH   1   4
ATOM      4  C   UNL     1     166.473 199.312 303.506  1.00  0.00     0.034 C 
BRANCH   4   5
ATOM      5  C   UNL     1     166.468 200.047 302.160  1.00  0.00     0.032 C 
BRANCH   5   6
ATOM      6  C   UNL     1     167.238 199.268 301.123  1.00  0.00    -0.028 C 
ATOM      7  C   UNL     1     167.261 201.163 299.486  1.00  0.00     0.039 C 
ATOM      8  C   UNL     1     167.623 199.763 299.926  1.00  0.00    -0.080 C 
ATOM      9  C   UNL     1     168.422 198.878 299.006  1.00  0.00     0.039 C 
ENDBRANCH   5   6
ENDBRANCH   4   5
ENDBRANCH   1   4
BRANCH   2  10
ATOM     10  C   UNL     1     164.188 202.015 305.134  1.00  0.00     0.035 C 
BRANCH  10  11
ATOM     11  C   UNL     1     162.869 202.479 304.508  1.00  0.00     0.079 C 
BRANCH  11  12
ATOM     12  C   UNL     1     161.834 202.733 305.569  1.00  0.00     0.130 C 
ATOM     13  O   UNL     1     160.711 203.090 305.248  1.00  0.00    -0.300 OA
ATOM     14  C   UNL     1     162.178 202.574 307.019  1.00  0.00     0.087 C 
ENDBRANCH  11  12
ENDBRANCH  10  11
ENDBRANCH   2  10
TORSDOF 6
ENDMDL
