MODEL 1
REMARK VINA RESULT:    -3.341      0.000      0.000
REMARK INTER + INTRA:          -3.554
REMARK INTER:                  -3.536
REMARK INTRA:                  -0.019
REMARK UNBOUND:                -0.019
REMARK SMILES O=C([O-])c1cccnc1
REMARK SMILES IDX 4 1 5 2 9 3 6 4 8 5 7 6 2 7 1 8 3 9
REMARK H PARENT
REMARK Flexibility Score: inf
ROOT
ATOM      1  C   UNL     1      62.781  34.841  60.972  1.00  0.00     0.016 A 
ATOM      2  C   UNL     1      64.103  34.591  61.374  1.00  0.00     0.013 A 
ATOM      3  C   UNL     1      62.269  36.142  61.128  1.00  0.00     0.120 A 
ATOM      4  C   UNL     1      64.878  35.618  61.913  1.00  0.00     0.021 A 
ATOM      5  N   UNL     1      63.047  37.125  61.657  1.00  0.00    -0.264 NA
ATOM      6  C   UNL     1      64.327  36.893  62.048  1.00  0.00     0.111 A 
ENDROOT
BRANCH   1   7
ATOM      7  C   UNL     1      61.950  33.760  60.399  1.00  0.00     0.073 C 
ATOM      8  O   UNL     1      61.797  32.673  61.016  1.00  0.00    -0.545 OA
ATOM      9  O   UNL     1      61.326  33.930  59.168  1.00  0.00    -0.545 OA
ENDBRANCH   1   7
TORSDOF 1
ENDMDL
MODEL 2
REMARK VINA RESULT:    -3.333     15.181     15.999
REMARK INTER + INTRA:          -3.547
REMARK INTER:                  -3.531
REMARK INTRA:                  -0.016
REMARK UNBOUND:                -0.019
REMARK SMILES O=C([O-])c1cccnc1
REMARK SMILES IDX 4 1 5 2 9 3 6 4 8 5 7 6 2 7 1 8 3 9
REMARK H PARENT
REMARK Flexibility Score: inf
ROOT
ATOM      1  C   UNL     1      55.738  26.563  50.190  1.00  0.00     0.016 A 
ATOM      2  C   UNL     1      55.499  27.892  50.576  1.00  0.00     0.013 A 
ATOM      3  C   UNL     1      54.722  25.873  49.504  1.00  0.00     0.120 A 
ATOM      4  C   UNL     1      54.279  28.500  50.278  1.00  0.00     0.021 A 
ATOM      5  N   UNL     1      53.542  26.489  49.227  1.00  0.00    -0.264 NA
ATOM      6  C   UNL     1      53.302  27.775  49.595  1.00  0.00     0.111 A 
ENDROOT
BRANCH   1   7
ATOM      7  C   UNL     1      57.027  25.908  50.500  1.00  0.00     0.073 C 
ATOM      8  O   UNL     1      57.950  25.872  49.642  1.00  0.00    -0.545 OA
ATOM      9  O   UNL     1      57.239  25.321  51.742  1.00  0.00    -0.545 OA
ENDBRANCH   1   7
TORSDOF 1
ENDMDL
MODEL 3
REMARK VINA RESULT:    -3.329     14.906     15.972
REMARK INTER + INTRA:          -3.543
REMARK INTER:                  -3.526
REMARK INTRA:                  -0.016
REMARK UNBOUND:                -0.019
REMARK SMILES O=C([O-])c1cccnc1
REMARK SMILES IDX 4 1 5 2 9 3 6 4 8 5 7 6 2 7 1 8 3 9
REMARK H PARENT
REMARK Flexibility Score: inf
ROOT
ATOM      1  C   UNL     1      55.721  26.583  50.187  1.00  0.00     0.016 A 
ATOM      2  C   UNL     1      54.693  25.885  49.533  1.00  0.00     0.013 A 
ATOM      3  C   UNL     1      55.496  27.925  50.545  1.00  0.00     0.120 A 
ATOM      4  C   UNL     1      53.483  26.521  49.252  1.00  0.00     0.021 A 
ATOM      5  N   UNL     1      54.307  28.520  50.258  1.00  0.00    -0.264 NA
ATOM      6  C   UNL     1      53.306  27.853  49.627  1.00  0.00     0.111 A 
ENDROOT
BRANCH   1   7
ATOM      7  C   UNL     1      57.008  25.920  50.491  1.00  0.00     0.073 C 
ATOM      8  O   UNL     1      57.938  25.905  49.640  1.00  0.00    -0.545 OA
ATOM      9  O   UNL     1      57.209  25.303  51.719  1.00  0.00    -0.545 OA
ENDBRANCH   1   7
TORSDOF 1
ENDMDL
MODEL 4
REMARK VINA RESULT:    -3.322      0.944      1.931
REMARK INTER + INTRA:          -3.534
REMARK INTER:                  -3.515
REMARK INTRA:                  -0.020
REMARK UNBOUND:                -0.019
REMARK SMILES O=C([O-])c1cccnc1
REMARK SMILES IDX 4 1 5 2 9 3 6 4 8 5 7 6 2 7 1 8 3 9
REMARK H PARENT
REMARK Flexibility Score: inf
ROOT
ATOM      1  C   UNL     1      62.748  34.804  60.949  1.00  0.00     0.016 A 
ATOM      2  C   UNL     1      62.314  36.125  61.143  1.00  0.00     0.013 A 
ATOM      3  C   UNL     1      64.068  34.473  61.307  1.00  0.00     0.120 A 
ATOM      4  C   UNL     1      63.182  37.076  61.681  1.00  0.00     0.021 A 
ATOM      5  N   UNL     1      64.893  35.420  61.828  1.00  0.00    -0.264 NA
ATOM      6  C   UNL     1      64.482  36.701  62.022  1.00  0.00     0.111 A 
ENDROOT
BRANCH   1   7
ATOM      7  C   UNL     1      61.837  33.787  60.381  1.00  0.00     0.073 C 
ATOM      8  O   UNL     1      61.155  34.041  59.352  1.00  0.00    -0.545 OA
ATOM      9  O   UNL     1      61.718  32.536  60.976  1.00  0.00    -0.545 OA
ENDBRANCH   1   7
TORSDOF 1
ENDMDL
MODEL 5
REMARK VINA RESULT:    -3.282     14.758     16.211
REMARK INTER + INTRA:          -3.493
REMARK INTER:                  -3.469
REMARK INTRA:                  -0.024
REMARK UNBOUND:                -0.019
REMARK SMILES O=C([O-])c1cccnc1
REMARK SMILES IDX 4 1 5 2 9 3 6 4 8 5 7 6 2 7 1 8 3 9
REMARK H PARENT
REMARK Flexibility Score: inf
ROOT
ATOM      1  C   UNL     1      55.366  27.248  50.040  1.00  0.00     0.016 A 
ATOM      2  C   UNL     1      54.265  28.119  50.075  1.00  0.00     0.013 A 
ATOM      3  C   UNL     1      55.175  25.949  49.536  1.00  0.00     0.120 A 
ATOM      4  C   UNL     1      53.018  27.691  49.617  1.00  0.00     0.021 A 
ATOM      5  N   UNL     1      53.949  25.558  49.097  1.00  0.00    -0.264 NA
ATOM      6  C   UNL     1      52.878  26.393  49.125  1.00  0.00     0.111 A 
ENDROOT
BRANCH   1   7
ATOM      7  C   UNL     1      56.693  27.690  50.522  1.00  0.00     0.073 C 
ATOM      8  O   UNL     1      56.885  28.888  50.861  1.00  0.00    -0.545 OA
ATOM      9  O   UNL     1      57.747  26.788  50.605  1.00  0.00    -0.545 OA
ENDBRANCH   1   7
TORSDOF 1
ENDMDL
MODEL 6
REMARK VINA RESULT:    -3.203      1.280      1.548
REMARK INTER + INTRA:          -3.409
REMARK INTER:                  -3.388
REMARK INTRA:                  -0.021
REMARK UNBOUND:                -0.019
REMARK SMILES O=C([O-])c1cccnc1
REMARK SMILES IDX 4 1 5 2 9 3 6 4 8 5 7 6 2 7 1 8 3 9
REMARK H PARENT
REMARK Flexibility Score: inf
ROOT
ATOM      1  C   UNL     1      63.391  34.428  61.059  1.00  0.00     0.016 A 
ATOM      2  C   UNL     1      64.531  35.021  61.626  1.00  0.00     0.013 A 
ATOM      3  C   UNL     1      62.252  35.228  60.858  1.00  0.00     0.120 A 
ATOM      4  C   UNL     1      64.519  36.372  61.976  1.00  0.00     0.021 A 
ATOM      5  N   UNL     1      62.266  36.542  61.209  1.00  0.00    -0.264 NA
ATOM      6  C   UNL     1      63.365  37.125  61.756  1.00  0.00     0.111 A 
ENDROOT
BRANCH   1   7
ATOM      7  C   UNL     1      63.393  32.998  60.684  1.00  0.00     0.073 C 
ATOM      8  O   UNL     1      64.440  32.451  60.246  1.00  0.00    -0.545 OA
ATOM      9  O   UNL     1      62.237  32.236  60.808  1.00  0.00    -0.545 OA
ENDBRANCH   1   7
TORSDOF 1
ENDMDL
MODEL 7
REMARK VINA RESULT:    -3.163     14.131     14.836
REMARK INTER + INTRA:          -3.366
REMARK INTER:                  -3.350
REMARK INTRA:                  -0.016
REMARK UNBOUND:                -0.019
REMARK SMILES O=C([O-])c1cccnc1
REMARK SMILES IDX 4 1 5 2 9 3 6 4 8 5 7 6 2 7 1 8 3 9
REMARK H PARENT
REMARK Flexibility Score: inf
ROOT
ATOM      1  C   UNL     1      57.501  26.787  50.102  1.00  0.00     0.016 A 
ATOM      2  C   UNL     1      57.573  28.189  50.071  1.00  0.00     0.013 A 
ATOM      3  C   UNL     1      58.642  26.051  49.734  1.00  0.00     0.120 A 
ATOM      4  C   UNL     1      58.754  28.822  49.682  1.00  0.00     0.021 A 
ATOM      5  N   UNL     1      59.780  26.693  49.357  1.00  0.00    -0.264 NA
ATOM      6  C   UNL     1      59.859  28.049  49.325  1.00  0.00     0.111 A 
ENDROOT
BRANCH   1   7
ATOM      7  C   UNL     1      56.255  26.105  50.514  1.00  0.00     0.073 C 
ATOM      8  O   UNL     1      56.116  25.682  51.693  1.00  0.00    -0.545 OA
ATOM      9  O   UNL     1      55.221  25.918  49.605  1.00  0.00    -0.545 OA
ENDBRANCH   1   7
TORSDOF 1
ENDMDL
MODEL 8
REMARK VINA RESULT:    -3.108     13.860     15.417
REMARK INTER + INTRA:          -3.309
REMARK INTER:                  -3.292
REMARK INTRA:                  -0.016
REMARK UNBOUND:                -0.019
REMARK SMILES O=C([O-])c1cccnc1
REMARK SMILES IDX 4 1 5 2 9 3 6 4 8 5 7 6 2 7 1 8 3 9
REMARK H PARENT
REMARK Flexibility Score: inf
ROOT
ATOM      1  C   UNL     1      55.850  27.778  50.362  1.00  0.00     0.016 A 
ATOM      2  C   UNL     1      55.770  26.459  49.887  1.00  0.00     0.013 A 
ATOM      3  C   UNL     1      54.682  28.562  50.357  1.00  0.00     0.120 A 
ATOM      4  C   UNL     1      54.554  25.952  49.426  1.00  0.00     0.021 A 
ATOM      5  N   UNL     1      53.510  28.043  49.902  1.00  0.00    -0.264 NA
ATOM      6  C   UNL     1      53.422  26.767  49.442  1.00  0.00     0.111 A 
ENDROOT
BRANCH   1   7
ATOM      7  C   UNL     1      57.132  28.326  50.853  1.00  0.00     0.073 C 
ATOM      8  O   UNL     1      57.508  28.114  52.037  1.00  0.00    -0.545 OA
ATOM      9  O   UNL     1      57.941  29.085  50.016  1.00  0.00    -0.545 OA
ENDBRANCH   1   7
TORSDOF 1
ENDMDL
MODEL 9
REMARK VINA RESULT:    -3.050     14.131     14.787
REMARK INTER + INTRA:          -3.247
REMARK INTER:                  -3.222
REMARK INTRA:                  -0.024
REMARK UNBOUND:                -0.019
REMARK SMILES O=C([O-])c1cccnc1
REMARK SMILES IDX 4 1 5 2 9 3 6 4 8 5 7 6 2 7 1 8 3 9
REMARK H PARENT
REMARK Flexibility Score: inf
ROOT
ATOM      1  C   UNL     1      58.519  27.255  49.955  1.00  0.00     0.016 A 
ATOM      2  C   UNL     1      57.778  28.424  50.190  1.00  0.00     0.013 A 
ATOM      3  C   UNL     1      57.844  26.021  49.969  1.00  0.00     0.120 A 
ATOM      4  C   UNL     1      56.405  28.348  50.429  1.00  0.00     0.021 A 
ATOM      5  N   UNL     1      56.506  25.975  50.205  1.00  0.00    -0.264 NA
ATOM      6  C   UNL     1      55.779  27.101  50.432  1.00  0.00     0.111 A 
ENDROOT
BRANCH   1   7
ATOM      7  C   UNL     1      59.974  27.324  49.700  1.00  0.00     0.073 C 
ATOM      8  O   UNL     1      60.568  28.435  49.671  1.00  0.00    -0.545 OA
ATOM      9  O   UNL     1      60.707  26.162  49.487  1.00  0.00    -0.545 OA
ENDBRANCH   1   7
TORSDOF 1
ENDMDL
