MODEL 1
REMARK VINA RESULT:    -5.227      0.000      0.000
REMARK INTER + INTRA:         -12.652
REMARK INTER:                 -10.117
REMARK INTRA:                  -2.536
REMARK UNBOUND:                -2.536
REMARK SMILES CCCCCCCCCCCCCCCCCC(=O)[O-]
REMARK SMILES IDX 10 1 11 2 12 3 13 4 14 5 15 6 16 7 17 8 18 9 19 10 20 11
REMARK SMILES IDX 9 12 8 13 7 14 6 15 5 16 4 17 3 18 2 19 1 20
REMARK H PARENT
REMARK Flexibility Score: inf
ROOT
ATOM      1  C   UNL     1      12.903  46.954   5.978  1.00  0.00     0.000 C 
ENDROOT
BRANCH   1   2
ATOM      2  C   UNL     1      12.141  46.515   4.715  1.00  0.00     0.000 C 
BRANCH   2   3
ATOM      3  C   UNL     1      12.928  45.496   3.875  1.00  0.00     0.000 C 
BRANCH   3   4
ATOM      4  C   UNL     1      12.530  44.043   4.177  1.00  0.00     0.000 C 
BRANCH   4   5
ATOM      5  C   UNL     1      13.773  43.146   4.282  1.00  0.00     0.000 C 
BRANCH   5   6
ATOM      6  C   UNL     1      15.032  43.805   3.695  1.00  0.00     0.000 C 
BRANCH   6   7
ATOM      7  C   UNL     1      16.246  43.704   4.636  1.00  0.00     0.006 C 
BRANCH   7   8
ATOM      8  C   UNL     1      16.167  44.712   5.790  1.00  0.00     0.053 C 
BRANCH   8   9
ATOM      9  C   UNL     1      17.223  44.460   6.823  1.00  0.00     0.041 C 
ATOM     10  O   UNL     1      18.193  43.699   6.565  1.00  0.00    -0.550 OA
ATOM     11  O   UNL     1      17.118  45.042   8.079  1.00  0.00    -0.550 OA
ENDBRANCH   8   9
ENDBRANCH   7   8
ENDBRANCH   6   7
ENDBRANCH   5   6
ENDBRANCH   4   5
ENDBRANCH   3   4
ENDBRANCH   2   3
ENDBRANCH   1   2
BRANCH   1  12
ATOM     12  C   UNL     1      12.372  46.276   7.252  1.00  0.00     0.000 C 
BRANCH  12  13
ATOM     13  C   UNL     1      13.455  45.472   7.992  1.00  0.00    -0.000 C 
BRANCH  13  14
ATOM     14  C   UNL     1      13.185  43.959   7.979  1.00  0.00    -0.000 C 
BRANCH  14  15
ATOM     15  C   UNL     1      14.243  43.165   8.764  1.00  0.00    -0.000 C 
BRANCH  15  16
ATOM     16  C   UNL     1      14.808  41.974   7.967  1.00  0.00    -0.000 C 
BRANCH  16  17
ATOM     17  C   UNL     1      16.137  41.400   8.498  1.00  0.00    -0.000 C 
BRANCH  17  18
ATOM     18  C   UNL     1      16.028  40.024   9.186  1.00  0.00    -0.000 C 
BRANCH  18  19
ATOM     19  C   UNL     1      14.599  39.462   9.283  1.00  0.00    -0.003 C 
ATOM     20  C   UNL     1      14.191  39.119  10.715  1.00  0.00     0.004 C 
ENDBRANCH  18  19
ENDBRANCH  17  18
ENDBRANCH  16  17
ENDBRANCH  15  16
ENDBRANCH  14  15
ENDBRANCH  13  14
ENDBRANCH  12  13
ENDBRANCH   1  12
TORSDOF 16
ENDMDL
MODEL 2
REMARK VINA RESULT:    -5.049      2.050      3.692
REMARK INTER + INTRA:         -12.307
REMARK INTER:                 -10.488
REMARK INTRA:                  -1.820
REMARK UNBOUND:                -2.536
REMARK SMILES CCCCCCCCCCCCCCCCCC(=O)[O-]
REMARK SMILES IDX 10 1 11 2 12 3 13 4 14 5 15 6 16 7 17 8 18 9 19 10 20 11
REMARK SMILES IDX 9 12 8 13 7 14 6 15 5 16 4 17 3 18 2 19 1 20
REMARK H PARENT
REMARK Flexibility Score: inf
ROOT
ATOM      1  C   UNL     1      16.932  44.912   6.797  1.00  0.00     0.000 C 
ENDROOT
BRANCH   1   2
ATOM      2  C   UNL     1      17.701  43.778   6.098  1.00  0.00     0.000 C 
BRANCH   2   3
ATOM      3  C   UNL     1      17.051  43.353   4.770  1.00  0.00     0.000 C 
BRANCH   3   4
ATOM      4  C   UNL     1      15.531  43.161   4.887  1.00  0.00     0.000 C 
BRANCH   4   5
ATOM      5  C   UNL     1      14.814  43.713   3.645  1.00  0.00     0.000 C 
BRANCH   5   6
ATOM      6  C   UNL     1      14.918  45.242   3.528  1.00  0.00     0.000 C 
BRANCH   6   7
ATOM      7  C   UNL     1      13.675  45.964   4.078  1.00  0.00     0.006 C 
BRANCH   7   8
ATOM      8  C   UNL     1      13.928  46.578   5.460  1.00  0.00     0.053 C 
BRANCH   8   9
ATOM      9  C   UNL     1      12.986  46.035   6.492  1.00  0.00     0.041 C 
ATOM     10  O   UNL     1      12.474  44.894   6.345  1.00  0.00    -0.550 OA
ATOM     11  O   UNL     1      12.651  46.803   7.599  1.00  0.00    -0.550 OA
ENDBRANCH   8   9
ENDBRANCH   7   8
ENDBRANCH   6   7
ENDBRANCH   5   6
ENDBRANCH   4   5
ENDBRANCH   3   4
ENDBRANCH   2   3
ENDBRANCH   1   2
BRANCH   1  12
ATOM     12  C   UNL     1      16.580  44.574   8.255  1.00  0.00     0.000 C 
BRANCH  12  13
ATOM     13  C   UNL     1      15.202  43.904   8.394  1.00  0.00    -0.000 C 
BRANCH  13  14
ATOM     14  C   UNL     1      15.249  42.619   9.235  1.00  0.00    -0.000 C 
BRANCH  14  15
ATOM     15  C   UNL     1      16.012  41.483   8.533  1.00  0.00    -0.000 C 
BRANCH  15  16
ATOM     16  C   UNL     1      15.768  40.109   9.183  1.00  0.00    -0.000 C 
BRANCH  16  17
ATOM     17  C   UNL     1      14.299  39.800   9.535  1.00  0.00    -0.000 C 
BRANCH  17  18
ATOM     18  C   UNL     1      14.096  38.886  10.760  1.00  0.00    -0.000 C 
BRANCH  18  19
ATOM     19  C   UNL     1      12.967  37.850  10.612  1.00  0.00    -0.003 C 
ATOM     20  C   UNL     1      12.273  37.533  11.935  1.00  0.00     0.004 C 
ENDBRANCH  18  19
ENDBRANCH  17  18
ENDBRANCH  16  17
ENDBRANCH  15  16
ENDBRANCH  14  15
ENDBRANCH  13  14
ENDBRANCH  12  13
ENDBRANCH   1  12
TORSDOF 16
ENDMDL
MODEL 3
REMARK VINA RESULT:    -5.046      3.588      6.984
REMARK INTER + INTRA:         -12.301
REMARK INTER:                 -10.343
REMARK INTRA:                  -1.959
REMARK UNBOUND:                -2.536
REMARK SMILES CCCCCCCCCCCCCCCCCC(=O)[O-]
REMARK SMILES IDX 10 1 11 2 12 3 13 4 14 5 15 6 16 7 17 8 18 9 19 10 20 11
REMARK SMILES IDX 9 12 8 13 7 14 6 15 5 16 4 17 3 18 2 19 1 20
REMARK H PARENT
REMARK Flexibility Score: inf
ROOT
ATOM      1  C   UNL     1      14.007  44.121   8.084  1.00  0.00     0.000 C 
ENDROOT
BRANCH   1   2
ATOM      2  C   UNL     1      14.735  43.134   9.013  1.00  0.00     0.000 C 
BRANCH   2   3
ATOM      3  C   UNL     1      14.736  41.698   8.464  1.00  0.00     0.000 C 
BRANCH   3   4
ATOM      4  C   UNL     1      16.015  40.925   8.822  1.00  0.00     0.000 C 
BRANCH   4   5
ATOM      5  C   UNL     1      15.675  39.611   9.543  1.00  0.00     0.000 C 
BRANCH   5   6
ATOM      6  C   UNL     1      14.196  39.523   9.952  1.00  0.00     0.000 C 
BRANCH   6   7
ATOM      7  C   UNL     1      13.950  38.485  11.061  1.00  0.00     0.006 C 
BRANCH   7   8
ATOM      8  C   UNL     1      12.645  37.708  10.847  1.00  0.00     0.053 C 
BRANCH   8   9
ATOM      9  C   UNL     1      11.977  37.371  12.145  1.00  0.00     0.041 C 
ATOM     10  O   UNL     1      11.606  36.191  12.379  1.00  0.00    -0.550 OA
ATOM     11  O   UNL     1      11.740  38.367  13.083  1.00  0.00    -0.550 OA
ENDBRANCH   8   9
ENDBRANCH   7   8
ENDBRANCH   6   7
ENDBRANCH   5   6
ENDBRANCH   4   5
ENDBRANCH   3   4
ENDBRANCH   2   3
ENDBRANCH   1   2
BRANCH   1  12
ATOM     12  C   UNL     1      14.891  45.313   7.682  1.00  0.00     0.000 C 
BRANCH  12  13
ATOM     13  C   UNL     1      16.362  45.129   8.095  1.00  0.00    -0.000 C 
BRANCH  13  14
ATOM     14  C   UNL     1      17.300  44.961   6.889  1.00  0.00    -0.000 C 
BRANCH  14  15
ATOM     15  C   UNL     1      17.528  43.486   6.520  1.00  0.00    -0.000 C 
BRANCH  15  16
ATOM     16  C   UNL     1      16.487  42.954   5.518  1.00  0.00    -0.000 C 
BRANCH  16  17
ATOM     17  C   UNL     1      16.450  43.683   4.160  1.00  0.00    -0.000 C 
BRANCH  17  18
ATOM     18  C   UNL     1      15.054  44.154   3.707  1.00  0.00    -0.000 C 
BRANCH  18  19
ATOM     19  C   UNL     1      13.877  43.400   4.350  1.00  0.00    -0.003 C 
ATOM     20  C   UNL     1      13.007  42.670   3.328  1.00  0.00     0.004 C 
ENDBRANCH  18  19
ENDBRANCH  17  18
ENDBRANCH  16  17
ENDBRANCH  15  16
ENDBRANCH  14  15
ENDBRANCH  13  14
ENDBRANCH  12  13
ENDBRANCH   1  12
TORSDOF 16
ENDMDL
MODEL 4
REMARK VINA RESULT:    -5.024      2.327      4.922
REMARK INTER + INTRA:         -12.259
REMARK INTER:                  -9.548
REMARK INTRA:                  -2.711
REMARK UNBOUND:                -2.536
REMARK SMILES CCCCCCCCCCCCCCCCCC(=O)[O-]
REMARK SMILES IDX 10 1 11 2 12 3 13 4 14 5 15 6 16 7 17 8 18 9 19 10 20 11
REMARK SMILES IDX 9 12 8 13 7 14 6 15 5 16 4 17 3 18 2 19 1 20
REMARK H PARENT
REMARK Flexibility Score: inf
ROOT
ATOM      1  C   UNL     1      12.278  42.737   4.876  1.00  0.00     0.000 C 
ENDROOT
BRANCH   1   2
ATOM      2  C   UNL     1      12.744  43.365   3.551  1.00  0.00     0.000 C 
BRANCH   2   3
ATOM      3  C   UNL     1      14.276  43.387   3.415  1.00  0.00     0.000 C 
BRANCH   3   4
ATOM      4  C   UNL     1      14.879  44.771   3.701  1.00  0.00     0.000 C 
BRANCH   4   5
ATOM      5  C   UNL     1      16.007  44.671   4.740  1.00  0.00     0.000 C 
BRANCH   5   6
ATOM      6  C   UNL     1      16.488  43.228   4.959  1.00  0.00     0.000 C 
BRANCH   6   7
ATOM      7  C   UNL     1      16.061  42.663   6.325  1.00  0.00     0.006 C 
BRANCH   7   8
ATOM      8  C   UNL     1      16.969  43.150   7.461  1.00  0.00     0.053 C 
BRANCH   8   9
ATOM      9  C   UNL     1      16.203  43.914   8.497  1.00  0.00     0.041 C 
ATOM     10  O   UNL     1      15.372  43.323   9.236  1.00  0.00    -0.550 OA
ATOM     11  O   UNL     1      16.387  45.285   8.626  1.00  0.00    -0.550 OA
ENDBRANCH   8   9
ENDBRANCH   7   8
ENDBRANCH   6   7
ENDBRANCH   5   6
ENDBRANCH   4   5
ENDBRANCH   3   4
ENDBRANCH   2   3
ENDBRANCH   1   2
BRANCH   1  12
ATOM     12  C   UNL     1      11.728  43.780   5.862  1.00  0.00     0.000 C 
BRANCH  12  13
ATOM     13  C   UNL     1      12.768  44.213   6.911  1.00  0.00    -0.000 C 
BRANCH  13  14
ATOM     14  C   UNL     1      13.114  45.708   6.822  1.00  0.00    -0.000 C 
BRANCH  14  15
ATOM     15  C   UNL     1      12.296  46.439   5.744  1.00  0.00    -0.000 C 
BRANCH  15  16
ATOM     16  C   UNL     1      11.369  47.519   6.328  1.00  0.00    -0.000 C 
BRANCH  16  17
ATOM     17  C   UNL     1       9.872  47.149   6.367  1.00  0.00    -0.000 C 
BRANCH  17  18
ATOM     18  C   UNL     1       9.332  46.747   7.754  1.00  0.00    -0.000 C 
BRANCH  18  19
ATOM     19  C   UNL     1       9.205  45.231   7.983  1.00  0.00    -0.003 C 
ATOM     20  C   UNL     1       7.904  44.653   7.428  1.00  0.00     0.004 C 
ENDBRANCH  18  19
ENDBRANCH  17  18
ENDBRANCH  16  17
ENDBRANCH  15  16
ENDBRANCH  14  15
ENDBRANCH  13  14
ENDBRANCH  12  13
ENDBRANCH   1  12
TORSDOF 16
ENDMDL
MODEL 5
REMARK VINA RESULT:    -5.023      2.020      5.016
REMARK INTER + INTRA:         -12.256
REMARK INTER:                  -9.755
REMARK INTRA:                  -2.502
REMARK UNBOUND:                -2.536
REMARK SMILES CCCCCCCCCCCCCCCCCC(=O)[O-]
REMARK SMILES IDX 10 1 11 2 12 3 13 4 14 5 15 6 16 7 17 8 18 9 19 10 20 11
REMARK SMILES IDX 9 12 8 13 7 14 6 15 5 16 4 17 3 18 2 19 1 20
REMARK H PARENT
REMARK Flexibility Score: inf
ROOT
ATOM      1  C   UNL     1      12.536  45.745   4.229  1.00  0.00     0.000 C 
ENDROOT
BRANCH   1   2
ATOM      2  C   UNL     1      12.653  44.286   4.703  1.00  0.00     0.000 C 
BRANCH   2   3
ATOM      3  C   UNL     1      13.418  43.400   3.705  1.00  0.00     0.000 C 
BRANCH   3   4
ATOM      4  C   UNL     1      14.773  43.998   3.297  1.00  0.00     0.000 C 
BRANCH   4   5
ATOM      5  C   UNL     1      15.908  43.413   4.152  1.00  0.00     0.000 C 
BRANCH   5   6
ATOM      6  C   UNL     1      16.466  44.421   5.170  1.00  0.00     0.000 C 
BRANCH   6   7
ATOM      7  C   UNL     1      17.136  43.736   6.374  1.00  0.00     0.006 C 
BRANCH   7   8
ATOM      8  C   UNL     1      16.237  42.666   7.004  1.00  0.00     0.053 C 
BRANCH   8   9
ATOM      9  C   UNL     1      15.522  43.182   8.215  1.00  0.00     0.041 C 
ATOM     10  O   UNL     1      15.920  44.230   8.788  1.00  0.00    -0.550 OA
ATOM     11  O   UNL     1      14.434  42.487   8.728  1.00  0.00    -0.550 OA
ENDBRANCH   8   9
ENDBRANCH   7   8
ENDBRANCH   6   7
ENDBRANCH   5   6
ENDBRANCH   4   5
ENDBRANCH   3   4
ENDBRANCH   2   3
ENDBRANCH   1   2
BRANCH   1  12
ATOM     12  C   UNL     1      13.120  46.742   5.243  1.00  0.00     0.000 C 
BRANCH  12  13
ATOM     13  C   UNL     1      13.565  46.067   6.553  1.00  0.00    -0.000 C 
BRANCH  13  14
ATOM     14  C   UNL     1      12.651  46.413   7.739  1.00  0.00    -0.000 C 
BRANCH  14  15
ATOM     15  C   UNL     1      12.210  45.168   8.526  1.00  0.00    -0.000 C 
BRANCH  15  16
ATOM     16  C   UNL     1      10.766  44.741   8.207  1.00  0.00    -0.000 C 
BRANCH  16  17
ATOM     17  C   UNL     1       9.993  45.690   7.269  1.00  0.00    -0.000 C 
BRANCH  17  18
ATOM     18  C   UNL     1       8.951  46.591   7.961  1.00  0.00    -0.000 C 
BRANCH  18  19
ATOM     19  C   UNL     1       8.713  47.947   7.275  1.00  0.00    -0.003 C 
ATOM     20  C   UNL     1       9.673  48.204   6.115  1.00  0.00     0.004 C 
ENDBRANCH  18  19
ENDBRANCH  17  18
ENDBRANCH  16  17
ENDBRANCH  15  16
ENDBRANCH  14  15
ENDBRANCH  13  14
ENDBRANCH  12  13
ENDBRANCH   1  12
TORSDOF 16
ENDMDL
MODEL 6
REMARK VINA RESULT:    -4.973      2.239      4.216
REMARK INTER + INTRA:         -12.160
REMARK INTER:                 -10.039
REMARK INTRA:                  -2.122
REMARK UNBOUND:                -2.536
REMARK SMILES CCCCCCCCCCCCCCCCCC(=O)[O-]
REMARK SMILES IDX 10 1 11 2 12 3 13 4 14 5 15 6 16 7 17 8 18 9 19 10 20 11
REMARK SMILES IDX 9 12 8 13 7 14 6 15 5 16 4 17 3 18 2 19 1 20
REMARK H PARENT
REMARK Flexibility Score: inf
ROOT
ATOM      1  C   UNL     1      16.744  43.445   3.995  1.00  0.00     0.000 C 
ENDROOT
BRANCH   1   2
ATOM      2  C   UNL     1      15.373  43.979   3.548  1.00  0.00     0.000 C 
BRANCH   2   3
ATOM      3  C   UNL     1      14.329  43.947   4.677  1.00  0.00     0.000 C 
BRANCH   3   4
ATOM      4  C   UNL     1      12.930  44.371   4.206  1.00  0.00     0.000 C 
BRANCH   4   5
ATOM      5  C   UNL     1      12.465  45.636   4.945  1.00  0.00     0.000 C 
BRANCH   5   6
ATOM      6  C   UNL     1      13.539  46.202   5.888  1.00  0.00     0.000 C 
BRANCH   6   7
ATOM      7  C   UNL     1      13.038  46.346   7.336  1.00  0.00     0.006 C 
BRANCH   7   8
ATOM      8  C   UNL     1      11.510  46.264   7.430  1.00  0.00     0.053 C 
BRANCH   8   9
ATOM      9  C   UNL     1      11.062  45.028   8.149  1.00  0.00     0.041 C 
ATOM     10  O   UNL     1      10.103  44.346   7.700  1.00  0.00    -0.550 OA
ATOM     11  O   UNL     1      11.685  44.647   9.330  1.00  0.00    -0.550 OA
ENDBRANCH   8   9
ENDBRANCH   7   8
ENDBRANCH   6   7
ENDBRANCH   5   6
ENDBRANCH   4   5
ENDBRANCH   3   4
ENDBRANCH   2   3
ENDBRANCH   1   2
BRANCH   1  12
ATOM     12  C   UNL     1      16.743  42.966   5.456  1.00  0.00     0.000 C 
BRANCH  12  13
ATOM     13  C   UNL     1      17.661  43.809   6.358  1.00  0.00    -0.000 C 
BRANCH  13  14
ATOM     14  C   UNL     1      16.880  44.790   7.248  1.00  0.00    -0.000 C 
BRANCH  14  15
ATOM     15  C   UNL     1      16.562  44.202   8.634  1.00  0.00    -0.000 C 
BRANCH  15  16
ATOM     16  C   UNL     1      15.105  43.722   8.758  1.00  0.00    -0.000 C 
BRANCH  16  17
ATOM     17  C   UNL     1      14.897  42.204   8.586  1.00  0.00    -0.000 C 
BRANCH  17  18
ATOM     18  C   UNL     1      16.189  41.363   8.568  1.00  0.00    -0.000 C 
BRANCH  18  19
ATOM     19  C   UNL     1      16.072  39.985   9.242  1.00  0.00    -0.003 C 
ATOM     20  C   UNL     1      14.631  39.611   9.586  1.00  0.00     0.004 C 
ENDBRANCH  18  19
ENDBRANCH  17  18
ENDBRANCH  16  17
ENDBRANCH  15  16
ENDBRANCH  14  15
ENDBRANCH  13  14
ENDBRANCH  12  13
ENDBRANCH   1  12
TORSDOF 16
ENDMDL
MODEL 7
REMARK VINA RESULT:    -4.959      3.115      5.209
REMARK INTER + INTRA:         -12.132
REMARK INTER:                  -9.491
REMARK INTRA:                  -2.641
REMARK UNBOUND:                -2.536
REMARK SMILES CCCCCCCCCCCCCCCCCC(=O)[O-]
REMARK SMILES IDX 10 1 11 2 12 3 13 4 14 5 15 6 16 7 17 8 18 9 19 10 20 11
REMARK SMILES IDX 9 12 8 13 7 14 6 15 5 16 4 17 3 18 2 19 1 20
REMARK H PARENT
REMARK Flexibility Score: inf
ROOT
ATOM      1  C   UNL     1      12.624  43.744   3.922  1.00  0.00     0.000 C 
ENDROOT
BRANCH   1   2
ATOM      2  C   UNL     1      12.196  43.196   5.294  1.00  0.00     0.000 C 
BRANCH   2   3
ATOM      3  C   UNL     1      13.376  42.623   6.095  1.00  0.00     0.000 C 
BRANCH   3   4
ATOM      4  C   UNL     1      13.635  43.388   7.402  1.00  0.00     0.000 C 
BRANCH   4   5
ATOM      5  C   UNL     1      13.530  44.905   7.176  1.00  0.00     0.000 C 
BRANCH   5   6
ATOM      6  C   UNL     1      12.581  45.590   8.174  1.00  0.00     0.000 C 
BRANCH   6   7
ATOM      7  C   UNL     1      11.344  46.199   7.491  1.00  0.00     0.006 C 
BRANCH   7   8
ATOM      8  C   UNL     1      11.710  46.977   6.220  1.00  0.00     0.053 C 
BRANCH   8   9
ATOM      9  C   UNL     1      10.503  47.582   5.571  1.00  0.00     0.041 C 
ATOM     10  O   UNL     1       9.619  48.142   6.272  1.00  0.00    -0.550 OA
ATOM     11  O   UNL     1      10.341  47.500   4.194  1.00  0.00    -0.550 OA
ENDBRANCH   8   9
ENDBRANCH   7   8
ENDBRANCH   6   7
ENDBRANCH   5   6
ENDBRANCH   4   5
ENDBRANCH   3   4
ENDBRANCH   2   3
ENDBRANCH   1   2
BRANCH   1  12
ATOM     12  C   UNL     1      14.088  43.416   3.587  1.00  0.00     0.000 C 
BRANCH  12  13
ATOM     13  C   UNL     1      14.943  44.677   3.362  1.00  0.00    -0.000 C 
BRANCH  13  14
ATOM     14  C   UNL     1      16.012  44.871   4.449  1.00  0.00    -0.000 C 
BRANCH  14  15
ATOM     15  C   UNL     1      16.641  43.543   4.901  1.00  0.00    -0.000 C 
BRANCH  15  16
ATOM     16  C   UNL     1      17.647  43.720   6.053  1.00  0.00    -0.000 C 
BRANCH  16  17
ATOM     17  C   UNL     1      17.192  44.666   7.182  1.00  0.00    -0.000 C 
BRANCH  17  18
ATOM     18  C   UNL     1      17.043  44.007   8.569  1.00  0.00    -0.000 C 
BRANCH  18  19
ATOM     19  C   UNL     1      17.559  42.561   8.655  1.00  0.00    -0.003 C 
ATOM     20  C   UNL     1      16.433  41.531   8.732  1.00  0.00     0.004 C 
ENDBRANCH  18  19
ENDBRANCH  17  18
ENDBRANCH  16  17
ENDBRANCH  15  16
ENDBRANCH  14  15
ENDBRANCH  13  14
ENDBRANCH  12  13
ENDBRANCH   1  12
TORSDOF 16
ENDMDL
MODEL 8
REMARK VINA RESULT:    -4.955      2.841      5.083
REMARK INTER + INTRA:         -12.125
REMARK INTER:                  -9.368
REMARK INTRA:                  -2.757
REMARK UNBOUND:                -2.536
REMARK SMILES CCCCCCCCCCCCCCCCCC(=O)[O-]
REMARK SMILES IDX 10 1 11 2 12 3 13 4 14 5 15 6 16 7 17 8 18 9 19 10 20 11
REMARK SMILES IDX 9 12 8 13 7 14 6 15 5 16 4 17 3 18 2 19 1 20
REMARK H PARENT
REMARK Flexibility Score: inf
ROOT
ATOM      1  C   UNL     1      13.016  43.020   3.873  1.00  0.00     0.000 C 
ENDROOT
BRANCH   1   2
ATOM      2  C   UNL     1      13.975  44.205   3.666  1.00  0.00     0.000 C 
BRANCH   2   3
ATOM      3  C   UNL     1      13.320  45.559   3.990  1.00  0.00     0.000 C 
BRANCH   3   4
ATOM      4  C   UNL     1      14.010  46.289   5.152  1.00  0.00     0.000 C 
BRANCH   4   5
ATOM      5  C   UNL     1      13.006  47.161   5.922  1.00  0.00     0.000 C 
BRANCH   5   6
ATOM      6  C   UNL     1      12.426  46.451   7.155  1.00  0.00     0.000 C 
BRANCH   6   7
ATOM      7  C   UNL     1      11.001  45.920   6.916  1.00  0.00     0.006 C 
BRANCH   7   8
ATOM      8  C   UNL     1      10.138  45.992   8.182  1.00  0.00     0.053 C 
BRANCH   8   9
ATOM      9  C   UNL     1      10.046  44.665   8.870  1.00  0.00     0.041 C 
ATOM     10  O   UNL     1       9.120  43.862   8.579  1.00  0.00    -0.550 OA
ATOM     11  O   UNL     1      10.966  44.328   9.854  1.00  0.00    -0.550 OA
ENDBRANCH   8   9
ENDBRANCH   7   8
ENDBRANCH   6   7
ENDBRANCH   5   6
ENDBRANCH   4   5
ENDBRANCH   3   4
ENDBRANCH   2   3
ENDBRANCH   1   2
BRANCH   1  12
ATOM     12  C   UNL     1      12.557  42.883   5.334  1.00  0.00     0.000 C 
BRANCH  12  13
ATOM     13  C   UNL     1      13.690  42.432   6.273  1.00  0.00    -0.000 C 
BRANCH  13  14
ATOM     14  C   UNL     1      13.729  43.234   7.583  1.00  0.00    -0.000 C 
BRANCH  14  15
ATOM     15  C   UNL     1      14.737  42.661   8.595  1.00  0.00    -0.000 C 
BRANCH  15  16
ATOM     16  C   UNL     1      15.859  43.654   8.947  1.00  0.00    -0.000 C 
BRANCH  16  17
ATOM     17  C   UNL     1      15.881  44.946   8.105  1.00  0.00    -0.000 C 
BRANCH  17  18
ATOM     18  C   UNL     1      17.062  45.067   7.121  1.00  0.00    -0.000 C 
BRANCH  18  19
ATOM     19  C   UNL     1      17.636  43.725   6.633  1.00  0.00    -0.003 C 
ATOM     20  C   UNL     1      17.151  43.344   5.235  1.00  0.00     0.004 C 
ENDBRANCH  18  19
ENDBRANCH  17  18
ENDBRANCH  16  17
ENDBRANCH  15  16
ENDBRANCH  14  15
ENDBRANCH  13  14
ENDBRANCH  12  13
ENDBRANCH   1  12
TORSDOF 16
ENDMDL
MODEL 9
REMARK VINA RESULT:    -4.889      3.940      6.585
REMARK INTER + INTRA:         -11.998
REMARK INTER:                  -9.239
REMARK INTRA:                  -2.760
REMARK UNBOUND:                -2.536
REMARK SMILES CCCCCCCCCCCCCCCCCC(=O)[O-]
REMARK SMILES IDX 10 1 11 2 12 3 13 4 14 5 15 6 16 7 17 8 18 9 19 10 20 11
REMARK SMILES IDX 9 12 8 13 7 14 6 15 5 16 4 17 3 18 2 19 1 20
REMARK H PARENT
REMARK Flexibility Score: inf
ROOT
ATOM      1  C   UNL     1      13.379  43.926   8.275  1.00  0.00     0.000 C 
ENDROOT
BRANCH   1   2
ATOM      2  C   UNL     1      12.343  44.872   7.642  1.00  0.00     0.000 C 
BRANCH   2   3
ATOM      3  C   UNL     1      12.771  46.347   7.711  1.00  0.00     0.000 C 
BRANCH   3   4
ATOM      4  C   UNL     1      12.365  47.143   6.461  1.00  0.00     0.000 C 
BRANCH   4   5
ATOM      5  C   UNL     1      10.931  46.791   6.032  1.00  0.00     0.000 C 
BRANCH   5   6
ATOM      6  C   UNL     1       9.951  47.960   6.222  1.00  0.00     0.000 C 
BRANCH   6   7
ATOM      7  C   UNL     1       8.912  47.687   7.324  1.00  0.00     0.006 C 
BRANCH   7   8
ATOM      8  C   UNL     1       8.814  46.196   7.668  1.00  0.00     0.053 C 
BRANCH   8   9
ATOM      9  C   UNL     1       7.413  45.682   7.526  1.00  0.00     0.041 C 
ATOM     10  O   UNL     1       6.664  46.127   6.617  1.00  0.00    -0.550 OA
ATOM     11  O   UNL     1       6.927  44.734   8.417  1.00  0.00    -0.550 OA
ENDBRANCH   8   9
ENDBRANCH   7   8
ENDBRANCH   6   7
ENDBRANCH   5   6
ENDBRANCH   4   5
ENDBRANCH   3   4
ENDBRANCH   2   3
ENDBRANCH   1   2
BRANCH   1  12
ATOM     12  C   UNL     1      14.781  44.096   7.667  1.00  0.00     0.000 C 
BRANCH  12  13
ATOM     13  C   UNL     1      15.400  42.760   7.220  1.00  0.00    -0.000 C 
BRANCH  13  14
ATOM     14  C   UNL     1      16.269  42.901   5.960  1.00  0.00    -0.000 C 
BRANCH  14  15
ATOM     15  C   UNL     1      16.141  44.288   5.308  1.00  0.00    -0.000 C 
BRANCH  15  16
ATOM     16  C   UNL     1      15.435  44.242   3.941  1.00  0.00    -0.000 C 
BRANCH  16  17
ATOM     17  C   UNL     1      14.166  45.112   3.829  1.00  0.00    -0.000 C 
BRANCH  17  18
ATOM     18  C   UNL     1      12.834  44.351   3.987  1.00  0.00    -0.000 C 
BRANCH  18  19
ATOM     19  C   UNL     1      12.935  42.827   3.803  1.00  0.00    -0.003 C 
ATOM     20  C   UNL     1      12.440  42.047   5.019  1.00  0.00     0.004 C 
ENDBRANCH  18  19
ENDBRANCH  17  18
ENDBRANCH  16  17
ENDBRANCH  15  16
ENDBRANCH  14  15
ENDBRANCH  13  14
ENDBRANCH  12  13
ENDBRANCH   1  12
TORSDOF 16
ENDMDL
