MODEL 1
REMARK VINA RESULT:    -4.822      0.000      0.000
REMARK INTER + INTRA:          -8.280
REMARK INTER:                  -7.641
REMARK INTRA:                  -0.639
REMARK UNBOUND:                -0.639
REMARK SMILES CCCCCCCCCCCC(=O)[O-]
REMARK SMILES IDX 7 1 8 2 9 3 10 4 11 5 12 6 13 7 14 8 6 9 5 10 4 11 3 12 2 13
REMARK SMILES IDX 1 14
REMARK H PARENT
REMARK Flexibility Score: inf
ROOT
ATOM      1  C   UNL     1      20.139 -51.347 -32.404  1.00  0.00     0.000 C 
ENDROOT
BRANCH   1   2
ATOM      2  C   UNL     1      20.250 -49.888 -32.863  1.00  0.00     0.000 C 
BRANCH   2   3
ATOM      3  C   UNL     1      20.179 -48.929 -31.665  1.00  0.00     0.000 C 
BRANCH   3   4
ATOM      4  C   UNL     1      19.040 -47.905 -31.793  1.00  0.00     0.006 C 
BRANCH   4   5
ATOM      5  C   UNL     1      18.983 -46.934 -30.607  1.00  0.00     0.053 C 
BRANCH   5   6
ATOM      6  C   UNL     1      17.723 -47.139 -29.826  1.00  0.00     0.041 C 
ATOM      7  O   UNL     1      17.264 -46.213 -29.109  1.00  0.00    -0.550 OA
ATOM      8  O   UNL     1      17.081 -48.371 -29.854  1.00  0.00    -0.550 OA
ENDBRANCH   5   6
ENDBRANCH   4   5
ENDBRANCH   3   4
ENDBRANCH   2   3
ENDBRANCH   1   2
BRANCH   1   9
ATOM      9  C   UNL     1      21.370 -52.155 -32.835  1.00  0.00     0.000 C 
BRANCH   9  10
ATOM     10  C   UNL     1      21.687 -51.925 -34.320  1.00  0.00    -0.000 C 
BRANCH  10  11
ATOM     11  C   UNL     1      21.741 -53.233 -35.125  1.00  0.00    -0.000 C 
BRANCH  11  12
ATOM     12  C   UNL     1      21.431 -54.469 -34.267  1.00  0.00    -0.000 C 
BRANCH  12  13
ATOM     13  C   UNL     1      20.103 -55.109 -34.687  1.00  0.00    -0.003 C 
ATOM     14  C   UNL     1      18.957 -54.637 -33.796  1.00  0.00     0.004 C 
ENDBRANCH  12  13
ENDBRANCH  11  12
ENDBRANCH  10  11
ENDBRANCH   9  10
ENDBRANCH   1   9
TORSDOF 10
ENDMDL
MODEL 2
REMARK VINA RESULT:    -4.816     10.549     11.945
REMARK INTER + INTRA:          -8.270
REMARK INTER:                  -7.470
REMARK INTRA:                  -0.800
REMARK UNBOUND:                -0.639
REMARK SMILES CCCCCCCCCCCC(=O)[O-]
REMARK SMILES IDX 7 1 8 2 9 3 10 4 11 5 12 6 13 7 14 8 6 9 5 10 4 11 3 12 2 13
REMARK SMILES IDX 1 14
REMARK H PARENT
REMARK Flexibility Score: inf
ROOT
ATOM      1  C   UNL     1      17.634 -45.170 -24.808  1.00  0.00     0.000 C 
ENDROOT
BRANCH   1   2
ATOM      2  C   UNL     1      18.183 -43.739 -24.758  1.00  0.00     0.000 C 
BRANCH   2   3
ATOM      3  C   UNL     1      18.560 -43.346 -23.321  1.00  0.00     0.000 C 
BRANCH   3   4
ATOM      4  C   UNL     1      18.134 -41.911 -22.970  1.00  0.00     0.006 C 
BRANCH   4   5
ATOM      5  C   UNL     1      16.794 -41.521 -23.606  1.00  0.00     0.053 C 
BRANCH   5   6
ATOM      6  C   UNL     1      15.659 -41.923 -22.718  1.00  0.00     0.041 C 
ATOM      7  O   UNL     1      15.626 -41.541 -21.520  1.00  0.00    -0.550 OA
ATOM      8  O   UNL     1      14.662 -42.761 -23.202  1.00  0.00    -0.550 OA
ENDBRANCH   5   6
ENDBRANCH   4   5
ENDBRANCH   3   4
ENDBRANCH   2   3
ENDBRANCH   1   2
BRANCH   1   9
ATOM      9  C   UNL     1      17.234 -45.656 -23.409  1.00  0.00     0.000 C 
BRANCH   9  10
ATOM     10  C   UNL     1      17.801 -47.056 -23.130  1.00  0.00    -0.000 C 
BRANCH  10  11
ATOM     11  C   UNL     1      17.109 -47.752 -21.947  1.00  0.00    -0.000 C 
BRANCH  11  12
ATOM     12  C   UNL     1      15.681 -47.237 -21.710  1.00  0.00    -0.000 C 
BRANCH  12  13
ATOM     13  C   UNL     1      14.749 -48.380 -21.294  1.00  0.00    -0.003 C 
ATOM     14  C   UNL     1      15.541 -49.574 -20.767  1.00  0.00     0.004 C 
ENDBRANCH  12  13
ENDBRANCH  11  12
ENDBRANCH  10  11
ENDBRANCH   9  10
ENDBRANCH   1   9
TORSDOF 10
ENDMDL
MODEL 3
REMARK VINA RESULT:    -4.813     11.001     13.131
REMARK INTER + INTRA:          -8.265
REMARK INTER:                  -6.926
REMARK INTRA:                  -1.339
REMARK UNBOUND:                -0.639
REMARK SMILES CCCCCCCCCCCC(=O)[O-]
REMARK SMILES IDX 7 1 8 2 9 3 10 4 11 5 12 6 13 7 14 8 6 9 5 10 4 11 3 12 2 13
REMARK SMILES IDX 1 14
REMARK H PARENT
REMARK Flexibility Score: inf
ROOT
ATOM      1  C   UNL     1      18.765 -43.983 -23.801  1.00  0.00     0.000 C 
ENDROOT
BRANCH   1   2
ATOM      2  C   UNL     1      17.609 -44.824 -24.356  1.00  0.00     0.000 C 
BRANCH   2   3
ATOM      3  C   UNL     1      16.507 -45.007 -23.300  1.00  0.00     0.000 C 
BRANCH   3   4
ATOM      4  C   UNL     1      17.002 -45.755 -22.052  1.00  0.00     0.006 C 
BRANCH   4   5
ATOM      5  C   UNL     1      17.064 -47.273 -22.260  1.00  0.00     0.053 C 
BRANCH   5   6
ATOM      6  C   UNL     1      18.417 -47.794 -21.893  1.00  0.00     0.041 C 
ATOM      7  O   UNL     1      18.577 -49.014 -21.628  1.00  0.00    -0.550 OA
ATOM      8  O   UNL     1      19.494 -46.921 -21.796  1.00  0.00    -0.550 OA
ENDBRANCH   5   6
ENDBRANCH   4   5
ENDBRANCH   3   4
ENDBRANCH   2   3
ENDBRANCH   1   2
BRANCH   1   9
ATOM      9  C   UNL     1      19.147 -42.861 -24.773  1.00  0.00     0.000 C 
BRANCH   9  10
ATOM     10  C   UNL     1      18.375 -41.572 -24.456  1.00  0.00    -0.000 C 
BRANCH  10  11
ATOM     11  C   UNL     1      17.894 -41.512 -22.997  1.00  0.00    -0.000 C 
BRANCH  11  12
ATOM     12  C   UNL     1      16.390 -41.222 -22.882  1.00  0.00    -0.000 C 
BRANCH  12  13
ATOM     13  C   UNL     1      15.830 -41.756 -21.559  1.00  0.00    -0.003 C 
ATOM     14  C   UNL     1      16.947 -42.260 -20.649  1.00  0.00     0.004 C 
ENDBRANCH  12  13
ENDBRANCH  11  12
ENDBRANCH  10  11
ENDBRANCH   9  10
ENDBRANCH   1   9
TORSDOF 10
ENDMDL
MODEL 4
REMARK VINA RESULT:    -4.810     10.670     12.874
REMARK INTER + INTRA:          -8.262
REMARK INTER:                  -6.621
REMARK INTRA:                  -1.640
REMARK UNBOUND:                -0.639
REMARK SMILES CCCCCCCCCCCC(=O)[O-]
REMARK SMILES IDX 7 1 8 2 9 3 10 4 11 5 12 6 13 7 14 8 6 9 5 10 4 11 3 12 2 13
REMARK SMILES IDX 1 14
REMARK H PARENT
REMARK Flexibility Score: inf
ROOT
ATOM      1  C   UNL     1      17.989 -43.984 -25.232  1.00  0.00     0.000 C 
ENDROOT
BRANCH   1   2
ATOM      2  C   UNL     1      18.027 -45.325 -24.489  1.00  0.00     0.000 C 
BRANCH   2   3
ATOM      3  C   UNL     1      16.966 -45.368 -23.378  1.00  0.00     0.000 C 
BRANCH   3   4
ATOM      4  C   UNL     1      17.577 -45.586 -21.984  1.00  0.00     0.006 C 
BRANCH   4   5
ATOM      5  C   UNL     1      18.553 -44.472 -21.587  1.00  0.00     0.053 C 
BRANCH   5   6
ATOM      6  C   UNL     1      19.958 -44.985 -21.588  1.00  0.00     0.041 C 
ATOM      7  O   UNL     1      20.911 -44.224 -21.897  1.00  0.00    -0.550 OA
ATOM      8  O   UNL     1      20.210 -46.320 -21.294  1.00  0.00    -0.550 OA
ENDBRANCH   5   6
ENDBRANCH   4   5
ENDBRANCH   3   4
ENDBRANCH   2   3
ENDBRANCH   1   2
BRANCH   1   9
ATOM      9  C   UNL     1      19.269 -43.177 -24.978  1.00  0.00     0.000 C 
BRANCH   9  10
ATOM     10  C   UNL     1      18.959 -41.877 -24.221  1.00  0.00    -0.000 C 
BRANCH  10  11
ATOM     11  C   UNL     1      17.451 -41.628 -24.062  1.00  0.00    -0.000 C 
BRANCH  11  12
ATOM     12  C   UNL     1      17.078 -41.124 -22.659  1.00  0.00    -0.000 C 
BRANCH  12  13
ATOM     13  C   UNL     1      15.909 -41.928 -22.081  1.00  0.00    -0.003 C 
ATOM     14  C   UNL     1      14.885 -42.269 -23.161  1.00  0.00     0.004 C 
ENDBRANCH  12  13
ENDBRANCH  11  12
ENDBRANCH  10  11
ENDBRANCH   9  10
ENDBRANCH   1   9
TORSDOF 10
ENDMDL
MODEL 5
REMARK VINA RESULT:    -4.773      9.752     11.825
REMARK INTER + INTRA:          -8.202
REMARK INTER:                  -6.683
REMARK INTRA:                  -1.519
REMARK UNBOUND:                -0.639
REMARK SMILES CCCCCCCCCCCC(=O)[O-]
REMARK SMILES IDX 7 1 8 2 9 3 10 4 11 5 12 6 13 7 14 8 6 9 5 10 4 11 3 12 2 13
REMARK SMILES IDX 1 14
REMARK H PARENT
REMARK Flexibility Score: inf
ROOT
ATOM      1  C   UNL     1      19.760 -44.019 -25.232  1.00  0.00     0.000 C 
ENDROOT
BRANCH   1   2
ATOM      2  C   UNL     1      19.884 -42.492 -25.302  1.00  0.00     0.000 C 
BRANCH   2   3
ATOM      3  C   UNL     1      19.306 -41.836 -24.039  1.00  0.00     0.000 C 
BRANCH   3   4
ATOM      4  C   UNL     1      17.769 -41.787 -24.048  1.00  0.00     0.006 C 
BRANCH   4   5
ATOM      5  C   UNL     1      17.191 -41.192 -22.758  1.00  0.00     0.053 C 
BRANCH   5   6
ATOM      6  C   UNL     1      15.778 -41.645 -22.564  1.00  0.00     0.041 C 
ATOM      7  O   UNL     1      15.082 -41.991 -23.553  1.00  0.00    -0.550 OA
ATOM      8  O   UNL     1      15.216 -41.640 -21.293  1.00  0.00    -0.550 OA
ENDBRANCH   5   6
ENDBRANCH   4   5
ENDBRANCH   3   4
ENDBRANCH   2   3
ENDBRANCH   1   2
BRANCH   1   9
ATOM      9  C   UNL     1      18.672 -44.529 -26.186  1.00  0.00     0.000 C 
BRANCH   9  10
ATOM     10  C   UNL     1      17.881 -45.682 -25.551  1.00  0.00    -0.000 C 
BRANCH  10  11
ATOM     11  C   UNL     1      18.176 -45.851 -24.052  1.00  0.00    -0.000 C 
BRANCH  11  12
ATOM     12  C   UNL     1      16.996 -45.430 -23.165  1.00  0.00    -0.000 C 
BRANCH  12  13
ATOM     13  C   UNL     1      17.490 -44.843 -21.838  1.00  0.00    -0.003 C 
ATOM     14  C   UNL     1      19.013 -44.883 -21.750  1.00  0.00     0.004 C 
ENDBRANCH  12  13
ENDBRANCH  11  12
ENDBRANCH  10  11
ENDBRANCH   9  10
ENDBRANCH   1   9
TORSDOF 10
ENDMDL
MODEL 6
REMARK VINA RESULT:    -4.758     11.739     13.536
REMARK INTER + INTRA:          -8.178
REMARK INTER:                  -7.487
REMARK INTRA:                  -0.691
REMARK UNBOUND:                -0.639
REMARK SMILES CCCCCCCCCCCC(=O)[O-]
REMARK SMILES IDX 7 1 8 2 9 3 10 4 11 5 12 6 13 7 14 8 6 9 5 10 4 11 3 12 2 13
REMARK SMILES IDX 1 14
REMARK H PARENT
REMARK Flexibility Score: inf
ROOT
ATOM      1  C   UNL     1      15.920 -43.594 -23.162  1.00  0.00     0.000 C 
ENDROOT
BRANCH   1   2
ATOM      2  C   UNL     1      15.771 -42.071 -23.269  1.00  0.00     0.000 C 
BRANCH   2   3
ATOM      3  C   UNL     1      16.445 -41.368 -22.081  1.00  0.00     0.000 C 
BRANCH   3   4
ATOM      4  C   UNL     1      15.730 -41.641 -20.748  1.00  0.00     0.006 C 
BRANCH   4   5
ATOM      5  C   UNL     1      16.703 -42.004 -19.620  1.00  0.00     0.053 C 
BRANCH   5   6
ATOM      6  C   UNL     1      16.005 -41.963 -18.297  1.00  0.00     0.041 C 
ATOM      7  O   UNL     1      16.655 -42.130 -17.232  1.00  0.00    -0.550 OA
ATOM      8  O   UNL     1      14.628 -41.790 -18.243  1.00  0.00    -0.550 OA
ENDBRANCH   5   6
ENDBRANCH   4   5
ENDBRANCH   3   4
ENDBRANCH   2   3
ENDBRANCH   1   2
BRANCH   1   9
ATOM      9  C   UNL     1      17.292 -44.051 -23.673  1.00  0.00     0.000 C 
BRANCH   9  10
ATOM     10  C   UNL     1      17.925 -45.070 -22.714  1.00  0.00    -0.000 C 
BRANCH  10  11
ATOM     11  C   UNL     1      17.686 -46.524 -23.150  1.00  0.00    -0.000 C 
BRANCH  11  12
ATOM     12  C   UNL     1      17.247 -47.426 -21.988  1.00  0.00    -0.000 C 
BRANCH  12  13
ATOM     13  C   UNL     1      15.722 -47.425 -21.839  1.00  0.00    -0.003 C 
ATOM     14  C   UNL     1      15.236 -48.680 -21.117  1.00  0.00     0.004 C 
ENDBRANCH  12  13
ENDBRANCH  11  12
ENDBRANCH  10  11
ENDBRANCH   9  10
ENDBRANCH   1   9
TORSDOF 10
ENDMDL
MODEL 7
REMARK VINA RESULT:    -4.736      9.994     12.262
REMARK INTER + INTRA:          -8.144
REMARK INTER:                  -6.530
REMARK INTRA:                  -1.615
REMARK UNBOUND:                -0.639
REMARK SMILES CCCCCCCCCCCC(=O)[O-]
REMARK SMILES IDX 7 1 8 2 9 3 10 4 11 5 12 6 13 7 14 8 6 9 5 10 4 11 3 12 2 13
REMARK SMILES IDX 1 14
REMARK H PARENT
REMARK Flexibility Score: inf
ROOT
ATOM      1  C   UNL     1      19.761 -43.082 -22.343  1.00  0.00     0.000 C 
ENDROOT
BRANCH   1   2
ATOM      2  C   UNL     1      20.078 -42.531 -23.739  1.00  0.00     0.000 C 
BRANCH   2   3
ATOM      3  C   UNL     1      18.904 -41.701 -24.281  1.00  0.00     0.000 C 
BRANCH   3   4
ATOM      4  C   UNL     1      17.785 -41.510 -23.243  1.00  0.00     0.006 C 
BRANCH   4   5
ATOM      5  C   UNL     1      16.385 -41.613 -23.860  1.00  0.00     0.053 C 
BRANCH   5   6
ATOM      6  C   UNL     1      15.381 -41.983 -22.814  1.00  0.00     0.041 C 
ATOM      7  O   UNL     1      14.232 -42.372 -23.147  1.00  0.00    -0.550 OA
ATOM      8  O   UNL     1      15.701 -41.853 -21.468  1.00  0.00    -0.550 OA
ENDBRANCH   5   6
ENDBRANCH   4   5
ENDBRANCH   3   4
ENDBRANCH   2   3
ENDBRANCH   1   2
BRANCH   1   9
ATOM      9  C   UNL     1      20.378 -44.472 -22.145  1.00  0.00     0.000 C 
BRANCH   9  10
ATOM     10  C   UNL     1      19.329 -45.471 -21.635  1.00  0.00    -0.000 C 
BRANCH  10  11
ATOM     11  C   UNL     1      17.889 -44.970 -21.826  1.00  0.00    -0.000 C 
BRANCH  11  12
ATOM     12  C   UNL     1      17.125 -45.758 -22.900  1.00  0.00    -0.000 C 
BRANCH  12  13
ATOM     13  C   UNL     1      17.255 -45.083 -24.270  1.00  0.00    -0.003 C 
ATOM     14  C   UNL     1      18.340 -45.748 -25.113  1.00  0.00     0.004 C 
ENDBRANCH  12  13
ENDBRANCH  11  12
ENDBRANCH  10  11
ENDBRANCH   9  10
ENDBRANCH   1   9
TORSDOF 10
ENDMDL
MODEL 8
REMARK VINA RESULT:    -4.681     10.287     12.537
REMARK INTER + INTRA:          -8.056
REMARK INTER:                  -6.630
REMARK INTRA:                  -1.426
REMARK UNBOUND:                -0.639
REMARK SMILES CCCCCCCCCCCC(=O)[O-]
REMARK SMILES IDX 7 1 8 2 9 3 10 4 11 5 12 6 13 7 14 8 6 9 5 10 4 11 3 12 2 13
REMARK SMILES IDX 1 14
REMARK H PARENT
REMARK Flexibility Score: inf
ROOT
ATOM      1  C   UNL     1      15.870 -42.762 -22.627  1.00  0.00     0.000 C 
ENDROOT
BRANCH   1   2
ATOM      2  C   UNL     1      16.996 -43.006 -21.614  1.00  0.00     0.000 C 
BRANCH   2   3
ATOM      3  C   UNL     1      17.515 -44.449 -21.706  1.00  0.00     0.000 C 
BRANCH   3   4
ATOM      4  C   UNL     1      16.768 -45.280 -22.762  1.00  0.00     0.006 C 
BRANCH   4   5
ATOM      5  C   UNL     1      17.519 -46.562 -23.143  1.00  0.00     0.053 C 
BRANCH   5   6
ATOM      6  C   UNL     1      17.307 -47.618 -22.105  1.00  0.00     0.041 C 
ATOM      7  O   UNL     1      16.175 -47.771 -21.578  1.00  0.00    -0.550 OA
ATOM      8  O   UNL     1      18.374 -48.402 -21.684  1.00  0.00    -0.550 OA
ENDBRANCH   5   6
ENDBRANCH   4   5
ENDBRANCH   3   4
ENDBRANCH   2   3
ENDBRANCH   1   2
BRANCH   1   9
ATOM      9  C   UNL     1      16.257 -41.667 -23.628  1.00  0.00     0.000 C 
BRANCH   9  10
ATOM     10  C   UNL     1      17.708 -41.211 -23.412  1.00  0.00    -0.000 C 
BRANCH  10  11
ATOM     11  C   UNL     1      18.625 -41.572 -24.590  1.00  0.00    -0.000 C 
BRANCH  11  12
ATOM     12  C   UNL     1      19.658 -42.651 -24.228  1.00  0.00    -0.000 C 
BRANCH  12  13
ATOM     13  C   UNL     1      19.798 -43.676 -25.358  1.00  0.00    -0.003 C 
ATOM     14  C   UNL     1      18.434 -44.191 -25.810  1.00  0.00     0.004 C 
ENDBRANCH  12  13
ENDBRANCH  11  12
ENDBRANCH  10  11
ENDBRANCH   9  10
ENDBRANCH   1   9
TORSDOF 10
ENDMDL
MODEL 9
REMARK VINA RESULT:    -4.675     11.809     13.684
REMARK INTER + INTRA:          -8.048
REMARK INTER:                  -6.556
REMARK INTRA:                  -1.491
REMARK UNBOUND:                -0.639
REMARK SMILES CCCCCCCCCCCC(=O)[O-]
REMARK SMILES IDX 7 1 8 2 9 3 10 4 11 5 12 6 13 7 14 8 6 9 5 10 4 11 3 12 2 13
REMARK SMILES IDX 1 14
REMARK H PARENT
REMARK Flexibility Score: inf
ROOT
ATOM      1  C   UNL     1      19.624 -42.689 -23.809  1.00  0.00     0.000 C 
ENDROOT
BRANCH   1   2
ATOM      2  C   UNL     1      19.980 -42.768 -22.319  1.00  0.00     0.000 C 
BRANCH   2   3
ATOM      3  C   UNL     1      19.172 -43.872 -21.619  1.00  0.00     0.000 C 
BRANCH   3   4
ATOM      4  C   UNL     1      18.840 -45.046 -22.555  1.00  0.00     0.006 C 
BRANCH   4   5
ATOM      5  C   UNL     1      17.368 -45.470 -22.469  1.00  0.00     0.053 C 
BRANCH   5   6
ATOM      6  C   UNL     1      17.262 -46.883 -21.988  1.00  0.00     0.041 C 
ATOM      7  O   UNL     1      18.281 -47.619 -21.953  1.00  0.00    -0.550 OA
ATOM      8  O   UNL     1      16.025 -47.401 -21.623  1.00  0.00    -0.550 OA
ENDBRANCH   5   6
ENDBRANCH   4   5
ENDBRANCH   3   4
ENDBRANCH   2   3
ENDBRANCH   1   2
BRANCH   1   9
ATOM      9  C   UNL     1      18.567 -41.608 -24.066  1.00  0.00     0.000 C 
BRANCH   9  10
ATOM     10  C   UNL     1      17.180 -42.233 -24.275  1.00  0.00    -0.000 C 
BRANCH  10  11
ATOM     11  C   UNL     1      16.111 -41.625 -23.353  1.00  0.00    -0.000 C 
BRANCH  11  12
ATOM     12  C   UNL     1      16.710 -40.983 -22.093  1.00  0.00    -0.000 C 
BRANCH  12  13
ATOM     13  C   UNL     1      16.183 -41.666 -20.826  1.00  0.00    -0.003 C 
ATOM     14  C   UNL     1      17.152 -41.491 -19.660  1.00  0.00     0.004 C 
ENDBRANCH  12  13
ENDBRANCH  11  12
ENDBRANCH  10  11
ENDBRANCH   9  10
ENDBRANCH   1   9
TORSDOF 10
ENDMDL
