MODEL 1
REMARK VINA RESULT:    -4.120      0.000      0.000
REMARK INTER + INTRA:          -5.093
REMARK INTER:                  -4.963
REMARK INTRA:                  -0.130
REMARK UNBOUND:                -0.130
REMARK SMILES CC[C@H](C)[C@@H]([NH3+])C(=O)[O-]
REMARK SMILES IDX 3 1 4 2 5 3 6 4 7 8 8 9 9 10 2 11 1 12
REMARK H PARENT 6 5 6 6 6 7
REMARK Flexibility Score: inf
ROOT
ATOM      1  C   UNL     1     -42.175 118.124   5.895  1.00  0.00     0.050 C 
ATOM      2  C   UNL     1     -42.965 117.243   4.909  1.00  0.00     0.014 C 
ENDROOT
BRANCH   1   3
ATOM      3  C   UNL     1     -42.816 118.058   7.317  1.00  0.00     0.230 C 
BRANCH   3   4
ATOM      4  N   UNL     1     -42.960 116.674   7.792  1.00  0.00    -0.350 N 
ATOM      5  H   UNL     1     -42.206 116.450   8.480  1.00  0.00     0.345 HD
ATOM      6  H   UNL     1     -42.863 116.017   6.983  1.00  0.00     0.345 HD
ATOM      7  H   UNL     1     -43.891 116.511   8.238  1.00  0.00     0.345 HD
ENDBRANCH   3   4
BRANCH   3   8
ATOM      8  C   UNL     1     -42.067 118.895   8.328  1.00  0.00     0.099 C 
ATOM      9  O   UNL     1     -40.837 118.706   8.514  1.00  0.00    -0.544 OA
ATOM     10  O   UNL     1     -42.733 119.853   9.085  1.00  0.00    -0.544 OA
ENDBRANCH   3   8
ENDBRANCH   1   3
BRANCH   1  11
ATOM     11  C   UNL     1     -42.031 119.573   5.358  1.00  0.00     0.006 C 
ATOM     12  C   UNL     1     -40.614 119.890   4.877  1.00  0.00     0.004 C 
ENDBRANCH   1  11
TORSDOF 4
ENDMDL
MODEL 2
REMARK VINA RESULT:    -3.975      1.898      2.905
REMARK INTER + INTRA:          -4.918
REMARK INTER:                  -4.918
REMARK INTRA:                  -0.000
REMARK UNBOUND:                -0.130
REMARK SMILES CC[C@H](C)[C@@H]([NH3+])C(=O)[O-]
REMARK SMILES IDX 3 1 4 2 5 3 6 4 7 8 8 9 9 10 2 11 1 12
REMARK H PARENT 6 5 6 6 6 7
REMARK Flexibility Score: inf
ROOT
ATOM      1  C   UNL     1     -43.138 117.295   6.579  1.00  0.00     0.050 C 
ATOM      2  C   UNL     1     -43.199 116.981   5.071  1.00  0.00     0.014 C 
ENDROOT
BRANCH   1   3
ATOM      3  C   UNL     1     -42.084 118.411   6.860  1.00  0.00     0.230 C 
BRANCH   3   4
ATOM      4  N   UNL     1     -42.045 119.415   5.786  1.00  0.00    -0.350 N 
ATOM      5  H   UNL     1     -41.380 119.116   5.038  1.00  0.00     0.345 HD
ATOM      6  H   UNL     1     -41.705 120.326   6.174  1.00  0.00     0.345 HD
ATOM      7  H   UNL     1     -42.989 119.570   5.365  1.00  0.00     0.345 HD
ENDBRANCH   3   4
BRANCH   3   8
ATOM      8  C   UNL     1     -42.287 119.073   8.203  1.00  0.00     0.099 C 
ATOM      9  O   UNL     1     -41.348 119.723   8.733  1.00  0.00    -0.544 OA
ATOM     10  O   UNL     1     -43.494 118.943   8.881  1.00  0.00    -0.544 OA
ENDBRANCH   3   8
ENDBRANCH   1   3
BRANCH   1  11
ATOM     11  C   UNL     1     -42.897 116.006   7.408  1.00  0.00     0.006 C 
ATOM     12  C   UNL     1     -43.786 114.841   6.968  1.00  0.00     0.004 C 
ENDBRANCH   1  11
TORSDOF 4
ENDMDL
MODEL 3
REMARK VINA RESULT:    -3.856      2.803      3.915
REMARK INTER + INTRA:          -4.775
REMARK INTER:                  -4.700
REMARK INTRA:                  -0.075
REMARK UNBOUND:                -0.130
REMARK SMILES CC[C@H](C)[C@@H]([NH3+])C(=O)[O-]
REMARK SMILES IDX 3 1 4 2 5 3 6 4 7 8 8 9 9 10 2 11 1 12
REMARK H PARENT 6 5 6 6 6 7
REMARK Flexibility Score: inf
ROOT
ATOM      1  C   UNL     1     -42.295 118.196   7.805  1.00  0.00     0.050 C 
ATOM      2  C   UNL     1     -41.045 119.060   8.064  1.00  0.00     0.014 C 
ENDROOT
BRANCH   1   3
ATOM      3  C   UNL     1     -42.834 118.438   6.360  1.00  0.00     0.230 C 
BRANCH   3   4
ATOM      4  N   UNL     1     -42.004 119.398   5.617  1.00  0.00    -0.350 N 
ATOM      5  H   UNL     1     -41.853 119.061   4.639  1.00  0.00     0.345 HD
ATOM      6  H   UNL     1     -41.068 119.478   6.078  1.00  0.00     0.345 HD
ATOM      7  H   UNL     1     -42.438 120.347   5.589  1.00  0.00     0.345 HD
ENDBRANCH   3   4
BRANCH   3   8
ATOM      8  C   UNL     1     -42.994 117.154   5.580  1.00  0.00     0.099 C 
ATOM      9  O   UNL     1     -42.785 117.141   4.339  1.00  0.00    -0.544 OA
ATOM     10  O   UNL     1     -43.405 115.987   6.215  1.00  0.00    -0.544 OA
ENDBRANCH   3   8
ENDBRANCH   1   3
BRANCH   1  11
ATOM     11  C   UNL     1     -43.369 118.424   8.902  1.00  0.00     0.006 C 
ATOM     12  C   UNL     1     -43.292 119.819   9.527  1.00  0.00     0.004 C 
ENDBRANCH   1  11
TORSDOF 4
ENDMDL
MODEL 4
REMARK VINA RESULT:    -3.854      1.221      1.978
REMARK INTER + INTRA:          -4.772
REMARK INTER:                  -4.729
REMARK INTRA:                  -0.043
REMARK UNBOUND:                -0.130
REMARK SMILES CC[C@H](C)[C@@H]([NH3+])C(=O)[O-]
REMARK SMILES IDX 3 1 4 2 5 3 6 4 7 8 8 9 9 10 2 11 1 12
REMARK H PARENT 6 5 6 6 6 7
REMARK Flexibility Score: inf
ROOT
ATOM      1  C   UNL     1     -42.556 117.218   7.055  1.00  0.00     0.050 C 
ATOM      2  C   UNL     1     -43.243 115.904   7.478  1.00  0.00     0.014 C 
ENDROOT
BRANCH   1   3
ATOM      3  C   UNL     1     -42.861 118.348   8.089  1.00  0.00     0.230 C 
BRANCH   3   4
ATOM      4  N   UNL     1     -43.596 117.841   9.257  1.00  0.00    -0.350 N 
ATOM      5  H   UNL     1     -43.113 117.001   9.649  1.00  0.00     0.345 HD
ATOM      6  H   UNL     1     -44.559 117.551   8.964  1.00  0.00     0.345 HD
ATOM      7  H   UNL     1     -43.685 118.565  10.005  1.00  0.00     0.345 HD
ENDBRANCH   3   4
BRANCH   3   8
ATOM      8  C   UNL     1     -41.617 119.088   8.520  1.00  0.00     0.099 C 
ATOM      9  O   UNL     1     -41.699 120.279   8.917  1.00  0.00    -0.544 OA
ATOM     10  O   UNL     1     -40.370 118.476   8.450  1.00  0.00    -0.544 OA
ENDBRANCH   3   8
ENDBRANCH   1   3
BRANCH   1  11
ATOM     11  C   UNL     1     -42.936 117.604   5.601  1.00  0.00     0.006 C 
ATOM     12  C   UNL     1     -42.141 118.802   5.078  1.00  0.00     0.004 C 
ENDBRANCH   1  11
TORSDOF 4
ENDMDL
MODEL 5
REMARK VINA RESULT:    -3.648      2.831      3.714
REMARK INTER + INTRA:          -4.525
REMARK INTER:                  -4.473
REMARK INTRA:                  -0.052
REMARK UNBOUND:                -0.130
REMARK SMILES CC[C@H](C)[C@@H]([NH3+])C(=O)[O-]
REMARK SMILES IDX 3 1 4 2 5 3 6 4 7 8 8 9 9 10 2 11 1 12
REMARK H PARENT 6 5 6 6 6 7
REMARK Flexibility Score: inf
ROOT
ATOM      1  C   UNL     1     -42.484 117.723   6.957  1.00  0.00     0.050 C 
ATOM      2  C   UNL     1     -42.086 118.877   6.017  1.00  0.00     0.014 C 
ENDROOT
BRANCH   1   3
ATOM      3  C   UNL     1     -43.456 116.740   6.232  1.00  0.00     0.230 C 
BRANCH   3   4
ATOM      4  N   UNL     1     -43.152 116.623   4.798  1.00  0.00    -0.350 N 
ATOM      5  H   UNL     1     -42.914 115.633   4.561  1.00  0.00     0.345 HD
ATOM      6  H   UNL     1     -42.321 117.217   4.570  1.00  0.00     0.345 HD
ATOM      7  H   UNL     1     -43.952 116.936   4.204  1.00  0.00     0.345 HD
ENDBRANCH   3   4
BRANCH   3   8
ATOM      8  C   UNL     1     -43.494 115.378   6.884  1.00  0.00     0.099 C 
ATOM      9  O   UNL     1     -44.524 114.661   6.785  1.00  0.00    -0.544 OA
ATOM     10  O   UNL     1     -42.411 114.918   7.625  1.00  0.00    -0.544 OA
ENDBRANCH   3   8
ENDBRANCH   1   3
BRANCH   1  11
ATOM     11  C   UNL     1     -43.051 118.263   8.296  1.00  0.00     0.006 C 
ATOM     12  C   UNL     1     -42.318 119.512   8.791  1.00  0.00     0.004 C 
ENDBRANCH   1  11
TORSDOF 4
ENDMDL
MODEL 6
REMARK VINA RESULT:    -3.645      9.436     10.571
REMARK INTER + INTRA:          -4.521
REMARK INTER:                  -4.376
REMARK INTRA:                  -0.144
REMARK UNBOUND:                -0.130
REMARK SMILES CC[C@H](C)[C@@H]([NH3+])C(=O)[O-]
REMARK SMILES IDX 3 1 4 2 5 3 6 4 7 8 8 9 9 10 2 11 1 12
REMARK H PARENT 6 5 6 6 6 7
REMARK Flexibility Score: inf
ROOT
ATOM      1  C   UNL     1     -44.411 123.733  15.121  1.00  0.00     0.050 C 
ATOM      2  C   UNL     1     -44.666 122.429  14.341  1.00  0.00     0.014 C 
ENDROOT
BRANCH   1   3
ATOM      3  C   UNL     1     -43.944 124.865  14.151  1.00  0.00     0.230 C 
BRANCH   3   4
ATOM      4  N   UNL     1     -43.565 124.337  12.832  1.00  0.00    -0.350 N 
ATOM      5  H   UNL     1     -44.189 123.541  12.570  1.00  0.00     0.345 HD
ATOM      6  H   UNL     1     -42.583 123.977  12.871  1.00  0.00     0.345 HD
ATOM      7  H   UNL     1     -43.616 125.071  12.090  1.00  0.00     0.345 HD
ENDBRANCH   3   4
BRANCH   3   8
ATOM      8  C   UNL     1     -44.969 125.965  14.012  1.00  0.00     0.099 C 
ATOM      9  O   UNL     1     -45.761 126.212  14.959  1.00  0.00    -0.544 OA
ATOM     10  O   UNL     1     -45.072 126.691  12.830  1.00  0.00    -0.544 OA
ENDBRANCH   3   8
ENDBRANCH   1   3
BRANCH   1  11
ATOM     11  C   UNL     1     -43.428 123.497  16.298  1.00  0.00     0.006 C 
ATOM     12  C   UNL     1     -42.765 124.787  16.787  1.00  0.00     0.004 C 
ENDBRANCH   1  11
TORSDOF 4
ENDMDL
MODEL 7
REMARK VINA RESULT:    -3.571      9.656     10.577
REMARK INTER + INTRA:          -4.431
REMARK INTER:                  -4.473
REMARK INTRA:                   0.042
REMARK UNBOUND:                -0.130
REMARK SMILES CC[C@H](C)[C@@H]([NH3+])C(=O)[O-]
REMARK SMILES IDX 3 1 4 2 5 3 6 4 7 8 8 9 9 10 2 11 1 12
REMARK H PARENT 6 5 6 6 6 7
REMARK Flexibility Score: inf
ROOT
ATOM      1  C   UNL     1     -45.115 123.406  15.293  1.00  0.00     0.050 C 
ATOM      2  C   UNL     1     -46.594 123.799  15.116  1.00  0.00     0.014 C 
ENDROOT
BRANCH   1   3
ATOM      3  C   UNL     1     -44.186 124.476  14.635  1.00  0.00     0.230 C 
BRANCH   3   4
ATOM      4  N   UNL     1     -43.806 124.105  13.263  1.00  0.00    -0.350 N 
ATOM      5  H   UNL     1     -44.548 124.405  12.591  1.00  0.00     0.345 HD
ATOM      6  H   UNL     1     -43.714 123.065  13.197  1.00  0.00     0.345 HD
ATOM      7  H   UNL     1     -42.896 124.534  12.983  1.00  0.00     0.345 HD
ENDBRANCH   3   4
BRANCH   3   8
ATOM      8  C   UNL     1     -44.787 125.861  14.667  1.00  0.00     0.099 C 
ATOM      9  O   UNL     1     -45.142 126.419  13.596  1.00  0.00    -0.544 OA
ATOM     10  O   UNL     1     -44.920 126.547  15.870  1.00  0.00    -0.544 OA
ENDBRANCH   3   8
ENDBRANCH   1   3
BRANCH   1  11
ATOM     11  C   UNL     1     -44.852 121.969  14.772  1.00  0.00     0.006 C 
ATOM     12  C   UNL     1     -45.096 120.898  15.837  1.00  0.00     0.004 C 
ENDBRANCH   1  11
TORSDOF 4
ENDMDL
MODEL 8
REMARK VINA RESULT:    -3.480      9.805     10.899
REMARK INTER + INTRA:          -4.322
REMARK INTER:                  -4.195
REMARK INTRA:                  -0.127
REMARK UNBOUND:                -0.130
REMARK SMILES CC[C@H](C)[C@@H]([NH3+])C(=O)[O-]
REMARK SMILES IDX 3 1 4 2 5 3 6 4 7 8 8 9 9 10 2 11 1 12
REMARK H PARENT 6 5 6 6 6 7
REMARK Flexibility Score: inf
ROOT
ATOM      1  C   UNL     1     -44.647 125.721  14.599  1.00  0.00     0.050 C 
ATOM      2  C   UNL     1     -44.744 126.399  13.219  1.00  0.00     0.014 C 
ENDROOT
BRANCH   1   3
ATOM      3  C   UNL     1     -44.421 124.184  14.435  1.00  0.00     0.230 C 
BRANCH   3   4
ATOM      4  N   UNL     1     -43.679 123.865  13.207  1.00  0.00    -0.350 N 
ATOM      5  H   UNL     1     -43.070 124.670  12.935  1.00  0.00     0.345 HD
ATOM      6  H   UNL     1     -44.355 123.695  12.426  1.00  0.00     0.345 HD
ATOM      7  H   UNL     1     -43.088 123.011  13.320  1.00  0.00     0.345 HD
ENDBRANCH   3   4
BRANCH   3   8
ATOM      8  C   UNL     1     -43.751 123.567  15.640  1.00  0.00     0.099 C 
ATOM      9  O   UNL     1     -42.950 124.247  16.333  1.00  0.00    -0.544 OA
ATOM     10  O   UNL     1     -43.984 122.237  15.974  1.00  0.00    -0.544 OA
ENDBRANCH   3   8
ENDBRANCH   1   3
BRANCH   1  11
ATOM     11  C   UNL     1     -45.878 126.065  15.478  1.00  0.00     0.006 C 
ATOM     12  C   UNL     1     -45.493 126.687  16.822  1.00  0.00     0.004 C 
ENDBRANCH   1  11
TORSDOF 4
ENDMDL
MODEL 9
REMARK VINA RESULT:    -3.469      9.570     10.190
REMARK INTER + INTRA:          -4.308
REMARK INTER:                  -4.281
REMARK INTRA:                  -0.027
REMARK UNBOUND:                -0.130
REMARK SMILES CC[C@H](C)[C@@H]([NH3+])C(=O)[O-]
REMARK SMILES IDX 3 1 4 2 5 3 6 4 7 8 8 9 9 10 2 11 1 12
REMARK H PARENT 6 5 6 6 6 7
REMARK Flexibility Score: inf
ROOT
ATOM      1  C   UNL     1     -45.215 122.171  14.766  1.00  0.00     0.050 C 
ATOM      2  C   UNL     1     -44.944 120.979  15.704  1.00  0.00     0.014 C 
ENDROOT
BRANCH   1   3
ATOM      3  C   UNL     1     -43.928 123.042  14.608  1.00  0.00     0.230 C 
BRANCH   3   4
ATOM      4  N   UNL     1     -43.669 123.391  13.204  1.00  0.00    -0.350 N 
ATOM      5  H   UNL     1     -42.648 123.312  12.996  1.00  0.00     0.345 HD
ATOM      6  H   UNL     1     -43.956 124.384  13.034  1.00  0.00     0.345 HD
ATOM      7  H   UNL     1     -44.202 122.779  12.546  1.00  0.00     0.345 HD
ENDBRANCH   3   4
BRANCH   3   8
ATOM      8  C   UNL     1     -43.961 124.282  15.470  1.00  0.00     0.099 C 
ATOM      9  O   UNL     1     -44.160 125.409  14.946  1.00  0.00    -0.544 OA
ATOM     10  O   UNL     1     -43.738 124.197  16.840  1.00  0.00    -0.544 OA
ENDBRANCH   3   8
ENDBRANCH   1   3
BRANCH   1  11
ATOM     11  C   UNL     1     -46.448 122.985  15.238  1.00  0.00     0.006 C 
ATOM     12  C   UNL     1     -47.750 122.529  14.578  1.00  0.00     0.004 C 
ENDBRANCH   1  11
TORSDOF 4
ENDMDL
