MODEL 1
REMARK VINA RESULT:    -3.807      0.000      0.000
REMARK INTER + INTRA:          -9.712
REMARK INTER:                  -6.923
REMARK INTRA:                  -2.788
REMARK UNBOUND:                -2.788
REMARK SMILES CCCCCC=CCC=CCCCCCCCC(=O)[O-]
REMARK SMILES IDX 11 1 12 2 13 3 14 4 15 5 16 6 17 7 18 8 19 9 20 10 10 11
REMARK SMILES IDX 9 12 8 13 7 14 6 15 5 16 4 17 3 18 2 19 1 20
REMARK H PARENT
REMARK Flexibility Score: inf
ROOT
ATOM      1  C   UNL     1     202.275 193.703 224.158  1.00  0.00     0.027 C 
ENDROOT
BRANCH   1   2
ATOM      2  C   UNL     1     201.020 194.134 223.383  1.00  0.00     0.004 C 
BRANCH   2   3
ATOM      3  C   UNL     1     201.166 193.938 221.866  1.00  0.00     0.000 C 
BRANCH   3   4
ATOM      4  C   UNL     1     201.477 192.478 221.491  1.00  0.00     0.000 C 
BRANCH   4   5
ATOM      5  C   UNL     1     202.873 192.304 220.863  1.00  0.00     0.000 C 
BRANCH   5   6
ATOM      6  C   UNL     1     203.489 193.586 220.270  1.00  0.00     0.006 C 
BRANCH   6   7
ATOM      7  C   UNL     1     204.980 193.781 220.585  1.00  0.00     0.053 C 
BRANCH   7   8
ATOM      8  C   UNL     1     205.832 192.737 219.931  1.00  0.00     0.041 C 
ATOM      9  O   UNL     1     206.853 192.291 220.518  1.00  0.00    -0.550 OA
ATOM     10  O   UNL     1     205.479 192.234 218.685  1.00  0.00    -0.550 OA
ENDBRANCH   7   8
ENDBRANCH   6   7
ENDBRANCH   5   6
ENDBRANCH   4   5
ENDBRANCH   3   4
ENDBRANCH   2   3
ENDBRANCH   1   2
BRANCH   1  11
ATOM     11  C   UNL     1     203.136 194.891 224.490  1.00  0.00    -0.031 C 
ATOM     12  C   UNL     1     203.952 195.442 223.578  1.00  0.00    -0.027 C 
BRANCH  12  13
ATOM     13  C   UNL     1     204.794 196.647 223.895  1.00  0.00     0.054 C 
BRANCH  13  14
ATOM     14  C   UNL     1     204.888 196.847 225.386  1.00  0.00    -0.027 C 
ATOM     15  C   UNL     1     205.914 196.404 226.135  1.00  0.00    -0.031 C 
BRANCH  15  16
ATOM     16  C   UNL     1     207.129 195.696 225.586  1.00  0.00     0.027 C 
BRANCH  16  17
ATOM     17  C   UNL     1     207.307 194.292 226.188  1.00  0.00     0.004 C 
BRANCH  17  18
ATOM     18  C   UNL     1     206.237 193.307 225.685  1.00  0.00     0.000 C 
BRANCH  18  19
ATOM     19  C   UNL     1     206.477 192.869 224.231  1.00  0.00    -0.003 C 
ATOM     20  C   UNL     1     205.410 191.899 223.723  1.00  0.00     0.004 C 
ENDBRANCH  18  19
ENDBRANCH  17  18
ENDBRANCH  16  17
ENDBRANCH  15  16
ENDBRANCH  13  14
ENDBRANCH  12  13
ENDBRANCH   1  11
TORSDOF 14
ENDMDL
MODEL 2
REMARK VINA RESULT:    -3.783      4.089      6.917
REMARK INTER + INTRA:          -9.667
REMARK INTER:                  -7.590
REMARK INTRA:                  -2.078
REMARK UNBOUND:                -2.788
REMARK SMILES CCCCCC=CCC=CCCCCCCCC(=O)[O-]
REMARK SMILES IDX 11 1 12 2 13 3 14 4 15 5 16 6 17 7 18 8 19 9 20 10 10 11
REMARK SMILES IDX 9 12 8 13 7 14 6 15 5 16 4 17 3 18 2 19 1 20
REMARK H PARENT
REMARK Flexibility Score: inf
ROOT
ATOM      1  C   UNL     1     208.616 195.431 226.181  1.00  0.00     0.027 C 
ENDROOT
BRANCH   1   2
ATOM      2  C   UNL     1     209.593 196.480 226.734  1.00  0.00     0.004 C 
BRANCH   2   3
ATOM      3  C   UNL     1     210.751 196.776 225.767  1.00  0.00     0.000 C 
BRANCH   3   4
ATOM      4  C   UNL     1     210.452 197.969 224.843  1.00  0.00     0.000 C 
BRANCH   4   5
ATOM      5  C   UNL     1     210.023 197.540 223.428  1.00  0.00     0.000 C 
BRANCH   5   6
ATOM      6  C   UNL     1     211.157 197.488 222.386  1.00  0.00     0.006 C 
BRANCH   6   7
ATOM      7  C   UNL     1     212.016 196.216 222.443  1.00  0.00     0.053 C 
BRANCH   7   8
ATOM      8  C   UNL     1     213.443 196.518 222.781  1.00  0.00     0.041 C 
ATOM      9  O   UNL     1     213.736 197.552 223.437  1.00  0.00    -0.550 OA
ATOM     10  O   UNL     1     214.448 195.638 222.399  1.00  0.00    -0.550 OA
ENDBRANCH   7   8
ENDBRANCH   6   7
ENDBRANCH   5   6
ENDBRANCH   4   5
ENDBRANCH   3   4
ENDBRANCH   2   3
ENDBRANCH   1   2
BRANCH   1  11
ATOM     11  C   UNL     1     207.361 196.082 225.669  1.00  0.00    -0.031 C 
ATOM     12  C   UNL     1     206.255 196.161 226.425  1.00  0.00    -0.027 C 
BRANCH  12  13
ATOM     13  C   UNL     1     205.005 196.835 225.932  1.00  0.00     0.054 C 
BRANCH  13  14
ATOM     14  C   UNL     1     204.888 196.698 224.435  1.00  0.00    -0.027 C 
ATOM     15  C   UNL     1     204.157 195.745 223.829  1.00  0.00    -0.031 C 
BRANCH  15  16
ATOM     16  C   UNL     1     203.317 194.721 224.553  1.00  0.00     0.027 C 
BRANCH  16  17
ATOM     17  C   UNL     1     203.796 193.284 224.292  1.00  0.00     0.004 C 
BRANCH  17  18
ATOM     18  C   UNL     1     205.214 193.037 224.838  1.00  0.00     0.000 C 
BRANCH  18  19
ATOM     19  C   UNL     1     206.158 192.447 223.779  1.00  0.00    -0.003 C 
ATOM     20  C   UNL     1     207.025 193.511 223.104  1.00  0.00     0.004 C 
ENDBRANCH  18  19
ENDBRANCH  17  18
ENDBRANCH  16  17
ENDBRANCH  15  16
ENDBRANCH  13  14
ENDBRANCH  12  13
ENDBRANCH   1  11
TORSDOF 14
ENDMDL
MODEL 3
REMARK VINA RESULT:    -3.747      1.412      1.720
REMARK INTER + INTRA:          -9.602
REMARK INTER:                  -7.011
REMARK INTRA:                  -2.592
REMARK UNBOUND:                -2.788
REMARK SMILES CCCCCC=CCC=CCCCCCCCC(=O)[O-]
REMARK SMILES IDX 11 1 12 2 13 3 14 4 15 5 16 6 17 7 18 8 19 9 20 10 10 11
REMARK SMILES IDX 9 12 8 13 7 14 6 15 5 16 4 17 3 18 2 19 1 20
REMARK H PARENT
REMARK Flexibility Score: inf
ROOT
ATOM      1  C   UNL     1     202.431 193.507 224.556  1.00  0.00     0.027 C 
ENDROOT
BRANCH   1   2
ATOM      2  C   UNL     1     200.957 193.858 224.810  1.00  0.00     0.004 C 
BRANCH   2   3
ATOM      3  C   UNL     1     200.187 194.150 223.513  1.00  0.00     0.000 C 
BRANCH   3   4
ATOM      4  C   UNL     1     200.688 193.303 222.331  1.00  0.00     0.000 C 
BRANCH   4   5
ATOM      5  C   UNL     1     201.256 194.154 221.180  1.00  0.00     0.000 C 
BRANCH   5   6
ATOM      6  C   UNL     1     202.671 193.764 220.712  1.00  0.00     0.006 C 
BRANCH   6   7
ATOM      7  C   UNL     1     203.111 192.351 221.124  1.00  0.00     0.053 C 
BRANCH   7   8
ATOM      8  C   UNL     1     203.185 191.422 219.952  1.00  0.00     0.041 C 
ATOM      9  O   UNL     1     203.384 191.876 218.793  1.00  0.00    -0.550 OA
ATOM     10  O   UNL     1     203.066 190.052 220.143  1.00  0.00    -0.550 OA
ENDBRANCH   7   8
ENDBRANCH   6   7
ENDBRANCH   5   6
ENDBRANCH   4   5
ENDBRANCH   3   4
ENDBRANCH   2   3
ENDBRANCH   1   2
BRANCH   1  11
ATOM     11  C   UNL     1     203.314 194.705 224.769  1.00  0.00    -0.031 C 
ATOM     12  C   UNL     1     203.952 195.296 223.746  1.00  0.00    -0.027 C 
BRANCH  12  13
ATOM     13  C   UNL     1     204.814 196.512 223.947  1.00  0.00     0.054 C 
BRANCH  13  14
ATOM     14  C   UNL     1     204.833 196.909 225.401  1.00  0.00    -0.027 C 
ATOM     15  C   UNL     1     205.778 196.509 226.271  1.00  0.00    -0.031 C 
BRANCH  15  16
ATOM     16  C   UNL     1     206.969 195.656 225.907  1.00  0.00     0.027 C 
BRANCH  16  17
ATOM     17  C   UNL     1     207.080 194.404 226.792  1.00  0.00     0.004 C 
BRANCH  17  18
ATOM     18  C   UNL     1     206.419 193.175 226.145  1.00  0.00     0.000 C 
BRANCH  18  19
ATOM     19  C   UNL     1     206.713 193.073 224.639  1.00  0.00    -0.003 C 
ATOM     20  C   UNL     1     205.851 192.021 223.940  1.00  0.00     0.004 C 
ENDBRANCH  18  19
ENDBRANCH  17  18
ENDBRANCH  16  17
ENDBRANCH  15  16
ENDBRANCH  13  14
ENDBRANCH  12  13
ENDBRANCH   1  11
TORSDOF 14
ENDMDL
MODEL 4
REMARK VINA RESULT:    -3.719      2.883      5.964
REMARK INTER + INTRA:          -9.551
REMARK INTER:                  -7.026
REMARK INTRA:                  -2.525
REMARK UNBOUND:                -2.788
REMARK SMILES CCCCCC=CCC=CCCCCCCCC(=O)[O-]
REMARK SMILES IDX 11 1 12 2 13 3 14 4 15 5 16 6 17 7 18 8 19 9 20 10 10 11
REMARK SMILES IDX 9 12 8 13 7 14 6 15 5 16 4 17 3 18 2 19 1 20
REMARK H PARENT
REMARK Flexibility Score: inf
ROOT
ATOM      1  C   UNL     1     204.742 196.701 224.357  1.00  0.00     0.027 C 
ENDROOT
BRANCH   1   2
ATOM      2  C   UNL     1     204.823 196.548 225.883  1.00  0.00     0.004 C 
BRANCH   2   3
ATOM      3  C   UNL     1     206.247 196.236 226.370  1.00  0.00     0.000 C 
BRANCH   3   4
ATOM      4  C   UNL     1     206.621 194.757 226.178  1.00  0.00     0.000 C 
BRANCH   4   5
ATOM      5  C   UNL     1     207.888 194.564 225.325  1.00  0.00     0.000 C 
BRANCH   5   6
ATOM      6  C   UNL     1     208.165 195.681 224.300  1.00  0.00     0.006 C 
BRANCH   6   7
ATOM      7  C   UNL     1     209.639 195.818 223.889  1.00  0.00     0.053 C 
BRANCH   7   8
ATOM      8  C   UNL     1     210.310 196.962 224.583  1.00  0.00     0.041 C 
ATOM      9  O   UNL     1     211.377 197.447 224.123  1.00  0.00    -0.550 OA
ATOM     10  O   UNL     1     209.738 197.514 225.722  1.00  0.00    -0.550 OA
ENDBRANCH   7   8
ENDBRANCH   6   7
ENDBRANCH   5   6
ENDBRANCH   4   5
ENDBRANCH   3   4
ENDBRANCH   2   3
ENDBRANCH   1   2
BRANCH   1  11
ATOM     11  C   UNL     1     203.918 195.599 223.749  1.00  0.00    -0.031 C 
ATOM     12  C   UNL     1     203.267 194.708 224.513  1.00  0.00    -0.027 C 
BRANCH  12  13
ATOM     13  C   UNL     1     202.419 193.621 223.913  1.00  0.00     0.054 C 
BRANCH  13  14
ATOM     14  C   UNL     1     201.496 194.191 222.866  1.00  0.00    -0.027 C 
ATOM     15  C   UNL     1     201.615 193.939 221.550  1.00  0.00    -0.031 C 
BRANCH  15  16
ATOM     16  C   UNL     1     202.647 193.019 220.946  1.00  0.00     0.027 C 
BRANCH  16  17
ATOM     17  C   UNL     1     203.749 193.789 220.199  1.00  0.00     0.004 C 
BRANCH  17  18
ATOM     18  C   UNL     1     205.107 193.702 220.918  1.00  0.00     0.000 C 
BRANCH  18  19
ATOM     19  C   UNL     1     205.308 192.356 221.633  1.00  0.00    -0.003 C 
ATOM     20  C   UNL     1     205.921 192.515 223.025  1.00  0.00     0.004 C 
ENDBRANCH  18  19
ENDBRANCH  17  18
ENDBRANCH  16  17
ENDBRANCH  15  16
ENDBRANCH  13  14
ENDBRANCH  12  13
ENDBRANCH   1  11
TORSDOF 14
ENDMDL
MODEL 5
REMARK VINA RESULT:    -3.706      4.480      7.672
REMARK INTER + INTRA:          -9.528
REMARK INTER:                  -7.156
REMARK INTRA:                  -2.372
REMARK UNBOUND:                -2.788
REMARK SMILES CCCCCC=CCC=CCCCCCCCC(=O)[O-]
REMARK SMILES IDX 11 1 12 2 13 3 14 4 15 5 16 6 17 7 18 8 19 9 20 10 10 11
REMARK SMILES IDX 9 12 8 13 7 14 6 15 5 16 4 17 3 18 2 19 1 20
REMARK H PARENT
REMARK Flexibility Score: inf
ROOT
ATOM      1  C   UNL     1     209.686 195.766 223.714  1.00  0.00     0.027 C 
ENDROOT
BRANCH   1   2
ATOM      2  C   UNL     1     209.936 197.245 223.381  1.00  0.00     0.004 C 
BRANCH   2   3
ATOM      3  C   UNL     1     211.167 197.449 222.484  1.00  0.00     0.000 C 
BRANCH   3   4
ATOM      4  C   UNL     1     212.319 196.495 222.844  1.00  0.00     0.000 C 
BRANCH   4   5
ATOM      5  C   UNL     1     213.493 197.207 223.541  1.00  0.00     0.000 C 
BRANCH   5   6
ATOM      6  C   UNL     1     213.263 197.550 225.025  1.00  0.00     0.006 C 
BRANCH   6   7
ATOM      7  C   UNL     1     213.286 196.339 225.970  1.00  0.00     0.053 C 
BRANCH   7   8
ATOM      8  C   UNL     1     211.937 196.061 226.557  1.00  0.00     0.041 C 
ATOM      9  O   UNL     1     211.126 197.002 226.762  1.00  0.00    -0.550 OA
ATOM     10  O   UNL     1     211.564 194.755 226.849  1.00  0.00    -0.550 OA
ENDBRANCH   7   8
ENDBRANCH   6   7
ENDBRANCH   5   6
ENDBRANCH   4   5
ENDBRANCH   3   4
ENDBRANCH   2   3
ENDBRANCH   1   2
BRANCH   1  11
ATOM     11  C   UNL     1     208.362 195.585 224.402  1.00  0.00    -0.031 C 
ATOM     12  C   UNL     1     208.251 194.867 225.531  1.00  0.00    -0.027 C 
BRANCH  12  13
ATOM     13  C   UNL     1     206.936 194.706 226.241  1.00  0.00     0.054 C 
BRANCH  13  14
ATOM     14  C   UNL     1     206.414 196.045 226.694  1.00  0.00    -0.027 C 
ATOM     15  C   UNL     1     205.314 196.629 226.184  1.00  0.00    -0.031 C 
BRANCH  15  16
ATOM     16  C   UNL     1     204.427 196.008 225.132  1.00  0.00     0.027 C 
BRANCH  16  17
ATOM     17  C   UNL     1     204.782 196.486 223.715  1.00  0.00     0.004 C 
BRANCH  17  18
ATOM     18  C   UNL     1     204.818 195.327 222.704  1.00  0.00     0.000 C 
BRANCH  18  19
ATOM     19  C   UNL     1     204.810 193.950 223.386  1.00  0.00    -0.003 C 
ATOM     20  C   UNL     1     206.011 193.089 222.993  1.00  0.00     0.004 C 
ENDBRANCH  18  19
ENDBRANCH  17  18
ENDBRANCH  16  17
ENDBRANCH  15  16
ENDBRANCH  13  14
ENDBRANCH  12  13
ENDBRANCH   1  11
TORSDOF 14
ENDMDL
MODEL 6
REMARK VINA RESULT:    -3.684      3.407      5.700
REMARK INTER + INTRA:          -9.487
REMARK INTER:                  -7.179
REMARK INTRA:                  -2.309
REMARK UNBOUND:                -2.788
REMARK SMILES CCCCCC=CCC=CCCCCCCCC(=O)[O-]
REMARK SMILES IDX 11 1 12 2 13 3 14 4 15 5 16 6 17 7 18 8 19 9 20 10 10 11
REMARK SMILES IDX 9 12 8 13 7 14 6 15 5 16 4 17 3 18 2 19 1 20
REMARK H PARENT
REMARK Flexibility Score: inf
ROOT
ATOM      1  C   UNL     1     206.652 194.617 226.462  1.00  0.00     0.027 C 
ENDROOT
BRANCH   1   2
ATOM      2  C   UNL     1     206.491 196.136 226.295  1.00  0.00     0.004 C 
BRANCH   2   3
ATOM      3  C   UNL     1     205.052 196.541 225.939  1.00  0.00     0.000 C 
BRANCH   3   4
ATOM      4  C   UNL     1     204.856 196.743 224.427  1.00  0.00     0.000 C 
BRANCH   4   5
ATOM      5  C   UNL     1     204.128 195.565 223.753  1.00  0.00     0.000 C 
BRANCH   5   6
ATOM      6  C   UNL     1     203.242 194.720 224.689  1.00  0.00     0.006 C 
BRANCH   6   7
ATOM      7  C   UNL     1     202.928 193.310 224.168  1.00  0.00     0.053 C 
BRANCH   7   8
ATOM      8  C   UNL     1     201.730 193.298 223.269  1.00  0.00     0.041 C 
ATOM      9  O   UNL     1     201.874 193.284 222.018  1.00  0.00    -0.550 OA
ATOM     10  O   UNL     1     200.453 193.270 223.816  1.00  0.00    -0.550 OA
ENDBRANCH   7   8
ENDBRANCH   6   7
ENDBRANCH   5   6
ENDBRANCH   4   5
ENDBRANCH   3   4
ENDBRANCH   2   3
ENDBRANCH   1   2
BRANCH   1  11
ATOM     11  C   UNL     1     207.673 194.075 225.501  1.00  0.00    -0.031 C 
ATOM     12  C   UNL     1     207.691 194.450 224.212  1.00  0.00    -0.027 C 
BRANCH  12  13
ATOM     13  C   UNL     1     208.726 193.934 223.252  1.00  0.00     0.054 C 
BRANCH  13  14
ATOM     14  C   UNL     1     210.078 193.873 223.917  1.00  0.00    -0.027 C 
ATOM     15  C   UNL     1     211.170 194.500 223.445  1.00  0.00    -0.031 C 
BRANCH  15  16
ATOM     16  C   UNL     1     211.186 195.387 222.224  1.00  0.00     0.027 C 
BRANCH  16  17
ATOM     17  C   UNL     1     211.448 196.860 222.577  1.00  0.00     0.004 C 
BRANCH  17  18
ATOM     18  C   UNL     1     210.206 197.543 223.176  1.00  0.00     0.000 C 
BRANCH  18  19
ATOM     19  C   UNL     1     210.465 198.109 224.581  1.00  0.00    -0.003 C 
ATOM     20  C   UNL     1     209.925 197.204 225.689  1.00  0.00     0.004 C 
ENDBRANCH  18  19
ENDBRANCH  17  18
ENDBRANCH  16  17
ENDBRANCH  15  16
ENDBRANCH  13  14
ENDBRANCH  12  13
ENDBRANCH   1  11
TORSDOF 14
ENDMDL
MODEL 7
REMARK VINA RESULT:    -3.645      4.623      7.333
REMARK INTER + INTRA:          -9.416
REMARK INTER:                  -7.317
REMARK INTRA:                  -2.098
REMARK UNBOUND:                -2.788
REMARK SMILES CCCCCC=CCC=CCCCCCCCC(=O)[O-]
REMARK SMILES IDX 11 1 12 2 13 3 14 4 15 5 16 6 17 7 18 8 19 9 20 10 10 11
REMARK SMILES IDX 9 12 8 13 7 14 6 15 5 16 4 17 3 18 2 19 1 20
REMARK H PARENT
REMARK Flexibility Score: inf
ROOT
ATOM      1  C   UNL     1     209.055 194.176 223.280  1.00  0.00     0.027 C 
ENDROOT
BRANCH   1   2
ATOM      2  C   UNL     1     210.260 195.112 223.460  1.00  0.00     0.004 C 
BRANCH   2   3
ATOM      3  C   UNL     1     209.868 196.466 224.073  1.00  0.00     0.000 C 
BRANCH   3   4
ATOM      4  C   UNL     1     210.441 197.654 223.283  1.00  0.00     0.000 C 
BRANCH   4   5
ATOM      5  C   UNL     1     211.512 197.234 222.259  1.00  0.00     0.000 C 
BRANCH   5   6
ATOM      6  C   UNL     1     212.965 197.544 222.665  1.00  0.00     0.006 C 
BRANCH   6   7
ATOM      7  C   UNL     1     213.817 196.304 222.977  1.00  0.00     0.053 C 
BRANCH   7   8
ATOM      8  C   UNL     1     214.084 196.162 224.444  1.00  0.00     0.041 C 
ATOM      9  O   UNL     1     215.075 195.497 224.848  1.00  0.00    -0.550 OA
ATOM     10  O   UNL     1     213.255 196.790 225.364  1.00  0.00    -0.550 OA
ENDBRANCH   7   8
ENDBRANCH   6   7
ENDBRANCH   5   6
ENDBRANCH   4   5
ENDBRANCH   3   4
ENDBRANCH   2   3
ENDBRANCH   1   2
BRANCH   1  11
ATOM     11  C   UNL     1     207.931 194.560 224.202  1.00  0.00    -0.031 C 
ATOM     12  C   UNL     1     207.539 193.756 225.201  1.00  0.00    -0.027 C 
BRANCH  12  13
ATOM     13  C   UNL     1     206.435 194.146 226.145  1.00  0.00     0.054 C 
BRANCH  13  14
ATOM     14  C   UNL     1     206.610 195.573 226.599  1.00  0.00    -0.027 C 
ATOM     15  C   UNL     1     205.756 196.564 226.288  1.00  0.00    -0.031 C 
BRANCH  15  16
ATOM     16  C   UNL     1     204.488 196.381 225.491  1.00  0.00     0.027 C 
BRANCH  16  17
ATOM     17  C   UNL     1     204.689 196.687 223.997  1.00  0.00     0.004 C 
BRANCH  17  18
ATOM     18  C   UNL     1     204.531 195.431 223.122  1.00  0.00     0.000 C 
BRANCH  18  19
ATOM     19  C   UNL     1     203.260 194.635 223.457  1.00  0.00    -0.003 C 
ATOM     20  C   UNL     1     203.565 193.246 224.018  1.00  0.00     0.004 C 
ENDBRANCH  18  19
ENDBRANCH  17  18
ENDBRANCH  16  17
ENDBRANCH  15  16
ENDBRANCH  13  14
ENDBRANCH  12  13
ENDBRANCH   1  11
TORSDOF 14
ENDMDL
MODEL 8
REMARK VINA RESULT:    -3.629      4.565      7.226
REMARK INTER + INTRA:          -9.387
REMARK INTER:                  -7.546
REMARK INTRA:                  -1.840
REMARK UNBOUND:                -2.788
REMARK SMILES CCCCCC=CCC=CCCCCCCCC(=O)[O-]
REMARK SMILES IDX 11 1 12 2 13 3 14 4 15 5 16 6 17 7 18 8 19 9 20 10 10 11
REMARK SMILES IDX 9 12 8 13 7 14 6 15 5 16 4 17 3 18 2 19 1 20
REMARK H PARENT
REMARK Flexibility Score: inf
ROOT
ATOM      1  C   UNL     1     208.885 195.617 225.328  1.00  0.00     0.027 C 
ENDROOT
BRANCH   1   2
ATOM      2  C   UNL     1     209.507 196.899 225.902  1.00  0.00     0.004 C 
BRANCH   2   3
ATOM      3  C   UNL     1     210.729 197.373 225.099  1.00  0.00     0.000 C 
BRANCH   3   4
ATOM      4  C   UNL     1     210.350 197.866 223.692  1.00  0.00     0.000 C 
BRANCH   4   5
ATOM      5  C   UNL     1     211.204 197.225 222.582  1.00  0.00     0.000 C 
BRANCH   5   6
ATOM      6  C   UNL     1     212.502 196.547 223.062  1.00  0.00     0.006 C 
BRANCH   6   7
ATOM      7  C   UNL     1     213.791 197.259 222.625  1.00  0.00     0.053 C 
BRANCH   7   8
ATOM      8  C   UNL     1     214.814 196.296 222.104  1.00  0.00     0.041 C 
ATOM      9  O   UNL     1     215.959 196.703 221.771  1.00  0.00    -0.550 OA
ATOM     10  O   UNL     1     214.512 194.944 222.017  1.00  0.00    -0.550 OA
ENDBRANCH   7   8
ENDBRANCH   6   7
ENDBRANCH   5   6
ENDBRANCH   4   5
ENDBRANCH   3   4
ENDBRANCH   2   3
ENDBRANCH   1   2
BRANCH   1  11
ATOM     11  C   UNL     1     207.403 195.779 225.129  1.00  0.00    -0.031 C 
ATOM     12  C   UNL     1     206.631 196.364 226.059  1.00  0.00    -0.027 C 
BRANCH  12  13
ATOM     13  C   UNL     1     205.154 196.555 225.855  1.00  0.00     0.054 C 
BRANCH  13  14
ATOM     14  C   UNL     1     204.823 196.572 224.384  1.00  0.00    -0.027 C 
ATOM     15  C   UNL     1     203.946 195.730 223.808  1.00  0.00    -0.031 C 
BRANCH  15  16
ATOM     16  C   UNL     1     203.140 194.694 224.552  1.00  0.00     0.027 C 
BRANCH  16  17
ATOM     17  C   UNL     1     203.588 193.260 224.223  1.00  0.00     0.004 C 
BRANCH  17  18
ATOM     18  C   UNL     1     205.024 192.978 224.698  1.00  0.00     0.000 C 
BRANCH  18  19
ATOM     19  C   UNL     1     205.869 192.270 223.627  1.00  0.00    -0.003 C 
ATOM     20  C   UNL     1     206.549 193.249 222.670  1.00  0.00     0.004 C 
ENDBRANCH  18  19
ENDBRANCH  17  18
ENDBRANCH  16  17
ENDBRANCH  15  16
ENDBRANCH  13  14
ENDBRANCH  12  13
ENDBRANCH   1  11
TORSDOF 14
ENDMDL
MODEL 9
REMARK VINA RESULT:    -3.608      3.433      5.824
REMARK INTER + INTRA:          -9.349
REMARK INTER:                  -7.074
REMARK INTRA:                  -2.276
REMARK UNBOUND:                -2.788
REMARK SMILES CCCCCC=CCC=CCCCCCCCC(=O)[O-]
REMARK SMILES IDX 11 1 12 2 13 3 14 4 15 5 16 6 17 7 18 8 19 9 20 10 10 11
REMARK SMILES IDX 9 12 8 13 7 14 6 15 5 16 4 17 3 18 2 19 1 20
REMARK H PARENT
REMARK Flexibility Score: inf
ROOT
ATOM      1  C   UNL     1     208.516 195.214 227.118  1.00  0.00     0.027 C 
ENDROOT
BRANCH   1   2
ATOM      2  C   UNL     1     206.995 195.410 227.023  1.00  0.00     0.004 C 
BRANCH   2   3
ATOM      3  C   UNL     1     206.599 196.461 225.974  1.00  0.00     0.000 C 
BRANCH   3   4
ATOM      4  C   UNL     1     205.080 196.514 225.743  1.00  0.00     0.000 C 
BRANCH   4   5
ATOM      5  C   UNL     1     204.705 196.792 224.275  1.00  0.00     0.000 C 
BRANCH   5   6
ATOM      6  C   UNL     1     204.375 195.543 223.435  1.00  0.00     0.006 C 
BRANCH   6   7
ATOM      7  C   UNL     1     203.290 194.639 224.038  1.00  0.00     0.053 C 
BRANCH   7   8
ATOM      8  C   UNL     1     203.783 193.243 224.261  1.00  0.00     0.041 C 
ATOM      9  O   UNL     1     203.159 192.263 223.775  1.00  0.00    -0.550 OA
ATOM     10  O   UNL     1     204.952 193.027 224.979  1.00  0.00    -0.550 OA
ENDBRANCH   7   8
ENDBRANCH   6   7
ENDBRANCH   5   6
ENDBRANCH   4   5
ENDBRANCH   3   4
ENDBRANCH   2   3
ENDBRANCH   1   2
BRANCH   1  11
ATOM     11  C   UNL     1     209.235 196.107 226.145  1.00  0.00    -0.031 C 
ATOM     12  C   UNL     1     210.423 196.655 226.443  1.00  0.00    -0.027 C 
BRANCH  12  13
ATOM     13  C   UNL     1     211.162 197.525 225.464  1.00  0.00     0.054 C 
BRANCH  13  14
ATOM     14  C   UNL     1     210.250 197.943 224.338  1.00  0.00    -0.027 C 
ATOM     15  C   UNL     1     210.449 197.603 223.052  1.00  0.00    -0.031 C 
BRANCH  15  16
ATOM     16  C   UNL     1     211.573 196.720 222.565  1.00  0.00     0.027 C 
BRANCH  16  17
ATOM     17  C   UNL     1     211.100 195.288 222.266  1.00  0.00     0.004 C 
BRANCH  17  18
ATOM     18  C   UNL     1     211.431 194.316 223.413  1.00  0.00     0.000 C 
BRANCH  18  19
ATOM     19  C   UNL     1     210.193 193.557 223.916  1.00  0.00    -0.003 C 
ATOM     20  C   UNL     1     208.905 194.005 223.225  1.00  0.00     0.004 C 
ENDBRANCH  18  19
ENDBRANCH  17  18
ENDBRANCH  16  17
ENDBRANCH  15  16
ENDBRANCH  13  14
ENDBRANCH  12  13
ENDBRANCH   1  11
TORSDOF 14
ENDMDL
