MODEL 1
REMARK VINA RESULT:    -4.682      0.000      0.000
REMARK INTER + INTRA:          -7.431
REMARK INTER:                  -7.146
REMARK INTRA:                  -0.286
REMARK UNBOUND:                -0.286
REMARK SMILES CCCCCCCCCCC(=O)[O-]
REMARK SMILES IDX 7 1 8 2 9 3 10 4 11 5 12 6 13 7 6 8 5 9 4 10 3 11 2 12 1 13
REMARK H PARENT
REMARK Flexibility Score: inf
ROOT
ATOM      1  C   UNL     1      40.046  56.051  18.370  1.00  0.00     0.000 C 
ENDROOT
BRANCH   1   2
ATOM      2  C   UNL     1      41.123  56.013  17.276  1.00  0.00     0.000 C 
BRANCH   2   3
ATOM      3  C   UNL     1      42.391  55.266  17.717  1.00  0.00     0.006 C 
BRANCH   3   4
ATOM      4  C   UNL     1      42.924  54.316  16.638  1.00  0.00     0.053 C 
BRANCH   4   5
ATOM      5  C   UNL     1      44.225  54.818  16.097  1.00  0.00     0.041 C 
ATOM      6  O   UNL     1      44.895  54.112  15.298  1.00  0.00    -0.550 OA
ATOM      7  O   UNL     1      44.676  56.088  16.437  1.00  0.00    -0.550 OA
ENDBRANCH   4   5
ENDBRANCH   3   4
ENDBRANCH   2   3
ENDBRANCH   1   2
BRANCH   1   8
ATOM      8  C   UNL     1      38.968  57.093  18.044  1.00  0.00     0.000 C 
BRANCH   8   9
ATOM      9  C   UNL     1      38.043  56.594  16.924  1.00  0.00    -0.000 C 
BRANCH   9  10
ATOM     10  C   UNL     1      36.625  57.180  17.019  1.00  0.00    -0.000 C 
BRANCH  10  11
ATOM     11  C   UNL     1      36.136  57.765  15.683  1.00  0.00    -0.000 C 
BRANCH  11  12
ATOM     12  C   UNL     1      34.829  57.115  15.200  1.00  0.00    -0.003 C 
ATOM     13  C   UNL     1      34.144  56.283  16.283  1.00  0.00     0.004 C 
ENDBRANCH  11  12
ENDBRANCH  10  11
ENDBRANCH   9  10
ENDBRANCH   8   9
ENDBRANCH   1   8
TORSDOF 9
ENDMDL
MODEL 2
REMARK VINA RESULT:    -4.593      4.505      7.663
REMARK INTER + INTRA:          -7.296
REMARK INTER:                  -7.037
REMARK INTRA:                  -0.259
REMARK UNBOUND:                -0.286
REMARK SMILES CCCCCCCCCCC(=O)[O-]
REMARK SMILES IDX 7 1 8 2 9 3 10 4 11 5 12 6 13 7 6 8 5 9 4 10 3 11 2 12 1 13
REMARK H PARENT
REMARK Flexibility Score: inf
ROOT
ATOM      1  C   UNL     1      38.158  56.671  16.971  1.00  0.00     0.000 C 
ENDROOT
BRANCH   1   2
ATOM      2  C   UNL     1      36.810  57.398  17.075  1.00  0.00     0.000 C 
BRANCH   2   3
ATOM      3  C   UNL     1      35.911  57.158  15.852  1.00  0.00     0.006 C 
BRANCH   3   4
ATOM      4  C   UNL     1      34.489  56.733  16.237  1.00  0.00     0.053 C 
BRANCH   4   5
ATOM      5  C   UNL     1      33.779  56.151  15.057  1.00  0.00     0.041 C 
ATOM      6  O   UNL     1      32.525  56.227  14.969  1.00  0.00    -0.550 OA
ATOM      7  O   UNL     1      34.506  55.568  14.027  1.00  0.00    -0.550 OA
ENDBRANCH   4   5
ENDBRANCH   3   4
ENDBRANCH   2   3
ENDBRANCH   1   2
BRANCH   1   8
ATOM      8  C   UNL     1      39.084  57.062  18.130  1.00  0.00     0.000 C 
BRANCH   8   9
ATOM      9  C   UNL     1      40.169  55.997  18.350  1.00  0.00    -0.000 C 
BRANCH   9  10
ATOM     10  C   UNL     1      41.115  55.854  17.147  1.00  0.00    -0.000 C 
BRANCH  10  11
ATOM     11  C   UNL     1      42.539  55.445  17.560  1.00  0.00    -0.000 C 
BRANCH  11  12
ATOM     12  C   UNL     1      42.986  54.129  16.905  1.00  0.00    -0.003 C 
ATOM     13  C   UNL     1      42.416  53.942  15.499  1.00  0.00     0.004 C 
ENDBRANCH  11  12
ENDBRANCH  10  11
ENDBRANCH   9  10
ENDBRANCH   8   9
ENDBRANCH   1   8
TORSDOF 9
ENDMDL
MODEL 3
REMARK VINA RESULT:    -4.580      3.968      7.031
REMARK INTER + INTRA:          -7.275
REMARK INTER:                  -6.870
REMARK INTRA:                  -0.405
REMARK UNBOUND:                -0.286
REMARK SMILES CCCCCCCCCCC(=O)[O-]
REMARK SMILES IDX 7 1 8 2 9 3 10 4 11 5 12 6 13 7 6 8 5 9 4 10 3 11 2 12 1 13
REMARK H PARENT
REMARK Flexibility Score: inf
ROOT
ATOM      1  C   UNL     1      39.899  56.042  18.282  1.00  0.00     0.000 C 
ENDROOT
BRANCH   1   2
ATOM      2  C   UNL     1      38.887  57.146  17.945  1.00  0.00     0.000 C 
BRANCH   2   3
ATOM      3  C   UNL     1      37.862  56.707  16.887  1.00  0.00     0.006 C 
BRANCH   3   4
ATOM      4  C   UNL     1      36.546  57.489  16.978  1.00  0.00     0.053 C 
BRANCH   4   5
ATOM      5  C   UNL     1      35.529  56.910  16.047  1.00  0.00     0.041 C 
ATOM      6  O   UNL     1      34.345  56.728  16.434  1.00  0.00    -0.550 OA
ATOM      7  O   UNL     1      35.876  56.619  14.734  1.00  0.00    -0.550 OA
ENDBRANCH   4   5
ENDBRANCH   3   4
ENDBRANCH   2   3
ENDBRANCH   1   2
BRANCH   1   8
ATOM      8  C   UNL     1      41.032  56.000  17.249  1.00  0.00     0.000 C 
BRANCH   8   9
ATOM      9  C   UNL     1      42.286  55.332  17.834  1.00  0.00    -0.000 C 
BRANCH   9  10
ATOM     10  C   UNL     1      43.275  54.873  16.751  1.00  0.00    -0.000 C 
BRANCH  10  11
ATOM     11  C   UNL     1      42.890  53.516  16.137  1.00  0.00    -0.000 C 
BRANCH  11  12
ATOM     12  C   UNL     1      42.836  53.559  14.601  1.00  0.00    -0.003 C 
ATOM     13  C   UNL     1      41.410  53.662  14.061  1.00  0.00     0.004 C 
ENDBRANCH  11  12
ENDBRANCH  10  11
ENDBRANCH   9  10
ENDBRANCH   8   9
ENDBRANCH   1   8
TORSDOF 9
ENDMDL
MODEL 4
REMARK VINA RESULT:    -4.572      3.813      7.583
REMARK INTER + INTRA:          -7.263
REMARK INTER:                  -6.965
REMARK INTRA:                  -0.298
REMARK UNBOUND:                -0.286
REMARK SMILES CCCCCCCCCCC(=O)[O-]
REMARK SMILES IDX 7 1 8 2 9 3 10 4 11 5 12 6 13 7 6 8 5 9 4 10 3 11 2 12 1 13
REMARK H PARENT
REMARK Flexibility Score: inf
ROOT
ATOM      1  C   UNL     1      40.060  56.055  18.373  1.00  0.00     0.000 C 
ENDROOT
BRANCH   1   2
ATOM      2  C   UNL     1      39.021  57.139  18.051  1.00  0.00     0.000 C 
BRANCH   2   3
ATOM      3  C   UNL     1      37.954  56.659  17.055  1.00  0.00     0.006 C 
BRANCH   3   4
ATOM      4  C   UNL     1      36.663  57.484  17.128  1.00  0.00     0.053 C 
BRANCH   4   5
ATOM      5  C   UNL     1      35.743  57.116  16.008  1.00  0.00     0.041 C 
ATOM      6  O   UNL     1      36.167  57.087  14.823  1.00  0.00    -0.550 OA
ATOM      7  O   UNL     1      34.429  56.755  16.278  1.00  0.00    -0.550 OA
ENDBRANCH   4   5
ENDBRANCH   3   4
ENDBRANCH   2   3
ENDBRANCH   1   2
BRANCH   1   8
ATOM      8  C   UNL     1      41.097  55.935  17.249  1.00  0.00     0.000 C 
BRANCH   8   9
ATOM      9  C   UNL     1      42.375  55.248  17.751  1.00  0.00    -0.000 C 
BRANCH   9  10
ATOM     10  C   UNL     1      42.834  54.103  16.834  1.00  0.00    -0.000 C 
BRANCH  10  11
ATOM     11  C   UNL     1      44.065  54.478  15.991  1.00  0.00    -0.000 C 
BRANCH  11  12
ATOM     12  C   UNL     1      44.915  55.578  16.648  1.00  0.00    -0.003 C 
ATOM     13  C   UNL     1      46.212  55.857  15.889  1.00  0.00     0.004 C 
ENDBRANCH  11  12
ENDBRANCH  10  11
ENDBRANCH   9  10
ENDBRANCH   8   9
ENDBRANCH   1   8
TORSDOF 9
ENDMDL
MODEL 5
REMARK VINA RESULT:    -4.560      1.369      1.637
REMARK INTER + INTRA:          -7.245
REMARK INTER:                  -6.918
REMARK INTRA:                  -0.327
REMARK UNBOUND:                -0.286
REMARK SMILES CCCCCCCCCCC(=O)[O-]
REMARK SMILES IDX 7 1 8 2 9 3 10 4 11 5 12 6 13 7 6 8 5 9 4 10 3 11 2 12 1 13
REMARK H PARENT
REMARK Flexibility Score: inf
ROOT
ATOM      1  C   UNL     1      40.913  56.004  17.123  1.00  0.00     0.000 C 
ENDROOT
BRANCH   1   2
ATOM      2  C   UNL     1      42.005  55.384  18.007  1.00  0.00     0.000 C 
BRANCH   2   3
ATOM      3  C   UNL     1      43.258  54.988  17.210  1.00  0.00     0.006 C 
BRANCH   3   4
ATOM      4  C   UNL     1      43.067  53.691  16.414  1.00  0.00     0.053 C 
BRANCH   4   5
ATOM      5  C   UNL     1      43.879  53.725  15.158  1.00  0.00     0.041 C 
ATOM      6  O   UNL     1      44.706  52.808  14.913  1.00  0.00    -0.550 OA
ATOM      7  O   UNL     1      43.685  54.742  14.233  1.00  0.00    -0.550 OA
ENDBRANCH   4   5
ENDBRANCH   3   4
ENDBRANCH   2   3
ENDBRANCH   1   2
BRANCH   1   8
ATOM      8  C   UNL     1      39.742  56.515  17.973  1.00  0.00     0.000 C 
BRANCH   8   9
ATOM      9  C   UNL     1      38.419  56.424  17.197  1.00  0.00    -0.000 C 
BRANCH   9  10
ATOM     10  C   UNL     1      37.430  57.538  17.576  1.00  0.00    -0.000 C 
BRANCH  10  11
ATOM     11  C   UNL     1      36.201  57.578  16.653  1.00  0.00    -0.000 C 
BRANCH  11  12
ATOM     12  C   UNL     1      36.493  56.996  15.260  1.00  0.00    -0.003 C 
ATOM     13  C   UNL     1      36.152  57.965  14.129  1.00  0.00     0.004 C 
ENDBRANCH  11  12
ENDBRANCH  10  11
ENDBRANCH   9  10
ENDBRANCH   8   9
ENDBRANCH   1   8
TORSDOF 9
ENDMDL
MODEL 6
REMARK VINA RESULT:    -4.527      5.260      8.397
REMARK INTER + INTRA:          -7.194
REMARK INTER:                  -6.865
REMARK INTRA:                  -0.329
REMARK UNBOUND:                -0.286
REMARK SMILES CCCCCCCCCCC(=O)[O-]
REMARK SMILES IDX 7 1 8 2 9 3 10 4 11 5 12 6 13 7 6 8 5 9 4 10 3 11 2 12 1 13
REMARK H PARENT
REMARK Flexibility Score: inf
ROOT
ATOM      1  C   UNL     1      36.208  57.816  15.497  1.00  0.00     0.000 C 
ENDROOT
BRANCH   1   2
ATOM      2  C   UNL     1      34.903  57.289  14.883  1.00  0.00     0.000 C 
BRANCH   2   3
ATOM      3  C   UNL     1      34.170  56.302  15.806  1.00  0.00     0.006 C 
BRANCH   3   4
ATOM      4  C   UNL     1      32.673  56.200  15.492  1.00  0.00     0.053 C 
BRANCH   4   5
ATOM      5  C   UNL     1      31.873  56.200  16.756  1.00  0.00     0.041 C 
ATOM      6  O   UNL     1      31.991  55.256  17.581  1.00  0.00    -0.550 OA
ATOM      7  O   UNL     1      31.035  57.268  17.048  1.00  0.00    -0.550 OA
ENDBRANCH   4   5
ENDBRANCH   3   4
ENDBRANCH   2   3
ENDBRANCH   1   2
BRANCH   1   8
ATOM      8  C   UNL     1      36.514  57.113  16.826  1.00  0.00     0.000 C 
BRANCH   8   9
ATOM      9  C   UNL     1      37.957  56.586  16.850  1.00  0.00    -0.000 C 
BRANCH   9  10
ATOM     10  C   UNL     1      38.760  57.111  18.051  1.00  0.00    -0.000 C 
BRANCH  10  11
ATOM     11  C   UNL     1      39.981  56.233  18.374  1.00  0.00    -0.000 C 
BRANCH  11  12
ATOM     12  C   UNL     1      40.847  55.951  17.136  1.00  0.00    -0.003 C 
ATOM     13  C   UNL     1      42.229  55.403  17.492  1.00  0.00     0.004 C 
ENDBRANCH  11  12
ENDBRANCH  10  11
ENDBRANCH   9  10
ENDBRANCH   8   9
ENDBRANCH   1   8
TORSDOF 9
ENDMDL
MODEL 7
REMARK VINA RESULT:    -4.457      1.759      3.479
REMARK INTER + INTRA:          -7.088
REMARK INTER:                  -6.745
REMARK INTRA:                  -0.343
REMARK UNBOUND:                -0.286
REMARK SMILES CCCCCCCCCCC(=O)[O-]
REMARK SMILES IDX 7 1 8 2 9 3 10 4 11 5 12 6 13 7 6 8 5 9 4 10 3 11 2 12 1 13
REMARK H PARENT
REMARK Flexibility Score: inf
ROOT
ATOM      1  C   UNL     1      42.880  54.189  16.902  1.00  0.00     0.000 C 
ENDROOT
BRANCH   1   2
ATOM      2  C   UNL     1      44.144  54.391  16.053  1.00  0.00     0.000 C 
BRANCH   2   3
ATOM      3  C   UNL     1      44.823  55.744  16.315  1.00  0.00     0.006 C 
BRANCH   3   4
ATOM      4  C   UNL     1      46.042  55.979  15.414  1.00  0.00     0.053 C 
BRANCH   4   5
ATOM      5  C   UNL     1      47.308  55.777  16.184  1.00  0.00     0.041 C 
ATOM      6  O   UNL     1      48.417  55.760  15.587  1.00  0.00    -0.550 OA
ATOM      7  O   UNL     1      47.268  55.658  17.567  1.00  0.00    -0.550 OA
ENDBRANCH   4   5
ENDBRANCH   3   4
ENDBRANCH   2   3
ENDBRANCH   1   2
BRANCH   1   8
ATOM      8  C   UNL     1      42.464  55.497  17.587  1.00  0.00     0.000 C 
BRANCH   8   9
ATOM      9  C   UNL     1      41.054  55.922  17.149  1.00  0.00    -0.000 C 
BRANCH   9  10
ATOM     10  C   UNL     1      40.084  56.074  18.332  1.00  0.00    -0.000 C 
BRANCH  10  11
ATOM     11  C   UNL     1      38.967  57.094  18.054  1.00  0.00    -0.000 C 
BRANCH  11  12
ATOM     12  C   UNL     1      38.061  56.671  16.886  1.00  0.00    -0.003 C 
ATOM     13  C   UNL     1      36.627  57.178  17.035  1.00  0.00     0.004 C 
ENDBRANCH  11  12
ENDBRANCH  10  11
ENDBRANCH   9  10
ENDBRANCH   8   9
ENDBRANCH   1   8
TORSDOF 9
ENDMDL
MODEL 8
REMARK VINA RESULT:    -4.336      5.923      8.793
REMARK INTER + INTRA:          -6.903
REMARK INTER:                  -6.291
REMARK INTRA:                  -0.612
REMARK UNBOUND:                -0.286
REMARK SMILES CCCCCCCCCCC(=O)[O-]
REMARK SMILES IDX 7 1 8 2 9 3 10 4 11 5 12 6 13 7 6 8 5 9 4 10 3 11 2 12 1 13
REMARK H PARENT
REMARK Flexibility Score: inf
ROOT
ATOM      1  C   UNL     1      34.384  57.168  14.145  1.00  0.00     0.000 C 
ENDROOT
BRANCH   1   2
ATOM      2  C   UNL     1      34.133  55.660  14.287  1.00  0.00     0.000 C 
BRANCH   2   3
ATOM      3  C   UNL     1      32.736  55.341  14.843  1.00  0.00     0.006 C 
BRANCH   3   4
ATOM      4  C   UNL     1      32.501  55.942  16.234  1.00  0.00     0.053 C 
BRANCH   4   5
ATOM      5  C   UNL     1      31.242  56.749  16.250  1.00  0.00     0.041 C 
ATOM      6  O   UNL     1      30.882  57.343  17.300  1.00  0.00    -0.550 OA
ATOM      7  O   UNL     1      30.492  56.888  15.089  1.00  0.00    -0.550 OA
ENDBRANCH   4   5
ENDBRANCH   3   4
ENDBRANCH   2   3
ENDBRANCH   1   2
BRANCH   1   8
ATOM      8  C   UNL     1      35.850  57.511  14.440  1.00  0.00     0.000 C 
BRANCH   8   9
ATOM      9  C   UNL     1      35.997  58.147  15.831  1.00  0.00    -0.000 C 
BRANCH   9  10
ATOM     10  C   UNL     1      36.421  57.133  16.906  1.00  0.00    -0.000 C 
BRANCH  10  11
ATOM     11  C   UNL     1      37.890  56.698  16.761  1.00  0.00    -0.000 C 
BRANCH  11  12
ATOM     12  C   UNL     1      38.737  57.069  17.989  1.00  0.00    -0.003 C 
ATOM     13  C   UNL     1      39.947  56.153  18.173  1.00  0.00     0.004 C 
ENDBRANCH  11  12
ENDBRANCH  10  11
ENDBRANCH   9  10
ENDBRANCH   8   9
ENDBRANCH   1   8
TORSDOF 9
ENDMDL
MODEL 9
REMARK VINA RESULT:    -4.296      3.293      5.690
REMARK INTER + INTRA:          -6.841
REMARK INTER:                  -6.204
REMARK INTRA:                  -0.637
REMARK UNBOUND:                -0.286
REMARK SMILES CCCCCCCCCCC(=O)[O-]
REMARK SMILES IDX 7 1 8 2 9 3 10 4 11 5 12 6 13 7 6 8 5 9 4 10 3 11 2 12 1 13
REMARK H PARENT
REMARK Flexibility Score: inf
ROOT
ATOM      1  C   UNL     1      44.802  54.514  14.971  1.00  0.00     0.000 C 
ENDROOT
BRANCH   1   2
ATOM      2  C   UNL     1      46.191  53.930  14.674  1.00  0.00     0.000 C 
BRANCH   2   3
ATOM      3  C   UNL     1      47.316  54.673  15.411  1.00  0.00     0.006 C 
BRANCH   3   4
ATOM      4  C   UNL     1      46.833  55.970  16.074  1.00  0.00     0.053 C 
BRANCH   4   5
ATOM      5  C   UNL     1      47.636  56.260  17.301  1.00  0.00     0.041 C 
ATOM      6  O   UNL     1      48.148  55.317  17.962  1.00  0.00    -0.550 OA
ATOM      7  O   UNL     1      47.863  57.574  17.689  1.00  0.00    -0.550 OA
ENDBRANCH   4   5
ENDBRANCH   3   4
ENDBRANCH   2   3
ENDBRANCH   1   2
BRANCH   1   8
ATOM      8  C   UNL     1      43.762  53.398  15.143  1.00  0.00     0.000 C 
BRANCH   8   9
ATOM      9  C   UNL     1      42.737  53.765  16.227  1.00  0.00    -0.000 C 
BRANCH   9  10
ATOM     10  C   UNL     1      43.285  54.779  17.244  1.00  0.00    -0.000 C 
BRANCH  10  11
ATOM     11  C   UNL     1      42.172  55.462  18.057  1.00  0.00    -0.000 C 
BRANCH  11  12
ATOM     12  C   UNL     1      40.994  55.913  17.178  1.00  0.00    -0.003 C 
ATOM     13  C   UNL     1      39.776  56.344  17.995  1.00  0.00     0.004 C 
ENDBRANCH  11  12
ENDBRANCH  10  11
ENDBRANCH   9  10
ENDBRANCH   8   9
ENDBRANCH   1   8
TORSDOF 9
ENDMDL
