MODEL 1
REMARK VINA RESULT:    -4.724      0.000      0.000
REMARK INTER + INTRA:          -5.929
REMARK INTER:                  -5.690
REMARK INTRA:                  -0.239
REMARK UNBOUND:                -0.239
REMARK SMILES O=c1ccn([C@@H]2O[C@H](CO)[C@H](O)[C@@H]2O)c(=O)[nH]1
REMARK SMILES IDX 6 1 13 2 11 3 8 4 7 5 5 6 3 7 4 8 2 9 17 10 1 11 15 12 16 14
REMARK SMILES IDX 14 15 12 17 9 19 10 20
REMARK H PARENT 17 13 14 16 12 18 10 21
REMARK Flexibility Score: inf
ROOT
ATOM      1  C   UNL     1      13.338  -3.377  -2.795  1.00  0.00     0.255 C 
ATOM      2  C   UNL     1      12.763  -4.312  -3.872  1.00  0.00     0.196 C 
ATOM      3  C   UNL     1      11.639  -5.031  -3.156  1.00  0.00     0.179 C 
ATOM      4  C   UNL     1      11.297  -4.033  -2.053  1.00  0.00     0.178 C 
ATOM      5  O   UNL     1      12.487  -3.387  -1.664  1.00  0.00    -0.347 OA
ENDROOT
BRANCH   1   6
ATOM      6  N   UNL     1      14.715  -3.757  -2.405  1.00  0.00    -0.271 N 
ATOM      7  C   UNL     1      16.201  -4.965  -0.959  1.00  0.00     0.090 A 
ATOM      8  C   UNL     1      14.916  -4.572  -1.324  1.00  0.00     0.099 A 
ATOM      9  C   UNL     1      17.275  -4.525  -1.723  1.00  0.00     0.253 A 
ATOM     10  N   UNL     1      17.055  -3.733  -2.805  1.00  0.00    -0.274 N 
ATOM     11  O   UNL     1      18.449  -4.864  -1.416  1.00  0.00    -0.269 OA
ATOM     12  C   UNL     1      15.794  -3.355  -3.156  1.00  0.00     0.330 A 
ATOM     13  H   UNL     1      17.867  -3.414  -3.381  1.00  0.00     0.175 HD
ATOM     14  O   UNL     1      15.633  -2.638  -4.181  1.00  0.00    -0.248 OA
ENDBRANCH   1   6
BRANCH   2  15
ATOM     15  O   UNL     1      13.724  -5.201  -4.384  1.00  0.00    -0.386 OA
ATOM     16  H   UNL     1      13.265  -6.074  -4.505  1.00  0.00     0.211 HD
ENDBRANCH   2  15
BRANCH   3  17
ATOM     17  O   UNL     1      12.087  -6.249  -2.614  1.00  0.00    -0.387 OA
ATOM     18  H   UNL     1      13.007  -6.092  -2.278  1.00  0.00     0.211 HD
ENDBRANCH   3  17
BRANCH   4  19
ATOM     19  C   UNL     1      10.591  -4.652  -0.838  1.00  0.00     0.191 C 
BRANCH  19  20
ATOM     20  O   UNL     1      11.238  -4.288   0.350  1.00  0.00    -0.394 OA
ATOM     21  H   UNL     1      10.933  -3.367   0.558  1.00  0.00     0.210 HD
ENDBRANCH  19  20
ENDBRANCH   4  19
TORSDOF 5
ENDMDL
MODEL 2
REMARK VINA RESULT:    -4.660      2.507      5.747
REMARK INTER + INTRA:          -5.852
REMARK INTER:                  -5.454
REMARK INTRA:                  -0.398
REMARK UNBOUND:                -0.239
REMARK SMILES O=c1ccn([C@@H]2O[C@H](CO)[C@H](O)[C@@H]2O)c(=O)[nH]1
REMARK SMILES IDX 6 1 13 2 11 3 8 4 7 5 5 6 3 7 4 8 2 9 17 10 1 11 15 12 16 14
REMARK SMILES IDX 14 15 12 17 9 19 10 20
REMARK H PARENT 17 13 14 16 12 18 10 21
REMARK Flexibility Score: inf
ROOT
ATOM      1  C   UNL     1      17.148  -4.329  -4.401  1.00  0.00     0.255 C 
ATOM      2  C   UNL     1      17.302  -3.911  -5.874  1.00  0.00     0.196 C 
ATOM      3  C   UNL     1      18.125  -2.643  -5.799  1.00  0.00     0.179 C 
ATOM      4  C   UNL     1      18.850  -2.832  -4.470  1.00  0.00     0.178 C 
ATOM      5  O   UNL     1      17.989  -3.524  -3.597  1.00  0.00    -0.347 OA
ENDROOT
BRANCH   1   6
ATOM      6  N   UNL     1      15.745  -4.230  -3.938  1.00  0.00    -0.271 N 
ATOM      7  C   UNL     1      13.970  -2.942  -2.964  1.00  0.00     0.090 A 
ATOM      8  C   UNL     1      15.293  -3.065  -3.379  1.00  0.00     0.099 A 
ATOM      9  C   UNL     1      13.112  -4.019  -3.143  1.00  0.00     0.253 A 
ATOM     10  N   UNL     1      13.572  -5.160  -3.719  1.00  0.00    -0.274 N 
ATOM     11  O   UNL     1      11.909  -3.937  -2.776  1.00  0.00    -0.269 OA
ATOM     12  C   UNL     1      14.868  -5.272  -4.124  1.00  0.00     0.330 A 
ATOM     13  H   UNL     1      12.918  -5.964  -3.860  1.00  0.00     0.175 HD
ATOM     14  O   UNL     1      15.247  -6.342  -4.675  1.00  0.00    -0.248 OA
ENDBRANCH   1   6
BRANCH   2  15
ATOM     15  O   UNL     1      16.064  -3.707  -6.509  1.00  0.00    -0.386 OA
ATOM     16  H   UNL     1      15.628  -2.948  -6.040  1.00  0.00     0.211 HD
ENDBRANCH   2  15
BRANCH   3  17
ATOM     17  O   UNL     1      17.297  -1.507  -5.766  1.00  0.00    -0.387 OA
ATOM     18  H   UNL     1      17.893  -0.716  -5.836  1.00  0.00     0.211 HD
ENDBRANCH   3  17
BRANCH   4  19
ATOM     19  C   UNL     1      19.342  -1.527  -3.828  1.00  0.00     0.191 C 
BRANCH  19  20
ATOM     20  O   UNL     1      18.264  -0.768  -3.357  1.00  0.00    -0.394 OA
ATOM     21  H   UNL     1      17.447  -1.296  -3.557  1.00  0.00     0.210 HD
ENDBRANCH  19  20
ENDBRANCH   4  19
TORSDOF 5
ENDMDL
MODEL 3
REMARK VINA RESULT:    -4.593      1.930      5.043
REMARK INTER + INTRA:          -5.771
REMARK INTER:                  -5.352
REMARK INTRA:                  -0.419
REMARK UNBOUND:                -0.239
REMARK SMILES O=c1ccn([C@@H]2O[C@H](CO)[C@H](O)[C@@H]2O)c(=O)[nH]1
REMARK SMILES IDX 6 1 13 2 11 3 8 4 7 5 5 6 3 7 4 8 2 9 17 10 1 11 15 12 16 14
REMARK SMILES IDX 14 15 12 17 9 19 10 20
REMARK H PARENT 17 13 14 16 12 18 10 21
REMARK Flexibility Score: inf
ROOT
ATOM      1  C   UNL     1      15.163  -3.752  -2.198  1.00  0.00     0.255 C 
ATOM      2  C   UNL     1      15.805  -5.139  -2.376  1.00  0.00     0.196 C 
ATOM      3  C   UNL     1      16.199  -5.163  -3.837  1.00  0.00     0.179 C 
ATOM      4  C   UNL     1      16.336  -3.674  -4.138  1.00  0.00     0.178 C 
ATOM      5  O   UNL     1      15.383  -2.983  -3.365  1.00  0.00    -0.347 OA
ENDROOT
BRANCH   1   6
ATOM      6  N   UNL     1      13.715  -3.842  -1.906  1.00  0.00    -0.271 N 
ATOM      7  C   UNL     1      11.444  -3.899  -2.681  1.00  0.00     0.090 A 
ATOM      8  C   UNL     1      12.809  -3.787  -2.931  1.00  0.00     0.099 A 
ATOM      9  C   UNL     1      11.019  -4.085  -1.371  1.00  0.00     0.253 A 
ATOM     10  N   UNL     1      11.933  -4.158  -0.369  1.00  0.00    -0.274 N 
ATOM     11  O   UNL     1       9.790  -4.189  -1.115  1.00  0.00    -0.269 OA
ATOM     12  C   UNL     1      13.267  -4.049  -0.623  1.00  0.00     0.330 A 
ATOM     13  H   UNL     1      11.607  -4.307   0.613  1.00  0.00     0.175 HD
ATOM     14  O   UNL     1      14.083  -4.145   0.335  1.00  0.00    -0.248 OA
ENDBRANCH   1   6
BRANCH   2  15
ATOM     15  O   UNL     1      14.928  -6.187  -2.042  1.00  0.00    -0.386 OA
ATOM     16  H   UNL     1      15.408  -7.032  -2.246  1.00  0.00     0.211 HD
ENDBRANCH   2  15
BRANCH   3  17
ATOM     17  O   UNL     1      15.187  -5.746  -4.622  1.00  0.00    -0.387 OA
ATOM     18  H   UNL     1      15.162  -6.710  -4.388  1.00  0.00     0.211 HD
ENDBRANCH   3  17
BRANCH   4  19
ATOM     19  C   UNL     1      16.196  -3.313  -5.624  1.00  0.00     0.191 C 
BRANCH  19  20
ATOM     20  O   UNL     1      14.894  -2.885  -5.910  1.00  0.00    -0.394 OA
ATOM     21  H   UNL     1      14.676  -3.248  -6.808  1.00  0.00     0.210 HD
ENDBRANCH  19  20
ENDBRANCH   4  19
TORSDOF 5
ENDMDL
MODEL 4
REMARK VINA RESULT:    -4.509     10.522     11.620
REMARK INTER + INTRA:          -5.671
REMARK INTER:                  -5.311
REMARK INTRA:                  -0.359
REMARK UNBOUND:                -0.239
REMARK SMILES O=c1ccn([C@@H]2O[C@H](CO)[C@H](O)[C@@H]2O)c(=O)[nH]1
REMARK SMILES IDX 6 1 13 2 11 3 8 4 7 5 5 6 3 7 4 8 2 9 17 10 1 11 15 12 16 14
REMARK SMILES IDX 14 15 12 17 9 19 10 20
REMARK H PARENT 17 13 14 16 12 18 10 21
REMARK Flexibility Score: inf
ROOT
ATOM      1  C   UNL     1      15.424   5.500  -9.354  1.00  0.00     0.255 C 
ATOM      2  C   UNL     1      14.872   5.472 -10.790  1.00  0.00     0.196 C 
ATOM      3  C   UNL     1      13.673   4.553 -10.692  1.00  0.00     0.179 C 
ATOM      4  C   UNL     1      13.312   4.684  -9.216  1.00  0.00     0.178 C 
ATOM      5  O   UNL     1      14.505   4.861  -8.488  1.00  0.00    -0.347 OA
ENDROOT
BRANCH   1   6
ATOM      6  N   UNL     1      16.754   4.857  -9.257  1.00  0.00    -0.271 N 
ATOM      7  C   UNL     1      18.086   2.891  -8.908  1.00  0.00     0.090 A 
ATOM      8  C   UNL     1      16.846   3.521  -8.975  1.00  0.00     0.099 A 
ATOM      9  C   UNL     1      19.229   3.644  -9.148  1.00  0.00     0.253 A 
ATOM     10  N   UNL     1      19.118   4.964  -9.447  1.00  0.00    -0.274 N 
ATOM     11  O   UNL     1      20.365   3.101  -9.093  1.00  0.00    -0.269 OA
ATOM     12  C   UNL     1      17.900   5.572  -9.512  1.00  0.00     0.330 A 
ATOM     13  H   UNL     1      19.982   5.522  -9.636  1.00  0.00     0.175 HD
ATOM     14  O   UNL     1      17.842   6.795  -9.815  1.00  0.00    -0.248 OA
ENDBRANCH   1   6
BRANCH   2  15
ATOM     15  O   UNL     1      15.819   5.016 -11.724  1.00  0.00    -0.386 OA
ATOM     16  H   UNL     1      16.214   4.188 -11.343  1.00  0.00     0.211 HD
ENDBRANCH   2  15
BRANCH   3  17
ATOM     17  O   UNL     1      14.027   3.229 -11.010  1.00  0.00    -0.387 OA
ATOM     18  H   UNL     1      15.019   3.188 -11.000  1.00  0.00     0.211 HD
ENDBRANCH   3  17
BRANCH   4  19
ATOM     19  C   UNL     1      12.503   3.505  -8.656  1.00  0.00     0.191 C 
BRANCH  19  20
ATOM     20  O   UNL     1      11.368   3.264  -9.440  1.00  0.00    -0.394 OA
ATOM     21  H   UNL     1      11.618   3.507 -10.369  1.00  0.00     0.210 HD
ENDBRANCH  19  20
ENDBRANCH   4  19
TORSDOF 5
ENDMDL
MODEL 5
REMARK VINA RESULT:    -4.383      2.349      2.664
REMARK INTER + INTRA:          -5.518
REMARK INTER:                  -5.151
REMARK INTRA:                  -0.367
REMARK UNBOUND:                -0.239
REMARK SMILES O=c1ccn([C@@H]2O[C@H](CO)[C@H](O)[C@@H]2O)c(=O)[nH]1
REMARK SMILES IDX 6 1 13 2 11 3 8 4 7 5 5 6 3 7 4 8 2 9 17 10 1 11 15 12 16 14
REMARK SMILES IDX 14 15 12 17 9 19 10 20
REMARK H PARENT 17 13 14 16 12 18 10 21
REMARK Flexibility Score: inf
ROOT
ATOM      1  C   UNL     1      14.825  -3.685  -2.687  1.00  0.00     0.255 C 
ATOM      2  C   UNL     1      13.566  -3.011  -3.260  1.00  0.00     0.196 C 
ATOM      3  C   UNL     1      12.469  -3.441  -2.311  1.00  0.00     0.179 C 
ATOM      4  C   UNL     1      13.265  -3.732  -1.042  1.00  0.00     0.178 C 
ATOM      5  O   UNL     1      14.523  -4.240  -1.421  1.00  0.00    -0.347 OA
ENDROOT
BRANCH   1   6
ATOM      6  N   UNL     1      15.359  -4.729  -3.592  1.00  0.00    -0.271 N 
ATOM      7  C   UNL     1      15.417  -7.019  -4.307  1.00  0.00     0.090 A 
ATOM      8  C   UNL     1      14.950  -6.027  -3.449  1.00  0.00     0.099 A 
ATOM      9  C   UNL     1      16.294  -6.661  -5.324  1.00  0.00     0.253 A 
ATOM     10  N   UNL     1      16.673  -5.364  -5.464  1.00  0.00    -0.274 N 
ATOM     11  O   UNL     1      16.734  -7.538  -6.115  1.00  0.00    -0.269 OA
ATOM     12  C   UNL     1      16.210  -4.400  -4.620  1.00  0.00     0.330 A 
ATOM     13  H   UNL     1      17.326  -5.101  -6.237  1.00  0.00     0.175 HD
ATOM     14  O   UNL     1      16.569  -3.204  -4.800  1.00  0.00    -0.248 OA
ENDBRANCH   1   6
BRANCH   2  15
ATOM     15  O   UNL     1      13.305  -3.396  -4.588  1.00  0.00    -0.386 OA
ATOM     16  H   UNL     1      14.090  -3.926  -4.887  1.00  0.00     0.211 HD
ENDBRANCH   2  15
BRANCH   3  17
ATOM     17  O   UNL     1      11.825  -4.601  -2.779  1.00  0.00    -0.387 OA
ATOM     18  H   UNL     1      11.909  -4.596  -3.768  1.00  0.00     0.211 HD
ENDBRANCH   3  17
BRANCH   4  19
ATOM     19  C   UNL     1      12.566  -4.685  -0.062  1.00  0.00     0.191 C 
BRANCH  19  20
ATOM     20  O   UNL     1      11.276  -4.231   0.239  1.00  0.00    -0.394 OA
ATOM     21  H   UNL     1      10.701  -5.039   0.274  1.00  0.00     0.210 HD
ENDBRANCH  19  20
ENDBRANCH   4  19
TORSDOF 5
ENDMDL
MODEL 6
REMARK VINA RESULT:    -4.311     11.215     12.688
REMARK INTER + INTRA:          -5.432
REMARK INTER:                  -5.040
REMARK INTRA:                  -0.392
REMARK UNBOUND:                -0.239
REMARK SMILES O=c1ccn([C@@H]2O[C@H](CO)[C@H](O)[C@@H]2O)c(=O)[nH]1
REMARK SMILES IDX 6 1 13 2 11 3 8 4 7 5 5 6 3 7 4 8 2 9 17 10 1 11 15 12 16 14
REMARK SMILES IDX 14 15 12 17 9 19 10 20
REMARK H PARENT 17 13 14 16 12 18 10 21
REMARK Flexibility Score: inf
ROOT
ATOM      1  C   UNL     1      14.963   5.475 -11.199  1.00  0.00     0.255 C 
ATOM      2  C   UNL     1      14.962   4.058 -11.798  1.00  0.00     0.196 C 
ATOM      3  C   UNL     1      14.198   3.241 -10.777  1.00  0.00     0.179 C 
ATOM      4  C   UNL     1      13.349   4.316 -10.105  1.00  0.00     0.178 C 
ATOM      5  O   UNL     1      14.094   5.511 -10.083  1.00  0.00    -0.347 OA
ENDROOT
BRANCH   1   6
ATOM      6  N   UNL     1      16.322   5.913 -10.807  1.00  0.00    -0.271 N 
ATOM      7  C   UNL     1      18.047   6.080  -9.147  1.00  0.00     0.090 A 
ATOM      8  C   UNL     1      16.762   5.702  -9.528  1.00  0.00     0.099 A 
ATOM      9  C   UNL     1      18.880   6.661 -10.095  1.00  0.00     0.253 A 
ATOM     10  N   UNL     1      18.433   6.843 -11.365  1.00  0.00    -0.274 N 
ATOM     11  O   UNL     1      20.047   7.014  -9.779  1.00  0.00    -0.269 OA
ATOM     12  C   UNL     1      17.175   6.469 -11.730  1.00  0.00     0.330 A 
ATOM     13  H   UNL     1      19.069   7.272 -12.076  1.00  0.00     0.175 HD
ATOM     14  O   UNL     1      16.809   6.636 -12.925  1.00  0.00    -0.248 OA
ENDBRANCH   1   6
BRANCH   2  15
ATOM     15  O   UNL     1      16.260   3.563 -12.014  1.00  0.00    -0.386 OA
ATOM     16  H   UNL     1      16.876   4.156 -11.508  1.00  0.00     0.211 HD
ENDBRANCH   2  15
BRANCH   3  17
ATOM     17  O   UNL     1      15.075   2.641  -9.855  1.00  0.00    -0.387 OA
ATOM     18  H   UNL     1      15.935   3.133  -9.916  1.00  0.00     0.211 HD
ENDBRANCH   3  17
BRANCH   4  19
ATOM     19  C   UNL     1      12.866   3.949  -8.694  1.00  0.00     0.191 C 
BRANCH  19  20
ATOM     20  O   UNL     1      12.344   2.649  -8.670  1.00  0.00    -0.394 OA
ATOM     21  H   UNL     1      11.936   2.500  -9.562  1.00  0.00     0.210 HD
ENDBRANCH  19  20
ENDBRANCH   4  19
TORSDOF 5
ENDMDL
MODEL 7
REMARK VINA RESULT:    -4.245      2.443      3.766
REMARK INTER + INTRA:          -5.353
REMARK INTER:                  -4.931
REMARK INTRA:                  -0.422
REMARK UNBOUND:                -0.239
REMARK SMILES O=c1ccn([C@@H]2O[C@H](CO)[C@H](O)[C@@H]2O)c(=O)[nH]1
REMARK SMILES IDX 6 1 13 2 11 3 8 4 7 5 5 6 3 7 4 8 2 9 17 10 1 11 15 12 16 14
REMARK SMILES IDX 14 15 12 17 9 19 10 20
REMARK H PARENT 17 13 14 16 12 18 10 21
REMARK Flexibility Score: inf
ROOT
ATOM      1  C   UNL     1      12.363  -5.253  -0.966  1.00  0.00     0.255 C 
ATOM      2  C   UNL     1      12.188  -6.765  -1.198  1.00  0.00     0.196 C 
ATOM      3  C   UNL     1      13.079  -7.391  -0.147  1.00  0.00     0.179 C 
ATOM      4  C   UNL     1      13.133  -6.284   0.902  1.00  0.00     0.178 C 
ATOM      5  O   UNL     1      13.085  -5.045   0.233  1.00  0.00    -0.347 OA
ENDROOT
BRANCH   1   6
ATOM      6  N   UNL     1      13.048  -4.593  -2.101  1.00  0.00    -0.271 N 
ATOM      7  C   UNL     1      15.059  -3.738  -3.094  1.00  0.00     0.090 A 
ATOM      8  C   UNL     1      14.390  -4.332  -2.027  1.00  0.00     0.099 A 
ATOM      9  C   UNL     1      14.340  -3.429  -4.242  1.00  0.00     0.253 A 
ATOM     10  N   UNL     1      13.014  -3.713  -4.305  1.00  0.00    -0.274 N 
ATOM     11  O   UNL     1      14.919  -2.889  -5.222  1.00  0.00    -0.269 OA
ATOM     12  C   UNL     1      12.367  -4.296  -3.257  1.00  0.00     0.330 A 
ATOM     13  H   UNL     1      12.481  -3.486  -5.176  1.00  0.00     0.175 HD
ATOM     14  O   UNL     1      11.139  -4.563  -3.367  1.00  0.00    -0.248 OA
ENDBRANCH   1   6
BRANCH   2  15
ATOM     15  O   UNL     1      12.543  -7.156  -2.501  1.00  0.00    -0.386 OA
ATOM     16  H   UNL     1      11.790  -6.887  -3.091  1.00  0.00     0.211 HD
ENDBRANCH   2  15
BRANCH   3  17
ATOM     17  O   UNL     1      14.359  -7.657  -0.667  1.00  0.00    -0.387 OA
ATOM     18  H   UNL     1      14.266  -7.686  -1.654  1.00  0.00     0.211 HD
ENDBRANCH   3  17
BRANCH   4  19
ATOM     19  C   UNL     1      14.353  -6.353   1.831  1.00  0.00     0.191 C 
BRANCH  19  20
ATOM     20  O   UNL     1      15.465  -5.743   1.237  1.00  0.00    -0.394 OA
ATOM     21  H   UNL     1      16.242  -6.326   1.443  1.00  0.00     0.210 HD
ENDBRANCH  19  20
ENDBRANCH   4  19
TORSDOF 5
ENDMDL
MODEL 8
REMARK VINA RESULT:    -4.182      2.137      5.374
REMARK INTER + INTRA:          -5.277
REMARK INTER:                  -5.422
REMARK INTRA:                   0.145
REMARK UNBOUND:                -0.239
REMARK SMILES O=c1ccn([C@@H]2O[C@H](CO)[C@H](O)[C@@H]2O)c(=O)[nH]1
REMARK SMILES IDX 6 1 13 2 11 3 8 4 7 5 5 6 3 7 4 8 2 9 17 10 1 11 15 12 16 14
REMARK SMILES IDX 14 15 12 17 9 19 10 20
REMARK H PARENT 17 13 14 16 12 18 10 21
REMARK Flexibility Score: inf
ROOT
ATOM      1  C   UNL     1      16.548  -3.756  -2.759  1.00  0.00     0.255 C 
ATOM      2  C   UNL     1      17.397  -4.936  -3.264  1.00  0.00     0.196 C 
ATOM      3  C   UNL     1      18.161  -4.349  -4.432  1.00  0.00     0.179 C 
ATOM      4  C   UNL     1      18.168  -2.866  -4.075  1.00  0.00     0.178 C 
ATOM      5  O   UNL     1      16.959  -2.570  -3.414  1.00  0.00    -0.347 OA
ENDROOT
BRANCH   1   6
ATOM      6  N   UNL     1      15.100  -3.983  -2.968  1.00  0.00    -0.271 N 
ATOM      7  C   UNL     1      12.979  -4.737  -2.136  1.00  0.00     0.090 A 
ATOM      8  C   UNL     1      14.347  -4.542  -1.971  1.00  0.00     0.099 A 
ATOM      9  C   UNL     1      12.388  -4.338  -3.329  1.00  0.00     0.253 A 
ATOM     10  N   UNL     1      13.147  -3.766  -4.300  1.00  0.00    -0.274 N 
ATOM     11  O   UNL     1      11.152  -4.503  -3.507  1.00  0.00    -0.269 OA
ATOM     12  C   UNL     1      14.485  -3.578  -4.129  1.00  0.00     0.330 A 
ATOM     13  H   UNL     1      12.694  -3.460  -5.191  1.00  0.00     0.175 HD
ATOM     14  O   UNL     1      15.148  -3.022  -5.047  1.00  0.00    -0.248 OA
ENDBRANCH   1   6
BRANCH   2  15
ATOM     15  O   UNL     1      16.614  -6.042  -3.639  1.00  0.00    -0.386 OA
ATOM     16  H   UNL     1      16.355  -6.502  -2.798  1.00  0.00     0.211 HD
ENDBRANCH   2  15
BRANCH   3  17
ATOM     17  O   UNL     1      17.480  -4.574  -5.642  1.00  0.00    -0.387 OA
ATOM     18  H   UNL     1      18.143  -4.950  -6.278  1.00  0.00     0.211 HD
ENDBRANCH   3  17
BRANCH   4  19
ATOM     19  C   UNL     1      18.376  -1.928  -5.273  1.00  0.00     0.191 C 
BRANCH  19  20
ATOM     20  O   UNL     1      17.148  -1.454  -5.751  1.00  0.00    -0.394 OA
ATOM     21  H   UNL     1      17.360  -0.679  -6.333  1.00  0.00     0.210 HD
ENDBRANCH  19  20
ENDBRANCH   4  19
TORSDOF 5
ENDMDL
MODEL 9
REMARK VINA RESULT:    -4.175     12.477     14.514
REMARK INTER + INTRA:          -5.268
REMARK INTER:                  -4.807
REMARK INTRA:                  -0.461
REMARK UNBOUND:                -0.239
REMARK SMILES O=c1ccn([C@@H]2O[C@H](CO)[C@H](O)[C@@H]2O)c(=O)[nH]1
REMARK SMILES IDX 6 1 13 2 11 3 8 4 7 5 5 6 3 7 4 8 2 9 17 10 1 11 15 12 16 14
REMARK SMILES IDX 14 15 12 17 9 19 10 20
REMARK H PARENT 17 13 14 16 12 18 10 21
REMARK Flexibility Score: inf
ROOT
ATOM      1  C   UNL     1      12.745  -1.747 -16.488  1.00  0.00     0.255 C 
ATOM      2  C   UNL     1      13.799  -0.634 -16.355  1.00  0.00     0.196 C 
ATOM      3  C   UNL     1      14.711  -1.137 -15.257  1.00  0.00     0.179 C 
ATOM      4  C   UNL     1      14.487  -2.644 -15.345  1.00  0.00     0.178 C 
ATOM      5  O   UNL     1      13.147  -2.865 -15.721  1.00  0.00    -0.347 OA
ENDROOT
BRANCH   1   6
ATOM      6  N   UNL     1      11.400  -1.292 -16.069  1.00  0.00    -0.271 N 
ATOM      7  C   UNL     1       9.718  -1.085 -14.369  1.00  0.00     0.090 A 
ATOM      8  C   UNL     1      10.968  -1.529 -14.792  1.00  0.00     0.099 A 
ATOM      9  C   UNL     1       8.923  -0.381 -15.265  1.00  0.00     0.253 A 
ATOM     10  N   UNL     1       9.376  -0.137 -16.522  1.00  0.00    -0.274 N 
ATOM     11  O   UNL     1       7.787   0.033 -14.911  1.00  0.00    -0.269 OA
ATOM     12  C   UNL     1      10.601  -0.574 -16.927  1.00  0.00     0.330 A 
ATOM     13  H   UNL     1       8.776   0.402 -17.188  1.00  0.00     0.175 HD
ATOM     14  O   UNL     1      10.992  -0.305 -18.096  1.00  0.00    -0.248 OA
ENDBRANCH   1   6
BRANCH   2  15
ATOM     15  O   UNL     1      13.230   0.615 -16.046  1.00  0.00    -0.386 OA
ATOM     16  H   UNL     1      12.248   0.511 -16.154  1.00  0.00     0.211 HD
ENDBRANCH   2  15
BRANCH   3  17
ATOM     17  O   UNL     1      14.310  -0.641 -14.003  1.00  0.00    -0.387 OA
ATOM     18  H   UNL     1      15.106  -0.679 -13.412  1.00  0.00     0.211 HD
ENDBRANCH   3  17
BRANCH   4  19
ATOM     19  C   UNL     1      14.825  -3.410 -14.058  1.00  0.00     0.191 C 
BRANCH  19  20
ATOM     20  O   UNL     1      13.758  -3.353 -13.152  1.00  0.00    -0.394 OA
ATOM     21  H   UNL     1      13.529  -2.392 -13.057  1.00  0.00     0.210 HD
ENDBRANCH  19  20
ENDBRANCH   4  19
TORSDOF 5
ENDMDL
