MODEL 1
REMARK VINA RESULT:     5.042      0.000      0.000
REMARK INTER + INTRA:          12.003
REMARK INTER:                  11.527
REMARK INTRA:                   0.476
REMARK UNBOUND:                 0.476
REMARK SMILES CCCCCCCCCCCCCCCCCCCCCCCC(=O)[O-]
REMARK SMILES IDX 13 1 14 2 15 3 16 4 17 5 18 6 19 7 20 8 21 9 22 10 23 11
REMARK SMILES IDX 24 12 25 13 26 14 12 15 11 16 10 17 9 18 8 19 7 20 6 21 5 22
REMARK SMILES IDX 4 23 3 24 2 25 1 26
REMARK H PARENT
REMARK Flexibility Score: inf
ROOT
ATOM      1  C   UNL     1       2.993 -37.990  21.549  1.00  0.00     0.000 C 
ENDROOT
BRANCH   1   2
ATOM      2  C   UNL     1       3.652 -38.952  22.554  1.00  0.00     0.000 C 
BRANCH   2   3
ATOM      3  C   UNL     1       5.045 -38.488  23.037  1.00  0.00     0.000 C 
BRANCH   3   4
ATOM      4  C   UNL     1       5.107 -36.973  23.297  1.00  0.00     0.000 C 
BRANCH   4   5
ATOM      5  C   UNL     1       4.865 -36.616  24.773  1.00  0.00     0.000 C 
BRANCH   5   6
ATOM      6  C   UNL     1       5.122 -37.800  25.718  1.00  0.00     0.000 C 
BRANCH   6   7
ATOM      7  C   UNL     1       3.997 -37.927  26.756  1.00  0.00     0.000 C 
BRANCH   7   8
ATOM      8  C   UNL     1       3.012 -36.748  26.705  1.00  0.00     0.000 C 
BRANCH   8   9
ATOM      9  C   UNL     1       1.664 -37.074  27.372  1.00  0.00     0.000 C 
BRANCH   9  10
ATOM     10  C   UNL     1       0.944 -35.825  27.913  1.00  0.00     0.006 C 
BRANCH  10  11
ATOM     11  C   UNL     1       1.803 -34.977  28.868  1.00  0.00     0.053 C 
BRANCH  11  12
ATOM     12  C   UNL     1       1.019 -33.885  29.531  1.00  0.00     0.041 C 
ATOM     13  O   UNL     1      -0.216 -34.022  29.730  1.00  0.00    -0.550 OA
ATOM     14  O   UNL     1       1.644 -32.696  29.889  1.00  0.00    -0.550 OA
ENDBRANCH  11  12
ENDBRANCH  10  11
ENDBRANCH   9  10
ENDBRANCH   8   9
ENDBRANCH   7   8
ENDBRANCH   6   7
ENDBRANCH   5   6
ENDBRANCH   4   5
ENDBRANCH   3   4
ENDBRANCH   2   3
ENDBRANCH   1   2
BRANCH   1  15
ATOM     15  C   UNL     1       3.867 -37.638  20.331  1.00  0.00     0.000 C 
BRANCH  15  16
ATOM     16  C   UNL     1       5.082 -36.746  20.673  1.00  0.00     0.000 C 
BRANCH  16  17
ATOM     17  C   UNL     1       4.723 -35.252  20.728  1.00  0.00     0.000 C 
BRANCH  17  18
ATOM     18  C   UNL     1       5.125 -34.500  19.450  1.00  0.00    -0.000 C 
BRANCH  18  19
ATOM     19  C   UNL     1       5.041 -35.382  18.194  1.00  0.00    -0.000 C 
BRANCH  19  20
ATOM     20  C   UNL     1       3.839 -34.982  17.324  1.00  0.00    -0.000 C 
BRANCH  20  21
ATOM     21  C   UNL     1       2.676 -35.982  17.418  1.00  0.00    -0.000 C 
BRANCH  21  22
ATOM     22  C   UNL     1       2.728 -37.058  16.320  1.00  0.00    -0.000 C 
BRANCH  22  23
ATOM     23  C   UNL     1       2.301 -36.515  14.945  1.00  0.00    -0.000 C 
BRANCH  23  24
ATOM     24  C   UNL     1       3.394 -36.683  13.876  1.00  0.00    -0.000 C 
BRANCH  24  25
ATOM     25  C   UNL     1       4.622 -37.440  14.406  1.00  0.00    -0.003 C 
ATOM     26  C   UNL     1       4.527 -38.949  14.182  1.00  0.00     0.004 C 
ENDBRANCH  24  25
ENDBRANCH  23  24
ENDBRANCH  22  23
ENDBRANCH  21  22
ENDBRANCH  20  21
ENDBRANCH  19  20
ENDBRANCH  18  19
ENDBRANCH  17  18
ENDBRANCH  16  17
ENDBRANCH  15  16
ENDBRANCH   1  15
TORSDOF 22
ENDMDL
MODEL 2
REMARK VINA RESULT:     5.319      4.691     10.831
REMARK INTER + INTRA:          12.634
REMARK INTER:                  13.496
REMARK INTRA:                  -0.862
REMARK UNBOUND:                 0.476
REMARK SMILES CCCCCCCCCCCCCCCCCCCCCCCC(=O)[O-]
REMARK SMILES IDX 13 1 14 2 15 3 16 4 17 5 18 6 19 7 20 8 21 9 22 10 23 11
REMARK SMILES IDX 24 12 25 13 26 14 12 15 11 16 10 17 9 18 8 19 7 20 6 21 5 22
REMARK SMILES IDX 4 23 3 24 2 25 1 26
REMARK H PARENT
REMARK Flexibility Score: inf
ROOT
ATOM      1  C   UNL     1       4.779 -37.419  22.731  1.00  0.00     0.000 C 
ENDROOT
BRANCH   1   2
ATOM      2  C   UNL     1       4.818 -35.914  22.409  1.00  0.00     0.000 C 
BRANCH   2   3
ATOM      3  C   UNL     1       4.483 -35.585  20.936  1.00  0.00     0.000 C 
BRANCH   3   4
ATOM      4  C   UNL     1       4.953 -36.681  19.964  1.00  0.00     0.000 C 
BRANCH   4   5
ATOM      5  C   UNL     1       3.830 -37.166  19.032  1.00  0.00     0.000 C 
BRANCH   5   6
ATOM      6  C   UNL     1       2.680 -37.842  19.793  1.00  0.00     0.000 C 
BRANCH   6   7
ATOM      7  C   UNL     1       1.364 -37.733  19.009  1.00  0.00     0.000 C 
BRANCH   7   8
ATOM      8  C   UNL     1       1.587 -37.662  17.489  1.00  0.00     0.000 C 
BRANCH   8   9
ATOM      9  C   UNL     1       1.033 -36.367  16.871  1.00  0.00     0.000 C 
BRANCH   9  10
ATOM     10  C   UNL     1       2.137 -35.371  16.472  1.00  0.00     0.006 C 
BRANCH  10  11
ATOM     11  C   UNL     1       3.462 -36.041  16.064  1.00  0.00     0.053 C 
BRANCH  11  12
ATOM     12  C   UNL     1       3.350 -36.802  14.778  1.00  0.00     0.041 C 
ATOM     13  O   UNL     1       2.566 -36.409  13.875  1.00  0.00    -0.550 OA
ATOM     14  O   UNL     1       4.078 -37.971  14.594  1.00  0.00    -0.550 OA
ENDBRANCH  11  12
ENDBRANCH  10  11
ENDBRANCH   9  10
ENDBRANCH   8   9
ENDBRANCH   7   8
ENDBRANCH   6   7
ENDBRANCH   5   6
ENDBRANCH   4   5
ENDBRANCH   3   4
ENDBRANCH   2   3
ENDBRANCH   1   2
BRANCH   1  15
ATOM     15  C   UNL     1       4.871 -37.757  24.230  1.00  0.00     0.000 C 
BRANCH  15  16
ATOM     16  C   UNL     1       5.035 -36.517  25.139  1.00  0.00     0.000 C 
BRANCH  16  17
ATOM     17  C   UNL     1       5.125 -36.883  26.630  1.00  0.00     0.000 C 
BRANCH  17  18
ATOM     18  C   UNL     1       4.039 -37.883  27.059  1.00  0.00    -0.000 C 
BRANCH  18  19
ATOM     19  C   UNL     1       2.719 -37.686  26.297  1.00  0.00    -0.000 C 
BRANCH  19  20
ATOM     20  C   UNL     1       1.520 -38.096  27.165  1.00  0.00    -0.000 C 
BRANCH  20  21
ATOM     21  C   UNL     1       1.250 -37.108  28.312  1.00  0.00    -0.000 C 
BRANCH  21  22
ATOM     22  C   UNL     1       1.580 -35.655  27.933  1.00  0.00    -0.000 C 
BRANCH  22  23
ATOM     23  C   UNL     1       2.025 -34.818  29.144  1.00  0.00    -0.000 C 
BRANCH  23  24
ATOM     24  C   UNL     1       0.940 -33.833  29.615  1.00  0.00    -0.000 C 
BRANCH  24  25
ATOM     25  C   UNL     1      -0.329 -33.901  28.750  1.00  0.00    -0.003 C 
ATOM     26  C   UNL     1      -1.593 -33.541  29.529  1.00  0.00     0.004 C 
ENDBRANCH  24  25
ENDBRANCH  23  24
ENDBRANCH  22  23
ENDBRANCH  21  22
ENDBRANCH  20  21
ENDBRANCH  19  20
ENDBRANCH  18  19
ENDBRANCH  17  18
ENDBRANCH  16  17
ENDBRANCH  15  16
ENDBRANCH   1  15
TORSDOF 22
ENDMDL
MODEL 3
REMARK VINA RESULT:     6.215      3.833      8.806
REMARK INTER + INTRA:          14.684
REMARK INTER:                  16.285
REMARK INTRA:                  -1.601
REMARK UNBOUND:                 0.476
REMARK SMILES CCCCCCCCCCCCCCCCCCCCCCCC(=O)[O-]
REMARK SMILES IDX 13 1 14 2 15 3 16 4 17 5 18 6 19 7 20 8 21 9 22 10 23 11
REMARK SMILES IDX 24 12 25 13 26 14 12 15 11 16 10 17 9 18 8 19 7 20 6 21 5 22
REMARK SMILES IDX 4 23 3 24 2 25 1 26
REMARK H PARENT
REMARK Flexibility Score: inf
ROOT
ATOM      1  C   UNL     1       3.565 -38.072  21.877  1.00  0.00     0.000 C 
ENDROOT
BRANCH   1   2
ATOM      2  C   UNL     1       3.655 -37.717  20.381  1.00  0.00     0.000 C 
BRANCH   2   3
ATOM      3  C   UNL     1       4.955 -36.975  19.996  1.00  0.00     0.000 C 
BRANCH   3   4
ATOM      4  C   UNL     1       4.877 -36.328  18.603  1.00  0.00     0.000 C 
BRANCH   4   5
ATOM      5  C   UNL     1       4.937 -34.793  18.660  1.00  0.00     0.000 C 
BRANCH   5   6
ATOM      6  C   UNL     1       4.462 -34.133  17.355  1.00  0.00     0.000 C 
BRANCH   6   7
ATOM      7  C   UNL     1       3.042 -34.592  16.994  1.00  0.00     0.000 C 
BRANCH   7   8
ATOM      8  C   UNL     1       2.975 -35.271  15.616  1.00  0.00     0.000 C 
BRANCH   8   9
ATOM      9  C   UNL     1       3.571 -36.689  15.627  1.00  0.00     0.000 C 
BRANCH   9  10
ATOM     10  C   UNL     1       2.810 -37.654  16.554  1.00  0.00     0.006 C 
BRANCH  10  11
ATOM     11  C   UNL     1       1.352 -37.239  16.821  1.00  0.00     0.053 C 
BRANCH  11  12
ATOM     12  C   UNL     1       0.892 -37.605  18.200  1.00  0.00     0.041 C 
ATOM     13  O   UNL     1      -0.006 -36.932  18.768  1.00  0.00    -0.550 OA
ATOM     14  O   UNL     1       1.488 -38.663  18.875  1.00  0.00    -0.550 OA
ENDBRANCH  11  12
ENDBRANCH  10  11
ENDBRANCH   9  10
ENDBRANCH   8   9
ENDBRANCH   7   8
ENDBRANCH   6   7
ENDBRANCH   5   6
ENDBRANCH   4   5
ENDBRANCH   3   4
ENDBRANCH   2   3
ENDBRANCH   1   2
BRANCH   1  15
ATOM     15  C   UNL     1       4.760 -38.880  22.417  1.00  0.00     0.000 C 
BRANCH  15  16
ATOM     16  C   UNL     1       4.358 -40.213  23.087  1.00  0.00     0.000 C 
BRANCH  16  17
ATOM     17  C   UNL     1       5.119 -40.471  24.398  1.00  0.00     0.000 C 
BRANCH  17  18
ATOM     18  C   UNL     1       4.921 -39.346  25.427  1.00  0.00    -0.000 C 
BRANCH  18  19
ATOM     19  C   UNL     1       3.460 -38.878  25.518  1.00  0.00    -0.000 C 
BRANCH  19  20
ATOM     20  C   UNL     1       3.376 -37.345  25.525  1.00  0.00    -0.000 C 
BRANCH  20  21
ATOM     21  C   UNL     1       4.658 -36.679  26.051  1.00  0.00    -0.000 C 
BRANCH  21  22
ATOM     22  C   UNL     1       5.122 -35.507  25.169  1.00  0.00    -0.000 C 
BRANCH  22  23
ATOM     23  C   UNL     1       4.974 -35.805  23.668  1.00  0.00    -0.000 C 
BRANCH  23  24
ATOM     24  C   UNL     1       4.976 -34.529  22.807  1.00  0.00    -0.000 C 
BRANCH  24  25
ATOM     25  C   UNL     1       3.581 -33.897  22.692  1.00  0.00    -0.003 C 
ATOM     26  C   UNL     1       3.047 -33.902  21.259  1.00  0.00     0.004 C 
ENDBRANCH  24  25
ENDBRANCH  23  24
ENDBRANCH  22  23
ENDBRANCH  21  22
ENDBRANCH  20  21
ENDBRANCH  19  20
ENDBRANCH  18  19
ENDBRANCH  17  18
ENDBRANCH  16  17
ENDBRANCH  15  16
ENDBRANCH   1  15
TORSDOF 22
ENDMDL
MODEL 4
REMARK VINA RESULT:     6.216      4.568     11.043
REMARK INTER + INTRA:          14.687
REMARK INTER:                  14.403
REMARK INTRA:                   0.284
REMARK UNBOUND:                 0.476
REMARK SMILES CCCCCCCCCCCCCCCCCCCCCCCC(=O)[O-]
REMARK SMILES IDX 13 1 14 2 15 3 16 4 17 5 18 6 19 7 20 8 21 9 22 10 23 11
REMARK SMILES IDX 24 12 25 13 26 14 12 15 11 16 10 17 9 18 8 19 7 20 6 21 5 22
REMARK SMILES IDX 4 23 3 24 2 25 1 26
REMARK H PARENT
REMARK Flexibility Score: inf
ROOT
ATOM      1  C   UNL     1       3.638 -37.811  21.121  1.00  0.00     0.000 C 
ENDROOT
BRANCH   1   2
ATOM      2  C   UNL     1       4.145 -36.915  19.975  1.00  0.00     0.000 C 
BRANCH   2   3
ATOM      3  C   UNL     1       5.125 -35.813  20.436  1.00  0.00     0.000 C 
BRANCH   3   4
ATOM      4  C   UNL     1       4.644 -34.400  20.063  1.00  0.00     0.000 C 
BRANCH   4   5
ATOM      5  C   UNL     1       5.071 -33.985  18.645  1.00  0.00     0.000 C 
BRANCH   5   6
ATOM      6  C   UNL     1       4.547 -34.945  17.565  1.00  0.00     0.000 C 
BRANCH   6   7
ATOM      7  C   UNL     1       3.231 -34.430  16.965  1.00  0.00     0.000 C 
BRANCH   7   8
ATOM      8  C   UNL     1       2.543 -35.474  16.069  1.00  0.00     0.000 C 
BRANCH   8   9
ATOM      9  C   UNL     1       3.457 -36.668  15.745  1.00  0.00     0.000 C 
BRANCH   9  10
ATOM     10  C   UNL     1       3.985 -36.645  14.299  1.00  0.00     0.006 C 
BRANCH  10  11
ATOM     11  C   UNL     1       4.692 -37.945  13.875  1.00  0.00     0.053 C 
BRANCH  11  12
ATOM     12  C   UNL     1       4.366 -39.098  14.776  1.00  0.00     0.041 C 
ATOM     13  O   UNL     1       4.639 -40.275  14.423  1.00  0.00    -0.550 OA
ATOM     14  O   UNL     1       3.719 -38.876  15.985  1.00  0.00    -0.550 OA
ENDBRANCH  11  12
ENDBRANCH  10  11
ENDBRANCH   9  10
ENDBRANCH   8   9
ENDBRANCH   7   8
ENDBRANCH   6   7
ENDBRANCH   5   6
ENDBRANCH   4   5
ENDBRANCH   3   4
ENDBRANCH   2   3
ENDBRANCH   1   2
BRANCH   1  15
ATOM     15  C   UNL     1       4.707 -38.736  21.732  1.00  0.00     0.000 C 
BRANCH  15  16
ATOM     16  C   UNL     1       5.120 -38.346  23.169  1.00  0.00     0.000 C 
BRANCH  16  17
ATOM     17  C   UNL     1       4.661 -36.930  23.555  1.00  0.00     0.000 C 
BRANCH  17  18
ATOM     18  C   UNL     1       4.802 -36.652  25.060  1.00  0.00    -0.000 C 
BRANCH  18  19
ATOM     19  C   UNL     1       4.650 -37.922  25.912  1.00  0.00    -0.000 C 
BRANCH  19  20
ATOM     20  C   UNL     1       3.864 -37.626  27.199  1.00  0.00    -0.000 C 
BRANCH  20  21
ATOM     21  C   UNL     1       2.346 -37.550  26.967  1.00  0.00    -0.000 C 
BRANCH  21  22
ATOM     22  C   UNL     1       1.638 -36.627  27.973  1.00  0.00    -0.000 C 
BRANCH  22  23
ATOM     23  C   UNL     1       2.159 -35.181  27.911  1.00  0.00    -0.000 C 
BRANCH  23  24
ATOM     24  C   UNL     1       2.051 -34.454  29.264  1.00  0.00    -0.000 C 
BRANCH  24  25
ATOM     25  C   UNL     1       0.614 -34.436  29.807  1.00  0.00    -0.003 C 
ATOM     26  C   UNL     1      -0.199 -33.251  29.285  1.00  0.00     0.004 C 
ENDBRANCH  24  25
ENDBRANCH  23  24
ENDBRANCH  22  23
ENDBRANCH  21  22
ENDBRANCH  20  21
ENDBRANCH  19  20
ENDBRANCH  18  19
ENDBRANCH  17  18
ENDBRANCH  16  17
ENDBRANCH  15  16
ENDBRANCH   1  15
TORSDOF 22
ENDMDL
MODEL 5
REMARK VINA RESULT:     6.374      3.524      8.671
REMARK INTER + INTRA:          15.047
REMARK INTER:                  11.802
REMARK INTRA:                   3.245
REMARK UNBOUND:                 0.476
REMARK SMILES CCCCCCCCCCCCCCCCCCCCCCCC(=O)[O-]
REMARK SMILES IDX 13 1 14 2 15 3 16 4 17 5 18 6 19 7 20 8 21 9 22 10 23 11
REMARK SMILES IDX 24 12 25 13 26 14 12 15 11 16 10 17 9 18 8 19 7 20 6 21 5 22
REMARK SMILES IDX 4 23 3 24 2 25 1 26
REMARK H PARENT
REMARK Flexibility Score: inf
ROOT
ATOM      1  C   UNL     1       3.388 -35.101  21.485  1.00  0.00     0.000 C 
ENDROOT
BRANCH   1   2
ATOM      2  C   UNL     1       4.689 -35.860  21.167  1.00  0.00     0.000 C 
BRANCH   2   3
ATOM      3  C   UNL     1       5.100 -35.792  19.679  1.00  0.00     0.000 C 
BRANCH   3   4
ATOM      4  C   UNL     1       4.597 -34.516  18.983  1.00  0.00     0.000 C 
BRANCH   4   5
ATOM      5  C   UNL     1       4.495 -34.675  17.457  1.00  0.00     0.000 C 
BRANCH   5   6
ATOM      6  C   UNL     1       3.169 -34.141  16.893  1.00  0.00     0.000 C 
BRANCH   6   7
ATOM      7  C   UNL     1       2.374 -35.261  16.207  1.00  0.00     0.000 C 
BRANCH   7   8
ATOM      8  C   UNL     1       3.262 -36.164  15.333  1.00  0.00     0.000 C 
BRANCH   8   9
ATOM      9  C   UNL     1       2.979 -37.660  15.552  1.00  0.00     0.000 C 
BRANCH   9  10
ATOM     10  C   UNL     1       2.887 -38.044  17.040  1.00  0.00     0.006 C 
BRANCH  10  11
ATOM     11  C   UNL     1       1.992 -37.105  17.869  1.00  0.00     0.053 C 
BRANCH  11  12
ATOM     12  C   UNL     1       1.075 -37.850  18.792  1.00  0.00     0.041 C 
ATOM     13  O   UNL     1       0.601 -38.964  18.451  1.00  0.00    -0.550 OA
ATOM     14  O   UNL     1       0.708 -37.291  20.010  1.00  0.00    -0.550 OA
ENDBRANCH  11  12
ENDBRANCH  10  11
ENDBRANCH   9  10
ENDBRANCH   8   9
ENDBRANCH   7   8
ENDBRANCH   6   7
ENDBRANCH   5   6
ENDBRANCH   4   5
ENDBRANCH   3   4
ENDBRANCH   2   3
ENDBRANCH   1   2
BRANCH   1  15
ATOM     15  C   UNL     1       3.575 -33.843  22.353  1.00  0.00     0.000 C 
BRANCH  15  16
ATOM     16  C   UNL     1       4.974 -33.735  23.000  1.00  0.00     0.000 C 
BRANCH  16  17
ATOM     17  C   UNL     1       4.986 -34.199  24.467  1.00  0.00     0.000 C 
BRANCH  17  18
ATOM     18  C   UNL     1       4.869 -35.725  24.604  1.00  0.00    -0.000 C 
BRANCH  18  19
ATOM     19  C   UNL     1       5.100 -36.209  26.044  1.00  0.00    -0.000 C 
BRANCH  19  20
ATOM     20  C   UNL     1       3.985 -37.171  26.483  1.00  0.00    -0.000 C 
BRANCH  20  21
ATOM     21  C   UNL     1       4.209 -38.609  25.988  1.00  0.00    -0.000 C 
BRANCH  21  22
ATOM     22  C   UNL     1       5.124 -38.675  24.754  1.00  0.00    -0.000 C 
BRANCH  22  23
ATOM     23  C   UNL     1       4.981 -39.999  23.985  1.00  0.00    -0.000 C 
BRANCH  23  24
ATOM     24  C   UNL     1       3.976 -39.904  22.823  1.00  0.00    -0.000 C 
BRANCH  24  25
ATOM     25  C   UNL     1       4.541 -39.131  21.622  1.00  0.00    -0.003 C 
ATOM     26  C   UNL     1       3.811 -37.811  21.375  1.00  0.00     0.004 C 
ENDBRANCH  24  25
ENDBRANCH  23  24
ENDBRANCH  22  23
ENDBRANCH  21  22
ENDBRANCH  20  21
ENDBRANCH  19  20
ENDBRANCH  18  19
ENDBRANCH  17  18
ENDBRANCH  16  17
ENDBRANCH  15  16
ENDBRANCH   1  15
TORSDOF 22
ENDMDL
MODEL 6
REMARK VINA RESULT:     6.563      4.829     10.904
REMARK INTER + INTRA:          15.480
REMARK INTER:                  16.630
REMARK INTRA:                  -1.150
REMARK UNBOUND:                 0.476
REMARK SMILES CCCCCCCCCCCCCCCCCCCCCCCC(=O)[O-]
REMARK SMILES IDX 13 1 14 2 15 3 16 4 17 5 18 6 19 7 20 8 21 9 22 10 23 11
REMARK SMILES IDX 24 12 25 13 26 14 12 15 11 16 10 17 9 18 8 19 7 20 6 21 5 22
REMARK SMILES IDX 4 23 3 24 2 25 1 26
REMARK H PARENT
REMARK Flexibility Score: inf
ROOT
ATOM      1  C   UNL     1       3.702 -38.830  22.459  1.00  0.00     0.000 C 
ENDROOT
BRANCH   1   2
ATOM      2  C   UNL     1       5.079 -38.241  22.100  1.00  0.00     0.000 C 
BRANCH   2   3
ATOM      3  C   UNL     1       5.010 -36.808  21.526  1.00  0.00     0.000 C 
BRANCH   3   4
ATOM      4  C   UNL     1       4.430 -36.768  20.102  1.00  0.00     0.000 C 
BRANCH   4   5
ATOM      5  C   UNL     1       2.955 -37.201  20.052  1.00  0.00     0.000 C 
BRANCH   5   6
ATOM      6  C   UNL     1       2.609 -37.976  18.771  1.00  0.00     0.000 C 
BRANCH   6   7
ATOM      7  C   UNL     1       1.303 -37.458  18.153  1.00  0.00     0.000 C 
BRANCH   7   8
ATOM      8  C   UNL     1       1.541 -36.639  16.873  1.00  0.00     0.000 C 
BRANCH   8   9
ATOM      9  C   UNL     1       2.974 -36.087  16.783  1.00  0.00     0.000 C 
BRANCH   9  10
ATOM     10  C   UNL     1       3.347 -35.611  15.367  1.00  0.00     0.006 C 
BRANCH  10  11
ATOM     11  C   UNL     1       4.486 -36.419  14.719  1.00  0.00     0.053 C 
BRANCH  11  12
ATOM     12  C   UNL     1       4.012 -37.719  14.141  1.00  0.00     0.041 C 
ATOM     13  O   UNL     1       2.794 -37.888  13.876  1.00  0.00    -0.550 OA
ATOM     14  O   UNL     1       4.911 -38.759  13.938  1.00  0.00    -0.550 OA
ENDBRANCH  11  12
ENDBRANCH  10  11
ENDBRANCH   9  10
ENDBRANCH   8   9
ENDBRANCH   7   8
ENDBRANCH   6   7
ENDBRANCH   5   6
ENDBRANCH   4   5
ENDBRANCH   3   4
ENDBRANCH   2   3
ENDBRANCH   1   2
BRANCH   1  15
ATOM     15  C   UNL     1       3.552 -39.260  23.930  1.00  0.00     0.000 C 
BRANCH  15  16
ATOM     16  C   UNL     1       4.899 -39.475  24.656  1.00  0.00     0.000 C 
BRANCH  16  17
ATOM     17  C   UNL     1       5.123 -38.471  25.800  1.00  0.00     0.000 C 
BRANCH  17  18
ATOM     18  C   UNL     1       5.051 -37.011  25.325  1.00  0.00    -0.000 C 
BRANCH  18  19
ATOM     19  C   UNL     1       4.081 -36.163  26.162  1.00  0.00    -0.000 C 
BRANCH  19  20
ATOM     20  C   UNL     1       3.365 -37.026  27.212  1.00  0.00    -0.000 C 
BRANCH  20  21
ATOM     21  C   UNL     1       1.927 -37.389  26.807  1.00  0.00    -0.000 C 
BRANCH  21  22
ATOM     22  C   UNL     1       0.871 -36.622  27.621  1.00  0.00    -0.000 C 
BRANCH  22  23
ATOM     23  C   UNL     1       1.409 -35.294  28.179  1.00  0.00    -0.000 C 
BRANCH  23  24
ATOM     24  C   UNL     1       0.295 -34.394  28.743  1.00  0.00    -0.000 C 
BRANCH  24  25
ATOM     25  C   UNL     1       0.793 -33.489  29.882  1.00  0.00    -0.003 C 
ATOM     26  C   UNL     1       2.119 -33.963  30.474  1.00  0.00     0.004 C 
ENDBRANCH  24  25
ENDBRANCH  23  24
ENDBRANCH  22  23
ENDBRANCH  21  22
ENDBRANCH  20  21
ENDBRANCH  19  20
ENDBRANCH  18  19
ENDBRANCH  17  18
ENDBRANCH  16  17
ENDBRANCH  15  16
ENDBRANCH   1  15
TORSDOF 22
ENDMDL
MODEL 7
REMARK VINA RESULT:     6.681      3.491     10.119
REMARK INTER + INTRA:          15.749
REMARK INTER:                  16.291
REMARK INTRA:                  -0.542
REMARK UNBOUND:                 0.476
REMARK SMILES CCCCCCCCCCCCCCCCCCCCCCCC(=O)[O-]
REMARK SMILES IDX 13 1 14 2 15 3 16 4 17 5 18 6 19 7 20 8 21 9 22 10 23 11
REMARK SMILES IDX 24 12 25 13 26 14 12 15 11 16 10 17 9 18 8 19 7 20 6 21 5 22
REMARK SMILES IDX 4 23 3 24 2 25 1 26
REMARK H PARENT
REMARK Flexibility Score: inf
ROOT
ATOM      1  C   UNL     1       3.725 -38.106  21.358  1.00  0.00     0.000 C 
ENDROOT
BRANCH   1   2
ATOM      2  C   UNL     1       4.044 -38.118  19.852  1.00  0.00     0.000 C 
BRANCH   2   3
ATOM      3  C   UNL     1       5.069 -37.042  19.426  1.00  0.00     0.000 C 
BRANCH   3   4
ATOM      4  C   UNL     1       5.079 -35.828  20.370  1.00  0.00     0.000 C 
BRANCH   4   5
ATOM      5  C   UNL     1       4.951 -34.493  19.617  1.00  0.00     0.000 C 
BRANCH   5   6
ATOM      6  C   UNL     1       4.902 -34.675  18.092  1.00  0.00     0.000 C 
BRANCH   6   7
ATOM      7  C   UNL     1       3.451 -34.728  17.592  1.00  0.00     0.000 C 
BRANCH   7   8
ATOM      8  C   UNL     1       3.332 -35.356  16.193  1.00  0.00     0.000 C 
BRANCH   8   9
ATOM      9  C   UNL     1       3.852 -36.803  16.149  1.00  0.00     0.000 C 
BRANCH   9  10
ATOM     10  C   UNL     1       2.888 -37.809  16.803  1.00  0.00     0.006 C 
BRANCH  10  11
ATOM     11  C   UNL     1       1.421 -37.340  16.824  1.00  0.00     0.053 C 
BRANCH  11  12
ATOM     12  C   UNL     1       0.816 -37.404  18.193  1.00  0.00     0.041 C 
ATOM     13  O   UNL     1      -0.043 -36.556  18.547  1.00  0.00    -0.550 OA
ATOM     14  O   UNL     1       1.235 -38.375  19.096  1.00  0.00    -0.550 OA
ENDBRANCH  11  12
ENDBRANCH  10  11
ENDBRANCH   9  10
ENDBRANCH   8   9
ENDBRANCH   7   8
ENDBRANCH   6   7
ENDBRANCH   5   6
ENDBRANCH   4   5
ENDBRANCH   3   4
ENDBRANCH   2   3
ENDBRANCH   1   2
BRANCH   1  15
ATOM     15  C   UNL     1       4.957 -38.208  22.276  1.00  0.00     0.000 C 
BRANCH  15  16
ATOM     16  C   UNL     1       5.100 -39.577  22.978  1.00  0.00     0.000 C 
BRANCH  16  17
ATOM     17  C   UNL     1       5.125 -39.457  24.511  1.00  0.00     0.000 C 
BRANCH  17  18
ATOM     18  C   UNL     1       5.122 -37.996  24.989  1.00  0.00    -0.000 C 
BRANCH  18  19
ATOM     19  C   UNL     1       4.601 -37.843  26.426  1.00  0.00    -0.000 C 
BRANCH  19  20
ATOM     20  C   UNL     1       3.449 -36.829  26.486  1.00  0.00    -0.000 C 
BRANCH  20  21
ATOM     21  C   UNL     1       2.247 -37.338  27.297  1.00  0.00    -0.000 C 
BRANCH  21  22
ATOM     22  C   UNL     1       1.313 -36.203  27.750  1.00  0.00    -0.000 C 
BRANCH  22  23
ATOM     23  C   UNL     1       2.062 -35.093  28.506  1.00  0.00    -0.000 C 
BRANCH  23  24
ATOM     24  C   UNL     1       1.265 -34.551  29.706  1.00  0.00    -0.000 C 
BRANCH  24  25
ATOM     25  C   UNL     1       0.483 -33.274  29.363  1.00  0.00    -0.003 C 
ATOM     26  C   UNL     1      -1.028 -33.449  29.511  1.00  0.00     0.004 C 
ENDBRANCH  24  25
ENDBRANCH  23  24
ENDBRANCH  22  23
ENDBRANCH  21  22
ENDBRANCH  20  21
ENDBRANCH  19  20
ENDBRANCH  18  19
ENDBRANCH  17  18
ENDBRANCH  16  17
ENDBRANCH  15  16
ENDBRANCH   1  15
TORSDOF 22
ENDMDL
