MODEL 1
REMARK VINA RESULT:    -3.742      0.000      0.000
REMARK INTER + INTRA:          -4.883
REMARK INTER:                  -4.617
REMARK INTRA:                  -0.266
REMARK UNBOUND:                -0.266
REMARK SMILES C=CCc1ccc(OC)c(OC)c1
REMARK SMILES IDX 7 1 10 2 13 3 4 4 5 5 6 6 8 7 9 8 11 9 12 10 3 11 2 12 1 13
REMARK H PARENT
REMARK Flexibility Score: inf
ROOT
ATOM      1  C   UNL     1     161.480 175.097 166.797  1.00  0.00     0.160 A 
ATOM      2  C   UNL     1     162.747 174.636 166.405  1.00  0.00     0.160 A 
ATOM      3  C   UNL     1     163.371 173.606 167.136  1.00  0.00     0.054 A 
ATOM      4  C   UNL     1     162.739 173.042 168.256  1.00  0.00    -0.040 A 
ATOM      5  C   UNL     1     161.470 173.501 168.633  1.00  0.00     0.008 A 
ATOM      6  C   UNL     1     160.847 174.521 167.914  1.00  0.00     0.051 A 
ENDROOT
BRANCH   1   7
ATOM      7  O   UNL     1     160.884 176.125 166.050  1.00  0.00    -0.493 OA
ATOM      8  C   UNL     1     159.890 175.924 165.052  1.00  0.00     0.278 C 
ENDBRANCH   1   7
BRANCH   2   9
ATOM      9  O   UNL     1     163.353 175.225 165.284  1.00  0.00    -0.493 OA
ATOM     10  C   UNL     1     164.705 175.009 164.889  1.00  0.00     0.278 C 
ENDBRANCH   2   9
BRANCH   4  11
ATOM     11  C   UNL     1     163.400 171.920 169.013  1.00  0.00     0.062 C 
BRANCH  11  12
ATOM     12  C   UNL     1     162.456 171.327 170.019  1.00  0.00    -0.030 C 
ATOM     13  C   UNL     1     162.869 170.449 170.938  1.00  0.00     0.004 C 
ENDBRANCH  11  12
ENDBRANCH   4  11
TORSDOF 4
ENDMDL
MODEL 2
REMARK VINA RESULT:    -3.662      9.020     10.162
REMARK INTER + INTRA:          -4.784
REMARK INTER:                  -4.517
REMARK INTRA:                  -0.268
REMARK UNBOUND:                -0.266
REMARK SMILES C=CCc1ccc(OC)c(OC)c1
REMARK SMILES IDX 7 1 10 2 13 3 4 4 5 5 6 6 8 7 9 8 11 9 12 10 3 11 2 12 1 13
REMARK H PARENT
REMARK Flexibility Score: inf
ROOT
ATOM      1  C   UNL     1     169.866 168.019 169.792  1.00  0.00     0.160 A 
ATOM      2  C   UNL     1     169.473 167.111 168.795  1.00  0.00     0.160 A 
ATOM      3  C   UNL     1     168.291 166.363 168.960  1.00  0.00     0.054 A 
ATOM      4  C   UNL     1     167.508 166.512 170.116  1.00  0.00    -0.040 A 
ATOM      5  C   UNL     1     167.902 167.427 171.101  1.00  0.00     0.008 A 
ATOM      6  C   UNL     1     169.072 168.172 170.944  1.00  0.00     0.051 A 
ENDROOT
BRANCH   1   7
ATOM      7  O   UNL     1     171.049 168.750 169.599  1.00  0.00    -0.493 OA
ATOM      8  C   UNL     1     172.302 168.427 170.192  1.00  0.00     0.278 C 
ENDBRANCH   1   7
BRANCH   2   9
ATOM      9  O   UNL     1     170.282 166.984 167.654  1.00  0.00    -0.493 OA
ATOM     10  C   UNL     1     169.872 166.362 166.440  1.00  0.00     0.278 C 
ENDBRANCH   2   9
BRANCH   4  11
ATOM     11  C   UNL     1     166.230 165.729 170.270  1.00  0.00     0.062 C 
BRANCH  11  12
ATOM     12  C   UNL     1     165.634 165.411 168.928  1.00  0.00    -0.030 C 
ATOM     13  C   UNL     1     164.519 166.007 168.495  1.00  0.00     0.004 C 
ENDBRANCH  11  12
ENDBRANCH   4  11
TORSDOF 4
ENDMDL
MODEL 3
REMARK VINA RESULT:    -3.649      9.328     10.777
REMARK INTER + INTRA:          -4.768
REMARK INTER:                  -4.470
REMARK INTRA:                  -0.298
REMARK UNBOUND:                -0.266
REMARK SMILES C=CCc1ccc(OC)c(OC)c1
REMARK SMILES IDX 7 1 10 2 13 3 4 4 5 5 6 6 8 7 9 8 11 9 12 10 3 11 2 12 1 13
REMARK H PARENT
REMARK Flexibility Score: inf
ROOT
ATOM      1  C   UNL     1     161.012 163.504 169.088  1.00  0.00     0.160 A 
ATOM      2  C   UNL     1     162.017 163.637 170.059  1.00  0.00     0.160 A 
ATOM      3  C   UNL     1     163.128 164.465 169.804  1.00  0.00     0.054 A 
ATOM      4  C   UNL     1     163.242 165.151 168.585  1.00  0.00    -0.040 A 
ATOM      5  C   UNL     1     162.229 165.021 167.625  1.00  0.00     0.008 A 
ATOM      6  C   UNL     1     161.126 164.202 167.871  1.00  0.00     0.051 A 
ENDROOT
BRANCH   1   7
ATOM      7  O   UNL     1     159.918 162.672 169.370  1.00  0.00    -0.493 OA
ATOM      8  C   UNL     1     158.652 163.132 169.830  1.00  0.00     0.278 C 
ENDBRANCH   1   7
BRANCH   2   9
ATOM      9  O   UNL     1     161.875 162.933 171.265  1.00  0.00    -0.493 OA
ATOM     10  C   UNL     1     161.678 163.543 172.538  1.00  0.00     0.278 C 
ENDBRANCH   2   9
BRANCH   4  11
ATOM     11  C   UNL     1     164.418 166.057 168.333  1.00  0.00     0.062 C 
BRANCH  11  12
ATOM     12  C   UNL     1     165.681 165.457 168.882  1.00  0.00    -0.030 C 
ATOM     13  C   UNL     1     166.734 165.199 168.101  1.00  0.00     0.004 C 
ENDBRANCH  11  12
ENDBRANCH   4  11
TORSDOF 4
ENDMDL
MODEL 4
REMARK VINA RESULT:    -3.645      0.857      2.734
REMARK INTER + INTRA:          -4.763
REMARK INTER:                  -4.501
REMARK INTRA:                  -0.262
REMARK UNBOUND:                -0.266
REMARK SMILES C=CCc1ccc(OC)c(OC)c1
REMARK SMILES IDX 7 1 10 2 13 3 4 4 5 5 6 6 8 7 9 8 11 9 12 10 3 11 2 12 1 13
REMARK H PARENT
REMARK Flexibility Score: inf
ROOT
ATOM      1  C   UNL     1     162.999 174.239 166.711  1.00  0.00     0.160 A 
ATOM      2  C   UNL     1     161.868 174.542 167.486  1.00  0.00     0.160 A 
ATOM      3  C   UNL     1     161.478 173.671 168.521  1.00  0.00     0.054 A 
ATOM      4  C   UNL     1     162.205 172.499 168.779  1.00  0.00    -0.040 A 
ATOM      5  C   UNL     1     163.339 172.209 168.008  1.00  0.00     0.008 A 
ATOM      6  C   UNL     1     163.731 173.067 166.981  1.00  0.00     0.051 A 
ENDROOT
BRANCH   1   7
ATOM      7  O   UNL     1     163.363 175.126 165.686  1.00  0.00    -0.493 OA
ATOM      8  C   UNL     1     164.580 175.053 164.951  1.00  0.00     0.278 C 
ENDBRANCH   1   7
BRANCH   2   9
ATOM      9  O   UNL     1     161.161 175.721 167.198  1.00  0.00    -0.493 OA
ATOM     10  C   UNL     1     159.957 175.774 166.438  1.00  0.00     0.278 C 
ENDBRANCH   2   9
BRANCH   4  11
ATOM     11  C   UNL     1     161.798 171.588 169.908  1.00  0.00     0.062 C 
BRANCH  11  12
ATOM     12  C   UNL     1     162.955 170.739 170.352  1.00  0.00    -0.030 C 
ATOM     13  C   UNL     1     162.930 170.064 171.505  1.00  0.00     0.004 C 
ENDBRANCH  11  12
ENDBRANCH   4  11
TORSDOF 4
ENDMDL
MODEL 5
REMARK VINA RESULT:    -3.614      1.435      3.076
REMARK INTER + INTRA:          -4.725
REMARK INTER:                  -4.476
REMARK INTRA:                  -0.249
REMARK UNBOUND:                -0.266
REMARK SMILES C=CCc1ccc(OC)c(OC)c1
REMARK SMILES IDX 7 1 10 2 13 3 4 4 5 5 6 6 8 7 9 8 11 9 12 10 3 11 2 12 1 13
REMARK H PARENT
REMARK Flexibility Score: inf
ROOT
ATOM      1  C   UNL     1     162.998 174.272 166.725  1.00  0.00     0.160 A 
ATOM      2  C   UNL     1     161.759 174.654 167.263  1.00  0.00     0.160 A 
ATOM      3  C   UNL     1     161.172 173.879 168.282  1.00  0.00     0.054 A 
ATOM      4  C   UNL     1     161.813 172.725 168.760  1.00  0.00    -0.040 A 
ATOM      5  C   UNL     1     163.055 172.357 168.226  1.00  0.00     0.008 A 
ATOM      6  C   UNL     1     163.642 173.120 167.215  1.00  0.00     0.051 A 
ENDROOT
BRANCH   1   7
ATOM      7  O   UNL     1     163.558 175.064 165.710  1.00  0.00    -0.493 OA
ATOM      8  C   UNL     1     164.849 174.859 165.147  1.00  0.00     0.278 C 
ENDBRANCH   1   7
BRANCH   2   9
ATOM      9  O   UNL     1     161.142 175.811 166.759  1.00  0.00    -0.493 OA
ATOM     10  C   UNL     1     160.096 175.812 165.793  1.00  0.00     0.278 C 
ENDBRANCH   2   9
BRANCH   4  11
ATOM     11  C   UNL     1     161.193 171.920 169.871  1.00  0.00     0.062 C 
BRANCH  11  12
ATOM     12  C   UNL     1     159.774 171.556 169.539  1.00  0.00    -0.030 C 
ATOM     13  C   UNL     1     158.759 171.875 170.347  1.00  0.00     0.004 C 
ENDBRANCH  11  12
ENDBRANCH   4  11
TORSDOF 4
ENDMDL
MODEL 6
REMARK VINA RESULT:    -3.584      9.011     10.506
REMARK INTER + INTRA:          -4.687
REMARK INTER:                  -4.419
REMARK INTRA:                  -0.268
REMARK UNBOUND:                -0.266
REMARK SMILES C=CCc1ccc(OC)c(OC)c1
REMARK SMILES IDX 7 1 10 2 13 3 4 4 5 5 6 6 8 7 9 8 11 9 12 10 3 11 2 12 1 13
REMARK H PARENT
REMARK Flexibility Score: inf
ROOT
ATOM      1  C   UNL     1     170.143 167.416 169.582  1.00  0.00     0.160 A 
ATOM      2  C   UNL     1     169.048 167.119 170.408  1.00  0.00     0.160 A 
ATOM      3  C   UNL     1     167.951 166.407 169.883  1.00  0.00     0.054 A 
ATOM      4  C   UNL     1     167.942 166.000 168.540  1.00  0.00    -0.040 A 
ATOM      5  C   UNL     1     169.044 166.292 167.725  1.00  0.00     0.008 A 
ATOM      6  C   UNL     1     170.134 166.997 168.239  1.00  0.00     0.051 A 
ENDROOT
BRANCH   1   7
ATOM      7  O   UNL     1     171.221 168.127 170.134  1.00  0.00    -0.493 OA
ATOM      8  C   UNL     1     171.936 169.157 169.461  1.00  0.00     0.278 C 
ENDBRANCH   1   7
BRANCH   2   9
ATOM      9  O   UNL     1     169.087 167.545 171.746  1.00  0.00    -0.493 OA
ATOM     10  C   UNL     1     168.424 168.703 172.244  1.00  0.00     0.278 C 
ENDBRANCH   2   9
BRANCH   4  11
ATOM     11  C   UNL     1     166.779 165.214 167.995  1.00  0.00     0.062 C 
BRANCH  11  12
ATOM     12  C   UNL     1     165.499 165.619 168.668  1.00  0.00    -0.030 C 
ATOM     13  C   UNL     1     164.450 166.067 167.972  1.00  0.00     0.004 C 
ENDBRANCH  11  12
ENDBRANCH   4  11
TORSDOF 4
ENDMDL
MODEL 7
REMARK VINA RESULT:    -3.507     15.442     17.368
REMARK INTER + INTRA:          -4.592
REMARK INTER:                  -4.329
REMARK INTRA:                  -0.263
REMARK UNBOUND:                -0.266
REMARK SMILES C=CCc1ccc(OC)c(OC)c1
REMARK SMILES IDX 7 1 10 2 13 3 4 4 5 5 6 6 8 7 9 8 11 9 12 10 3 11 2 12 1 13
REMARK H PARENT
REMARK Flexibility Score: inf
ROOT
ATOM      1  C   UNL     1     168.223 157.357 167.010  1.00  0.00     0.160 A 
ATOM      2  C   UNL     1     169.392 157.051 167.725  1.00  0.00     0.160 A 
ATOM      3  C   UNL     1     169.798 157.882 168.787  1.00  0.00     0.054 A 
ATOM      4  C   UNL     1     169.049 159.018 169.131  1.00  0.00    -0.040 A 
ATOM      5  C   UNL     1     167.877 159.310 168.420  1.00  0.00     0.008 A 
ATOM      6  C   UNL     1     167.469 158.491 167.366  1.00  0.00     0.051 A 
ENDROOT
BRANCH   1   7
ATOM      7  O   UNL     1     167.844 156.511 165.957  1.00  0.00    -0.493 OA
ATOM      8  C   UNL     1     166.557 156.506 165.350  1.00  0.00     0.278 C 
ENDBRANCH   1   7
BRANCH   2   9
ATOM      9  O   UNL     1     170.122 155.911 167.351  1.00  0.00    -0.493 OA
ATOM     10  C   UNL     1     171.332 155.937 166.600  1.00  0.00     0.278 C 
ENDBRANCH   2   9
BRANCH   4  11
ATOM     11  C   UNL     1     169.474 159.884 170.288  1.00  0.00     0.062 C 
BRANCH  11  12
ATOM     12  C   UNL     1     168.306 160.652 170.838  1.00  0.00    -0.030 C 
ATOM     13  C   UNL     1     168.423 161.432 171.916  1.00  0.00     0.004 C 
ENDBRANCH  11  12
ENDBRANCH   4  11
TORSDOF 4
ENDMDL
MODEL 8
REMARK VINA RESULT:    -3.431     11.447     13.580
REMARK INTER + INTRA:          -4.498
REMARK INTER:                  -4.181
REMARK INTRA:                  -0.317
REMARK UNBOUND:                -0.266
REMARK SMILES C=CCc1ccc(OC)c(OC)c1
REMARK SMILES IDX 7 1 10 2 13 3 4 4 5 5 6 6 8 7 9 8 11 9 12 10 3 11 2 12 1 13
REMARK H PARENT
REMARK Flexibility Score: inf
ROOT
ATOM      1  C   UNL     1     174.291 166.835 170.892  1.00  0.00     0.160 A 
ATOM      2  C   UNL     1     174.241 167.814 169.887  1.00  0.00     0.160 A 
ATOM      3  C   UNL     1     172.995 168.313 169.460  1.00  0.00     0.054 A 
ATOM      4  C   UNL     1     171.803 167.833 170.026  1.00  0.00    -0.040 A 
ATOM      5  C   UNL     1     171.862 166.864 171.035  1.00  0.00     0.008 A 
ATOM      6  C   UNL     1     173.093 166.365 171.463  1.00  0.00     0.051 A 
ENDROOT
BRANCH   1   7
ATOM      7  O   UNL     1     175.547 166.357 171.296  1.00  0.00    -0.493 OA
ATOM      8  C   UNL     1     175.782 165.613 172.487  1.00  0.00     0.278 C 
ENDBRANCH   1   7
BRANCH   2   9
ATOM      9  O   UNL     1     175.452 168.268 169.340  1.00  0.00    -0.493 OA
ATOM     10  C   UNL     1     175.553 169.152 168.227  1.00  0.00     0.278 C 
ENDBRANCH   2   9
BRANCH   4  11
ATOM     11  C   UNL     1     170.476 168.394 169.584  1.00  0.00     0.062 C 
BRANCH  11  12
ATOM     12  C   UNL     1     169.648 167.337 168.910  1.00  0.00    -0.030 C 
ATOM     13  C   UNL     1     169.988 166.831 167.721  1.00  0.00     0.004 C 
ENDBRANCH  11  12
ENDBRANCH   4  11
TORSDOF 4
ENDMDL
MODEL 9
REMARK VINA RESULT:    -3.328      3.545      5.043
REMARK INTER + INTRA:          -4.371
REMARK INTER:                  -4.052
REMARK INTRA:                  -0.319
REMARK UNBOUND:                -0.266
REMARK SMILES C=CCc1ccc(OC)c(OC)c1
REMARK SMILES IDX 7 1 10 2 13 3 4 4 5 5 6 6 8 7 9 8 11 9 12 10 3 11 2 12 1 13
REMARK H PARENT
REMARK Flexibility Score: inf
ROOT
ATOM      1  C   UNL     1     163.769 173.418 170.156  1.00  0.00     0.160 A 
ATOM      2  C   UNL     1     162.656 174.273 170.196  1.00  0.00     0.160 A 
ATOM      3  C   UNL     1     161.389 173.787 169.820  1.00  0.00     0.054 A 
ATOM      4  C   UNL     1     161.231 172.458 169.398  1.00  0.00    -0.040 A 
ATOM      5  C   UNL     1     162.344 171.608 169.371  1.00  0.00     0.008 A 
ATOM      6  C   UNL     1     163.603 172.083 169.742  1.00  0.00     0.051 A 
ENDROOT
BRANCH   1   7
ATOM      7  O   UNL     1     165.019 173.930 170.536  1.00  0.00    -0.493 OA
ATOM      8  C   UNL     1     165.650 173.674 171.785  1.00  0.00     0.278 C 
ENDBRANCH   1   7
BRANCH   2   9
ATOM      9  O   UNL     1     162.850 175.599 170.618  1.00  0.00    -0.493 OA
ATOM     10  C   UNL     1     162.505 176.094 171.908  1.00  0.00     0.278 C 
ENDBRANCH   2   9
BRANCH   4  11
ATOM     11  C   UNL     1     159.866 171.939 169.027  1.00  0.00     0.062 C 
BRANCH  11  12
ATOM     12  C   UNL     1     159.092 171.548 170.254  1.00  0.00    -0.030 C 
ATOM     13  C   UNL     1     158.091 172.299 170.722  1.00  0.00     0.004 C 
ENDBRANCH  11  12
ENDBRANCH   4  11
TORSDOF 4
ENDMDL
