MODEL 1
REMARK VINA RESULT:    -4.063      0.000      0.000
REMARK INTER + INTRA:          -5.098
REMARK INTER:                  -5.014
REMARK INTRA:                  -0.084
REMARK UNBOUND:                -0.084
REMARK SMILES CCCCCC(=O)[O-]
REMARK SMILES IDX 4 1 5 2 6 3 7 4 8 5 3 6 2 7 1 8
REMARK H PARENT
REMARK Flexibility Score: inf
ROOT
ATOM      1  C   UNL     1      59.288 145.654 -33.582  1.00  0.00     0.006 C 
ENDROOT
BRANCH   1   2
ATOM      2  C   UNL     1      60.031 144.394 -33.120  1.00  0.00     0.053 C 
BRANCH   2   3
ATOM      3  C   UNL     1      59.315 143.757 -31.972  1.00  0.00     0.041 C 
ATOM      4  O   UNL     1      58.212 144.220 -31.578  1.00  0.00    -0.550 OA
ATOM      5  O   UNL     1      59.888 142.681 -31.306  1.00  0.00    -0.550 OA
ENDBRANCH   2   3
ENDBRANCH   1   2
BRANCH   1   6
ATOM      6  C   UNL     1      60.089 146.941 -33.329  1.00  0.00     0.000 C 
BRANCH   6   7
ATOM      7  C   UNL     1      61.050 147.273 -34.480  1.00  0.00    -0.003 C 
ATOM      8  C   UNL     1      60.694 148.611 -35.123  1.00  0.00     0.004 C 
ENDBRANCH   6   7
ENDBRANCH   1   6
TORSDOF 4
ENDMDL
MODEL 2
REMARK VINA RESULT:    -3.953      1.549      2.239
REMARK INTER + INTRA:          -4.961
REMARK INTER:                  -4.866
REMARK INTRA:                  -0.095
REMARK UNBOUND:                -0.084
REMARK SMILES CCCCCC(=O)[O-]
REMARK SMILES IDX 4 1 5 2 6 3 7 4 8 5 3 6 2 7 1 8
REMARK H PARENT
REMARK Flexibility Score: inf
ROOT
ATOM      1  C   UNL     1      59.716 145.404 -32.814  1.00  0.00     0.006 C 
ENDROOT
BRANCH   1   2
ATOM      2  C   UNL     1      58.568 144.462 -32.431  1.00  0.00     0.053 C 
BRANCH   2   3
ATOM      3  C   UNL     1      58.901 143.717 -31.177  1.00  0.00     0.041 C 
ATOM      4  O   UNL     1      59.815 142.851 -31.178  1.00  0.00    -0.550 OA
ATOM      5  O   UNL     1      58.168 143.944 -30.018  1.00  0.00    -0.550 OA
ENDBRANCH   2   3
ENDBRANCH   1   2
BRANCH   1   6
ATOM      6  C   UNL     1      59.580 145.953 -34.243  1.00  0.00     0.000 C 
BRANCH   6   7
ATOM      7  C   UNL     1      60.807 145.644 -35.113  1.00  0.00    -0.003 C 
ATOM      8  C   UNL     1      61.261 144.199 -34.928  1.00  0.00     0.004 C 
ENDBRANCH   6   7
ENDBRANCH   1   6
TORSDOF 4
ENDMDL
MODEL 3
REMARK VINA RESULT:    -3.683      2.171      2.776
REMARK INTER + INTRA:          -4.628
REMARK INTER:                  -4.495
REMARK INTRA:                  -0.133
REMARK UNBOUND:                -0.084
REMARK SMILES CCCCCC(=O)[O-]
REMARK SMILES IDX 4 1 5 2 6 3 7 4 8 5 3 6 2 7 1 8
REMARK H PARENT
REMARK Flexibility Score: inf
ROOT
ATOM      1  C   UNL     1      60.794 147.105 -32.997  1.00  0.00     0.006 C 
ENDROOT
BRANCH   1   2
ATOM      2  C   UNL     1      61.607 146.247 -33.974  1.00  0.00     0.053 C 
BRANCH   2   3
ATOM      3  C   UNL     1      61.012 144.879 -34.086  1.00  0.00     0.041 C 
ATOM      4  O   UNL     1      61.411 144.086 -34.980  1.00  0.00    -0.550 OA
ATOM      5  O   UNL     1      59.982 144.497 -33.235  1.00  0.00    -0.550 OA
ENDBRANCH   2   3
ENDBRANCH   1   2
BRANCH   1   6
ATOM      6  C   UNL     1      60.023 148.234 -33.700  1.00  0.00     0.000 C 
BRANCH   6   7
ATOM      7  C   UNL     1      59.591 147.855 -35.124  1.00  0.00    -0.003 C 
ATOM      8  C   UNL     1      58.208 147.210 -35.125  1.00  0.00     0.004 C 
ENDBRANCH   6   7
ENDBRANCH   1   6
TORSDOF 4
ENDMDL
MODEL 4
REMARK VINA RESULT:    -3.509     14.195     15.044
REMARK INTER + INTRA:          -4.414
REMARK INTER:                  -4.305
REMARK INTRA:                  -0.109
REMARK UNBOUND:                -0.084
REMARK SMILES CCCCCC(=O)[O-]
REMARK SMILES IDX 4 1 5 2 6 3 7 4 8 5 3 6 2 7 1 8
REMARK H PARENT
REMARK Flexibility Score: inf
ROOT
ATOM      1  C   UNL     1      50.798 154.077 -24.215  1.00  0.00     0.006 C 
ENDROOT
BRANCH   1   2
ATOM      2  C   UNL     1      52.171 154.079 -24.897  1.00  0.00     0.053 C 
BRANCH   2   3
ATOM      3  C   UNL     1      52.153 153.201 -26.108  1.00  0.00     0.041 C 
ATOM      4  O   UNL     1      51.418 153.489 -27.089  1.00  0.00    -0.550 OA
ATOM      5  O   UNL     1      52.913 152.038 -26.134  1.00  0.00    -0.550 OA
ENDBRANCH   2   3
ENDBRANCH   1   2
BRANCH   1   6
ATOM      6  C   UNL     1      50.567 152.827 -23.351  1.00  0.00     0.000 C 
BRANCH   6   7
ATOM      7  C   UNL     1      50.791 153.094 -21.855  1.00  0.00    -0.003 C 
ATOM      8  C   UNL     1      49.466 153.112 -21.097  1.00  0.00     0.004 C 
ENDBRANCH   6   7
ENDBRANCH   1   6
TORSDOF 4
ENDMDL
MODEL 5
REMARK VINA RESULT:    -3.498     18.270     19.089
REMARK INTER + INTRA:          -4.401
REMARK INTER:                  -4.355
REMARK INTRA:                  -0.046
REMARK UNBOUND:                -0.084
REMARK SMILES CCCCCC(=O)[O-]
REMARK SMILES IDX 4 1 5 2 6 3 7 4 8 5 3 6 2 7 1 8
REMARK H PARENT
REMARK Flexibility Score: inf
ROOT
ATOM      1  C   UNL     1      50.274 153.813 -18.935  1.00  0.00     0.006 C 
ENDROOT
BRANCH   1   2
ATOM      2  C   UNL     1      49.723 153.489 -20.329  1.00  0.00     0.053 C 
BRANCH   2   3
ATOM      3  C   UNL     1      50.833 153.095 -21.251  1.00  0.00     0.041 C 
ATOM      4  O   UNL     1      52.011 153.477 -21.024  1.00  0.00    -0.550 OA
ATOM      5  O   UNL     1      50.558 152.346 -22.389  1.00  0.00    -0.550 OA
ENDBRANCH   2   3
ENDBRANCH   1   2
BRANCH   1   6
ATOM      6  C   UNL     1      49.252 153.549 -17.818  1.00  0.00     0.000 C 
BRANCH   6   7
ATOM      7  C   UNL     1      49.906 153.014 -16.535  1.00  0.00    -0.003 C 
ATOM      8  C   UNL     1      49.191 153.542 -15.294  1.00  0.00     0.004 C 
ENDBRANCH   6   7
ENDBRANCH   1   6
TORSDOF 4
ENDMDL
MODEL 6
REMARK VINA RESULT:    -3.426      7.088      8.647
REMARK INTER + INTRA:          -4.311
REMARK INTER:                  -4.240
REMARK INTRA:                  -0.071
REMARK UNBOUND:                -0.084
REMARK SMILES CCCCCC(=O)[O-]
REMARK SMILES IDX 4 1 5 2 6 3 7 4 8 5 3 6 2 7 1 8
REMARK H PARENT
REMARK Flexibility Score: inf
ROOT
ATOM      1  C   UNL     1      55.554 143.332 -26.325  1.00  0.00     0.006 C 
ENDROOT
BRANCH   1   2
ATOM      2  C   UNL     1      55.729 143.947 -24.931  1.00  0.00     0.053 C 
BRANCH   2   3
ATOM      3  C   UNL     1      54.436 144.527 -24.451  1.00  0.00     0.041 C 
ATOM      4  O   UNL     1      54.053 145.653 -24.866  1.00  0.00    -0.550 OA
ATOM      5  O   UNL     1      53.676 143.846 -23.508  1.00  0.00    -0.550 OA
ENDBRANCH   2   3
ENDBRANCH   1   2
BRANCH   1   6
ATOM      6  C   UNL     1      56.332 144.094 -27.410  1.00  0.00     0.000 C 
BRANCH   6   7
ATOM      7  C   UNL     1      55.821 143.788 -28.826  1.00  0.00    -0.003 C 
ATOM      8  C   UNL     1      56.972 143.752 -29.828  1.00  0.00     0.004 C 
ENDBRANCH   6   7
ENDBRANCH   1   6
TORSDOF 4
ENDMDL
MODEL 7
REMARK VINA RESULT:    -3.413      3.221      4.617
REMARK INTER + INTRA:          -4.295
REMARK INTER:                  -4.130
REMARK INTRA:                  -0.165
REMARK UNBOUND:                -0.084
REMARK SMILES CCCCCC(=O)[O-]
REMARK SMILES IDX 4 1 5 2 6 3 7 4 8 5 3 6 2 7 1 8
REMARK H PARENT
REMARK Flexibility Score: inf
ROOT
ATOM      1  C   UNL     1      60.809 146.275 -33.217  1.00  0.00     0.006 C 
ENDROOT
BRANCH   1   2
ATOM      2  C   UNL     1      61.296 147.062 -34.440  1.00  0.00     0.053 C 
BRANCH   2   3
ATOM      3  C   UNL     1      60.296 148.108 -34.819  1.00  0.00     0.041 C 
ATOM      4  O   UNL     1      60.622 149.325 -34.822  1.00  0.00    -0.550 OA
ATOM      5  O   UNL     1      58.991 147.744 -35.124  1.00  0.00    -0.550 OA
ENDBRANCH   2   3
ENDBRANCH   1   2
BRANCH   1   6
ATOM      6  C   UNL     1      60.897 144.754 -33.417  1.00  0.00     0.000 C 
BRANCH   6   7
ATOM      7  C   UNL     1      60.892 144.353 -34.900  1.00  0.00    -0.003 C 
ATOM      8  C   UNL     1      61.694 143.074 -35.125  1.00  0.00     0.004 C 
ENDBRANCH   6   7
ENDBRANCH   1   6
TORSDOF 4
ENDMDL
MODEL 8
REMARK VINA RESULT:    -1.309     15.454     16.774
REMARK INTER + INTRA:          -1.700
REMARK INTER:                  -1.631
REMARK INTRA:                  -0.068
REMARK UNBOUND:                -0.084
REMARK SMILES CCCCCC(=O)[O-]
REMARK SMILES IDX 4 1 5 2 6 3 7 4 8 5 3 6 2 7 1 8
REMARK H PARENT
REMARK Flexibility Score: inf
ROOT
ATOM      1  C   UNL     1      60.713 143.978 -16.482  1.00  0.00     0.006 C 
ENDROOT
BRANCH   1   2
ATOM      2  C   UNL     1      59.629 143.110 -15.832  1.00  0.00     0.053 C 
BRANCH   2   3
ATOM      3  C   UNL     1      60.216 141.824 -15.342  1.00  0.00     0.041 C 
ATOM      4  O   UNL     1      61.411 141.781 -14.949  1.00  0.00    -0.550 OA
ATOM      5  O   UNL     1      59.457 140.660 -15.366  1.00  0.00    -0.550 OA
ENDBRANCH   2   3
ENDBRANCH   1   2
BRANCH   1   6
ATOM      6  C   UNL     1      61.128 143.467 -17.871  1.00  0.00     0.000 C 
BRANCH   6   7
ATOM      7  C   UNL     1      62.581 143.821 -18.220  1.00  0.00    -0.003 C 
ATOM      8  C   UNL     1      63.137 142.872 -19.278  1.00  0.00     0.004 C 
ENDBRANCH   6   7
ENDBRANCH   1   6
TORSDOF 4
ENDMDL
