MODEL 1
REMARK VINA RESULT:    -3.715      0.000      0.000
REMARK INTER + INTRA:         -14.978
REMARK INTER:                  -9.797
REMARK INTRA:                  -5.181
REMARK UNBOUND:                -5.181
REMARK SMILES CCCCCCCCCCCCCCCCCCCCCCCCCCCCCC(=O)[O-]
REMARK SMILES IDX 16 1 17 2 18 3 19 4 20 5 21 6 22 7 23 8 24 9 25 10 26 11
REMARK SMILES IDX 27 12 28 13 29 14 30 15 31 16 32 17 15 18 14 19 13 20 12 21
REMARK SMILES IDX 11 22 10 23 9 24 8 25 7 26 6 27 5 28 4 29 3 30 2 31 1 32
REMARK H PARENT
REMARK Flexibility Score: inf
ROOT
ATOM      1  C   UNL     1     -17.458 -19.102   1.751  1.00  0.00     0.000 C 
ENDROOT
BRANCH   1   2
ATOM      2  C   UNL     1     -18.930 -19.556   1.751  1.00  0.00     0.000 C 
BRANCH   2   3
ATOM      3  C   UNL     1     -19.892 -18.449   1.287  1.00  0.00     0.000 C 
BRANCH   3   4
ATOM      4  C   UNL     1     -21.002 -18.155   2.310  1.00  0.00     0.000 C 
BRANCH   4   5
ATOM      5  C   UNL     1     -20.489 -18.159   3.761  1.00  0.00     0.000 C 
BRANCH   5   6
ATOM      6  C   UNL     1     -20.191 -16.744   4.292  1.00  0.00     0.000 C 
BRANCH   6   7
ATOM      7  C   UNL     1     -18.768 -16.225   4.007  1.00  0.00     0.000 C 
BRANCH   7   8
ATOM      8  C   UNL     1     -18.719 -15.212   2.853  1.00  0.00     0.000 C 
BRANCH   8   9
ATOM      9  C   UNL     1     -17.500 -15.459   1.956  1.00  0.00     0.000 C 
BRANCH   9  10
ATOM     10  C   UNL     1     -17.885 -15.381   0.471  1.00  0.00     0.000 C 
BRANCH  10  11
ATOM     11  C   UNL     1     -16.823 -14.663  -0.376  1.00  0.00     0.000 C 
BRANCH  11  12
ATOM     12  C   UNL     1     -17.166 -14.663  -1.874  1.00  0.00     0.000 C 
BRANCH  12  13
ATOM     13  C   UNL     1     -17.967 -13.412  -2.253  1.00  0.00     0.006 C 
BRANCH  13  14
ATOM     14  C   UNL     1     -18.776 -13.641  -3.533  1.00  0.00     0.053 C 
BRANCH  14  15
ATOM     15  C   UNL     1     -19.509 -12.396  -3.925  1.00  0.00     0.041 C 
ATOM     16  O   UNL     1     -20.242 -12.389  -4.951  1.00  0.00    -0.550 OA
ATOM     17  O   UNL     1     -19.401 -11.250  -3.146  1.00  0.00    -0.550 OA
ENDBRANCH  14  15
ENDBRANCH  13  14
ENDBRANCH  12  13
ENDBRANCH  11  12
ENDBRANCH  10  11
ENDBRANCH   9  10
ENDBRANCH   8   9
ENDBRANCH   7   8
ENDBRANCH   6   7
ENDBRANCH   5   6
ENDBRANCH   4   5
ENDBRANCH   3   4
ENDBRANCH   2   3
ENDBRANCH   1   2
BRANCH   1  18
ATOM     18  C   UNL     1     -16.432 -20.213   2.054  1.00  0.00     0.000 C 
BRANCH  18  19
ATOM     19  C   UNL     1     -15.744 -20.102   3.429  1.00  0.00     0.000 C 
BRANCH  19  20
ATOM     20  C   UNL     1     -16.195 -18.901   4.285  1.00  0.00     0.000 C 
BRANCH  20  21
ATOM     21  C   UNL     1     -16.973 -19.266   5.562  1.00  0.00     0.000 C 
BRANCH  21  22
ATOM     22  C   UNL     1     -17.369 -20.749   5.617  1.00  0.00     0.000 C 
BRANCH  22  23
ATOM     23  C   UNL     1     -18.867 -20.930   5.349  1.00  0.00     0.000 C 
BRANCH  23  24
ATOM     24  C   UNL     1     -19.109 -22.054   4.332  1.00  0.00    -0.000 C 
BRANCH  24  25
ATOM     25  C   UNL     1     -20.572 -22.532   4.297  1.00  0.00    -0.000 C 
BRANCH  25  26
ATOM     26  C   UNL     1     -21.502 -21.733   3.360  1.00  0.00    -0.000 C 
BRANCH  26  27
ATOM     27  C   UNL     1     -21.412 -22.108   1.869  1.00  0.00    -0.000 C 
BRANCH  27  28
ATOM     28  C   UNL     1     -22.379 -21.336   0.952  1.00  0.00    -0.000 C 
BRANCH  28  29
ATOM     29  C   UNL     1     -22.090 -21.529  -0.553  1.00  0.00    -0.000 C 
BRANCH  29  30
ATOM     30  C   UNL     1     -21.915 -20.191  -1.291  1.00  0.00    -0.000 C 
BRANCH  30  31
ATOM     31  C   UNL     1     -23.196 -19.341  -1.282  1.00  0.00    -0.003 C 
ATOM     32  C   UNL     1     -22.949 -17.903  -0.827  1.00  0.00     0.004 C 
ENDBRANCH  30  31
ENDBRANCH  29  30
ENDBRANCH  28  29
ENDBRANCH  27  28
ENDBRANCH  26  27
ENDBRANCH  25  26
ENDBRANCH  24  25
ENDBRANCH  23  24
ENDBRANCH  22  23
ENDBRANCH  21  22
ENDBRANCH  20  21
ENDBRANCH  19  20
ENDBRANCH  18  19
ENDBRANCH   1  18
TORSDOF 28
ENDMDL
MODEL 2
REMARK VINA RESULT:    -3.619      2.809      4.611
REMARK INTER + INTRA:         -14.725
REMARK INTER:                 -10.288
REMARK INTRA:                  -4.436
REMARK UNBOUND:                -5.181
REMARK SMILES CCCCCCCCCCCCCCCCCCCCCCCCCCCCCC(=O)[O-]
REMARK SMILES IDX 16 1 17 2 18 3 19 4 20 5 21 6 22 7 23 8 24 9 25 10 26 11
REMARK SMILES IDX 27 12 28 13 29 14 30 15 31 16 32 17 15 18 14 19 13 20 12 21
REMARK SMILES IDX 11 22 10 23 9 24 8 25 7 26 6 27 5 28 4 29 3 30 2 31 1 32
REMARK H PARENT
REMARK Flexibility Score: inf
ROOT
ATOM      1  C   UNL     1     -19.478 -17.581   4.702  1.00  0.00     0.000 C 
ENDROOT
BRANCH   1   2
ATOM      2  C   UNL     1     -19.438 -17.027   3.265  1.00  0.00     0.000 C 
BRANCH   2   3
ATOM      3  C   UNL     1     -18.072 -16.424   2.899  1.00  0.00     0.000 C 
BRANCH   3   4
ATOM      4  C   UNL     1     -17.794 -16.448   1.387  1.00  0.00     0.000 C 
BRANCH   4   5
ATOM      5  C   UNL     1     -17.264 -15.104   0.858  1.00  0.00     0.000 C 
BRANCH   5   6
ATOM      6  C   UNL     1     -17.911 -14.692  -0.477  1.00  0.00     0.000 C 
BRANCH   6   7
ATOM      7  C   UNL     1     -17.039 -14.928  -1.726  1.00  0.00     0.000 C 
BRANCH   7   8
ATOM      8  C   UNL     1     -17.276 -13.884  -2.829  1.00  0.00     0.000 C 
BRANCH   8   9
ATOM      9  C   UNL     1     -18.183 -12.753  -2.330  1.00  0.00     0.000 C 
BRANCH   9  10
ATOM     10  C   UNL     1     -17.616 -11.380  -2.724  1.00  0.00     0.000 C 
BRANCH  10  11
ATOM     11  C   UNL     1     -16.234 -11.114  -2.107  1.00  0.00     0.000 C 
BRANCH  11  12
ATOM     12  C   UNL     1     -16.232 -11.277  -0.579  1.00  0.00     0.000 C 
BRANCH  12  13
ATOM     13  C   UNL     1     -15.020 -12.094  -0.117  1.00  0.00     0.006 C 
BRANCH  13  14
ATOM     14  C   UNL     1     -14.042 -11.227   0.684  1.00  0.00     0.053 C 
BRANCH  14  15
ATOM     15  C   UNL     1     -12.668 -11.820   0.661  1.00  0.00     0.041 C 
ATOM     16  O   UNL     1     -11.678 -11.112   0.332  1.00  0.00    -0.550 OA
ATOM     17  O   UNL     1     -12.477 -13.148   1.023  1.00  0.00    -0.550 OA
ENDBRANCH  14  15
ENDBRANCH  13  14
ENDBRANCH  12  13
ENDBRANCH  11  12
ENDBRANCH  10  11
ENDBRANCH   9  10
ENDBRANCH   8   9
ENDBRANCH   7   8
ENDBRANCH   6   7
ENDBRANCH   5   6
ENDBRANCH   4   5
ENDBRANCH   3   4
ENDBRANCH   2   3
ENDBRANCH   1   2
BRANCH   1  18
ATOM     18  C   UNL     1     -18.116 -17.629   5.422  1.00  0.00     0.000 C 
BRANCH  18  19
ATOM     19  C   UNL     1     -17.742 -19.003   6.012  1.00  0.00     0.000 C 
BRANCH  19  20
ATOM     20  C   UNL     1     -16.284 -19.441   5.765  1.00  0.00     0.000 C 
BRANCH  20  21
ATOM     21  C   UNL     1     -15.682 -18.975   4.427  1.00  0.00     0.000 C 
BRANCH  21  22
ATOM     22  C   UNL     1     -15.544 -20.113   3.405  1.00  0.00     0.000 C 
BRANCH  22  23
ATOM     23  C   UNL     1     -16.423 -19.859   2.175  1.00  0.00     0.000 C 
BRANCH  23  24
ATOM     24  C   UNL     1     -17.891 -20.193   2.473  1.00  0.00    -0.000 C 
BRANCH  24  25
ATOM     25  C   UNL     1     -18.063 -21.507   3.256  1.00  0.00    -0.000 C 
BRANCH  25  26
ATOM     26  C   UNL     1     -19.512 -21.839   3.671  1.00  0.00    -0.000 C 
BRANCH  26  27
ATOM     27  C   UNL     1     -20.511 -20.672   3.562  1.00  0.00    -0.000 C 
BRANCH  27  28
ATOM     28  C   UNL     1     -21.557 -20.823   2.441  1.00  0.00    -0.000 C 
BRANCH  28  29
ATOM     29  C   UNL     1     -21.706 -19.562   1.562  1.00  0.00    -0.000 C 
BRANCH  29  30
ATOM     30  C   UNL     1     -20.751 -19.574   0.357  1.00  0.00    -0.000 C 
BRANCH  30  31
ATOM     31  C   UNL     1     -21.331 -20.332  -0.848  1.00  0.00    -0.003 C 
ATOM     32  C   UNL     1     -22.417 -19.543  -1.578  1.00  0.00     0.004 C 
ENDBRANCH  30  31
ENDBRANCH  29  30
ENDBRANCH  28  29
ENDBRANCH  27  28
ENDBRANCH  26  27
ENDBRANCH  25  26
ENDBRANCH  24  25
ENDBRANCH  23  24
ENDBRANCH  22  23
ENDBRANCH  21  22
ENDBRANCH  20  21
ENDBRANCH  19  20
ENDBRANCH  18  19
ENDBRANCH   1  18
TORSDOF 28
ENDMDL
MODEL 3
REMARK VINA RESULT:    -3.601      1.525      4.926
REMARK INTER + INTRA:         -14.678
REMARK INTER:                  -9.593
REMARK INTRA:                  -5.085
REMARK UNBOUND:                -5.181
REMARK SMILES CCCCCCCCCCCCCCCCCCCCCCCCCCCCCC(=O)[O-]
REMARK SMILES IDX 16 1 17 2 18 3 19 4 20 5 21 6 22 7 23 8 24 9 25 10 26 11
REMARK SMILES IDX 27 12 28 13 29 14 30 15 31 16 32 17 15 18 14 19 13 20 12 21
REMARK SMILES IDX 11 22 10 23 9 24 8 25 7 26 6 27 5 28 4 29 3 30 2 31 1 32
REMARK H PARENT
REMARK Flexibility Score: inf
ROOT
ATOM      1  C   UNL     1     -22.769 -16.987  -0.102  1.00  0.00     0.000 C 
ENDROOT
BRANCH   1   2
ATOM      2  C   UNL     1     -21.610 -16.731   0.881  1.00  0.00     0.000 C 
BRANCH   2   3
ATOM      3  C   UNL     1     -21.293 -17.954   1.757  1.00  0.00     0.000 C 
BRANCH   3   4
ATOM      4  C   UNL     1     -20.011 -18.683   1.325  1.00  0.00     0.000 C 
BRANCH   4   5
ATOM      5  C   UNL     1     -18.733 -17.920   1.717  1.00  0.00     0.000 C 
BRANCH   5   6
ATOM      6  C   UNL     1     -18.792 -17.354   3.148  1.00  0.00     0.000 C 
BRANCH   6   7
ATOM      7  C   UNL     1     -17.822 -16.191   3.433  1.00  0.00     0.000 C 
BRANCH   7   8
ATOM      8  C   UNL     1     -18.417 -14.817   3.092  1.00  0.00     0.000 C 
BRANCH   8   9
ATOM      9  C   UNL     1     -17.409 -13.957   2.320  1.00  0.00     0.000 C 
BRANCH   9  10
ATOM     10  C   UNL     1     -16.936 -14.674   1.047  1.00  0.00     0.000 C 
BRANCH  10  11
ATOM     11  C   UNL     1     -15.764 -13.951   0.365  1.00  0.00     0.000 C 
BRANCH  11  12
ATOM     12  C   UNL     1     -16.094 -12.489   0.024  1.00  0.00     0.000 C 
BRANCH  12  13
ATOM     13  C   UNL     1     -17.271 -12.407  -0.955  1.00  0.00     0.006 C 
BRANCH  13  14
ATOM     14  C   UNL     1     -16.815 -12.691  -2.390  1.00  0.00     0.053 C 
BRANCH  14  15
ATOM     15  C   UNL     1     -17.441 -13.950  -2.904  1.00  0.00     0.041 C 
ATOM     16  O   UNL     1     -16.842 -15.052  -2.779  1.00  0.00    -0.550 OA
ATOM     17  O   UNL     1     -18.695 -13.910  -3.502  1.00  0.00    -0.550 OA
ENDBRANCH  14  15
ENDBRANCH  13  14
ENDBRANCH  12  13
ENDBRANCH  11  12
ENDBRANCH  10  11
ENDBRANCH   9  10
ENDBRANCH   8   9
ENDBRANCH   7   8
ENDBRANCH   6   7
ENDBRANCH   5   6
ENDBRANCH   4   5
ENDBRANCH   3   4
ENDBRANCH   2   3
ENDBRANCH   1   2
BRANCH   1  18
ATOM     18  C   UNL     1     -23.682 -18.175   0.260  1.00  0.00     0.000 C 
BRANCH  18  19
ATOM     19  C   UNL     1     -23.772 -19.275  -0.816  1.00  0.00     0.000 C 
BRANCH  19  20
ATOM     20  C   UNL     1     -22.483 -19.487  -1.636  1.00  0.00     0.000 C 
BRANCH  20  21
ATOM     21  C   UNL     1     -21.636 -20.703  -1.217  1.00  0.00     0.000 C 
BRANCH  21  22
ATOM     22  C   UNL     1     -22.402 -21.682  -0.316  1.00  0.00     0.000 C 
BRANCH  22  23
ATOM     23  C   UNL     1     -21.762 -21.766   1.075  1.00  0.00     0.000 C 
BRANCH  23  24
ATOM     24  C   UNL     1     -22.780 -21.411   2.167  1.00  0.00    -0.000 C 
BRANCH  24  25
ATOM     25  C   UNL     1     -22.254 -21.671   3.590  1.00  0.00    -0.000 C 
BRANCH  25  26
ATOM     26  C   UNL     1     -21.639 -20.444   4.297  1.00  0.00    -0.000 C 
BRANCH  26  27
ATOM     27  C   UNL     1     -20.149 -20.575   4.662  1.00  0.00    -0.000 C 
BRANCH  27  28
ATOM     28  C   UNL     1     -19.428 -21.766   4.003  1.00  0.00    -0.000 C 
BRANCH  28  29
ATOM     29  C   UNL     1     -18.181 -21.358   3.187  1.00  0.00    -0.000 C 
BRANCH  29  30
ATOM     30  C   UNL     1     -17.183 -20.533   4.016  1.00  0.00    -0.000 C 
BRANCH  30  31
ATOM     31  C   UNL     1     -15.930 -20.146   3.216  1.00  0.00    -0.003 C 
ATOM     32  C   UNL     1     -16.137 -20.245   1.705  1.00  0.00     0.004 C 
ENDBRANCH  30  31
ENDBRANCH  29  30
ENDBRANCH  28  29
ENDBRANCH  27  28
ENDBRANCH  26  27
ENDBRANCH  25  26
ENDBRANCH  24  25
ENDBRANCH  23  24
ENDBRANCH  22  23
ENDBRANCH  21  22
ENDBRANCH  20  21
ENDBRANCH  19  20
ENDBRANCH  18  19
ENDBRANCH   1  18
TORSDOF 28
ENDMDL
MODEL 4
REMARK VINA RESULT:    -3.563      3.518      7.984
REMARK INTER + INTRA:         -14.575
REMARK INTER:                  -9.803
REMARK INTRA:                  -4.773
REMARK UNBOUND:                -5.181
REMARK SMILES CCCCCCCCCCCCCCCCCCCCCCCCCCCCCC(=O)[O-]
REMARK SMILES IDX 16 1 17 2 18 3 19 4 20 5 21 6 22 7 23 8 24 9 25 10 26 11
REMARK SMILES IDX 27 12 28 13 29 14 30 15 31 16 32 17 15 18 14 19 13 20 12 21
REMARK SMILES IDX 11 22 10 23 9 24 8 25 7 26 6 27 5 28 4 29 3 30 2 31 1 32
REMARK H PARENT
REMARK Flexibility Score: inf
ROOT
ATOM      1  C   UNL     1     -23.767 -19.192  -0.855  1.00  0.00     0.000 C 
ENDROOT
BRANCH   1   2
ATOM      2  C   UNL     1     -22.462 -19.312  -1.664  1.00  0.00     0.000 C 
BRANCH   2   3
ATOM      3  C   UNL     1     -21.446 -20.265  -1.014  1.00  0.00     0.000 C 
BRANCH   3   4
ATOM      4  C   UNL     1     -22.077 -21.592  -0.561  1.00  0.00     0.000 C 
BRANCH   4   5
ATOM      5  C   UNL     1     -22.125 -21.734   0.971  1.00  0.00     0.000 C 
BRANCH   5   6
ATOM      6  C   UNL     1     -21.300 -20.654   1.696  1.00  0.00     0.000 C 
BRANCH   6   7
ATOM      7  C   UNL     1     -21.915 -20.132   3.009  1.00  0.00     0.000 C 
BRANCH   7   8
ATOM      8  C   UNL     1     -20.986 -20.312   4.219  1.00  0.00     0.000 C 
BRANCH   8   9
ATOM      9  C   UNL     1     -20.302 -21.684   4.189  1.00  0.00     0.000 C 
BRANCH   9  10
ATOM     10  C   UNL     1     -18.810 -21.561   4.534  1.00  0.00     0.000 C 
BRANCH  10  11
ATOM     11  C   UNL     1     -17.907 -21.699   3.298  1.00  0.00     0.000 C 
BRANCH  11  12
ATOM     12  C   UNL     1     -17.620 -20.347   2.627  1.00  0.00     0.000 C 
BRANCH  12  13
ATOM     13  C   UNL     1     -16.222 -19.837   2.995  1.00  0.00     0.006 C 
BRANCH  13  14
ATOM     14  C   UNL     1     -16.275 -18.913   4.216  1.00  0.00     0.053 C 
BRANCH  14  15
ATOM     15  C   UNL     1     -15.373 -19.416   5.300  1.00  0.00     0.041 C 
ATOM     16  O   UNL     1     -14.681 -18.606   5.973  1.00  0.00    -0.550 OA
ATOM     17  O   UNL     1     -15.314 -20.776   5.581  1.00  0.00    -0.550 OA
ENDBRANCH  14  15
ENDBRANCH  13  14
ENDBRANCH  12  13
ENDBRANCH  11  12
ENDBRANCH  10  11
ENDBRANCH   9  10
ENDBRANCH   8   9
ENDBRANCH   7   8
ENDBRANCH   6   7
ENDBRANCH   5   6
ENDBRANCH   4   5
ENDBRANCH   3   4
ENDBRANCH   2   3
ENDBRANCH   1   2
BRANCH   1  18
ATOM     18  C   UNL     1     -23.795 -18.045   0.175  1.00  0.00     0.000 C 
BRANCH  18  19
ATOM     19  C   UNL     1     -22.637 -17.034   0.052  1.00  0.00     0.000 C 
BRANCH  19  20
ATOM     20  C   UNL     1     -21.723 -16.941   1.291  1.00  0.00     0.000 C 
BRANCH  20  21
ATOM     21  C   UNL     1     -20.235 -17.233   1.027  1.00  0.00     0.000 C 
BRANCH  21  22
ATOM     22  C   UNL     1     -19.375 -17.146   2.296  1.00  0.00     0.000 C 
BRANCH  22  23
ATOM     23  C   UNL     1     -18.023 -16.485   2.000  1.00  0.00     0.000 C 
BRANCH  23  24
ATOM     24  C   UNL     1     -18.023 -15.839   0.608  1.00  0.00    -0.000 C 
BRANCH  24  25
ATOM     25  C   UNL     1     -17.607 -14.358   0.630  1.00  0.00    -0.000 C 
BRANCH  25  26
ATOM     26  C   UNL     1     -16.852 -13.868  -0.624  1.00  0.00    -0.000 C 
BRANCH  26  27
ATOM     27  C   UNL     1     -16.893 -14.825  -1.830  1.00  0.00    -0.000 C 
BRANCH  27  28
ATOM     28  C   UNL     1     -17.655 -14.283  -3.054  1.00  0.00    -0.000 C 
BRANCH  28  29
ATOM     29  C   UNL     1     -18.179 -12.842  -2.867  1.00  0.00    -0.000 C 
BRANCH  29  30
ATOM     30  C   UNL     1     -19.594 -12.656  -3.439  1.00  0.00    -0.000 C 
BRANCH  30  31
ATOM     31  C   UNL     1     -20.624 -13.586  -2.780  1.00  0.00    -0.003 C 
ATOM     32  C   UNL     1     -20.682 -13.423  -1.261  1.00  0.00     0.004 C 
ENDBRANCH  30  31
ENDBRANCH  29  30
ENDBRANCH  28  29
ENDBRANCH  27  28
ENDBRANCH  26  27
ENDBRANCH  25  26
ENDBRANCH  24  25
ENDBRANCH  23  24
ENDBRANCH  22  23
ENDBRANCH  21  22
ENDBRANCH  20  21
ENDBRANCH  19  20
ENDBRANCH  18  19
ENDBRANCH   1  18
TORSDOF 28
ENDMDL
MODEL 5
REMARK VINA RESULT:    -3.553      3.413      6.498
REMARK INTER + INTRA:         -14.551
REMARK INTER:                 -10.685
REMARK INTRA:                  -3.866
REMARK UNBOUND:                -5.181
REMARK SMILES CCCCCCCCCCCCCCCCCCCCCCCCCCCCCC(=O)[O-]
REMARK SMILES IDX 16 1 17 2 18 3 19 4 20 5 21 6 22 7 23 8 24 9 25 10 26 11
REMARK SMILES IDX 27 12 28 13 29 14 30 15 31 16 32 17 15 18 14 19 13 20 12 21
REMARK SMILES IDX 11 22 10 23 9 24 8 25 7 26 6 27 5 28 4 29 3 30 2 31 1 32
REMARK H PARENT
REMARK Flexibility Score: inf
ROOT
ATOM      1  C   UNL     1     -17.254 -14.822   0.779  1.00  0.00     0.000 C 
ENDROOT
BRANCH   1   2
ATOM      2  C   UNL     1     -17.938 -14.597  -0.583  1.00  0.00     0.000 C 
BRANCH   2   3
ATOM      3  C   UNL     1     -16.999 -14.866  -1.771  1.00  0.00     0.000 C 
BRANCH   3   4
ATOM      4  C   UNL     1     -17.493 -14.227  -3.079  1.00  0.00     0.000 C 
BRANCH   4   5
ATOM      5  C   UNL     1     -18.808 -13.448  -2.901  1.00  0.00     0.000 C 
BRANCH   5   6
ATOM      6  C   UNL     1     -18.607 -11.922  -2.945  1.00  0.00     0.000 C 
BRANCH   6   7
ATOM      7  C   UNL     1     -18.898 -11.185  -1.623  1.00  0.00     0.000 C 
BRANCH   7   8
ATOM      8  C   UNL     1     -17.623 -10.723  -0.901  1.00  0.00     0.000 C 
BRANCH   8   9
ATOM      9  C   UNL     1     -16.374 -11.039  -1.734  1.00  0.00     0.000 C 
BRANCH   9  10
ATOM     10  C   UNL     1     -15.245 -11.585  -0.846  1.00  0.00     0.000 C 
BRANCH  10  11
ATOM     11  C   UNL     1     -15.557 -11.449   0.653  1.00  0.00     0.000 C 
BRANCH  11  12
ATOM     12  C   UNL     1     -14.401 -11.936   1.540  1.00  0.00     0.000 C 
BRANCH  12  13
ATOM     13  C   UNL     1     -13.942 -13.338   1.121  1.00  0.00     0.006 C 
BRANCH  13  14
ATOM     14  C   UNL     1     -12.413 -13.438   1.114  1.00  0.00     0.053 C 
BRANCH  14  15
ATOM     15  C   UNL     1     -11.881 -13.509   2.511  1.00  0.00     0.041 C 
ATOM     16  O   UNL     1     -11.576 -12.452   3.127  1.00  0.00    -0.550 OA
ATOM     17  O   UNL     1     -11.743 -14.740   3.142  1.00  0.00    -0.550 OA
ENDBRANCH  14  15
ENDBRANCH  13  14
ENDBRANCH  12  13
ENDBRANCH  11  12
ENDBRANCH  10  11
ENDBRANCH   9  10
ENDBRANCH   8   9
ENDBRANCH   7   8
ENDBRANCH   6   7
ENDBRANCH   5   6
ENDBRANCH   4   5
ENDBRANCH   3   4
ENDBRANCH   2   3
ENDBRANCH   1   2
BRANCH   1  18
ATOM     18  C   UNL     1     -18.104 -15.576   1.821  1.00  0.00     0.000 C 
BRANCH  18  19
ATOM     19  C   UNL     1     -17.949 -17.109   1.798  1.00  0.00     0.000 C 
BRANCH  19  20
ATOM     20  C   UNL     1     -19.273 -17.896   1.876  1.00  0.00     0.000 C 
BRANCH  20  21
ATOM     21  C   UNL     1     -20.389 -17.388   0.946  1.00  0.00     0.000 C 
BRANCH  21  22
ATOM     22  C   UNL     1     -21.769 -17.963   1.298  1.00  0.00     0.000 C 
BRANCH  22  23
ATOM     23  C   UNL     1     -22.352 -18.756   0.123  1.00  0.00     0.000 C 
BRANCH  23  24
ATOM     24  C   UNL     1     -21.326 -19.759  -0.422  1.00  0.00    -0.000 C 
BRANCH  24  25
ATOM     25  C   UNL     1     -21.714 -21.224  -0.154  1.00  0.00    -0.000 C 
BRANCH  25  26
ATOM     26  C   UNL     1     -22.404 -21.484   1.202  1.00  0.00    -0.000 C 
BRANCH  26  27
ATOM     27  C   UNL     1     -21.482 -22.011   2.318  1.00  0.00    -0.000 C 
BRANCH  27  28
ATOM     28  C   UNL     1     -20.680 -20.923   3.057  1.00  0.00    -0.000 C 
BRANCH  28  29
ATOM     29  C   UNL     1     -19.501 -21.480   3.885  1.00  0.00    -0.000 C 
BRANCH  29  30
ATOM     30  C   UNL     1     -18.207 -21.585   3.062  1.00  0.00    -0.000 C 
BRANCH  30  31
ATOM     31  C   UNL     1     -17.162 -20.533   3.468  1.00  0.00    -0.003 C 
ATOM     32  C   UNL     1     -16.189 -20.198   2.338  1.00  0.00     0.004 C 
ENDBRANCH  30  31
ENDBRANCH  29  30
ENDBRANCH  28  29
ENDBRANCH  27  28
ENDBRANCH  26  27
ENDBRANCH  25  26
ENDBRANCH  24  25
ENDBRANCH  23  24
ENDBRANCH  22  23
ENDBRANCH  21  22
ENDBRANCH  20  21
ENDBRANCH  19  20
ENDBRANCH  18  19
ENDBRANCH   1  18
TORSDOF 28
ENDMDL
MODEL 6
REMARK VINA RESULT:    -3.547      1.602      2.877
REMARK INTER + INTRA:         -14.535
REMARK INTER:                  -9.670
REMARK INTRA:                  -4.865
REMARK UNBOUND:                -5.181
REMARK SMILES CCCCCCCCCCCCCCCCCCCCCCCCCCCCCC(=O)[O-]
REMARK SMILES IDX 16 1 17 2 18 3 19 4 20 5 21 6 22 7 23 8 24 9 25 10 26 11
REMARK SMILES IDX 27 12 28 13 29 14 30 15 31 16 32 17 15 18 14 19 13 20 12 21
REMARK SMILES IDX 11 22 10 23 9 24 8 25 7 26 6 27 5 28 4 29 3 30 2 31 1 32
REMARK H PARENT
REMARK Flexibility Score: inf
ROOT
ATOM      1  C   UNL     1     -17.635 -17.970   1.850  1.00  0.00     0.000 C 
ENDROOT
BRANCH   1   2
ATOM      2  C   UNL     1     -19.090 -17.642   2.234  1.00  0.00     0.000 C 
BRANCH   2   3
ATOM      3  C   UNL     1     -20.042 -17.660   1.027  1.00  0.00     0.000 C 
BRANCH   3   4
ATOM      4  C   UNL     1     -21.281 -16.774   1.229  1.00  0.00     0.000 C 
BRANCH   4   5
ATOM      5  C   UNL     1     -21.113 -15.370   0.621  1.00  0.00     0.000 C 
BRANCH   5   6
ATOM      6  C   UNL     1     -20.374 -14.398   1.560  1.00  0.00     0.000 C 
BRANCH   6   7
ATOM      7  C   UNL     1     -19.198 -13.635   0.919  1.00  0.00     0.000 C 
BRANCH   7   8
ATOM      8  C   UNL     1     -17.843 -13.976   1.557  1.00  0.00     0.000 C 
BRANCH   8   9
ATOM      9  C   UNL     1     -16.816 -14.375   0.490  1.00  0.00     0.000 C 
BRANCH   9  10
ATOM     10  C   UNL     1     -17.501 -15.066  -0.700  1.00  0.00     0.000 C 
BRANCH  10  11
ATOM     11  C   UNL     1     -16.832 -14.728  -2.041  1.00  0.00     0.000 C 
BRANCH  11  12
ATOM     12  C   UNL     1     -17.847 -14.296  -3.111  1.00  0.00     0.000 C 
BRANCH  12  13
ATOM     13  C   UNL     1     -18.513 -12.968  -2.731  1.00  0.00     0.006 C 
BRANCH  13  14
ATOM     14  C   UNL     1     -20.039 -13.069  -2.823  1.00  0.00     0.053 C 
BRANCH  14  15
ATOM     15  C   UNL     1     -20.559 -12.220  -3.941  1.00  0.00     0.041 C 
ATOM     16  O   UNL     1     -19.933 -12.160  -5.034  1.00  0.00    -0.550 OA
ATOM     17  O   UNL     1     -21.745 -11.514  -3.785  1.00  0.00    -0.550 OA
ENDBRANCH  14  15
ENDBRANCH  13  14
ENDBRANCH  12  13
ENDBRANCH  11  12
ENDBRANCH  10  11
ENDBRANCH   9  10
ENDBRANCH   8   9
ENDBRANCH   7   8
ENDBRANCH   6   7
ENDBRANCH   5   6
ENDBRANCH   4   5
ENDBRANCH   3   4
ENDBRANCH   2   3
ENDBRANCH   1   2
BRANCH   1  18
ATOM     18  C   UNL     1     -17.307 -19.473   1.757  1.00  0.00     0.000 C 
BRANCH  18  19
ATOM     19  C   UNL     1     -16.726 -20.092   3.044  1.00  0.00     0.000 C 
BRANCH  19  20
ATOM     20  C   UNL     1     -17.758 -20.797   3.947  1.00  0.00     0.000 C 
BRANCH  20  21
ATOM     21  C   UNL     1     -18.989 -21.361   3.214  1.00  0.00     0.000 C 
BRANCH  21  22
ATOM     22  C   UNL     1     -20.316 -20.866   3.808  1.00  0.00     0.000 C 
BRANCH  22  23
ATOM     23  C   UNL     1     -21.435 -20.901   2.760  1.00  0.00     0.000 C 
BRANCH  23  24
ATOM     24  C   UNL     1     -20.853 -20.962   1.341  1.00  0.00    -0.000 C 
BRANCH  24  25
ATOM     25  C   UNL     1     -21.847 -21.515   0.304  1.00  0.00    -0.000 C 
BRANCH  25  26
ATOM     26  C   UNL     1     -21.739 -20.897  -1.106  1.00  0.00    -0.000 C 
BRANCH  26  27
ATOM     27  C   UNL     1     -22.393 -19.511  -1.268  1.00  0.00    -0.000 C 
BRANCH  27  28
ATOM     28  C   UNL     1     -23.891 -19.462  -0.911  1.00  0.00    -0.000 C 
BRANCH  28  29
ATOM     29  C   UNL     1     -24.565 -18.118  -1.264  1.00  0.00    -0.000 C 
BRANCH  29  30
ATOM     30  C   UNL     1     -23.548 -17.049  -1.696  1.00  0.00    -0.000 C 
BRANCH  30  31
ATOM     31  C   UNL     1     -23.789 -16.551  -3.130  1.00  0.00    -0.003 C 
ATOM     32  C   UNL     1     -23.061 -15.242  -3.432  1.00  0.00     0.004 C 
ENDBRANCH  30  31
ENDBRANCH  29  30
ENDBRANCH  28  29
ENDBRANCH  27  28
ENDBRANCH  26  27
ENDBRANCH  25  26
ENDBRANCH  24  25
ENDBRANCH  23  24
ENDBRANCH  22  23
ENDBRANCH  21  22
ENDBRANCH  20  21
ENDBRANCH  19  20
ENDBRANCH  18  19
ENDBRANCH   1  18
TORSDOF 28
ENDMDL
MODEL 7
REMARK VINA RESULT:    -3.537      2.743      4.880
REMARK INTER + INTRA:         -14.509
REMARK INTER:                 -10.004
REMARK INTRA:                  -4.505
REMARK UNBOUND:                -5.181
REMARK SMILES CCCCCCCCCCCCCCCCCCCCCCCCCCCCCC(=O)[O-]
REMARK SMILES IDX 16 1 17 2 18 3 19 4 20 5 21 6 22 7 23 8 24 9 25 10 26 11
REMARK SMILES IDX 27 12 28 13 29 14 30 15 31 16 32 17 15 18 14 19 13 20 12 21
REMARK SMILES IDX 11 22 10 23 9 24 8 25 7 26 6 27 5 28 4 29 3 30 2 31 1 32
REMARK H PARENT
REMARK Flexibility Score: inf
ROOT
ATOM      1  C   UNL     1     -18.290 -15.735   0.673  1.00  0.00     0.000 C 
ENDROOT
BRANCH   1   2
ATOM      2  C   UNL     1     -19.587 -14.984   0.316  1.00  0.00     0.000 C 
BRANCH   2   3
ATOM      3  C   UNL     1     -19.485 -13.471   0.567  1.00  0.00     0.000 C 
BRANCH   3   4
ATOM      4  C   UNL     1     -20.143 -12.636  -0.544  1.00  0.00     0.000 C 
BRANCH   4   5
ATOM      5  C   UNL     1     -21.016 -13.483  -1.487  1.00  0.00     0.000 C 
BRANCH   5   6
ATOM      6  C   UNL     1     -20.754 -13.181  -2.974  1.00  0.00     0.000 C 
BRANCH   6   7
ATOM      7  C   UNL     1     -19.289 -12.857  -3.328  1.00  0.00     0.000 C 
BRANCH   7   8
ATOM      8  C   UNL     1     -18.413 -14.112  -3.461  1.00  0.00     0.000 C 
BRANCH   8   9
ATOM      9  C   UNL     1     -17.215 -14.050  -2.506  1.00  0.00     0.000 C 
BRANCH   9  10
ATOM     10  C   UNL     1     -16.664 -12.618  -2.408  1.00  0.00     0.000 C 
BRANCH  10  11
ATOM     11  C   UNL     1     -16.456 -12.167  -0.954  1.00  0.00     0.000 C 
BRANCH  11  12
ATOM     12  C   UNL     1     -15.778 -13.245  -0.094  1.00  0.00     0.000 C 
BRANCH  12  13
ATOM     13  C   UNL     1     -15.655 -12.788   1.364  1.00  0.00     0.006 C 
BRANCH  13  14
ATOM     14  C   UNL     1     -14.449 -13.439   2.047  1.00  0.00     0.053 C 
BRANCH  14  15
ATOM     15  C   UNL     1     -13.185 -13.111   1.315  1.00  0.00     0.041 C 
ATOM     16  O   UNL     1     -12.422 -14.034   0.923  1.00  0.00    -0.550 OA
ATOM     17  O   UNL     1     -12.860 -11.787   1.047  1.00  0.00    -0.550 OA
ENDBRANCH  14  15
ENDBRANCH  13  14
ENDBRANCH  12  13
ENDBRANCH  11  12
ENDBRANCH  10  11
ENDBRANCH   9  10
ENDBRANCH   8   9
ENDBRANCH   7   8
ENDBRANCH   6   7
ENDBRANCH   5   6
ENDBRANCH   4   5
ENDBRANCH   3   4
ENDBRANCH   2   3
ENDBRANCH   1   2
BRANCH   1  18
ATOM     18  C   UNL     1     -17.877 -15.657   2.157  1.00  0.00     0.000 C 
BRANCH  18  19
ATOM     19  C   UNL     1     -17.580 -17.017   2.819  1.00  0.00     0.000 C 
BRANCH  19  20
ATOM     20  C   UNL     1     -18.157 -18.240   2.077  1.00  0.00     0.000 C 
BRANCH  20  21
ATOM     21  C   UNL     1     -17.132 -19.333   1.725  1.00  0.00     0.000 C 
BRANCH  21  22
ATOM     22  C   UNL     1     -16.669 -20.135   2.950  1.00  0.00     0.000 C 
BRANCH  22  23
ATOM     23  C   UNL     1     -17.860 -20.542   3.825  1.00  0.00     0.000 C 
BRANCH  23  24
ATOM     24  C   UNL     1     -18.583 -21.759   3.233  1.00  0.00    -0.000 C 
BRANCH  24  25
ATOM     25  C   UNL     1     -20.087 -21.784   3.556  1.00  0.00    -0.000 C 
BRANCH  25  26
ATOM     26  C   UNL     1     -20.818 -20.435   3.385  1.00  0.00    -0.000 C 
BRANCH  26  27
ATOM     27  C   UNL     1     -21.833 -20.381   2.227  1.00  0.00    -0.000 C 
BRANCH  27  28
ATOM     28  C   UNL     1     -21.428 -19.460   1.060  1.00  0.00    -0.000 C 
BRANCH  28  29
ATOM     29  C   UNL     1     -20.777 -20.212  -0.122  1.00  0.00    -0.000 C 
BRANCH  29  30
ATOM     30  C   UNL     1     -21.724 -20.340  -1.326  1.00  0.00    -0.000 C 
BRANCH  30  31
ATOM     31  C   UNL     1     -23.081 -19.659  -1.085  1.00  0.00    -0.003 C 
ATOM     32  C   UNL     1     -23.296 -18.435  -1.975  1.00  0.00     0.004 C 
ENDBRANCH  30  31
ENDBRANCH  29  30
ENDBRANCH  28  29
ENDBRANCH  27  28
ENDBRANCH  26  27
ENDBRANCH  25  26
ENDBRANCH  24  25
ENDBRANCH  23  24
ENDBRANCH  22  23
ENDBRANCH  21  22
ENDBRANCH  20  21
ENDBRANCH  19  20
ENDBRANCH  18  19
ENDBRANCH   1  18
TORSDOF 28
ENDMDL
MODEL 8
REMARK VINA RESULT:    -3.537      3.032      6.131
REMARK INTER + INTRA:         -14.507
REMARK INTER:                  -9.461
REMARK INTRA:                  -5.046
REMARK UNBOUND:                -5.181
REMARK SMILES CCCCCCCCCCCCCCCCCCCCCCCCCCCCCC(=O)[O-]
REMARK SMILES IDX 16 1 17 2 18 3 19 4 20 5 21 6 22 7 23 8 24 9 25 10 26 11
REMARK SMILES IDX 27 12 28 13 29 14 30 15 31 16 32 17 15 18 14 19 13 20 12 21
REMARK SMILES IDX 11 22 10 23 9 24 8 25 7 26 6 27 5 28 4 29 3 30 2 31 1 32
REMARK H PARENT
REMARK Flexibility Score: inf
ROOT
ATOM      1  C   UNL     1     -18.020 -16.601   1.467  1.00  0.00     0.000 C 
ENDROOT
BRANCH   1   2
ATOM      2  C   UNL     1     -18.007 -15.402   0.500  1.00  0.00     0.000 C 
BRANCH   2   3
ATOM      3  C   UNL     1     -18.280 -14.065   1.210  1.00  0.00     0.000 C 
BRANCH   3   4
ATOM      4  C   UNL     1     -19.412 -13.260   0.551  1.00  0.00     0.000 C 
BRANCH   4   5
ATOM      5  C   UNL     1     -20.382 -14.145  -0.250  1.00  0.00     0.000 C 
BRANCH   5   6
ATOM      6  C   UNL     1     -20.578 -13.655  -1.698  1.00  0.00     0.000 C 
BRANCH   6   7
ATOM      7  C   UNL     1     -19.395 -12.858  -2.284  1.00  0.00     0.000 C 
BRANCH   7   8
ATOM      8  C   UNL     1     -18.299 -13.759  -2.874  1.00  0.00     0.000 C 
BRANCH   8   9
ATOM      9  C   UNL     1     -16.905 -13.269  -2.465  1.00  0.00     0.000 C 
BRANCH   9  10
ATOM     10  C   UNL     1     -16.886 -11.741  -2.299  1.00  0.00     0.000 C 
BRANCH  10  11
ATOM     11  C   UNL     1     -15.772 -11.265  -1.355  1.00  0.00     0.000 C 
BRANCH  11  12
ATOM     12  C   UNL     1     -15.785 -12.007  -0.010  1.00  0.00     0.000 C 
BRANCH  12  13
ATOM     13  C   UNL     1     -14.372 -12.097   0.580  1.00  0.00     0.006 C 
BRANCH  13  14
ATOM     14  C   UNL     1     -14.080 -13.509   1.098  1.00  0.00     0.053 C 
BRANCH  14  15
ATOM     15  C   UNL     1     -13.205 -13.456   2.312  1.00  0.00     0.041 C 
ATOM     16  O   UNL     1     -13.702 -13.188   3.439  1.00  0.00    -0.550 OA
ATOM     17  O   UNL     1     -11.846 -13.725   2.203  1.00  0.00    -0.550 OA
ENDBRANCH  14  15
ENDBRANCH  13  14
ENDBRANCH  12  13
ENDBRANCH  11  12
ENDBRANCH  10  11
ENDBRANCH   9  10
ENDBRANCH   8   9
ENDBRANCH   7   8
ENDBRANCH   6   7
ENDBRANCH   5   6
ENDBRANCH   4   5
ENDBRANCH   3   4
ENDBRANCH   2   3
ENDBRANCH   1   2
BRANCH   1  18
ATOM     18  C   UNL     1     -19.268 -17.502   1.376  1.00  0.00     0.000 C 
BRANCH  18  19
ATOM     19  C   UNL     1     -20.420 -17.112   2.322  1.00  0.00     0.000 C 
BRANCH  19  20
ATOM     20  C   UNL     1     -21.834 -17.398   1.775  1.00  0.00     0.000 C 
BRANCH  20  21
ATOM     21  C   UNL     1     -21.938 -17.464   0.241  1.00  0.00     0.000 C 
BRANCH  21  22
ATOM     22  C   UNL     1     -23.024 -18.436  -0.243  1.00  0.00     0.000 C 
BRANCH  22  23
ATOM     23  C   UNL     1     -22.445 -19.471  -1.213  1.00  0.00     0.000 C 
BRANCH  23  24
ATOM     24  C   UNL     1     -21.343 -20.298  -0.536  1.00  0.00    -0.000 C 
BRANCH  24  25
ATOM     25  C   UNL     1     -21.895 -21.449   0.324  1.00  0.00    -0.000 C 
BRANCH  25  26
ATOM     26  C   UNL     1     -21.740 -21.264   1.848  1.00  0.00    -0.000 C 
BRANCH  26  27
ATOM     27  C   UNL     1     -20.313 -20.940   2.329  1.00  0.00    -0.000 C 
BRANCH  27  28
ATOM     28  C   UNL     1     -20.213 -20.516   3.807  1.00  0.00    -0.000 C 
BRANCH  28  29
ATOM     29  C   UNL     1     -18.830 -19.947   4.193  1.00  0.00    -0.000 C 
BRANCH  29  30
ATOM     30  C   UNL     1     -17.673 -20.791   3.634  1.00  0.00    -0.000 C 
BRANCH  30  31
ATOM     31  C   UNL     1     -16.555 -19.931   3.025  1.00  0.00    -0.003 C 
ATOM     32  C   UNL     1     -16.481 -20.047   1.502  1.00  0.00     0.004 C 
ENDBRANCH  30  31
ENDBRANCH  29  30
ENDBRANCH  28  29
ENDBRANCH  27  28
ENDBRANCH  26  27
ENDBRANCH  25  26
ENDBRANCH  24  25
ENDBRANCH  23  24
ENDBRANCH  22  23
ENDBRANCH  21  22
ENDBRANCH  20  21
ENDBRANCH  19  20
ENDBRANCH  18  19
ENDBRANCH   1  18
TORSDOF 28
ENDMDL
MODEL 9
REMARK VINA RESULT:    -3.430      1.144      2.290
REMARK INTER + INTRA:         -14.226
REMARK INTER:                  -9.124
REMARK INTRA:                  -5.102
REMARK UNBOUND:                -5.181
REMARK SMILES CCCCCCCCCCCCCCCCCCCCCCCCCCCCCC(=O)[O-]
REMARK SMILES IDX 16 1 17 2 18 3 19 4 20 5 21 6 22 7 23 8 24 9 25 10 26 11
REMARK SMILES IDX 27 12 28 13 29 14 30 15 31 16 32 17 15 18 14 19 13 20 12 21
REMARK SMILES IDX 11 22 10 23 9 24 8 25 7 26 6 27 5 28 4 29 3 30 2 31 1 32
REMARK H PARENT
REMARK Flexibility Score: inf
ROOT
ATOM      1  C   UNL     1     -16.154 -19.947   3.488  1.00  0.00     0.000 C 
ENDROOT
BRANCH   1   2
ATOM      2  C   UNL     1     -16.641 -19.919   2.026  1.00  0.00     0.000 C 
BRANCH   2   3
ATOM      3  C   UNL     1     -17.623 -18.769   1.749  1.00  0.00     0.000 C 
BRANCH   3   4
ATOM      4  C   UNL     1     -19.037 -19.262   1.401  1.00  0.00     0.000 C 
BRANCH   4   5
ATOM      5  C   UNL     1     -20.132 -18.259   1.804  1.00  0.00     0.000 C 
BRANCH   5   6
ATOM      6  C   UNL     1     -20.382 -18.228   3.324  1.00  0.00     0.000 C 
BRANCH   6   7
ATOM      7  C   UNL     1     -19.894 -16.954   4.041  1.00  0.00     0.000 C 
BRANCH   7   8
ATOM      8  C   UNL     1     -19.515 -15.826   3.069  1.00  0.00     0.000 C 
BRANCH   8   9
ATOM      9  C   UNL     1     -18.042 -15.432   3.231  1.00  0.00     0.000 C 
BRANCH   9  10
ATOM     10  C   UNL     1     -17.518 -14.733   1.966  1.00  0.00     0.000 C 
BRANCH  10  11
ATOM     11  C   UNL     1     -17.954 -15.446   0.677  1.00  0.00     0.000 C 
BRANCH  11  12
ATOM     12  C   UNL     1     -18.100 -14.479  -0.508  1.00  0.00     0.000 C 
BRANCH  12  13
ATOM     13  C   UNL     1     -16.866 -14.533  -1.416  1.00  0.00     0.006 C 
BRANCH  13  14
ATOM     14  C   UNL     1     -17.268 -14.587  -2.893  1.00  0.00     0.053 C 
BRANCH  14  15
ATOM     15  C   UNL     1     -18.254 -13.508  -3.213  1.00  0.00     0.041 C 
ATOM     16  O   UNL     1     -17.974 -12.303  -2.972  1.00  0.00    -0.550 OA
ATOM     17  O   UNL     1     -19.473 -13.829  -3.798  1.00  0.00    -0.550 OA
ENDBRANCH  14  15
ENDBRANCH  13  14
ENDBRANCH  12  13
ENDBRANCH  11  12
ENDBRANCH  10  11
ENDBRANCH   9  10
ENDBRANCH   8   9
ENDBRANCH   7   8
ENDBRANCH   6   7
ENDBRANCH   5   6
ENDBRANCH   4   5
ENDBRANCH   3   4
ENDBRANCH   2   3
ENDBRANCH   1   2
BRANCH   1  18
ATOM     18  C   UNL     1     -16.806 -18.900   4.414  1.00  0.00     0.000 C 
BRANCH  18  19
ATOM     19  C   UNL     1     -15.813 -18.012   5.189  1.00  0.00     0.000 C 
BRANCH  19  20
ATOM     20  C   UNL     1     -15.616 -18.399   6.669  1.00  0.00     0.000 C 
BRANCH  20  21
ATOM     21  C   UNL     1     -16.537 -19.522   7.177  1.00  0.00     0.000 C 
BRANCH  21  22
ATOM     22  C   UNL     1     -15.791 -20.841   7.425  1.00  0.00     0.000 C 
BRANCH  22  23
ATOM     23  C   UNL     1     -16.496 -22.011   6.730  1.00  0.00     0.000 C 
BRANCH  23  24
ATOM     24  C   UNL     1     -17.988 -21.713   6.534  1.00  0.00    -0.000 C 
BRANCH  24  25
ATOM     25  C   UNL     1     -18.595 -22.440   5.321  1.00  0.00    -0.000 C 
BRANCH  25  26
ATOM     26  C   UNL     1     -19.253 -21.525   4.267  1.00  0.00    -0.000 C 
BRANCH  26  27
ATOM     27  C   UNL     1     -20.292 -22.209   3.360  1.00  0.00    -0.000 C 
BRANCH  27  28
ATOM     28  C   UNL     1     -21.758 -21.877   3.698  1.00  0.00    -0.000 C 
BRANCH  28  29
ATOM     29  C   UNL     1     -22.545 -21.278   2.512  1.00  0.00    -0.000 C 
BRANCH  29  30
ATOM     30  C   UNL     1     -21.909 -21.621   1.155  1.00  0.00    -0.000 C 
BRANCH  30  31
ATOM     31  C   UNL     1     -22.419 -20.720   0.019  1.00  0.00    -0.003 C 
ATOM     32  C   UNL     1     -21.420 -20.596  -1.132  1.00  0.00     0.004 C 
ENDBRANCH  30  31
ENDBRANCH  29  30
ENDBRANCH  28  29
ENDBRANCH  27  28
ENDBRANCH  26  27
ENDBRANCH  25  26
ENDBRANCH  24  25
ENDBRANCH  23  24
ENDBRANCH  22  23
ENDBRANCH  21  22
ENDBRANCH  20  21
ENDBRANCH  19  20
ENDBRANCH  18  19
ENDBRANCH   1  18
TORSDOF 28
ENDMDL
