MODEL 1
REMARK VINA RESULT:    -6.270      0.000      0.000
REMARK INTER + INTRA:          -6.820
REMARK INTER:                  -6.820
REMARK INTRA:                   0.000
REMARK UNBOUND:                 0.000
REMARK SMILES Cc1cc(O)c2c(c1)C(=O)c1cc(O)cc(O)c1C2=O
REMARK SMILES IDX 1 1 2 2 8 3 7 4 6 5 4 6 3 7 19 8 20 9 18 10 11 11 9 12 10 13
REMARK SMILES IDX 12 14 13 15 15 16 16 17 5 18 17 20 14 22
REMARK H PARENT 5 19 17 21 14 23
REMARK Flexibility Score: inf
ROOT
ATOM      1  C   UNL     1      10.754   3.576 -14.251  1.00  0.00     0.044 C 
ATOM      2  C   UNL     1       9.773   2.531 -13.804  1.00  0.00    -0.047 A 
ATOM      3  C   UNL     1      10.209   1.235 -13.514  1.00  0.00     0.016 A 
ATOM      4  C   UNL     1       9.303   0.257 -13.068  1.00  0.00     0.038 A 
ATOM      5  C   UNL     1       7.938   0.584 -12.910  1.00  0.00     0.076 A 
ATOM      6  C   UNL     1       7.517   1.922 -13.126  1.00  0.00     0.127 A 
ATOM      7  C   UNL     1       8.433   2.872 -13.588  1.00  0.00     0.050 A 
ATOM      8  C   UNL     1       6.986  -0.510 -12.582  1.00  0.00     0.201 C 
ATOM      9  O   UNL     1       5.792  -0.440 -12.975  1.00  0.00    -0.288 OA
ATOM     10  C   UNL     1       7.489  -1.761 -11.958  1.00  0.00     0.076 A 
ATOM     11  C   UNL     1       8.856  -2.084 -12.115  1.00  0.00     0.041 A 
ATOM     12  C   UNL     1       9.774  -1.113 -12.756  1.00  0.00     0.194 C 
ATOM     13  O   UNL     1      10.965  -1.445 -13.012  1.00  0.00    -0.289 OA
ATOM     14  C   UNL     1       9.338  -3.322 -11.659  1.00  0.00     0.059 A 
ATOM     15  C   UNL     1       8.480  -4.232 -11.038  1.00  0.00     0.120 A 
ATOM     16  C   UNL     1       7.140  -3.900 -10.844  1.00  0.00     0.093 A 
ATOM     17  C   UNL     1       6.639  -2.666 -11.270  1.00  0.00     0.131 A 
ENDROOT
BRANCH   6  18
ATOM     18  O   UNL     1       6.217   2.357 -12.858  1.00  0.00    -0.507 OA
ATOM     19  H   UNL     1       5.421   1.737 -12.801  1.00  0.00     0.293 HD
ENDBRANCH   6  18
BRANCH  17  20
ATOM     20  O   UNL     1       5.309  -2.368 -10.960  1.00  0.00    -0.507 OA
ATOM     21  H   UNL     1       4.550  -3.026 -11.064  1.00  0.00     0.293 HD
ENDBRANCH  17  20
BRANCH  15  22
ATOM     22  O   UNL     1       8.952  -5.467 -10.595  1.00  0.00    -0.508 OA
ATOM     23  H   UNL     1       9.496  -6.073 -11.198  1.00  0.00     0.293 HD
ENDBRANCH  15  22
TORSDOF 3
ENDMDL
MODEL 2
REMARK VINA RESULT:    -6.159      1.986      6.276
REMARK INTER + INTRA:          -6.699
REMARK INTER:                  -6.699
REMARK INTRA:                   0.000
REMARK UNBOUND:                 0.000
REMARK SMILES Cc1cc(O)c2c(c1)C(=O)c1cc(O)cc(O)c1C2=O
REMARK SMILES IDX 1 1 2 2 8 3 7 4 6 5 4 6 3 7 19 8 20 9 18 10 11 11 9 12 10 13
REMARK SMILES IDX 12 14 13 15 15 16 16 17 5 18 17 20 14 22
REMARK H PARENT 5 19 17 21 14 23
REMARK Flexibility Score: inf
ROOT
ATOM      1  C   UNL     1       7.375  -4.117 -10.386  1.00  0.00     0.044 C 
ATOM      2  C   UNL     1       7.698  -2.827 -11.081  1.00  0.00    -0.047 A 
ATOM      3  C   UNL     1       6.698  -2.126 -11.763  1.00  0.00     0.016 A 
ATOM      4  C   UNL     1       6.983  -0.902 -12.394  1.00  0.00     0.038 A 
ATOM      5  C   UNL     1       8.292  -0.372 -12.339  1.00  0.00     0.076 A 
ATOM      6  C   UNL     1       9.280  -1.046 -11.575  1.00  0.00     0.127 A 
ATOM      7  C   UNL     1       8.978  -2.271 -10.974  1.00  0.00     0.050 A 
ATOM      8  C   UNL     1       8.592   0.844 -13.139  1.00  0.00     0.201 C 
ATOM      9  O   UNL     1       9.754   1.026 -13.591  1.00  0.00    -0.288 OA
ATOM     10  C   UNL     1       7.484   1.740 -13.561  1.00  0.00     0.076 A 
ATOM     11  C   UNL     1       6.176   1.207 -13.612  1.00  0.00     0.041 A 
ATOM     12  C   UNL     1       5.917  -0.163 -13.109  1.00  0.00     0.194 C 
ATOM     13  O   UNL     1       4.781  -0.688 -13.267  1.00  0.00    -0.289 OA
ATOM     14  C   UNL     1       5.126   1.981 -14.136  1.00  0.00     0.059 A 
ATOM     15  C   UNL     1       5.363   3.279 -14.593  1.00  0.00     0.120 A 
ATOM     16  C   UNL     1       6.644   3.823 -14.507  1.00  0.00     0.093 A 
ATOM     17  C   UNL     1       7.701   3.081 -13.971  1.00  0.00     0.131 A 
ENDROOT
BRANCH   6  18
ATOM     18  O   UNL     1      10.555  -0.518 -11.357  1.00  0.00    -0.507 OA
ATOM     19  H   UNL     1      10.931   0.265 -11.873  1.00  0.00     0.293 HD
ENDBRANCH   6  18
BRANCH  17  20
ATOM     20  O   UNL     1       8.934   3.724 -13.833  1.00  0.00    -0.507 OA
ATOM     21  H   UNL     1       9.708   3.342 -13.307  1.00  0.00     0.293 HD
ENDBRANCH  17  20
BRANCH  15  22
ATOM     22  O   UNL     1       4.326   4.045 -15.124  1.00  0.00    -0.508 OA
ATOM     23  H   UNL     1       4.489   4.718 -15.863  1.00  0.00     0.293 HD
ENDBRANCH  15  22
TORSDOF 3
ENDMDL
MODEL 3
REMARK VINA RESULT:    -5.855      2.500      6.669
REMARK INTER + INTRA:          -6.368
REMARK INTER:                  -6.368
REMARK INTRA:                   0.000
REMARK UNBOUND:                 0.000
REMARK SMILES Cc1cc(O)c2c(c1)C(=O)c1cc(O)cc(O)c1C2=O
REMARK SMILES IDX 1 1 2 2 8 3 7 4 6 5 4 6 3 7 19 8 20 9 18 10 11 11 9 12 10 13
REMARK SMILES IDX 12 14 13 15 15 16 16 17 5 18 17 20 14 22
REMARK H PARENT 5 19 17 21 14 23
REMARK Flexibility Score: inf
ROOT
ATOM      1  C   UNL     1       5.252  -3.995 -13.998  1.00  0.00     0.044 C 
ATOM      2  C   UNL     1       5.871  -2.664 -13.681  1.00  0.00    -0.047 A 
ATOM      3  C   UNL     1       5.277  -1.485 -14.142  1.00  0.00     0.016 A 
ATOM      4  C   UNL     1       5.832  -0.233 -13.826  1.00  0.00     0.038 A 
ATOM      5  C   UNL     1       7.001  -0.162 -13.035  1.00  0.00     0.076 A 
ATOM      6  C   UNL     1       7.549  -1.356 -12.501  1.00  0.00     0.127 A 
ATOM      7  C   UNL     1       6.991  -2.591 -12.846  1.00  0.00     0.050 A 
ATOM      8  C   UNL     1       7.642   1.166 -12.846  1.00  0.00     0.201 C 
ATOM      9  O   UNL     1       8.889   1.242 -12.682  1.00  0.00    -0.288 OA
ATOM     10  C   UNL     1       6.844   2.404 -13.039  1.00  0.00     0.076 A 
ATOM     11  C   UNL     1       5.674   2.329 -13.828  1.00  0.00     0.041 A 
ATOM     12  C   UNL     1       5.194   1.013 -14.313  1.00  0.00     0.194 C 
ATOM     13  O   UNL     1       4.226   0.953 -15.120  1.00  0.00    -0.289 OA
ATOM     14  C   UNL     1       4.969   3.502 -14.147  1.00  0.00     0.059 A 
ATOM     15  C   UNL     1       5.408   4.742 -13.676  1.00  0.00     0.120 A 
ATOM     16  C   UNL     1       6.538   4.815 -12.863  1.00  0.00     0.093 A 
ATOM     17  C   UNL     1       7.245   3.661 -12.515  1.00  0.00     0.131 A 
ENDROOT
BRANCH   6  18
ATOM     18  O   UNL     1       8.617  -1.361 -11.600  1.00  0.00    -0.507 OA
ATOM     19  H   UNL     1       9.045  -0.521 -11.238  1.00  0.00     0.293 HD
ENDBRANCH   6  18
BRANCH  17  20
ATOM     20  O   UNL     1       8.313   3.802 -11.624  1.00  0.00    -0.507 OA
ATOM     21  H   UNL     1       9.054   4.478 -11.743  1.00  0.00     0.293 HD
ENDBRANCH  17  20
BRANCH  15  22
ATOM     22  O   UNL     1       4.718   5.909 -14.000  1.00  0.00    -0.508 OA
ATOM     23  H   UNL     1       3.799   6.104 -13.622  1.00  0.00     0.293 HD
ENDBRANCH  15  22
TORSDOF 3
ENDMDL
MODEL 4
REMARK VINA RESULT:    -5.715     15.873     16.767
REMARK INTER + INTRA:          -6.216
REMARK INTER:                  -6.216
REMARK INTRA:                   0.000
REMARK UNBOUND:                 0.000
REMARK SMILES Cc1cc(O)c2c(c1)C(=O)c1cc(O)cc(O)c1C2=O
REMARK SMILES IDX 1 1 2 2 8 3 7 4 6 5 4 6 3 7 19 8 20 9 18 10 11 11 9 12 10 13
REMARK SMILES IDX 12 14 13 15 15 16 16 17 5 18 17 20 14 22
REMARK H PARENT 5 19 17 21 14 23
REMARK Flexibility Score: inf
ROOT
ATOM      1  C   UNL     1       7.974   5.571   4.022  1.00  0.00     0.044 C 
ATOM      2  C   UNL     1       8.854   4.357   4.087  1.00  0.00    -0.047 A 
ATOM      3  C   UNL     1       8.319   3.086   3.852  1.00  0.00     0.016 A 
ATOM      4  C   UNL     1       9.140   1.946   3.884  1.00  0.00     0.038 A 
ATOM      5  C   UNL     1      10.520   2.082   4.154  1.00  0.00     0.076 A 
ATOM      6  C   UNL     1      11.071   3.380   4.308  1.00  0.00     0.127 A 
ATOM      7  C   UNL     1      10.231   4.497   4.293  1.00  0.00     0.050 A 
ATOM      8  C   UNL     1      11.327   0.845   4.326  1.00  0.00     0.201 C 
ATOM      9  O   UNL     1      12.331   0.853   5.088  1.00  0.00    -0.288 OA
ATOM     10  C   UNL     1      10.843  -0.437   3.752  1.00  0.00     0.076 A 
ATOM     11  C   UNL     1       9.462  -0.568   3.480  1.00  0.00     0.041 A 
ATOM     12  C   UNL     1       8.567   0.604   3.627  1.00  0.00     0.194 C 
ATOM     13  O   UNL     1       7.318   0.463   3.508  1.00  0.00    -0.289 OA
ATOM     14  C   UNL     1       8.946  -1.808   3.067  1.00  0.00     0.059 A 
ATOM     15  C   UNL     1       9.790  -2.910   2.909  1.00  0.00     0.120 A 
ATOM     16  C   UNL     1      11.158  -2.774   3.138  1.00  0.00     0.093 A 
ATOM     17  C   UNL     1      11.700  -1.546   3.529  1.00  0.00     0.131 A 
ENDROOT
BRANCH   6  18
ATOM     18  O   UNL     1      12.443   3.607   4.440  1.00  0.00    -0.507 OA
ATOM     19  H   UNL     1      12.987   4.141   3.775  1.00  0.00     0.293 HD
ENDBRANCH   6  18
BRANCH  17  20
ATOM     20  O   UNL     1      13.090  -1.464   3.650  1.00  0.00    -0.507 OA
ATOM     21  H   UNL     1      13.713  -1.342   2.864  1.00  0.00     0.293 HD
ENDBRANCH  17  20
BRANCH  15  22
ATOM     22  O   UNL     1       9.279  -4.145   2.512  1.00  0.00    -0.508 OA
ATOM     23  H   UNL     1       9.753  -4.718   1.825  1.00  0.00     0.293 HD
ENDBRANCH  15  22
TORSDOF 3
ENDMDL
MODEL 5
REMARK VINA RESULT:    -5.691      1.771      2.080
REMARK INTER + INTRA:          -6.190
REMARK INTER:                  -6.190
REMARK INTRA:                   0.000
REMARK UNBOUND:                 0.000
REMARK SMILES Cc1cc(O)c2c(c1)C(=O)c1cc(O)cc(O)c1C2=O
REMARK SMILES IDX 1 1 2 2 8 3 7 4 6 5 4 6 3 7 19 8 20 9 18 10 11 11 9 12 10 13
REMARK SMILES IDX 12 14 13 15 15 16 16 17 5 18 17 20 14 22
REMARK H PARENT 5 19 17 21 14 23
REMARK Flexibility Score: inf
ROOT
ATOM      1  C   UNL     1      11.495   4.574 -12.800  1.00  0.00     0.044 C 
ATOM      2  C   UNL     1      10.267   3.713 -12.861  1.00  0.00    -0.047 A 
ATOM      3  C   UNL     1      10.376   2.352 -13.165  1.00  0.00     0.016 A 
ATOM      4  C   UNL     1       9.235   1.532 -13.197  1.00  0.00     0.038 A 
ATOM      5  C   UNL     1       7.965   2.084 -12.920  1.00  0.00     0.076 A 
ATOM      6  C   UNL     1       7.872   3.445 -12.531  1.00  0.00     0.127 A 
ATOM      7  C   UNL     1       9.018   4.246 -12.526  1.00  0.00     0.050 A 
ATOM      8  C   UNL     1       6.768   1.223 -13.109  1.00  0.00     0.201 C 
ATOM      9  O   UNL     1       5.668   1.742 -13.439  1.00  0.00    -0.288 OA
ATOM     10  C   UNL     1       6.914  -0.256 -13.092  1.00  0.00     0.076 A 
ATOM     11  C   UNL     1       8.187  -0.804 -13.367  1.00  0.00     0.041 A 
ATOM     12  C   UNL     1       9.360   0.090 -13.514  1.00  0.00     0.194 C 
ATOM     13  O   UNL     1      10.471  -0.383 -13.882  1.00  0.00    -0.289 OA
ATOM     14  C   UNL     1       8.335  -2.196 -13.497  1.00  0.00     0.059 A 
ATOM     15  C   UNL     1       7.235  -3.043 -13.341  1.00  0.00     0.120 A 
ATOM     16  C   UNL     1       5.986  -2.508 -13.029  1.00  0.00     0.093 A 
ATOM     17  C   UNL     1       5.816  -1.129 -12.875  1.00  0.00     0.131 A 
ENDROOT
BRANCH   6  18
ATOM     18  O   UNL     1       6.675   4.029 -12.107  1.00  0.00    -0.507 OA
ATOM     19  H   UNL     1       6.373   4.951 -12.392  1.00  0.00     0.293 HD
ENDBRANCH   6  18
BRANCH  17  20
ATOM     20  O   UNL     1       4.557  -0.676 -12.473  1.00  0.00    -0.507 OA
ATOM     21  H   UNL     1       4.143  -0.897 -11.579  1.00  0.00     0.293 HD
ENDBRANCH  17  20
BRANCH  15  22
ATOM     22  O   UNL     1       7.376  -4.423 -13.480  1.00  0.00    -0.508 OA
ATOM     23  H   UNL     1       8.054  -4.825 -14.117  1.00  0.00     0.293 HD
ENDBRANCH  15  22
TORSDOF 3
ENDMDL
MODEL 6
REMARK VINA RESULT:    -5.599      3.940      7.020
REMARK INTER + INTRA:          -6.090
REMARK INTER:                  -6.090
REMARK INTRA:                   0.000
REMARK UNBOUND:                 0.000
REMARK SMILES Cc1cc(O)c2c(c1)C(=O)c1cc(O)cc(O)c1C2=O
REMARK SMILES IDX 1 1 2 2 8 3 7 4 6 5 4 6 3 7 19 8 20 9 18 10 11 11 9 12 10 13
REMARK SMILES IDX 12 14 13 15 15 16 16 17 5 18 17 20 14 22
REMARK H PARENT 5 19 17 21 14 23
REMARK Flexibility Score: inf
ROOT
ATOM      1  C   UNL     1       9.909   0.018 -14.833  1.00  0.00     0.044 C 
ATOM      2  C   UNL     1       9.194   1.324 -14.637  1.00  0.00    -0.047 A 
ATOM      3  C   UNL     1       7.895   1.343 -14.118  1.00  0.00     0.016 A 
ATOM      4  C   UNL     1       7.227   2.561 -13.904  1.00  0.00     0.038 A 
ATOM      5  C   UNL     1       7.872   3.779 -14.214  1.00  0.00     0.076 A 
ATOM      6  C   UNL     1       9.218   3.756 -14.661  1.00  0.00     0.127 A 
ATOM      7  C   UNL     1       9.854   2.531 -14.885  1.00  0.00     0.050 A 
ATOM      8  C   UNL     1       7.083   5.036 -14.116  1.00  0.00     0.201 C 
ATOM      9  O   UNL     1       7.355   6.006 -14.872  1.00  0.00    -0.288 OA
ATOM     10  C   UNL     1       5.866   5.078 -13.265  1.00  0.00     0.076 A 
ATOM     11  C   UNL     1       5.226   3.857 -12.954  1.00  0.00     0.041 A 
ATOM     12  C   UNL     1       5.853   2.573 -13.348  1.00  0.00     0.194 C 
ATOM     13  O   UNL     1       5.228   1.489 -13.186  1.00  0.00    -0.289 OA
ATOM     14  C   UNL     1       3.999   3.865 -12.269  1.00  0.00     0.059 A 
ATOM     15  C   UNL     1       3.414   5.072 -11.880  1.00  0.00     0.120 A 
ATOM     16  C   UNL     1       4.062   6.277 -12.148  1.00  0.00     0.093 A 
ATOM     17  C   UNL     1       5.294   6.294 -12.810  1.00  0.00     0.131 A 
ENDROOT
BRANCH   6  18
ATOM     18  O   UNL     1       9.969   4.918 -14.855  1.00  0.00    -0.507 OA
ATOM     19  H   UNL     1      10.556   5.329 -14.143  1.00  0.00     0.293 HD
ENDBRANCH   6  18
BRANCH  17  20
ATOM     20  O   UNL     1       5.926   7.531 -12.963  1.00  0.00    -0.507 OA
ATOM     21  H   UNL     1       6.427   7.803 -13.797  1.00  0.00     0.293 HD
ENDBRANCH  17  20
BRANCH  15  22
ATOM     22  O   UNL     1       2.190   5.085 -11.211  1.00  0.00    -0.508 OA
ATOM     23  H   UNL     1       1.728   5.953 -10.969  1.00  0.00     0.293 HD
ENDBRANCH  15  22
TORSDOF 3
ENDMDL
MODEL 7
REMARK VINA RESULT:    -5.514     16.287     16.472
REMARK INTER + INTRA:          -5.998
REMARK INTER:                  -5.998
REMARK INTRA:                   0.000
REMARK UNBOUND:                 0.000
REMARK SMILES Cc1cc(O)c2c(c1)C(=O)c1cc(O)cc(O)c1C2=O
REMARK SMILES IDX 1 1 2 2 8 3 7 4 6 5 4 6 3 7 19 8 20 9 18 10 11 11 9 12 10 13
REMARK SMILES IDX 12 14 13 15 15 16 16 17 5 18 17 20 14 22
REMARK H PARENT 5 19 17 21 14 23
REMARK Flexibility Score: inf
ROOT
ATOM      1  C   UNL     1      12.798   3.623   4.064  1.00  0.00     0.044 C 
ATOM      2  C   UNL     1      11.606   2.711   3.999  1.00  0.00    -0.047 A 
ATOM      3  C   UNL     1      11.783   1.333   3.846  1.00  0.00     0.016 A 
ATOM      4  C   UNL     1      10.676   0.467   3.813  1.00  0.00     0.038 A 
ATOM      5  C   UNL     1       9.370   0.993   3.936  1.00  0.00     0.076 A 
ATOM      6  C   UNL     1       9.203   2.381   4.175  1.00  0.00     0.127 A 
ATOM      7  C   UNL     1      10.318   3.224   4.184  1.00  0.00     0.050 A 
ATOM      8  C   UNL     1       8.221   0.070   3.747  1.00  0.00     0.201 C 
ATOM      9  O   UNL     1       7.134   0.508   3.284  1.00  0.00    -0.288 OA
ATOM     10  C   UNL     1       8.413  -1.393   3.927  1.00  0.00     0.076 A 
ATOM     11  C   UNL     1       9.721  -1.914   3.806  1.00  0.00     0.041 A 
ATOM     12  C   UNL     1      10.872  -0.993   3.657  1.00  0.00     0.194 C 
ATOM     13  O   UNL     1      12.023  -1.454   3.423  1.00  0.00    -0.289 OA
ATOM     14  C   UNL     1       9.924  -3.305   3.832  1.00  0.00     0.059 A 
ATOM     15  C   UNL     1       8.843  -4.176   3.991  1.00  0.00     0.120 A 
ATOM     16  C   UNL     1       7.557  -3.663   4.151  1.00  0.00     0.093 A 
ATOM     17  C   UNL     1       7.331  -2.284   4.149  1.00  0.00     0.131 A 
ENDROOT
BRANCH   6  18
ATOM     18  O   UNL     1       7.959   2.956   4.445  1.00  0.00    -0.507 OA
ATOM     19  H   UNL     1       7.820   3.698   5.117  1.00  0.00     0.293 HD
ENDBRANCH   6  18
BRANCH  17  20
ATOM     20  O   UNL     1       6.030  -1.843   4.407  1.00  0.00    -0.507 OA
ATOM     21  H   UNL     1       5.635  -1.778   5.334  1.00  0.00     0.293 HD
ENDBRANCH  17  20
BRANCH  15  22
ATOM     22  O   UNL     1       9.040  -5.556   4.005  1.00  0.00    -0.508 OA
ATOM     23  H   UNL     1       8.699  -6.147   3.257  1.00  0.00     0.293 HD
ENDBRANCH  15  22
TORSDOF 3
ENDMDL
MODEL 8
REMARK VINA RESULT:    -5.436      2.331      3.725
REMARK INTER + INTRA:          -5.913
REMARK INTER:                  -5.913
REMARK INTRA:                   0.000
REMARK UNBOUND:                 0.000
REMARK SMILES Cc1cc(O)c2c(c1)C(=O)c1cc(O)cc(O)c1C2=O
REMARK SMILES IDX 1 1 2 2 8 3 7 4 6 5 4 6 3 7 19 8 20 9 18 10 11 11 9 12 10 13
REMARK SMILES IDX 12 14 13 15 15 16 16 17 5 18 17 20 14 22
REMARK H PARENT 5 19 17 21 14 23
REMARK Flexibility Score: inf
ROOT
ATOM      1  C   UNL     1       5.710   4.762 -13.659  1.00  0.00     0.044 C 
ATOM      2  C   UNL     1       6.348   3.428 -13.402  1.00  0.00    -0.047 A 
ATOM      3  C   UNL     1       5.640   2.249 -13.655  1.00  0.00     0.016 A 
ATOM      4  C   UNL     1       6.237   0.994 -13.445  1.00  0.00     0.038 A 
ATOM      5  C   UNL     1       7.567   0.921 -12.974  1.00  0.00     0.076 A 
ATOM      6  C   UNL     1       8.307   2.118 -12.799  1.00  0.00     0.127 A 
ATOM      7  C   UNL     1       7.685   3.354 -12.995  1.00  0.00     0.050 A 
ATOM      8  C   UNL     1       8.114  -0.416 -12.622  1.00  0.00     0.201 C 
ATOM      9  O   UNL     1       8.985  -0.518 -11.717  1.00  0.00    -0.288 OA
ATOM     10  C   UNL     1       7.502  -1.640 -13.202  1.00  0.00     0.076 A 
ATOM     11  C   UNL     1       6.173  -1.561 -13.675  1.00  0.00     0.041 A 
ATOM     12  C   UNL     1       5.482  -0.250 -13.722  1.00  0.00     0.194 C 
ATOM     13  O   UNL     1       4.258  -0.192 -14.024  1.00  0.00    -0.289 OA
ATOM     14  C   UNL     1       5.513  -2.726 -14.103  1.00  0.00     0.059 A 
ATOM     15  C   UNL     1       6.167  -3.960 -14.077  1.00  0.00     0.120 A 
ATOM     16  C   UNL     1       7.491  -4.035 -13.650  1.00  0.00     0.093 A 
ATOM     17  C   UNL     1       8.176  -2.888 -13.239  1.00  0.00     0.131 A 
ENDROOT
BRANCH   6  18
ATOM     18  O   UNL     1       9.665   2.125 -12.471  1.00  0.00    -0.507 OA
ATOM     19  H   UNL     1      10.388   1.760 -13.076  1.00  0.00     0.293 HD
ENDBRANCH   6  18
BRANCH  17  20
ATOM     20  O   UNL     1       9.528  -3.027 -12.911  1.00  0.00    -0.507 OA
ATOM     21  H   UNL     1      10.111  -3.779 -13.250  1.00  0.00     0.293 HD
ENDBRANCH  17  20
BRANCH  15  22
ATOM     22  O   UNL     1       5.511  -5.119 -14.489  1.00  0.00    -0.508 OA
ATOM     23  H   UNL     1       5.914  -6.036 -14.342  1.00  0.00     0.293 HD
ENDBRANCH  15  22
TORSDOF 3
ENDMDL
MODEL 9
REMARK VINA RESULT:    -5.434      1.816      5.398
REMARK INTER + INTRA:          -5.911
REMARK INTER:                  -5.911
REMARK INTRA:                   0.000
REMARK UNBOUND:                 0.000
REMARK SMILES Cc1cc(O)c2c(c1)C(=O)c1cc(O)cc(O)c1C2=O
REMARK SMILES IDX 1 1 2 2 8 3 7 4 6 5 4 6 3 7 19 8 20 9 18 10 11 11 9 12 10 13
REMARK SMILES IDX 12 14 13 15 15 16 16 17 5 18 17 20 14 22
REMARK H PARENT 5 19 17 21 14 23
REMARK Flexibility Score: inf
ROOT
ATOM      1  C   UNL     1      10.167  -5.755 -13.164  1.00  0.00     0.044 C 
ATOM      2  C   UNL     1       9.243  -4.573 -13.102  1.00  0.00    -0.047 A 
ATOM      3  C   UNL     1       9.757  -3.289 -12.899  1.00  0.00     0.016 A 
ATOM      4  C   UNL     1       8.903  -2.172 -12.867  1.00  0.00     0.038 A 
ATOM      5  C   UNL     1       7.512  -2.347 -13.042  1.00  0.00     0.076 A 
ATOM      6  C   UNL     1       7.008  -3.641 -13.331  1.00  0.00     0.127 A 
ATOM      7  C   UNL     1       7.874  -4.739 -13.337  1.00  0.00     0.050 A 
ATOM      8  C   UNL     1       6.627  -1.168 -12.854  1.00  0.00     0.201 C 
ATOM      9  O   UNL     1       5.450  -1.328 -12.435  1.00  0.00    -0.288 OA
ATOM     10  C   UNL     1       7.188   0.203 -12.980  1.00  0.00     0.076 A 
ATOM     11  C   UNL     1       8.580   0.373 -12.807  1.00  0.00     0.041 A 
ATOM     12  C   UNL     1       9.456  -0.814 -12.658  1.00  0.00     0.194 C 
ATOM     13  O   UNL     1      10.678  -0.665 -12.379  1.00  0.00    -0.289 OA
ATOM     14  C   UNL     1       9.128   1.667 -12.783  1.00  0.00     0.059 A 
ATOM     15  C   UNL     1       8.308   2.786 -12.942  1.00  0.00     0.120 A 
ATOM     16  C   UNL     1       6.941   2.621 -13.153  1.00  0.00     0.093 A 
ATOM     17  C   UNL     1       6.374   1.344 -13.203  1.00  0.00     0.131 A 
ENDROOT
BRANCH   6  18
ATOM     18  O   UNL     1       5.669  -3.875 -13.653  1.00  0.00    -0.507 OA
ATOM     19  H   UNL     1       5.251  -3.608 -14.533  1.00  0.00     0.293 HD
ENDBRANCH   6  18
BRANCH  17  20
ATOM     20  O   UNL     1       5.013   1.254 -13.509  1.00  0.00    -0.507 OA
ATOM     21  H   UNL     1       4.332   1.949 -13.237  1.00  0.00     0.293 HD
ENDBRANCH  17  20
BRANCH  15  22
ATOM     22  O   UNL     1       8.847   4.072 -12.906  1.00  0.00    -0.508 OA
ATOM     23  H   UNL     1       9.632   4.300 -12.308  1.00  0.00     0.293 HD
ENDBRANCH  15  22
TORSDOF 3
ENDMDL
