MODEL 1
REMARK VINA RESULT:    -3.632      0.000      0.000
REMARK INTER + INTRA:          -5.384
REMARK INTER:                  -4.906
REMARK INTRA:                  -0.478
REMARK UNBOUND:                -0.478
REMARK SMILES O=C[C@@H](O)[C@H](O)[C@H](O)CO
REMARK SMILES IDX 7 1 9 2 10 3 5 5 3 6 2 7 1 8 4 9 6 11 8 13
REMARK H PARENT 10 4 4 10 6 12 8 14
REMARK Flexibility Score: inf
ROOT
ATOM      1  C   UNL     1      24.925  19.655  25.564  1.00  0.00     0.171 C 
ENDROOT
BRANCH   1   2
ATOM      2  C   UNL     1      23.543  19.395  26.192  1.00  0.00     0.190 C 
BRANCH   2   3
ATOM      3  O   UNL     1      22.648  20.417  25.848  1.00  0.00    -0.394 OA
ATOM      4  H   UNL     1      21.741  20.018  25.898  1.00  0.00     0.210 HD
ENDBRANCH   2   3
ENDBRANCH   1   2
BRANCH   1   5
ATOM      5  C   UNL     1      25.067  19.010  24.157  1.00  0.00     0.181 C 
BRANCH   5   6
ATOM      6  C   UNL     1      26.218  19.651  23.332  1.00  0.00     0.209 C 
BRANCH   6   7
ATOM      7  C   UNL     1      27.525  18.916  23.487  1.00  0.00     0.258 C 
ATOM      8  O   UNL     1      28.253  19.132  24.443  1.00  0.00    -0.300 OA
ENDBRANCH   6   7
BRANCH   6   9
ATOM      9  O   UNL     1      25.879  19.727  21.968  1.00  0.00    -0.383 OA
ATOM     10  H   UNL     1      26.098  18.851  21.554  1.00  0.00     0.211 HD
ENDBRANCH   6   9
ENDBRANCH   5   6
BRANCH   5  11
ATOM     11  O   UNL     1      23.861  19.180  23.455  1.00  0.00    -0.387 OA
ATOM     12  H   UNL     1      23.142  18.760  23.997  1.00  0.00     0.211 HD
ENDBRANCH   5  11
ENDBRANCH   1   5
BRANCH   1  13
ATOM     13  O   UNL     1      25.927  19.194  26.436  1.00  0.00    -0.388 OA
ATOM     14  H   UNL     1      25.809  18.213  26.536  1.00  0.00     0.211 HD
ENDBRANCH   1  13
TORSDOF 8
ENDMDL
MODEL 2
REMARK VINA RESULT:    -3.544      1.636      2.425
REMARK INTER + INTRA:          -5.265
REMARK INTER:                  -4.574
REMARK INTRA:                  -0.691
REMARK UNBOUND:                -0.478
REMARK SMILES O=C[C@@H](O)[C@H](O)[C@H](O)CO
REMARK SMILES IDX 7 1 9 2 10 3 5 5 3 6 2 7 1 8 4 9 6 11 8 13
REMARK H PARENT 10 4 4 10 6 12 8 14
REMARK Flexibility Score: inf
ROOT
ATOM      1  C   UNL     1      25.540  19.307  24.268  1.00  0.00     0.171 C 
ENDROOT
BRANCH   1   2
ATOM      2  C   UNL     1      24.488  19.110  25.376  1.00  0.00     0.190 C 
BRANCH   2   3
ATOM      3  O   UNL     1      24.171  20.337  25.974  1.00  0.00    -0.394 OA
ATOM      4  H   UNL     1      24.774  21.008  25.563  1.00  0.00     0.210 HD
ENDBRANCH   2   3
ENDBRANCH   1   2
BRANCH   1   5
ATOM      5  C   UNL     1      26.610  20.368  24.649  1.00  0.00     0.181 C 
BRANCH   5   6
ATOM      6  C   UNL     1      27.774  20.423  23.621  1.00  0.00     0.209 C 
BRANCH   6   7
ATOM      7  C   UNL     1      29.128  20.286  24.267  1.00  0.00     0.258 C 
ATOM      8  O   UNL     1      29.600  21.197  24.929  1.00  0.00    -0.300 OA
ENDBRANCH   6   7
BRANCH   6   9
ATOM      9  O   UNL     1      27.621  19.435  22.631  1.00  0.00    -0.383 OA
ATOM     10  H   UNL     1      27.288  18.612  23.076  1.00  0.00     0.211 HD
ENDBRANCH   6   9
ENDBRANCH   5   6
BRANCH   5  11
ATOM     11  O   UNL     1      27.139  20.047  25.912  1.00  0.00    -0.387 OA
ATOM     12  H   UNL     1      26.421  20.199  26.580  1.00  0.00     0.211 HD
ENDBRANCH   5  11
ENDBRANCH   1   5
BRANCH   1  13
ATOM     13  O   UNL     1      24.892  19.649  23.068  1.00  0.00    -0.388 OA
ATOM     14  H   UNL     1      25.016  18.894  22.435  1.00  0.00     0.211 HD
ENDBRANCH   1  13
TORSDOF 8
ENDMDL
MODEL 3
REMARK VINA RESULT:    -3.536      2.213      3.499
REMARK INTER + INTRA:          -5.255
REMARK INTER:                  -4.601
REMARK INTRA:                  -0.654
REMARK UNBOUND:                -0.478
REMARK SMILES O=C[C@@H](O)[C@H](O)[C@H](O)CO
REMARK SMILES IDX 7 1 9 2 10 3 5 5 3 6 2 7 1 8 4 9 6 11 8 13
REMARK H PARENT 10 4 4 10 6 12 8 14
REMARK Flexibility Score: inf
ROOT
ATOM      1  C   UNL     1      27.169  20.092  24.574  1.00  0.00     0.171 C 
ENDROOT
BRANCH   1   2
ATOM      2  C   UNL     1      25.777  19.509  24.268  1.00  0.00     0.190 C 
BRANCH   2   3
ATOM      3  O   UNL     1      25.334  19.933  23.008  1.00  0.00    -0.394 OA
ATOM      4  H   UNL     1      25.648  19.251  22.360  1.00  0.00     0.210 HD
ENDBRANCH   2   3
ENDBRANCH   1   2
BRANCH   1   5
ATOM      5  C   UNL     1      28.307  19.324  23.845  1.00  0.00     0.181 C 
BRANCH   5   6
ATOM      6  C   UNL     1      29.673  20.057  23.952  1.00  0.00     0.209 C 
BRANCH   6   7
ATOM      7  C   UNL     1      30.205  20.496  22.612  1.00  0.00     0.258 C 
ATOM      8  O   UNL     1      30.864  19.734  21.921  1.00  0.00    -0.300 OA
ENDBRANCH   6   7
BRANCH   6   9
ATOM      9  O   UNL     1      29.584  21.168  24.811  1.00  0.00    -0.383 OA
ATOM     10  H   UNL     1      30.459  21.638  24.787  1.00  0.00     0.211 HD
ENDBRANCH   6   9
ENDBRANCH   5   6
BRANCH   5  11
ATOM     11  O   UNL     1      27.970  19.195  22.486  1.00  0.00    -0.387 OA
ATOM     12  H   UNL     1      28.814  19.249  21.966  1.00  0.00     0.211 HD
ENDBRANCH   5  11
ENDBRANCH   1   5
BRANCH   1  13
ATOM     13  O   UNL     1      27.375  20.101  25.965  1.00  0.00    -0.388 OA
ATOM     14  H   UNL     1      26.482  20.081  26.399  1.00  0.00     0.211 HD
ENDBRANCH   1  13
TORSDOF 8
ENDMDL
MODEL 4
REMARK VINA RESULT:    -3.512      2.246      4.939
REMARK INTER + INTRA:          -5.222
REMARK INTER:                  -4.726
REMARK INTRA:                  -0.496
REMARK UNBOUND:                -0.478
REMARK SMILES O=C[C@@H](O)[C@H](O)[C@H](O)CO
REMARK SMILES IDX 7 1 9 2 10 3 5 5 3 6 2 7 1 8 4 9 6 11 8 13
REMARK H PARENT 10 4 4 10 6 12 8 14
REMARK Flexibility Score: inf
ROOT
ATOM      1  C   UNL     1      28.601  20.070  23.094  1.00  0.00     0.171 C 
ENDROOT
BRANCH   1   2
ATOM      2  C   UNL     1      30.137  20.073  22.981  1.00  0.00     0.190 C 
BRANCH   2   3
ATOM      3  O   UNL     1      30.546  20.848  21.887  1.00  0.00    -0.394 OA
ATOM      4  H   UNL     1      30.839  20.207  21.189  1.00  0.00     0.210 HD
ENDBRANCH   2   3
ENDBRANCH   1   2
BRANCH   1   5
ATOM      5  C   UNL     1      28.116  19.978  24.567  1.00  0.00     0.181 C 
BRANCH   5   6
ATOM      6  C   UNL     1      26.571  19.846  24.670  1.00  0.00     0.209 C 
BRANCH   6   7
ATOM      7  C   UNL     1      26.028  20.356  25.980  1.00  0.00     0.258 C 
ATOM      8  O   UNL     1      25.652  21.512  26.093  1.00  0.00    -0.300 OA
ENDBRANCH   6   7
BRANCH   6   9
ATOM      9  O   UNL     1      25.935  20.511  23.605  1.00  0.00    -0.383 OA
ATOM     10  H   UNL     1      26.642  20.924  23.042  1.00  0.00     0.211 HD
ENDBRANCH   6   9
ENDBRANCH   5   6
BRANCH   5  11
ATOM     11  O   UNL     1      28.514  21.141  25.251  1.00  0.00    -0.387 OA
ATOM     12  H   UNL     1      28.351  20.986  26.218  1.00  0.00     0.211 HD
ENDBRANCH   5  11
ENDBRANCH   1   5
BRANCH   1  13
ATOM     13  O   UNL     1      28.079  19.017  22.322  1.00  0.00    -0.388 OA
ATOM     14  H   UNL     1      28.637  18.940  21.504  1.00  0.00     0.211 HD
ENDBRANCH   1  13
TORSDOF 8
ENDMDL
MODEL 5
REMARK VINA RESULT:    -3.474      1.599      2.441
REMARK INTER + INTRA:          -5.171
REMARK INTER:                  -4.989
REMARK INTRA:                  -0.182
REMARK UNBOUND:                -0.478
REMARK SMILES O=C[C@@H](O)[C@H](O)[C@H](O)CO
REMARK SMILES IDX 7 1 9 2 10 3 5 5 3 6 2 7 1 8 4 9 6 11 8 13
REMARK H PARENT 10 4 4 10 6 12 8 14
REMARK Flexibility Score: inf
ROOT
ATOM      1  C   UNL     1      24.228  18.891  24.843  1.00  0.00     0.171 C 
ENDROOT
BRANCH   1   2
ATOM      2  C   UNL     1      23.533  19.337  26.142  1.00  0.00     0.190 C 
BRANCH   2   3
ATOM      3  O   UNL     1      22.598  20.347  25.876  1.00  0.00    -0.394 OA
ATOM      4  H   UNL     1      22.714  20.585  24.920  1.00  0.00     0.210 HD
ENDBRANCH   2   3
ENDBRANCH   1   2
BRANCH   1   5
ATOM      5  C   UNL     1      25.631  19.536  24.670  1.00  0.00     0.181 C 
BRANCH   5   6
ATOM      6  C   UNL     1      26.010  20.449  25.869  1.00  0.00     0.209 C 
BRANCH   6   7
ATOM      7  C   UNL     1      27.492  20.708  25.958  1.00  0.00     0.258 C 
ATOM      8  O   UNL     1      28.135  21.005  24.963  1.00  0.00    -0.300 OA
ENDBRANCH   6   7
BRANCH   6   9
ATOM      9  O   UNL     1      25.320  21.674  25.808  1.00  0.00    -0.383 OA
ATOM     10  H   UNL     1      25.904  22.369  26.213  1.00  0.00     0.211 HD
ENDBRANCH   6   9
ENDBRANCH   5   6
BRANCH   5  11
ATOM     11  O   UNL     1      25.633  20.310  23.496  1.00  0.00    -0.387 OA
ATOM     12  H   UNL     1      25.040  19.856  22.841  1.00  0.00     0.211 HD
ENDBRANCH   5  11
ENDBRANCH   1   5
BRANCH   1  13
ATOM     13  O   UNL     1      23.397  19.182  23.747  1.00  0.00    -0.388 OA
ATOM     14  H   UNL     1      23.062  18.320  23.387  1.00  0.00     0.211 HD
ENDBRANCH   1  13
TORSDOF 8
ENDMDL
MODEL 6
REMARK VINA RESULT:    -3.429     18.389     19.168
REMARK INTER + INTRA:          -5.111
REMARK INTER:                  -4.751
REMARK INTRA:                  -0.360
REMARK UNBOUND:                -0.478
REMARK SMILES O=C[C@@H](O)[C@H](O)[C@H](O)CO
REMARK SMILES IDX 7 1 9 2 10 3 5 5 3 6 2 7 1 8 4 9 6 11 8 13
REMARK H PARENT 10 4 4 10 6 12 8 14
REMARK Flexibility Score: inf
ROOT
ATOM      1  C   UNL     1      24.809  38.079  23.503  1.00  0.00     0.171 C 
ENDROOT
BRANCH   1   2
ATOM      2  C   UNL     1      23.827  38.342  22.346  1.00  0.00     0.190 C 
BRANCH   2   3
ATOM      3  O   UNL     1      23.752  37.225  21.503  1.00  0.00    -0.394 OA
ATOM      4  H   UNL     1      23.595  36.444  22.095  1.00  0.00     0.210 HD
ENDBRANCH   2   3
ENDBRANCH   1   2
BRANCH   1   5
ATOM      5  C   UNL     1      24.237  38.522  24.878  1.00  0.00     0.181 C 
BRANCH   5   6
ATOM      6  C   UNL     1      25.325  38.545  25.987  1.00  0.00     0.209 C 
BRANCH   6   7
ATOM      7  C   UNL     1      24.822  39.125  27.284  1.00  0.00     0.258 C 
ATOM      8  O   UNL     1      23.760  38.758  27.762  1.00  0.00    -0.300 OA
ENDBRANCH   6   7
BRANCH   6   9
ATOM      9  O   UNL     1      25.841  37.256  26.216  1.00  0.00    -0.383 OA
ATOM     10  H   UNL     1      25.395  36.892  27.025  1.00  0.00     0.211 HD
ENDBRANCH   6   9
ENDBRANCH   5   6
BRANCH   5  11
ATOM     11  O   UNL     1      23.224  37.624  25.259  1.00  0.00    -0.387 OA
ATOM     12  H   UNL     1      23.319  36.813  24.694  1.00  0.00     0.211 HD
ENDBRANCH   5  11
ENDBRANCH   1   5
BRANCH   1  13
ATOM     13  O   UNL     1      26.031  38.721  23.232  1.00  0.00    -0.388 OA
ATOM     14  H   UNL     1      26.277  38.512  22.293  1.00  0.00     0.211 HD
ENDBRANCH   1  13
TORSDOF 8
ENDMDL
MODEL 7
REMARK VINA RESULT:    -3.341      1.160      3.902
REMARK INTER + INTRA:          -4.991
REMARK INTER:                  -4.528
REMARK INTRA:                  -0.464
REMARK UNBOUND:                -0.478
REMARK SMILES O=C[C@@H](O)[C@H](O)[C@H](O)CO
REMARK SMILES IDX 7 1 9 2 10 3 5 5 3 6 2 7 1 8 4 9 6 11 8 13
REMARK H PARENT 10 4 4 10 6 12 8 14
REMARK Flexibility Score: inf
ROOT
ATOM      1  C   UNL     1      27.739  18.965  24.027  1.00  0.00     0.171 C 
ENDROOT
BRANCH   1   2
ATOM      2  C   UNL     1      28.818  19.016  22.929  1.00  0.00     0.190 C 
BRANCH   2   3
ATOM      3  O   UNL     1      29.167  20.343  22.647  1.00  0.00    -0.394 OA
ATOM      4  H   UNL     1      29.073  20.841  23.500  1.00  0.00     0.210 HD
ENDBRANCH   2   3
ENDBRANCH   1   2
BRANCH   1   5
ATOM      5  C   UNL     1      26.437  19.706  23.613  1.00  0.00     0.181 C 
BRANCH   5   6
ATOM      6  C   UNL     1      25.167  19.040  24.211  1.00  0.00     0.209 C 
BRANCH   6   7
ATOM      7  C   UNL     1      24.855  19.525  25.604  1.00  0.00     0.258 C 
ATOM      8  O   UNL     1      25.398  20.522  26.054  1.00  0.00    -0.300 OA
ENDBRANCH   6   7
BRANCH   6   9
ATOM      9  O   UNL     1      24.050  19.245  23.380  1.00  0.00    -0.383 OA
ATOM     10  H   UNL     1      23.247  19.294  23.962  1.00  0.00     0.211 HD
ENDBRANCH   6   9
ENDBRANCH   5   6
BRANCH   5  11
ATOM     11  O   UNL     1      26.334  19.694  22.211  1.00  0.00    -0.387 OA
ATOM     12  H   UNL     1      27.227  19.932  21.846  1.00  0.00     0.211 HD
ENDBRANCH   5  11
ENDBRANCH   1   5
BRANCH   1  13
ATOM     13  O   UNL     1      28.264  19.492  25.220  1.00  0.00    -0.388 OA
ATOM     14  H   UNL     1      29.218  19.713  25.056  1.00  0.00     0.211 HD
ENDBRANCH   1  13
TORSDOF 8
ENDMDL
MODEL 8
REMARK VINA RESULT:    -3.298      1.373      4.013
REMARK INTER + INTRA:          -4.933
REMARK INTER:                  -4.196
REMARK INTRA:                  -0.737
REMARK UNBOUND:                -0.478
REMARK SMILES O=C[C@@H](O)[C@H](O)[C@H](O)CO
REMARK SMILES IDX 7 1 9 2 10 3 5 5 3 6 2 7 1 8 4 9 6 11 8 13
REMARK H PARENT 10 4 4 10 6 12 8 14
REMARK Flexibility Score: inf
ROOT
ATOM      1  C   UNL     1      25.913  20.386  24.849  1.00  0.00     0.171 C 
ENDROOT
BRANCH   1   2
ATOM      2  C   UNL     1      27.317  20.642  25.426  1.00  0.00     0.190 C 
BRANCH   2   3
ATOM      3  O   UNL     1      28.137  19.522  25.234  1.00  0.00    -0.394 OA
ATOM      4  H   UNL     1      27.615  18.740  25.550  1.00  0.00     0.210 HD
ENDBRANCH   2   3
ENDBRANCH   1   2
BRANCH   1   5
ATOM      5  C   UNL     1      25.306  19.043  25.341  1.00  0.00     0.181 C 
BRANCH   5   6
ATOM      6  C   UNL     1      23.762  18.998  25.171  1.00  0.00     0.209 C 
BRANCH   6   7
ATOM      7  C   UNL     1      23.046  19.950  26.095  1.00  0.00     0.258 C 
ATOM      8  O   UNL     1      22.779  19.625  27.242  1.00  0.00    -0.300 OA
ENDBRANCH   6   7
BRANCH   6   9
ATOM      9  O   UNL     1      23.392  19.265  23.840  1.00  0.00    -0.383 OA
ATOM     10  H   UNL     1      24.220  19.263  23.291  1.00  0.00     0.211 HD
ENDBRANCH   6   9
ENDBRANCH   5   6
BRANCH   5  11
ATOM     11  O   UNL     1      25.614  18.876  26.703  1.00  0.00    -0.387 OA
ATOM     12  H   UNL     1      26.323  19.534  26.929  1.00  0.00     0.211 HD
ENDBRANCH   5  11
ENDBRANCH   1   5
BRANCH   1  13
ATOM     13  O   UNL     1      25.970  20.432  23.445  1.00  0.00    -0.388 OA
ATOM     14  H   UNL     1      26.331  21.321  23.189  1.00  0.00     0.211 HD
ENDBRANCH   1  13
TORSDOF 8
ENDMDL
MODEL 9
REMARK VINA RESULT:    -3.236      1.158      2.031
REMARK INTER + INTRA:          -4.849
REMARK INTER:                  -4.663
REMARK INTRA:                  -0.187
REMARK UNBOUND:                -0.478
REMARK SMILES O=C[C@@H](O)[C@H](O)[C@H](O)CO
REMARK SMILES IDX 7 1 9 2 10 3 5 5 3 6 2 7 1 8 4 9 6 11 8 13
REMARK H PARENT 10 4 4 10 6 12 8 14
REMARK Flexibility Score: inf
ROOT
ATOM      1  C   UNL     1      25.530  19.525  25.445  1.00  0.00     0.171 C 
ENDROOT
BRANCH   1   2
ATOM      2  C   UNL     1      26.422  20.775  25.555  1.00  0.00     0.190 C 
BRANCH   2   3
ATOM      3  O   UNL     1      27.600  20.475  26.253  1.00  0.00    -0.394 OA
ATOM      4  H   UNL     1      28.344  20.615  25.612  1.00  0.00     0.210 HD
ENDBRANCH   2   3
ENDBRANCH   1   2
BRANCH   1   5
ATOM      5  C   UNL     1      25.449  18.982  23.991  1.00  0.00     0.181 C 
BRANCH   5   6
ATOM      6  C   UNL     1      26.526  19.614  23.066  1.00  0.00     0.209 C 
BRANCH   6   7
ATOM      7  C   UNL     1      27.839  18.875  23.112  1.00  0.00     0.258 C 
ATOM      8  O   UNL     1      28.853  19.427  23.513  1.00  0.00    -0.300 OA
ENDBRANCH   6   7
BRANCH   6   9
ATOM      9  O   UNL     1      26.072  19.686  21.737  1.00  0.00    -0.383 OA
ATOM     10  H   UNL     1      25.233  19.156  21.676  1.00  0.00     0.211 HD
ENDBRANCH   6   9
ENDBRANCH   5   6
BRANCH   5  11
ATOM     11  O   UNL     1      24.177  19.275  23.466  1.00  0.00    -0.387 OA
ATOM     12  H   UNL     1      24.221  19.129  22.485  1.00  0.00     0.211 HD
ENDBRANCH   5  11
ENDBRANCH   1   5
BRANCH   1  13
ATOM     13  O   UNL     1      24.250  19.821  25.947  1.00  0.00    -0.388 OA
ATOM     14  H   UNL     1      23.608  19.747  25.193  1.00  0.00     0.211 HD
ENDBRANCH   1  13
TORSDOF 8
ENDMDL
