MODEL 1
REMARK VINA RESULT:    -7.350      0.000      0.000
REMARK INTER + INTRA:          -9.174
REMARK INTER:                  -8.854
REMARK INTRA:                  -0.320
REMARK UNBOUND:                -0.320
REMARK SMILES O=c1c(O)c(-c2ccc(O)c(O)c2)oc2cc(O)cc(O)c12
REMARK SMILES IDX 5 1 3 2 2 3 1 4 22 5 20 6 19 7 17 8 16 9 15 10 14 11 6 12
REMARK SMILES IDX 7 13 8 14 9 15 13 16 11 17 10 18 12 20 4 22 21 24 18 26
REMARK H PARENT 10 19 12 21 4 23 21 25 18 27
REMARK Flexibility Score: inf
ROOT
ATOM      1  C   UNL     1     128.189 -11.934 193.209  1.00  0.00     0.180 A 
ATOM      2  C   UNL     1     128.385 -10.695 193.845  1.00  0.00     0.208 A 
ATOM      3  C   UNL     1     129.413 -10.570 194.792  1.00  0.00     0.238 A 
ATOM      4  O   UNL     1     129.549  -9.475 195.396  1.00  0.00    -0.285 OA
ATOM      5  C   UNL     1     130.245 -11.680 195.079  1.00  0.00     0.111 A 
ATOM      6  C   UNL     1     131.343 -11.654 195.991  1.00  0.00     0.134 A 
ATOM      7  C   UNL     1     132.013 -12.846 196.297  1.00  0.00     0.093 A 
ATOM      8  C   UNL     1     131.671 -14.045 195.676  1.00  0.00     0.123 A 
ATOM      9  C   UNL     1     130.638 -14.070 194.737  1.00  0.00     0.094 A 
ATOM     10  C   UNL     1     129.925 -12.906 194.439  1.00  0.00     0.146 A 
ATOM     11  O   UNL     1     128.942 -12.974 193.550  1.00  0.00    -0.452 OA
ENDROOT
BRANCH   1  12
ATOM     12  C   UNL     1     127.141 -12.136 192.182  1.00  0.00     0.025 A 
ATOM     13  C   UNL     1     125.847 -12.507 192.580  1.00  0.00     0.016 A 
ATOM     14  C   UNL     1     124.849 -12.724 191.627  1.00  0.00     0.051 A 
ATOM     15  C   UNL     1     125.131 -12.588 190.264  1.00  0.00     0.157 A 
ATOM     16  C   UNL     1     127.429 -12.020 190.811  1.00  0.00     0.062 A 
ATOM     17  C   UNL     1     126.428 -12.239 189.853  1.00  0.00     0.158 A 
BRANCH  15  18
ATOM     18  O   UNL     1     124.114 -12.808 189.336  1.00  0.00    -0.504 OA
ATOM     19  H   UNL     1     123.315 -13.396 189.541  1.00  0.00     0.293 HD
ENDBRANCH  15  18
BRANCH  17  20
ATOM     20  O   UNL     1     126.720 -12.115 188.494  1.00  0.00    -0.504 OA
ATOM     21  H   UNL     1     126.515 -12.859 187.838  1.00  0.00     0.293 HD
ENDBRANCH  17  20
ENDBRANCH   1  12
BRANCH   2  22
ATOM     22  O   UNL     1     127.539  -9.619 193.562  1.00  0.00    -0.502 OA
ATOM     23  H   UNL     1     126.752  -9.376 194.151  1.00  0.00     0.293 HD
ENDBRANCH   2  22
BRANCH   6  24
ATOM     24  O   UNL     1     131.827 -10.492 196.598  1.00  0.00    -0.507 OA
ATOM     25  H   UNL     1     132.354 -10.470 197.457  1.00  0.00     0.293 HD
ENDBRANCH   6  24
BRANCH   8  26
ATOM     26  O   UNL     1     132.370 -15.208 195.991  1.00  0.00    -0.508 OA
ATOM     27  H   UNL     1     132.179 -16.086 195.523  1.00  0.00     0.293 HD
ENDBRANCH   8  26
TORSDOF 6
ENDMDL
MODEL 2
REMARK VINA RESULT:    -7.345      0.574      1.447
REMARK INTER + INTRA:          -9.168
REMARK INTER:                  -8.875
REMARK INTRA:                  -0.293
REMARK UNBOUND:                -0.320
REMARK SMILES O=c1c(O)c(-c2ccc(O)c(O)c2)oc2cc(O)cc(O)c12
REMARK SMILES IDX 5 1 3 2 2 3 1 4 22 5 20 6 19 7 17 8 16 9 15 10 14 11 6 12
REMARK SMILES IDX 7 13 8 14 9 15 13 16 11 17 10 18 12 20 4 22 21 24 18 26
REMARK H PARENT 10 19 12 21 4 23 21 25 18 27
REMARK Flexibility Score: inf
ROOT
ATOM      1  C   UNL     1     128.191 -11.912 193.211  1.00  0.00     0.180 A 
ATOM      2  C   UNL     1     128.383 -10.684 193.866  1.00  0.00     0.208 A 
ATOM      3  C   UNL     1     129.411 -10.570 194.815  1.00  0.00     0.238 A 
ATOM      4  O   UNL     1     129.543  -9.484 195.437  1.00  0.00    -0.285 OA
ATOM      5  C   UNL     1     130.246 -11.682 195.085  1.00  0.00     0.111 A 
ATOM      6  C   UNL     1     131.343 -11.668 195.998  1.00  0.00     0.134 A 
ATOM      7  C   UNL     1     132.017 -12.861 196.285  1.00  0.00     0.093 A 
ATOM      8  C   UNL     1     131.679 -14.052 195.644  1.00  0.00     0.123 A 
ATOM      9  C   UNL     1     130.646 -14.065 194.706  1.00  0.00     0.094 A 
ATOM     10  C   UNL     1     129.931 -12.898 194.426  1.00  0.00     0.146 A 
ATOM     11  O   UNL     1     128.948 -12.955 193.535  1.00  0.00    -0.452 OA
ENDROOT
BRANCH   1  12
ATOM     12  C   UNL     1     127.145 -12.102 192.180  1.00  0.00     0.025 A 
ATOM     13  C   UNL     1     127.486 -12.000 190.822  1.00  0.00     0.016 A 
ATOM     14  C   UNL     1     126.511 -12.153 189.834  1.00  0.00     0.051 A 
ATOM     15  C   UNL     1     125.180 -12.398 190.186  1.00  0.00     0.157 A 
ATOM     16  C   UNL     1     125.802 -12.327 192.533  1.00  0.00     0.062 A 
ATOM     17  C   UNL     1     124.822 -12.480 191.541  1.00  0.00     0.158 A 
BRANCH  15  18
ATOM     18  O   UNL     1     124.229 -12.550 189.177  1.00  0.00    -0.504 OA
ATOM     19  H   UNL     1     123.866 -11.762 188.655  1.00  0.00     0.293 HD
ENDBRANCH  15  18
BRANCH  17  20
ATOM     20  O   UNL     1     123.493 -12.709 191.900  1.00  0.00    -0.504 OA
ATOM     21  H   UNL     1     123.079 -13.632 191.840  1.00  0.00     0.293 HD
ENDBRANCH  17  20
ENDBRANCH   1  12
BRANCH   2  22
ATOM     22  O   UNL     1     127.534  -9.605 193.600  1.00  0.00    -0.502 OA
ATOM     23  H   UNL     1     127.783  -8.862 192.958  1.00  0.00     0.293 HD
ENDBRANCH   2  22
BRANCH   6  24
ATOM     24  O   UNL     1     131.823 -10.514 196.623  1.00  0.00    -0.507 OA
ATOM     25  H   UNL     1     132.184  -9.706 196.139  1.00  0.00     0.293 HD
ENDBRANCH   6  24
BRANCH   8  26
ATOM     26  O   UNL     1     132.382 -15.217 195.942  1.00  0.00    -0.508 OA
ATOM     27  H   UNL     1     132.968 -15.674 195.253  1.00  0.00     0.293 HD
ENDBRANCH   8  26
TORSDOF 6
ENDMDL
MODEL 3
REMARK VINA RESULT:    -7.293      5.212     11.133
REMARK INTER + INTRA:          -9.105
REMARK INTER:                  -9.322
REMARK INTRA:                   0.217
REMARK UNBOUND:                -0.320
REMARK SMILES O=c1c(O)c(-c2ccc(O)c(O)c2)oc2cc(O)cc(O)c12
REMARK SMILES IDX 5 1 3 2 2 3 1 4 22 5 20 6 19 7 17 8 16 9 15 10 14 11 6 12
REMARK SMILES IDX 7 13 8 14 9 15 13 16 11 17 10 18 12 20 4 22 21 24 18 26
REMARK H PARENT 10 19 12 21 4 23 21 25 18 27
REMARK Flexibility Score: inf
ROOT
ATOM      1  C   UNL     1     122.739 -14.542 188.201  1.00  0.00     0.180 A 
ATOM      2  C   UNL     1     123.183 -14.914 186.920  1.00  0.00     0.208 A 
ATOM      3  C   UNL     1     122.235 -15.158 185.914  1.00  0.00     0.238 A 
ATOM      4  O   UNL     1     122.637 -15.542 184.785  1.00  0.00    -0.285 OA
ATOM      5  C   UNL     1     120.855 -15.010 186.196  1.00  0.00     0.111 A 
ATOM      6  C   UNL     1     119.810 -15.192 185.241  1.00  0.00     0.134 A 
ATOM      7  C   UNL     1     118.475 -15.150 185.664  1.00  0.00     0.093 A 
ATOM      8  C   UNL     1     118.147 -14.867 186.988  1.00  0.00     0.123 A 
ATOM      9  C   UNL     1     119.160 -14.628 187.918  1.00  0.00     0.094 A 
ATOM     10  C   UNL     1     120.502 -14.700 187.535  1.00  0.00     0.146 A 
ATOM     11  O   UNL     1     121.436 -14.477 188.452  1.00  0.00    -0.452 OA
ENDROOT
BRANCH   1  12
ATOM     12  C   UNL     1     123.679 -14.245 189.306  1.00  0.00     0.025 A 
ATOM     13  C   UNL     1     123.389 -13.199 190.197  1.00  0.00     0.016 A 
ATOM     14  C   UNL     1     124.272 -12.887 191.233  1.00  0.00     0.051 A 
ATOM     15  C   UNL     1     125.462 -13.604 191.388  1.00  0.00     0.157 A 
ATOM     16  C   UNL     1     124.886 -14.951 189.450  1.00  0.00     0.062 A 
ATOM     17  C   UNL     1     125.774 -14.638 190.490  1.00  0.00     0.158 A 
BRANCH  15  18
ATOM     18  O   UNL     1     126.322 -13.273 192.435  1.00  0.00    -0.504 OA
ATOM     19  H   UNL     1     126.052 -12.634 193.172  1.00  0.00     0.293 HD
ENDBRANCH  15  18
BRANCH  17  20
ATOM     20  O   UNL     1     126.967 -15.348 190.630  1.00  0.00    -0.504 OA
ATOM     21  H   UNL     1     127.773 -14.945 191.090  1.00  0.00     0.293 HD
ENDBRANCH  17  20
ENDBRANCH   1  12
BRANCH   2  22
ATOM     22  O   UNL     1     124.549 -15.074 186.669  1.00  0.00    -0.502 OA
ATOM     23  H   UNL     1     124.905 -15.762 186.016  1.00  0.00     0.293 HD
ENDBRANCH   2  22
BRANCH   6  24
ATOM     24  O   UNL     1     120.026 -15.389 183.875  1.00  0.00    -0.507 OA
ATOM     25  H   UNL     1     119.387 -15.110 183.146  1.00  0.00     0.293 HD
ENDBRANCH   6  24
BRANCH   8  26
ATOM     26  O   UNL     1     116.808 -14.816 187.370  1.00  0.00    -0.508 OA
ATOM     27  H   UNL     1     116.163 -15.564 187.144  1.00  0.00     0.293 HD
ENDBRANCH   8  26
TORSDOF 6
ENDMDL
MODEL 4
REMARK VINA RESULT:    -7.266      1.947      6.952
REMARK INTER + INTRA:          -9.073
REMARK INTER:                  -8.752
REMARK INTRA:                  -0.321
REMARK UNBOUND:                -0.320
REMARK SMILES O=c1c(O)c(-c2ccc(O)c(O)c2)oc2cc(O)cc(O)c12
REMARK SMILES IDX 5 1 3 2 2 3 1 4 22 5 20 6 19 7 17 8 16 9 15 10 14 11 6 12
REMARK SMILES IDX 7 13 8 14 9 15 13 16 11 17 10 18 12 20 4 22 21 24 18 26
REMARK H PARENT 10 19 12 21 4 23 21 25 18 27
REMARK Flexibility Score: inf
ROOT
ATOM      1  C   UNL     1     129.286 -11.457 193.398  1.00  0.00     0.180 A 
ATOM      2  C   UNL     1     127.892 -11.553 193.554  1.00  0.00     0.208 A 
ATOM      3  C   UNL     1     127.063 -11.296 192.451  1.00  0.00     0.238 A 
ATOM      4  O   UNL     1     125.815 -11.331 192.611  1.00  0.00    -0.285 OA
ATOM      5  C   UNL     1     127.638 -10.963 191.201  1.00  0.00     0.111 A 
ATOM      6  C   UNL     1     126.895 -10.722 190.006  1.00  0.00     0.134 A 
ATOM      7  C   UNL     1     127.560 -10.271 188.859  1.00  0.00     0.093 A 
ATOM      8  C   UNL     1     128.945 -10.116 188.843  1.00  0.00     0.123 A 
ATOM      9  C   UNL     1     129.688 -10.406 189.988  1.00  0.00     0.094 A 
ATOM     10  C   UNL     1     129.050 -10.822 191.159  1.00  0.00     0.146 A 
ATOM     11  O   UNL     1     129.791 -11.077 192.230  1.00  0.00    -0.452 OA
ENDROOT
BRANCH   1  12
ATOM     12  C   UNL     1     130.225 -11.737 194.508  1.00  0.00     0.025 A 
ATOM     13  C   UNL     1     130.587 -10.702 195.385  1.00  0.00     0.016 A 
ATOM     14  C   UNL     1     131.487 -10.939 196.425  1.00  0.00     0.051 A 
ATOM     15  C   UNL     1     132.051 -12.207 196.599  1.00  0.00     0.157 A 
ATOM     16  C   UNL     1     130.808 -13.006 194.671  1.00  0.00     0.062 A 
ATOM     17  C   UNL     1     131.713 -13.245 195.715  1.00  0.00     0.158 A 
BRANCH  15  18
ATOM     18  O   UNL     1     132.944 -12.414 197.649  1.00  0.00    -0.504 OA
ATOM     19  H   UNL     1     133.944 -12.475 197.501  1.00  0.00     0.293 HD
ENDBRANCH  15  18
BRANCH  17  20
ATOM     20  O   UNL     1     132.282 -14.509 195.874  1.00  0.00    -0.504 OA
ATOM     21  H   UNL     1     133.221 -14.627 196.235  1.00  0.00     0.293 HD
ENDBRANCH  17  20
ENDBRANCH   1  12
BRANCH   2  22
ATOM     22  O   UNL     1     127.345 -11.862 194.803  1.00  0.00    -0.502 OA
ATOM     23  H   UNL     1     126.490 -12.397 194.905  1.00  0.00     0.293 HD
ENDBRANCH   2  22
BRANCH   6  24
ATOM     24  O   UNL     1     125.519 -10.935 189.886  1.00  0.00    -0.507 OA
ATOM     25  H   UNL     1     124.812 -10.241 190.077  1.00  0.00     0.293 HD
ENDBRANCH   6  24
BRANCH   8  26
ATOM     26  O   UNL     1     129.575  -9.681 187.679  1.00  0.00    -0.508 OA
ATOM     27  H   UNL     1     130.520  -9.967 187.449  1.00  0.00     0.293 HD
ENDBRANCH   8  26
TORSDOF 6
ENDMDL
MODEL 5
REMARK VINA RESULT:    -7.199      6.790      9.933
REMARK INTER + INTRA:          -8.993
REMARK INTER:                  -8.665
REMARK INTRA:                  -0.327
REMARK UNBOUND:                -0.320
REMARK SMILES O=c1c(O)c(-c2ccc(O)c(O)c2)oc2cc(O)cc(O)c12
REMARK SMILES IDX 5 1 3 2 2 3 1 4 22 5 20 6 19 7 17 8 16 9 15 10 14 11 6 12
REMARK SMILES IDX 7 13 8 14 9 15 13 16 11 17 10 18 12 20 4 22 21 24 18 26
REMARK H PARENT 10 19 12 21 4 23 21 25 18 27
REMARK Flexibility Score: inf
ROOT
ATOM      1  C   UNL     1     122.284 -14.331 186.503  1.00  0.00     0.180 A 
ATOM      2  C   UNL     1     123.126 -15.233 187.177  1.00  0.00     0.208 A 
ATOM      3  C   UNL     1     124.348 -14.771 187.690  1.00  0.00     0.238 A 
ATOM      4  O   UNL     1     125.121 -15.595 188.244  1.00  0.00    -0.285 OA
ATOM      5  C   UNL     1     124.707 -13.409 187.538  1.00  0.00     0.111 A 
ATOM      6  C   UNL     1     125.902 -12.824 188.054  1.00  0.00     0.134 A 
ATOM      7  C   UNL     1     126.216 -11.498 187.730  1.00  0.00     0.093 A 
ATOM      8  C   UNL     1     125.348 -10.717 186.968  1.00  0.00     0.123 A 
ATOM      9  C   UNL     1     124.148 -11.262 186.509  1.00  0.00     0.094 A 
ATOM     10  C   UNL     1     123.825 -12.592 186.783  1.00  0.00     0.146 A 
ATOM     11  O   UNL     1     122.679 -13.076 186.319  1.00  0.00    -0.452 OA
ENDROOT
BRANCH   1  12
ATOM     12  C   UNL     1     120.969 -14.738 185.956  1.00  0.00     0.025 A 
ATOM     13  C   UNL     1     120.887 -15.213 184.638  1.00  0.00     0.016 A 
ATOM     14  C   UNL     1     119.654 -15.581 184.095  1.00  0.00     0.051 A 
ATOM     15  C   UNL     1     118.484 -15.469 184.854  1.00  0.00     0.157 A 
ATOM     16  C   UNL     1     119.790 -14.606 186.711  1.00  0.00     0.062 A 
ATOM     17  C   UNL     1     118.551 -14.975 186.167  1.00  0.00     0.158 A 
BRANCH  15  18
ATOM     18  O   UNL     1     117.268 -15.849 184.286  1.00  0.00    -0.504 OA
ATOM     19  H   UNL     1     116.465 -15.232 184.273  1.00  0.00     0.293 HD
ENDBRANCH  15  18
BRANCH  17  20
ATOM     20  O   UNL     1     117.387 -14.846 186.925  1.00  0.00    -0.504 OA
ATOM     21  H   UNL     1     116.577 -15.429 186.754  1.00  0.00     0.293 HD
ENDBRANCH  17  20
ENDBRANCH   1  12
BRANCH   2  22
ATOM     22  O   UNL     1     122.763 -16.578 187.296  1.00  0.00    -0.502 OA
ATOM     23  H   UNL     1     121.958 -16.878 187.833  1.00  0.00     0.293 HD
ENDBRANCH   2  22
BRANCH   6  24
ATOM     24  O   UNL     1     126.793 -13.487 188.902  1.00  0.00    -0.507 OA
ATOM     25  H   UNL     1     127.476 -14.165 188.601  1.00  0.00     0.293 HD
ENDBRANCH   6  24
BRANCH   8  26
ATOM     26  O   UNL     1     125.685  -9.397 186.679  1.00  0.00    -0.508 OA
ATOM     27  H   UNL     1     124.991  -8.729 186.365  1.00  0.00     0.293 HD
ENDBRANCH   8  26
TORSDOF 6
ENDMDL
MODEL 6
REMARK VINA RESULT:    -6.989      3.533      9.131
REMARK INTER + INTRA:          -8.739
REMARK INTER:                  -8.435
REMARK INTRA:                  -0.304
REMARK UNBOUND:                -0.320
REMARK SMILES O=c1c(O)c(-c2ccc(O)c(O)c2)oc2cc(O)cc(O)c12
REMARK SMILES IDX 5 1 3 2 2 3 1 4 22 5 20 6 19 7 17 8 16 9 15 10 14 11 6 12
REMARK SMILES IDX 7 13 8 14 9 15 13 16 11 17 10 18 12 20 4 22 21 24 18 26
REMARK H PARENT 10 19 12 21 4 23 21 25 18 27
REMARK Flexibility Score: inf
ROOT
ATOM      1  C   UNL     1     125.020 -13.556 189.435  1.00  0.00     0.180 A 
ATOM      2  C   UNL     1     125.792 -13.828 188.292  1.00  0.00     0.208 A 
ATOM      3  C   UNL     1     125.158 -14.328 187.144  1.00  0.00     0.238 A 
ATOM      4  O   UNL     1     125.862 -14.620 186.143  1.00  0.00    -0.285 OA
ATOM      5  C   UNL     1     123.756 -14.533 187.146  1.00  0.00     0.111 A 
ATOM      6  C   UNL     1     123.004 -14.998 186.026  1.00  0.00     0.134 A 
ATOM      7  C   UNL     1     121.643 -15.290 186.182  1.00  0.00     0.093 A 
ATOM      8  C   UNL     1     120.994 -15.073 187.396  1.00  0.00     0.123 A 
ATOM      9  C   UNL     1     121.707 -14.562 188.482  1.00  0.00     0.094 A 
ATOM     10  C   UNL     1     123.073 -14.296 188.368  1.00  0.00     0.146 A 
ATOM     11  O   UNL     1     123.718 -13.822 189.427  1.00  0.00    -0.452 OA
ENDROOT
BRANCH   1  12
ATOM     12  C   UNL     1     125.613 -13.004 190.674  1.00  0.00     0.025 A 
ATOM     13  C   UNL     1     126.210 -13.873 191.601  1.00  0.00     0.016 A 
ATOM     14  C   UNL     1     126.757 -13.377 192.786  1.00  0.00     0.051 A 
ATOM     15  C   UNL     1     126.704 -12.009 193.071  1.00  0.00     0.157 A 
ATOM     16  C   UNL     1     125.541 -11.631 190.972  1.00  0.00     0.062 A 
ATOM     17  C   UNL     1     126.089 -11.132 192.163  1.00  0.00     0.158 A 
BRANCH  15  18
ATOM     18  O   UNL     1     127.261 -11.542 194.261  1.00  0.00    -0.504 OA
ATOM     19  H   UNL     1     127.150 -10.583 194.568  1.00  0.00     0.293 HD
ENDBRANCH  15  18
BRANCH  17  20
ATOM     20  O   UNL     1     126.019  -9.768 192.447  1.00  0.00    -0.504 OA
ATOM     21  H   UNL     1     125.770  -9.430 193.369  1.00  0.00     0.293 HD
ENDBRANCH  17  20
ENDBRANCH   1  12
BRANCH   2  22
ATOM     22  O   UNL     1     127.176 -13.638 188.318  1.00  0.00    -0.502 OA
ATOM     23  H   UNL     1     127.618 -12.805 187.948  1.00  0.00     0.293 HD
ENDBRANCH   2  22
BRANCH   6  24
ATOM     24  O   UNL     1     123.534 -15.161 184.743  1.00  0.00    -0.507 OA
ATOM     25  H   UNL     1     124.075 -15.957 184.443  1.00  0.00     0.293 HD
ENDBRANCH   6  24
BRANCH   8  26
ATOM     26  O   UNL     1     119.636 -15.359 187.511  1.00  0.00    -0.508 OA
ATOM     27  H   UNL     1     119.304 -16.303 187.674  1.00  0.00     0.293 HD
ENDBRANCH   8  26
TORSDOF 6
ENDMDL
MODEL 7
REMARK VINA RESULT:    -6.907      1.804      7.366
REMARK INTER + INTRA:          -8.640
REMARK INTER:                  -8.591
REMARK INTRA:                  -0.049
REMARK UNBOUND:                -0.320
REMARK SMILES O=c1c(O)c(-c2ccc(O)c(O)c2)oc2cc(O)cc(O)c12
REMARK SMILES IDX 5 1 3 2 2 3 1 4 22 5 20 6 19 7 17 8 16 9 15 10 14 11 6 12
REMARK SMILES IDX 7 13 8 14 9 15 13 16 11 17 10 18 12 20 4 22 21 24 18 26
REMARK H PARENT 10 19 12 21 4 23 21 25 18 27
REMARK Flexibility Score: inf
ROOT
ATOM      1  C   UNL     1     128.127 -11.959 192.814  1.00  0.00     0.180 A 
ATOM      2  C   UNL     1     127.768 -13.306 192.637  1.00  0.00     0.208 A 
ATOM      3  C   UNL     1     126.845 -13.639 191.633  1.00  0.00     0.238 A 
ATOM      4  O   UNL     1     126.486 -14.840 191.516  1.00  0.00    -0.285 OA
ATOM      5  C   UNL     1     126.307 -12.624 190.806  1.00  0.00     0.111 A 
ATOM      6  C   UNL     1     125.395 -12.852 189.731  1.00  0.00     0.134 A 
ATOM      7  C   UNL     1     124.826 -11.759 189.065  1.00  0.00     0.093 A 
ATOM      8  C   UNL     1     125.184 -10.452 189.389  1.00  0.00     0.123 A 
ATOM      9  C   UNL     1     126.119 -10.219 190.398  1.00  0.00     0.094 A 
ATOM     10  C   UNL     1     126.677 -11.286 191.106  1.00  0.00     0.146 A 
ATOM     11  O   UNL     1     127.554 -11.022 192.066  1.00  0.00    -0.452 OA
ENDROOT
BRANCH   1  12
ATOM     12  C   UNL     1     129.112 -11.533 193.835  1.00  0.00     0.025 A 
ATOM     13  C   UNL     1     130.387 -12.118 193.851  1.00  0.00     0.016 A 
ATOM     14  C   UNL     1     131.324 -11.747 194.818  1.00  0.00     0.051 A 
ATOM     15  C   UNL     1     130.998 -10.797 195.791  1.00  0.00     0.157 A 
ATOM     16  C   UNL     1     128.778 -10.593 194.826  1.00  0.00     0.062 A 
ATOM     17  C   UNL     1     129.718 -10.220 195.799  1.00  0.00     0.158 A 
BRANCH  15  18
ATOM     18  O   UNL     1     131.955 -10.443 196.742  1.00  0.00    -0.504 OA
ATOM     19  H   UNL     1     132.460  -9.566 196.697  1.00  0.00     0.293 HD
ENDBRANCH  15  18
BRANCH  17  20
ATOM     20  O   UNL     1     129.380  -9.282 196.775  1.00  0.00    -0.504 OA
ATOM     21  H   UNL     1     129.312  -9.536 197.753  1.00  0.00     0.293 HD
ENDBRANCH  17  20
ENDBRANCH   1  12
BRANCH   2  22
ATOM     22  O   UNL     1     128.295 -14.290 193.479  1.00  0.00    -0.502 OA
ATOM     23  H   UNL     1     128.116 -14.306 194.476  1.00  0.00     0.293 HD
ENDBRANCH   2  22
BRANCH   6  24
ATOM     24  O   UNL     1     125.041 -14.121 189.266  1.00  0.00    -0.507 OA
ATOM     25  H   UNL     1     124.100 -14.484 189.247  1.00  0.00     0.293 HD
ENDBRANCH   6  24
BRANCH   8  26
ATOM     26  O   UNL     1     124.610  -9.390 188.695  1.00  0.00    -0.508 OA
ATOM     27  H   UNL     1     123.638  -9.405 188.409  1.00  0.00     0.293 HD
ENDBRANCH   8  26
TORSDOF 6
ENDMDL
MODEL 8
REMARK VINA RESULT:    -6.866      2.479      4.095
REMARK INTER + INTRA:          -8.591
REMARK INTER:                  -8.281
REMARK INTRA:                  -0.311
REMARK UNBOUND:                -0.320
REMARK SMILES O=c1c(O)c(-c2ccc(O)c(O)c2)oc2cc(O)cc(O)c12
REMARK SMILES IDX 5 1 3 2 2 3 1 4 22 5 20 6 19 7 17 8 16 9 15 10 14 11 6 12
REMARK SMILES IDX 7 13 8 14 9 15 13 16 11 17 10 18 12 20 4 22 21 24 18 26
REMARK H PARENT 10 19 12 21 4 23 21 25 18 27
REMARK Flexibility Score: inf
ROOT
ATOM      1  C   UNL     1     125.715 -13.090 190.386  1.00  0.00     0.180 A 
ATOM      2  C   UNL     1     125.513 -11.722 190.639  1.00  0.00     0.208 A 
ATOM      3  C   UNL     1     126.224 -11.110 191.684  1.00  0.00     0.238 A 
ATOM      4  O   UNL     1     125.999  -9.899 191.941  1.00  0.00    -0.285 OA
ATOM      5  C   UNL     1     127.141 -11.869 192.451  1.00  0.00     0.111 A 
ATOM      6  C   UNL     1     127.944 -11.343 193.507  1.00  0.00     0.134 A 
ATOM      7  C   UNL     1     128.719 -12.213 194.284  1.00  0.00     0.093 A 
ATOM      8  C   UNL     1     128.771 -13.577 194.003  1.00  0.00     0.123 A 
ATOM      9  C   UNL     1     128.036 -14.094 192.935  1.00  0.00     0.094 A 
ATOM     10  C   UNL     1     127.225 -13.257 192.165  1.00  0.00     0.146 A 
ATOM     11  O   UNL     1     126.532 -13.789 191.165  1.00  0.00    -0.452 OA
ENDROOT
BRANCH   1  12
ATOM     12  C   UNL     1     125.021 -13.798 189.286  1.00  0.00     0.025 A 
ATOM     13  C   UNL     1     123.738 -14.323 189.505  1.00  0.00     0.016 A 
ATOM     14  C   UNL     1     123.074 -15.014 188.489  1.00  0.00     0.051 A 
ATOM     15  C   UNL     1     123.685 -15.203 187.245  1.00  0.00     0.157 A 
ATOM     16  C   UNL     1     125.643 -14.007 188.042  1.00  0.00     0.062 A 
ATOM     17  C   UNL     1     124.977 -14.702 187.021  1.00  0.00     0.158 A 
BRANCH  15  18
ATOM     18  O   UNL     1     122.995 -15.894 186.248  1.00  0.00    -0.504 OA
ATOM     19  H   UNL     1     122.148 -15.531 185.830  1.00  0.00     0.293 HD
ENDBRANCH  15  18
BRANCH  17  20
ATOM     20  O   UNL     1     125.599 -14.899 185.788  1.00  0.00    -0.504 OA
ATOM     21  H   UNL     1     125.350 -15.675 185.187  1.00  0.00     0.293 HD
ENDBRANCH  17  20
ENDBRANCH   1  12
BRANCH   2  22
ATOM     22  O   UNL     1     124.587 -10.996 189.884  1.00  0.00    -0.502 OA
ATOM     23  H   UNL     1     123.633 -10.850 190.188  1.00  0.00     0.293 HD
ENDBRANCH   2  22
BRANCH   6  24
ATOM     24  O   UNL     1     128.038  -9.983 193.813  1.00  0.00    -0.507 OA
ATOM     25  H   UNL     1     128.792  -9.379 193.524  1.00  0.00     0.293 HD
ENDBRANCH   6  24
BRANCH   8  26
ATOM     26  O   UNL     1     129.565 -14.411 194.787  1.00  0.00    -0.508 OA
ATOM     27  H   UNL     1     130.103 -14.053 195.567  1.00  0.00     0.293 HD
ENDBRANCH   8  26
TORSDOF 6
ENDMDL
MODEL 9
REMARK VINA RESULT:    -6.776      5.893      9.547
REMARK INTER + INTRA:          -8.483
REMARK INTER:                  -8.976
REMARK INTRA:                   0.493
REMARK UNBOUND:                -0.320
REMARK SMILES O=c1c(O)c(-c2ccc(O)c(O)c2)oc2cc(O)cc(O)c12
REMARK SMILES IDX 5 1 3 2 2 3 1 4 22 5 20 6 19 7 17 8 16 9 15 10 14 11 6 12
REMARK SMILES IDX 7 13 8 14 9 15 13 16 11 17 10 18 12 20 4 22 21 24 18 26
REMARK H PARENT 10 19 12 21 4 23 21 25 18 27
REMARK Flexibility Score: inf
ROOT
ATOM      1  C   UNL     1     121.976 -14.765 187.062  1.00  0.00     0.180 A 
ATOM      2  C   UNL     1     123.261 -15.004 186.545  1.00  0.00     0.208 A 
ATOM      3  C   UNL     1     124.379 -14.760 187.358  1.00  0.00     0.238 A 
ATOM      4  O   UNL     1     125.528 -14.925 186.872  1.00  0.00    -0.285 OA
ATOM      5  C   UNL     1     124.198 -14.298 188.684  1.00  0.00     0.111 A 
ATOM      6  C   UNL     1     125.258 -14.057 189.610  1.00  0.00     0.134 A 
ATOM      7  C   UNL     1     124.971 -13.475 190.851  1.00  0.00     0.093 A 
ATOM      8  C   UNL     1     123.660 -13.187 191.226  1.00  0.00     0.123 A 
ATOM      9  C   UNL     1     122.610 -13.474 190.353  1.00  0.00     0.094 A 
ATOM     10  C   UNL     1     122.868 -14.020 189.093  1.00  0.00     0.146 A 
ATOM     11  O   UNL     1     121.842 -14.268 188.287  1.00  0.00    -0.452 OA
ENDROOT
BRANCH   1  12
ATOM     12  C   UNL     1     120.749 -15.021 186.274  1.00  0.00     0.025 A 
ATOM     13  C   UNL     1     120.845 -15.199 184.885  1.00  0.00     0.016 A 
ATOM     14  C   UNL     1     119.698 -15.420 184.119  1.00  0.00     0.051 A 
ATOM     15  C   UNL     1     118.438 -15.454 184.725  1.00  0.00     0.157 A 
ATOM     16  C   UNL     1     119.480 -15.035 186.879  1.00  0.00     0.062 A 
ATOM     17  C   UNL     1     118.327 -15.256 186.111  1.00  0.00     0.158 A 
BRANCH  15  18
ATOM     18  O   UNL     1     117.311 -15.681 183.936  1.00  0.00    -0.504 OA
ATOM     19  H   UNL     1     116.658 -14.942 183.706  1.00  0.00     0.293 HD
ENDBRANCH  15  18
BRANCH  17  20
ATOM     20  O   UNL     1     117.072 -15.275 186.721  1.00  0.00    -0.504 OA
ATOM     21  H   UNL     1     116.954 -15.568 187.683  1.00  0.00     0.293 HD
ENDBRANCH  17  20
ENDBRANCH   1  12
BRANCH   2  22
ATOM     22  O   UNL     1     123.418 -15.440 185.226  1.00  0.00    -0.502 OA
ATOM     23  H   UNL     1     122.664 -15.412 184.551  1.00  0.00     0.293 HD
ENDBRANCH   2  22
BRANCH   6  24
ATOM     24  O   UNL     1     126.593 -14.392 189.372  1.00  0.00    -0.507 OA
ATOM     25  H   UNL     1     126.901 -15.237 188.915  1.00  0.00     0.293 HD
ENDBRANCH   6  24
BRANCH   8  26
ATOM     26  O   UNL     1     123.409 -12.623 192.475  1.00  0.00    -0.508 OA
ATOM     27  H   UNL     1     122.520 -12.188 192.693  1.00  0.00     0.293 HD
ENDBRANCH   8  26
TORSDOF 6
ENDMDL
