MODEL 1
REMARK VINA RESULT:    -3.881      0.000      0.000
REMARK INTER + INTRA:          -6.147
REMARK INTER:                  -5.922
REMARK INTRA:                  -0.224
REMARK UNBOUND:                -0.224
REMARK SMILES CC1=CCC[C@H](C)C(=O)C[C@@H](C(C)C)C(=O)C1
REMARK SMILES IDX 8 1 9 2 6 3 7 4 5 5 4 6 3 7 2 8 1 9 10 11 11 12 15 13 16 14
REMARK SMILES IDX 17 15 12 17 13 18 14 19
REMARK H PARENT
REMARK Flexibility Score: 70.00
ROOT
ATOM      1  C   UNL     1      10.375 -20.993  21.084  1.00  0.00     0.136 C 
ATOM      2  O   UNL     1      11.458 -21.510  20.847  1.00  0.00    -0.299 OA
ENDROOT
BRANCH   1   3
ATOM      3  C   UNL     1       9.659 -21.301  22.385  1.00  0.00     0.053 C 
ATOM      4  C   UNL     1       9.598 -22.818  22.586  1.00  0.00     0.016 C 
BRANCH   3   5
ATOM      5  C   UNL     1      10.333 -20.628  23.600  1.00  0.00     0.015 C 
BRANCH   5   6
ATOM      6  C   UNL     1       9.421 -19.685  24.404  1.00  0.00     0.028 C 
BRANCH   6   7
ATOM      7  C   UNL     1       9.698 -18.215  24.181  1.00  0.00    -0.028 C 
ATOM      8  C   UNL     1       9.288 -17.430  23.150  1.00  0.00    -0.070 CG0
ATOM      9  C   UNL     1       9.818 -16.014  23.128  1.00  0.00     0.039 C 
ATOM     10  G   UNL     1       8.268 -17.814  22.083  1.00  0.00     0.000 G0
ENDBRANCH   6   7
ENDBRANCH   5   6
ENDBRANCH   3   5
ENDBRANCH   1   3
BRANCH   1  11
ATOM     11  C   UNL     1       9.747 -20.099  20.045  1.00  0.00     0.087 C 
BRANCH  11  12
ATOM     12  C   UNL     1      10.037 -18.591  20.275  1.00  0.00     0.066 C 
BRANCH  12  13
ATOM     13  C   UNL     1       8.783 -17.815  20.667  1.00  0.00     0.140 C 
ATOM     14  O   UNL     1       8.095 -17.321  19.784  1.00  0.00    -0.299 OA
BRANCH  13  15
ATOM     15  C   UNL     1       8.273 -17.804  22.087  1.00  0.00     0.106 CG0
ATOM     16  G   UNL     1       9.293 -17.412  23.151  1.00  0.00     0.000 G0
ENDBRANCH  13  15
ENDBRANCH  12  13
BRANCH  12  17
ATOM     17  C   UNL     1      10.711 -17.932  19.029  1.00  0.00    -0.006 C 
ATOM     18  C   UNL     1      12.243 -17.864  19.182  1.00  0.00     0.008 C 
ATOM     19  C   UNL     1      10.377 -18.677  17.723  1.00  0.00     0.008 C 
ENDBRANCH  12  17
ENDBRANCH  11  12
ENDBRANCH   1  11
TORSDOF 1
ENDMDL
MODEL 2
REMARK VINA RESULT:    -3.871      1.938      3.875
REMARK INTER + INTRA:          -6.132
REMARK INTER:                  -6.114
REMARK INTRA:                  -0.018
REMARK UNBOUND:                -0.224
REMARK SMILES CC1=CCC[C@H](C)C(=O)C[C@@H](C(C)C)C(=O)C1
REMARK SMILES IDX 8 1 9 2 6 3 7 4 5 5 4 6 3 7 2 8 1 9 10 11 11 12 15 13 16 14
REMARK SMILES IDX 17 15 12 17 13 18 14 19
REMARK H PARENT
REMARK Flexibility Score: 70.00
ROOT
ATOM      1  C   UNL     1       9.593 -17.831  19.321  1.00  0.00     0.136 C 
ATOM      2  O   UNL     1       9.832 -17.905  18.124  1.00  0.00    -0.299 OA
ENDROOT
BRANCH   1   3
ATOM      3  C   UNL     1       8.163 -17.651  19.796  1.00  0.00     0.053 C 
ATOM      4  C   UNL     1       7.213 -18.376  18.837  1.00  0.00     0.016 C 
BRANCH   3   5
ATOM      5  C   UNL     1       7.956 -18.159  21.238  1.00  0.00     0.015 C 
BRANCH   5   6
ATOM      6  C   UNL     1       7.710 -19.674  21.359  1.00  0.00     0.028 C 
BRANCH   6   7
ATOM      7  C   UNL     1       8.139 -20.268  22.682  1.00  0.00    -0.028 C 
ATOM      8  C   UNL     1       9.391 -20.333  23.208  1.00  0.00    -0.070 CG0
ATOM      9  C   UNL     1       9.540 -21.094  24.505  1.00  0.00     0.039 C 
ATOM     10  G   UNL     1      10.626 -19.622  22.665  1.00  0.00     0.000 G0
ENDBRANCH   6   7
ENDBRANCH   5   6
ENDBRANCH   3   5
ENDBRANCH   1   3
BRANCH   1  11
ATOM     11  C   UNL     1      10.738 -17.863  20.301  1.00  0.00     0.087 C 
BRANCH  11  12
ATOM     12  C   UNL     1      11.557 -19.182  20.246  1.00  0.00     0.066 C 
BRANCH  12  13
ATOM     13  C   UNL     1      11.194 -20.135  21.380  1.00  0.00     0.140 C 
ATOM     14  O   UNL     1      11.493 -21.317  21.277  1.00  0.00    -0.299 OA
BRANCH  13  15
ATOM     15  C   UNL     1      10.653 -19.628  22.695  1.00  0.00     0.106 CG0
ATOM     16  G   UNL     1       9.398 -20.328  23.204  1.00  0.00     0.000 G0
ENDBRANCH  13  15
ENDBRANCH  12  13
BRANCH  12  17
ATOM     17  C   UNL     1      13.096 -18.909  20.242  1.00  0.00    -0.006 C 
ATOM     18  C   UNL     1      13.501 -17.957  19.101  1.00  0.00     0.008 C 
ATOM     19  C   UNL     1      13.587 -18.318  21.577  1.00  0.00     0.008 C 
ENDBRANCH  12  17
ENDBRANCH  11  12
ENDBRANCH   1  11
TORSDOF 1
ENDMDL
MODEL 3
REMARK VINA RESULT:    -3.820      2.585      4.332
REMARK INTER + INTRA:          -6.055
REMARK INTER:                  -5.794
REMARK INTRA:                  -0.261
REMARK UNBOUND:                -0.224
REMARK SMILES CC1=CCC[C@H](C)C(=O)C[C@@H](C(C)C)C(=O)C1
REMARK SMILES IDX 8 1 9 2 6 3 7 4 5 5 4 6 3 7 2 8 1 9 10 11 11 12 15 13 16 14
REMARK SMILES IDX 17 15 12 17 13 18 14 19
REMARK H PARENT
REMARK Flexibility Score: 70.00
ROOT
ATOM      1  C   UNL     1      11.127 -17.819  20.070  1.00  0.00     0.136 C 
ATOM      2  O   UNL     1      11.874 -17.372  19.211  1.00  0.00    -0.299 OA
ENDROOT
BRANCH   1   3
ATOM      3  C   UNL     1       9.944 -18.680  19.670  1.00  0.00     0.053 C 
ATOM      4  C   UNL     1       9.209 -18.022  18.498  1.00  0.00     0.016 C 
BRANCH   3   5
ATOM      5  C   UNL     1      10.364 -20.118  19.297  1.00  0.00     0.015 C 
BRANCH   5   6
ATOM      6  C   UNL     1      10.323 -21.124  20.460  1.00  0.00     0.028 C 
BRANCH   6   7
ATOM      7  C   UNL     1       9.181 -20.908  21.427  1.00  0.00    -0.028 C 
ATOM      8  C   UNL     1       9.242 -20.712  22.771  1.00  0.00    -0.070 CG0
ATOM      9  C   UNL     1       7.923 -20.641  23.504  1.00  0.00     0.039 C 
ATOM     10  G   UNL     1      10.510 -20.454  23.580  1.00  0.00     0.000 G0
ENDBRANCH   6   7
ENDBRANCH   5   6
ENDBRANCH   3   5
ENDBRANCH   1   3
BRANCH   1  11
ATOM     11  C   UNL     1      11.369 -17.455  21.513  1.00  0.00     0.087 C 
BRANCH  11  12
ATOM     12  C   UNL     1      11.975 -18.617  22.347  1.00  0.00     0.066 C 
BRANCH  12  13
ATOM     13  C   UNL     1      11.063 -19.040  23.495  1.00  0.00     0.140 C 
ATOM     14  O   UNL     1      10.644 -18.184  24.262  1.00  0.00    -0.299 OA
BRANCH  13  15
ATOM     15  C   UNL     1      10.519 -20.444  23.594  1.00  0.00     0.106 CG0
ATOM     16  G   UNL     1       9.266 -20.724  22.771  1.00  0.00     0.000 G0
ENDBRANCH  13  15
ENDBRANCH  12  13
BRANCH  12  17
ATOM     17  C   UNL     1      13.396 -18.261  22.891  1.00  0.00    -0.006 C 
ATOM     18  C   UNL     1      14.453 -18.278  21.770  1.00  0.00     0.008 C 
ATOM     19  C   UNL     1      13.430 -16.885  23.582  1.00  0.00     0.008 C 
ENDBRANCH  12  17
ENDBRANCH  11  12
ENDBRANCH   1  11
TORSDOF 1
ENDMDL
MODEL 4
REMARK VINA RESULT:    -3.757      1.973      2.444
REMARK INTER + INTRA:          -5.958
REMARK INTER:                  -5.789
REMARK INTRA:                  -0.169
REMARK UNBOUND:                -0.224
REMARK SMILES CC1=CCC[C@H](C)C(=O)C[C@@H](C(C)C)C(=O)C1
REMARK SMILES IDX 8 1 9 2 6 3 7 4 5 5 4 6 3 7 2 8 1 9 10 11 11 12 15 13 16 14
REMARK SMILES IDX 17 15 12 17 13 18 14 19
REMARK H PARENT
REMARK Flexibility Score: 70.00
ROOT
ATOM      1  C   UNL     1      10.108 -20.946  21.519  1.00  0.00     0.136 C 
ATOM      2  O   UNL     1      11.017 -21.612  21.044  1.00  0.00    -0.299 OA
ENDROOT
BRANCH   1   3
ATOM      3  C   UNL     1       9.417 -21.407  22.788  1.00  0.00     0.053 C 
ATOM      4  C   UNL     1       9.378 -22.938  22.820  1.00  0.00     0.016 C 
BRANCH   3   5
ATOM      5  C   UNL     1      10.103 -20.864  24.060  1.00  0.00     0.015 C 
BRANCH   5   6
ATOM      6  C   UNL     1      10.198 -19.329  24.137  1.00  0.00     0.028 C 
BRANCH   6   7
ATOM      7  C   UNL     1      11.610 -18.792  24.080  1.00  0.00    -0.028 C 
ATOM      8  C   UNL     1      12.219 -18.135  23.058  1.00  0.00    -0.070 CG0
ATOM      9  C   UNL     1      13.685 -17.817  23.238  1.00  0.00     0.039 C 
ATOM     10  G   UNL     1      11.534 -17.602  21.803  1.00  0.00     0.000 G0
ENDBRANCH   6   7
ENDBRANCH   5   6
ENDBRANCH   3   5
ENDBRANCH   1   3
BRANCH   1  11
ATOM     11  C   UNL     1       9.653 -19.704  20.795  1.00  0.00     0.087 C 
BRANCH  11  12
ATOM     12  C   UNL     1      10.711 -19.149  19.802  1.00  0.00     0.066 C 
BRANCH  12  13
ATOM     13  C   UNL     1      11.799 -18.346  20.508  1.00  0.00     0.140 C 
ATOM     14  O   UNL     1      12.871 -18.180  19.943  1.00  0.00    -0.299 OA
BRANCH  13  15
ATOM     15  C   UNL     1      11.523 -17.598  21.789  1.00  0.00     0.106 CG0
ATOM     16  G   UNL     1      12.226 -18.136  23.031  1.00  0.00     0.000 G0
ENDBRANCH  13  15
ENDBRANCH  12  13
BRANCH  12  17
ATOM     17  C   UNL     1      10.054 -18.291  18.673  1.00  0.00    -0.006 C 
ATOM     18  C   UNL     1      10.200 -18.962  17.294  1.00  0.00     0.008 C 
ATOM     19  C   UNL     1       8.561 -18.024  18.937  1.00  0.00     0.008 C 
ENDBRANCH  12  17
ENDBRANCH  11  12
ENDBRANCH   1  11
TORSDOF 1
ENDMDL
MODEL 5
REMARK VINA RESULT:    -3.689      2.115      3.427
REMARK INTER + INTRA:          -5.854
REMARK INTER:                  -5.581
REMARK INTRA:                  -0.273
REMARK UNBOUND:                -0.224
REMARK SMILES CC1=CCC[C@H](C)C(=O)C[C@@H](C(C)C)C(=O)C1
REMARK SMILES IDX 8 1 9 2 6 3 7 4 5 5 4 6 3 7 2 8 1 9 10 11 11 12 15 13 16 14
REMARK SMILES IDX 17 15 12 17 13 18 14 19
REMARK H PARENT
REMARK Flexibility Score: 70.00
ROOT
ATOM      1  C   UNL     1      12.683 -18.743  20.496  1.00  0.00     0.136 C 
ATOM      2  O   UNL     1      13.464 -18.332  19.649  1.00  0.00    -0.299 OA
ENDROOT
BRANCH   1   3
ATOM      3  C   UNL     1      12.922 -18.426  21.960  1.00  0.00     0.053 C 
ATOM      4  C   UNL     1      14.403 -18.094  22.175  1.00  0.00     0.016 C 
BRANCH   3   5
ATOM      5  C   UNL     1      12.037 -17.266  22.462  1.00  0.00     0.015 C 
BRANCH   5   6
ATOM      6  C   UNL     1      11.330 -17.527  23.804  1.00  0.00     0.028 C 
BRANCH   6   7
ATOM      7  C   UNL     1      11.269 -18.986  24.199  1.00  0.00    -0.028 C 
ATOM      8  C   UNL     1      10.305 -19.897  23.901  1.00  0.00    -0.070 CG0
ATOM      9  C   UNL     1      10.450 -21.263  24.533  1.00  0.00     0.039 C 
ATOM     10  G   UNL     1       9.161 -19.699  22.913  1.00  0.00     0.000 G0
ENDBRANCH   6   7
ENDBRANCH   5   6
ENDBRANCH   3   5
ENDBRANCH   1   3
BRANCH   1  11
ATOM     11  C   UNL     1      11.524 -19.607  20.068  1.00  0.00     0.087 C 
BRANCH  11  12
ATOM     12  C   UNL     1      10.147 -19.071  20.548  1.00  0.00     0.066 C 
BRANCH  12  13
ATOM     13  C   UNL     1       9.437 -20.051  21.476  1.00  0.00     0.140 C 
ATOM     14  O   UNL     1       9.238 -21.194  21.088  1.00  0.00    -0.299 OA
BRANCH  13  15
ATOM     15  C   UNL     1       9.148 -19.705  22.916  1.00  0.00     0.106 CG0
ATOM     16  G   UNL     1      10.309 -19.898  23.887  1.00  0.00     0.000 G0
ENDBRANCH  13  15
ENDBRANCH  12  13
BRANCH  12  17
ATOM     17  C   UNL     1       9.220 -18.698  19.347  1.00  0.00    -0.006 C 
ATOM     18  C   UNL     1       8.058 -17.787  19.789  1.00  0.00     0.008 C 
ATOM     19  C   UNL     1       9.990 -18.001  18.209  1.00  0.00     0.008 C 
ENDBRANCH  12  17
ENDBRANCH  11  12
ENDBRANCH   1  11
TORSDOF 1
ENDMDL
MODEL 6
REMARK VINA RESULT:    -3.656      2.279      3.282
REMARK INTER + INTRA:          -5.804
REMARK INTER:                  -5.849
REMARK INTRA:                   0.044
REMARK UNBOUND:                -0.224
REMARK SMILES CC1=CCC[C@H](C)C(=O)C[C@@H](C(C)C)C(=O)C1
REMARK SMILES IDX 8 1 9 2 6 3 7 4 5 5 4 6 3 7 2 8 1 9 10 11 11 12 15 13 16 14
REMARK SMILES IDX 17 15 12 17 13 18 14 19
REMARK H PARENT
REMARK Flexibility Score: 70.00
ROOT
ATOM      1  C   UNL     1      13.538 -18.231  22.472  1.00  0.00     0.136 C 
ATOM      2  O   UNL     1      14.759 -18.259  22.406  1.00  0.00    -0.299 OA
ENDROOT
BRANCH   1   3
ATOM      3  C   UNL     1      12.861 -17.673  23.709  1.00  0.00     0.053 C 
ATOM      4  C   UNL     1      13.633 -18.117  24.956  1.00  0.00     0.016 C 
BRANCH   3   5
ATOM      5  C   UNL     1      12.746 -16.134  23.673  1.00  0.00     0.015 C 
BRANCH   5   6
ATOM      6  C   UNL     1      11.318 -15.599  23.461  1.00  0.00     0.028 C 
BRANCH   6   7
ATOM      7  C   UNL     1      10.235 -16.472  24.055  1.00  0.00    -0.028 C 
ATOM      8  C   UNL     1       9.269 -17.171  23.404  1.00  0.00    -0.070 CG0
ATOM      9  C   UNL     1       8.241 -17.867  24.267  1.00  0.00     0.039 C 
ATOM     10  G   UNL     1       9.192 -17.402  21.898  1.00  0.00     0.000 G0
ENDBRANCH   6   7
ENDBRANCH   5   6
ENDBRANCH   3   5
ENDBRANCH   1   3
BRANCH   1  11
ATOM     11  C   UNL     1      12.729 -18.808  21.338  1.00  0.00     0.087 C 
BRANCH  11  12
ATOM     12  C   UNL     1      11.587 -17.870  20.859  1.00  0.00     0.066 C 
BRANCH  12  13
ATOM     13  C   UNL     1      10.213 -18.356  21.312  1.00  0.00     0.140 C 
ATOM     14  O   UNL     1       9.997 -19.560  21.355  1.00  0.00    -0.299 OA
BRANCH  13  15
ATOM     15  C   UNL     1       9.188 -17.407  21.882  1.00  0.00     0.106 CG0
ATOM     16  G   UNL     1       9.271 -17.174  23.387  1.00  0.00     0.000 G0
ENDBRANCH  13  15
ENDBRANCH  12  13
BRANCH  12  17
ATOM     17  C   UNL     1      11.606 -17.676  19.309  1.00  0.00    -0.006 C 
ATOM     18  C   UNL     1      13.015 -17.903  18.727  1.00  0.00     0.008 C 
ATOM     19  C   UNL     1      10.617 -18.614  18.591  1.00  0.00     0.008 C 
ENDBRANCH  12  17
ENDBRANCH  11  12
ENDBRANCH   1  11
TORSDOF 1
ENDMDL
MODEL 7
REMARK VINA RESULT:    -3.650      2.090      3.207
REMARK INTER + INTRA:          -5.795
REMARK INTER:                  -5.320
REMARK INTRA:                  -0.475
REMARK UNBOUND:                -0.224
REMARK SMILES CC1=CCC[C@H](C)C(=O)C[C@@H](C(C)C)C(=O)C1
REMARK SMILES IDX 8 1 9 2 6 3 7 4 5 5 4 6 3 7 2 8 1 9 10 11 11 12 15 13 16 14
REMARK SMILES IDX 17 15 12 17 13 18 14 19
REMARK H PARENT
REMARK Flexibility Score: 70.00
ROOT
ATOM      1  C   UNL     1       7.709 -18.314  21.433  1.00  0.00     0.136 C 
ATOM      2  O   UNL     1       6.944 -18.555  20.509  1.00  0.00    -0.299 OA
ENDROOT
BRANCH   1   3
ATOM      3  C   UNL     1       7.465 -18.934  22.796  1.00  0.00     0.053 C 
ATOM      4  C   UNL     1       6.048 -18.588  23.267  1.00  0.00     0.016 C 
BRANCH   3   5
ATOM      5  C   UNL     1       7.666 -20.464  22.790  1.00  0.00     0.015 C 
BRANCH   5   6
ATOM      6  C   UNL     1       9.092 -20.928  23.138  1.00  0.00     0.028 C 
BRANCH   6   7
ATOM      7  C   UNL     1       9.781 -20.082  24.185  1.00  0.00    -0.028 C 
ATOM      8  C   UNL     1      10.935 -19.374  24.067  1.00  0.00    -0.070 CG0
ATOM      9  C   UNL     1      11.451 -18.711  25.324  1.00  0.00     0.039 C 
ATOM     10  G   UNL     1      11.689 -19.103  22.770  1.00  0.00     0.000 G0
ENDBRANCH   6   7
ENDBRANCH   5   6
ENDBRANCH   3   5
ENDBRANCH   1   3
BRANCH   1  11
ATOM     11  C   UNL     1       8.851 -17.356  21.210  1.00  0.00     0.087 C 
BRANCH  11  12
ATOM     12  C   UNL     1      10.188 -18.065  20.859  1.00  0.00     0.066 C 
BRANCH  12  13
ATOM     13  C   UNL     1      11.229 -17.912  21.963  1.00  0.00     0.140 C 
ATOM     14  O   UNL     1      11.571 -16.787  22.301  1.00  0.00    -0.299 OA
BRANCH  13  15
ATOM     15  C   UNL     1      11.702 -19.095  22.772  1.00  0.00     0.106 CG0
ATOM     16  G   UNL     1      10.921 -19.373  24.052  1.00  0.00     0.000 G0
ENDBRANCH  13  15
ENDBRANCH  12  13
BRANCH  12  17
ATOM     17  C   UNL     1      10.770 -17.566  19.497  1.00  0.00    -0.006 C 
ATOM     18  C   UNL     1      12.141 -18.202  19.199  1.00  0.00     0.008 C 
ATOM     19  C   UNL     1       9.823 -17.856  18.317  1.00  0.00     0.008 C 
ENDBRANCH  12  17
ENDBRANCH  11  12
ENDBRANCH   1  11
TORSDOF 1
ENDMDL
MODEL 8
REMARK VINA RESULT:    -3.601      2.426      4.451
REMARK INTER + INTRA:          -5.720
REMARK INTER:                  -5.569
REMARK INTRA:                  -0.151
REMARK UNBOUND:                -0.224
REMARK SMILES CC1=CCC[C@H](C)C(=O)C[C@@H](C(C)C)C(=O)C1
REMARK SMILES IDX 8 1 9 2 6 3 7 4 5 5 4 6 3 7 2 8 1 9 10 11 11 12 15 13 16 14
REMARK SMILES IDX 17 15 12 17 13 18 14 19
REMARK H PARENT
REMARK Flexibility Score: 70.00
ROOT
ATOM      1  C   UNL     1       8.779 -19.260  22.654  1.00  0.00     0.136 C 
ATOM      2  O   UNL     1       8.265 -18.940  23.716  1.00  0.00    -0.299 OA
ENDROOT
BRANCH   1   3
ATOM      3  C   UNL     1       7.905 -19.696  21.493  1.00  0.00     0.053 C 
ATOM      4  C   UNL     1       6.900 -20.746  21.978  1.00  0.00     0.016 C 
BRANCH   3   5
ATOM      5  C   UNL     1       7.165 -18.511  20.838  1.00  0.00     0.015 C 
BRANCH   5   6
ATOM      6  C   UNL     1       8.011 -17.689  19.849  1.00  0.00     0.028 C 
BRANCH   6   7
ATOM      7  C   UNL     1       8.628 -18.504  18.735  1.00  0.00    -0.028 C 
ATOM      8  C   UNL     1       9.927 -18.538  18.338  1.00  0.00    -0.070 CG0
ATOM      9  C   UNL     1      10.237 -19.362  17.110  1.00  0.00     0.039 C 
ATOM     10  G   UNL     1      11.105 -17.910  19.078  1.00  0.00     0.000 G0
ENDBRANCH   6   7
ENDBRANCH   5   6
ENDBRANCH   3   5
ENDBRANCH   1   3
BRANCH   1  11
ATOM     11  C   UNL     1      10.282 -19.268  22.540  1.00  0.00     0.087 C 
BRANCH  11  12
ATOM     12  C   UNL     1      10.842 -18.079  21.713  1.00  0.00     0.066 C 
BRANCH  12  13
ATOM     13  C   UNL     1      11.469 -18.533  20.398  1.00  0.00     0.140 C 
ATOM     14  O   UNL     1      12.163 -19.541  20.392  1.00  0.00    -0.299 OA
BRANCH  13  15
ATOM     15  C   UNL     1      11.103 -17.887  19.085  1.00  0.00     0.106 CG0
ATOM     16  G   UNL     1       9.935 -18.525  18.339  1.00  0.00     0.000 G0
ENDBRANCH  13  15
ENDBRANCH  12  13
BRANCH  12  17
ATOM     17  C   UNL     1      11.867 -17.232  22.534  1.00  0.00    -0.006 C 
ATOM     18  C   UNL     1      11.171 -16.411  23.637  1.00  0.00     0.008 C 
ATOM     19  C   UNL     1      12.958 -18.105  23.183  1.00  0.00     0.008 C 
ENDBRANCH  12  17
ENDBRANCH  11  12
ENDBRANCH   1  11
TORSDOF 1
ENDMDL
MODEL 9
REMARK VINA RESULT:    -3.584      2.830      5.136
REMARK INTER + INTRA:          -5.695
REMARK INTER:                  -5.186
REMARK INTRA:                  -0.508
REMARK UNBOUND:                -0.224
REMARK SMILES CC1=CCC[C@H](C)C(=O)C[C@@H](C(C)C)C(=O)C1
REMARK SMILES IDX 8 1 9 2 6 3 7 4 5 5 4 6 3 7 2 8 1 9 10 11 11 12 15 13 16 14
REMARK SMILES IDX 17 15 12 17 13 18 14 19
REMARK H PARENT
REMARK Flexibility Score: 70.00
ROOT
ATOM      1  C   UNL     1      12.699 -18.075  21.973  1.00  0.00     0.136 C 
ATOM      2  O   UNL     1      13.896 -17.880  22.129  1.00  0.00    -0.299 OA
ENDROOT
BRANCH   1   3
ATOM      3  C   UNL     1      12.188 -18.617  20.652  1.00  0.00     0.053 C 
ATOM      4  C   UNL     1      13.202 -18.305  19.546  1.00  0.00     0.016 C 
BRANCH   3   5
ATOM      5  C   UNL     1      11.910 -20.135  20.708  1.00  0.00     0.015 C 
BRANCH   5   6
ATOM      6  C   UNL     1      10.437 -20.512  20.943  1.00  0.00     0.028 C 
BRANCH   6   7
ATOM      7  C   UNL     1      10.216 -21.459  22.101  1.00  0.00    -0.028 C 
ATOM      8  C   UNL     1      10.030 -21.154  23.412  1.00  0.00    -0.070 CG0
ATOM      9  C   UNL     1       9.951 -22.318  24.372  1.00  0.00     0.039 C 
ATOM     10  G   UNL     1       9.789 -19.759  23.980  1.00  0.00     0.000 G0
ENDBRANCH   6   7
ENDBRANCH   5   6
ENDBRANCH   3   5
ENDBRANCH   1   3
BRANCH   1  11
ATOM     11  C   UNL     1      11.746 -17.716  23.085  1.00  0.00     0.087 C 
BRANCH  11  12
ATOM     12  C   UNL     1      12.060 -18.442  24.422  1.00  0.00     0.066 C 
BRANCH  12  13
ATOM     13  C   UNL     1      10.871 -19.251  24.931  1.00  0.00     0.140 C 
ATOM     14  O   UNL     1      10.707 -19.363  26.138  1.00  0.00    -0.299 OA
BRANCH  13  15
ATOM     15  C   UNL     1       9.798 -19.752  23.996  1.00  0.00     0.106 CG0
ATOM     16  G   UNL     1      10.029 -21.142  23.411  1.00  0.00     0.000 G0
ENDBRANCH  13  15
ENDBRANCH  12  13
BRANCH  12  17
ATOM     17  C   UNL     1      12.546 -17.447  25.523  1.00  0.00    -0.006 C 
ATOM     18  C   UNL     1      13.979 -17.772  25.989  1.00  0.00     0.008 C 
ATOM     19  C   UNL     1      12.501 -15.983  25.048  1.00  0.00     0.008 C 
ENDBRANCH  12  17
ENDBRANCH  11  12
ENDBRANCH   1  11
TORSDOF 1
ENDMDL
