MODEL 1
REMARK VINA RESULT:    -5.315      0.000      0.000
REMARK INTER + INTRA:          -8.158
REMARK INTER:                  -7.491
REMARK INTRA:                  -0.667
REMARK UNBOUND:                -0.667
REMARK SMILES COc1ccc(-c2cc(=O)c3c(OC)c(OC)c(OC)c(OC)c3o2)cc1OC
REMARK SMILES IDX 7 1 8 2 9 3 10 4 11 5 24 6 25 7 21 8 18 9 15 10 12 11 6 12
REMARK SMILES IDX 3 13 27 14 4 15 26 16 5 17 2 18 1 19 28 20 29 21 22 22 23 23
REMARK SMILES IDX 13 24 14 25 19 26 20 27 16 28 17 29
REMARK H PARENT
REMARK Flexibility Score: inf
ROOT
ATOM      1  C   UNL     1      44.813  16.396  -3.979  1.00  0.00     0.138 A 
ATOM      2  C   UNL     1      44.161  15.233  -3.544  1.00  0.00     0.100 A 
ATOM      3  C   UNL     1      44.884  14.047  -3.424  1.00  0.00     0.197 A 
ATOM      4  O   UNL     1      44.291  13.014  -3.009  1.00  0.00    -0.289 OA
ATOM      5  C   UNL     1      46.260  14.030  -3.744  1.00  0.00     0.115 A 
ATOM      6  C   UNL     1      46.852  15.245  -4.143  1.00  0.00     0.188 A 
ATOM      7  O   UNL     1      46.115  16.349  -4.247  1.00  0.00    -0.452 OA
ATOM      8  C   UNL     1      48.217  15.320  -4.438  1.00  0.00     0.209 A 
ATOM      9  C   UNL     1      49.038  14.175  -4.284  1.00  0.00     0.211 A 
ATOM     10  C   UNL     1      48.449  12.938  -3.899  1.00  0.00     0.208 A 
ATOM     11  C   UNL     1      47.052  12.863  -3.685  1.00  0.00     0.179 A 
ENDROOT
BRANCH   1  12
ATOM     12  C   UNL     1      44.101  17.693  -4.134  1.00  0.00     0.021 A 
ATOM     13  C   UNL     1      42.743  20.160  -4.355  1.00  0.00     0.160 A 
ATOM     14  C   UNL     1      42.482  19.312  -3.269  1.00  0.00     0.161 A 
ATOM     15  C   UNL     1      43.689  19.776  -5.322  1.00  0.00     0.051 A 
ATOM     16  C   UNL     1      43.163  18.084  -3.163  1.00  0.00     0.062 A 
ATOM     17  C   UNL     1      44.365  18.560  -5.209  1.00  0.00     0.016 A 
BRANCH  13  18
ATOM     18  O   UNL     1      42.045  21.376  -4.435  1.00  0.00    -0.493 OA
ATOM     19  C   UNL     1      41.357  21.837  -5.595  1.00  0.00     0.278 C 
ENDBRANCH  13  18
BRANCH  14  20
ATOM     20  O   UNL     1      41.540  19.728  -2.312  1.00  0.00    -0.493 OA
ATOM     21  C   UNL     1      41.869  20.333  -1.065  1.00  0.00     0.278 C 
ENDBRANCH  14  20
ENDBRANCH   1  12
BRANCH   8  22
ATOM     22  O   UNL     1      48.692  16.577  -4.867  1.00  0.00    -0.490 OA
ATOM     23  C   UNL     1      48.804  17.041  -6.208  1.00  0.00     0.278 C 
ENDBRANCH   8  22
BRANCH  11  24
ATOM     24  O   UNL     1      46.450  11.624  -3.456  1.00  0.00    -0.492 OA
ATOM     25  C   UNL     1      46.620  10.940  -2.220  1.00  0.00     0.278 C 
ENDBRANCH  11  24
BRANCH   9  26
ATOM     26  O   UNL     1      50.421  14.316  -4.512  1.00  0.00    -0.490 OA
ATOM     27  C   UNL     1      51.117  14.153  -5.747  1.00  0.00     0.279 C 
ENDBRANCH   9  26
BRANCH  10  28
ATOM     28  O   UNL     1      49.273  11.808  -3.761  1.00  0.00    -0.490 OA
ATOM     29  C   UNL     1      49.598  10.877  -4.790  1.00  0.00     0.278 C 
ENDBRANCH  10  28
TORSDOF 7
ENDMDL
MODEL 2
REMARK VINA RESULT:    -5.312      1.384      2.520
REMARK INTER + INTRA:          -8.154
REMARK INTER:                  -7.570
REMARK INTRA:                  -0.584
REMARK UNBOUND:                -0.667
REMARK SMILES COc1ccc(-c2cc(=O)c3c(OC)c(OC)c(OC)c(OC)c3o2)cc1OC
REMARK SMILES IDX 7 1 8 2 9 3 10 4 11 5 24 6 25 7 21 8 18 9 15 10 12 11 6 12
REMARK SMILES IDX 3 13 27 14 4 15 26 16 5 17 2 18 1 19 28 20 29 21 22 22 23 23
REMARK SMILES IDX 13 24 14 25 19 26 20 27 16 28 17 29
REMARK H PARENT
REMARK Flexibility Score: inf
ROOT
ATOM      1  C   UNL     1      45.525  15.725  -3.423  1.00  0.00     0.138 A 
ATOM      2  C   UNL     1      45.640  14.469  -2.809  1.00  0.00     0.100 A 
ATOM      3  C   UNL     1      46.775  13.694  -3.045  1.00  0.00     0.197 A 
ATOM      4  O   UNL     1      46.877  12.577  -2.468  1.00  0.00    -0.289 OA
ATOM      5  C   UNL     1      47.790  14.178  -3.900  1.00  0.00     0.115 A 
ATOM      6  C   UNL     1      47.618  15.462  -4.453  1.00  0.00     0.188 A 
ATOM      7  O   UNL     1      46.512  16.160  -4.201  1.00  0.00    -0.452 OA
ATOM      8  C   UNL     1      48.595  16.030  -5.277  1.00  0.00     0.209 A 
ATOM      9  C   UNL     1      49.806  15.335  -5.520  1.00  0.00     0.211 A 
ATOM     10  C   UNL     1      49.984  14.030  -4.980  1.00  0.00     0.208 A 
ATOM     11  C   UNL     1      48.949  13.439  -4.217  1.00  0.00     0.179 A 
ENDROOT
BRANCH   1  12
ATOM     12  C   UNL     1      44.341  16.601  -3.219  1.00  0.00     0.021 A 
ATOM     13  C   UNL     1      42.109  18.302  -2.893  1.00  0.00     0.160 A 
ATOM     14  C   UNL     1      43.259  18.773  -3.543  1.00  0.00     0.161 A 
ATOM     15  C   UNL     1      42.075  16.980  -2.416  1.00  0.00     0.051 A 
ATOM     16  C   UNL     1      44.368  17.921  -3.704  1.00  0.00     0.062 A 
ATOM     17  C   UNL     1      43.176  16.138  -2.584  1.00  0.00     0.016 A 
BRANCH  13  18
ATOM     18  O   UNL     1      41.021  19.178  -2.743  1.00  0.00    -0.493 OA
ATOM     19  C   UNL     1      40.677  19.837  -1.528  1.00  0.00     0.278 C 
ENDBRANCH  13  18
BRANCH  14  20
ATOM     20  O   UNL     1      43.260  20.095  -4.019  1.00  0.00    -0.493 OA
ATOM     21  C   UNL     1      43.832  20.508  -5.256  1.00  0.00     0.278 C 
ENDBRANCH  14  20
ENDBRANCH   1  12
BRANCH   8  22
ATOM     22  O   UNL     1      48.298  17.302  -5.809  1.00  0.00    -0.490 OA
ATOM     23  C   UNL     1      47.802  17.594  -7.111  1.00  0.00     0.278 C 
ENDBRANCH   8  22
BRANCH  11  24
ATOM     24  O   UNL     1      49.057  12.105  -3.816  1.00  0.00    -0.492 OA
ATOM     25  C   UNL     1      48.742  11.041  -4.707  1.00  0.00     0.278 C 
ENDBRANCH  11  24
BRANCH   9  26
ATOM     26  O   UNL     1      50.797  15.979  -6.286  1.00  0.00    -0.490 OA
ATOM     27  C   UNL     1      52.157  16.216  -5.921  1.00  0.00     0.279 C 
ENDBRANCH   9  26
BRANCH  10  28
ATOM     28  O   UNL     1      51.185  13.347  -5.238  1.00  0.00    -0.490 OA
ATOM     29  C   UNL     1      51.497  12.619  -6.424  1.00  0.00     0.278 C 
ENDBRANCH  10  28
TORSDOF 7
ENDMDL
MODEL 3
REMARK VINA RESULT:    -5.262      1.534      8.688
REMARK INTER + INTRA:          -8.082
REMARK INTER:                  -7.443
REMARK INTRA:                  -0.639
REMARK UNBOUND:                -0.667
REMARK SMILES COc1ccc(-c2cc(=O)c3c(OC)c(OC)c(OC)c(OC)c3o2)cc1OC
REMARK SMILES IDX 7 1 8 2 9 3 10 4 11 5 24 6 25 7 21 8 18 9 15 10 12 11 6 12
REMARK SMILES IDX 3 13 27 14 4 15 26 16 5 17 2 18 1 19 28 20 29 21 22 22 23 23
REMARK SMILES IDX 13 24 14 25 19 26 20 27 16 28 17 29
REMARK H PARENT
REMARK Flexibility Score: inf
ROOT
ATOM      1  C   UNL     1      45.769  16.178  -4.479  1.00  0.00     0.138 A 
ATOM      2  C   UNL     1      46.211  16.891  -5.603  1.00  0.00     0.100 A 
ATOM      3  C   UNL     1      45.549  18.061  -5.975  1.00  0.00     0.197 A 
ATOM      4  O   UNL     1      45.971  18.705  -6.973  1.00  0.00    -0.289 OA
ATOM      5  C   UNL     1      44.442  18.509  -5.221  1.00  0.00     0.115 A 
ATOM      6  C   UNL     1      44.077  17.757  -4.086  1.00  0.00     0.188 A 
ATOM      7  O   UNL     1      44.740  16.644  -3.778  1.00  0.00    -0.452 OA
ATOM      8  C   UNL     1      43.018  18.156  -3.265  1.00  0.00     0.209 A 
ATOM      9  C   UNL     1      42.330  19.365  -3.537  1.00  0.00     0.211 A 
ATOM     10  C   UNL     1      42.677  20.125  -4.689  1.00  0.00     0.208 A 
ATOM     11  C   UNL     1      43.697  19.661  -5.554  1.00  0.00     0.179 A 
ENDROOT
BRANCH   1  12
ATOM     12  C   UNL     1      46.426  14.921  -4.030  1.00  0.00     0.021 A 
ATOM     13  C   UNL     1      47.737  12.572  -3.169  1.00  0.00     0.160 A 
ATOM     14  C   UNL     1      48.454  13.562  -3.856  1.00  0.00     0.161 A 
ATOM     15  C   UNL     1      46.369  12.764  -2.907  1.00  0.00     0.051 A 
ATOM     16  C   UNL     1      47.796  14.732  -4.282  1.00  0.00     0.062 A 
ATOM     17  C   UNL     1      45.723  13.927  -3.326  1.00  0.00     0.016 A 
BRANCH  13  18
ATOM     18  O   UNL     1      48.420  11.414  -2.762  1.00  0.00    -0.493 OA
ATOM     19  C   UNL     1      48.692  11.073  -1.405  1.00  0.00     0.278 C 
ENDBRANCH  13  18
BRANCH  14  20
ATOM     20  O   UNL     1      49.823  13.348  -4.094  1.00  0.00    -0.493 OA
ATOM     21  C   UNL     1      50.649  14.201  -4.880  1.00  0.00     0.278 C 
ENDBRANCH  14  20
ENDBRANCH   1  12
BRANCH   8  22
ATOM     22  O   UNL     1      42.716  17.305  -2.182  1.00  0.00    -0.490 OA
ATOM     23  C   UNL     1      41.729  16.279  -2.146  1.00  0.00     0.278 C 
ENDBRANCH   8  22
BRANCH  11  24
ATOM     24  O   UNL     1      43.937  20.320  -6.762  1.00  0.00    -0.492 OA
ATOM     25  C   UNL     1      44.561  21.599  -6.790  1.00  0.00     0.278 C 
ENDBRANCH  11  24
BRANCH   9  26
ATOM     26  O   UNL     1      41.326  19.772  -2.636  1.00  0.00    -0.490 OA
ATOM     27  C   UNL     1      41.497  20.497  -1.419  1.00  0.00     0.279 C 
ENDBRANCH   9  26
BRANCH  10  28
ATOM     28  O   UNL     1      41.979  21.316  -4.953  1.00  0.00    -0.490 OA
ATOM     29  C   UNL     1      40.804  21.439  -5.751  1.00  0.00     0.278 C 
ENDBRANCH  10  28
TORSDOF 7
ENDMDL
MODEL 4
REMARK VINA RESULT:    -5.081      1.709      3.843
REMARK INTER + INTRA:          -7.827
REMARK INTER:                  -6.995
REMARK INTRA:                  -0.832
REMARK UNBOUND:                -0.667
REMARK SMILES COc1ccc(-c2cc(=O)c3c(OC)c(OC)c(OC)c(OC)c3o2)cc1OC
REMARK SMILES IDX 7 1 8 2 9 3 10 4 11 5 24 6 25 7 21 8 18 9 15 10 12 11 6 12
REMARK SMILES IDX 3 13 27 14 4 15 26 16 5 17 2 18 1 19 28 20 29 21 22 22 23 23
REMARK SMILES IDX 13 24 14 25 19 26 20 27 16 28 17 29
REMARK H PARENT
REMARK Flexibility Score: inf
ROOT
ATOM      1  C   UNL     1      45.664  16.447  -4.116  1.00  0.00     0.138 A 
ATOM      2  C   UNL     1      46.511  17.141  -4.993  1.00  0.00     0.100 A 
ATOM      3  C   UNL     1      47.715  16.558  -5.385  1.00  0.00     0.197 A 
ATOM      4  O   UNL     1      48.456  17.183  -6.192  1.00  0.00    -0.289 OA
ATOM      5  C   UNL     1      48.069  15.283  -4.893  1.00  0.00     0.115 A 
ATOM      6  C   UNL     1      47.152  14.634  -4.042  1.00  0.00     0.188 A 
ATOM      7  O   UNL     1      46.018  15.237  -3.694  1.00  0.00    -0.452 OA
ATOM      8  C   UNL     1      47.411  13.353  -3.545  1.00  0.00     0.209 A 
ATOM      9  C   UNL     1      48.584  12.663  -3.942  1.00  0.00     0.211 A 
ATOM     10  C   UNL     1      49.526  13.314  -4.787  1.00  0.00     0.208 A 
ATOM     11  C   UNL     1      49.286  14.643  -5.213  1.00  0.00     0.179 A 
ENDROOT
BRANCH   1  12
ATOM     12  C   UNL     1      44.368  17.011  -3.654  1.00  0.00     0.021 A 
ATOM     13  C   UNL     1      41.904  18.033  -2.721  1.00  0.00     0.160 A 
ATOM     14  C   UNL     1      42.217  16.680  -2.530  1.00  0.00     0.161 A 
ATOM     15  C   UNL     1      42.827  18.873  -3.370  1.00  0.00     0.051 A 
ATOM     16  C   UNL     1      43.448  16.176  -2.996  1.00  0.00     0.062 A 
ATOM     17  C   UNL     1      44.047  18.369  -3.824  1.00  0.00     0.016 A 
BRANCH  13  18
ATOM     18  O   UNL     1      40.668  18.505  -2.250  1.00  0.00    -0.493 OA
ATOM     19  C   UNL     1      40.490  19.720  -1.528  1.00  0.00     0.278 C 
ENDBRANCH  13  18
BRANCH  14  20
ATOM     20  O   UNL     1      41.281  15.866  -1.869  1.00  0.00    -0.493 OA
ATOM     21  C   UNL     1      40.432  14.923  -2.515  1.00  0.00     0.278 C 
ENDBRANCH  14  20
ENDBRANCH   1  12
BRANCH   8  22
ATOM     22  O   UNL     1      46.443  12.818  -2.670  1.00  0.00    -0.490 OA
ATOM     23  C   UNL     1      45.413  11.889  -2.992  1.00  0.00     0.278 C 
ENDBRANCH   8  22
BRANCH  11  24
ATOM     24  O   UNL     1      50.275  15.337  -5.914  1.00  0.00    -0.492 OA
ATOM     25  C   UNL     1      51.459  15.787  -5.264  1.00  0.00     0.278 C 
ENDBRANCH  11  24
BRANCH   9  26
ATOM     26  O   UNL     1      48.763  11.343  -3.485  1.00  0.00    -0.490 OA
ATOM     27  C   UNL     1      49.258  10.927  -2.212  1.00  0.00     0.279 C 
ENDBRANCH   9  26
BRANCH  10  28
ATOM     28  O   UNL     1      50.691  12.624  -5.164  1.00  0.00    -0.490 OA
ATOM     29  C   UNL     1      50.875  11.889  -6.371  1.00  0.00     0.278 C 
ENDBRANCH  10  28
TORSDOF 7
ENDMDL
MODEL 5
REMARK VINA RESULT:    -5.066      1.441      3.748
REMARK INTER + INTRA:          -7.807
REMARK INTER:                  -7.026
REMARK INTRA:                  -0.781
REMARK UNBOUND:                -0.667
REMARK SMILES COc1ccc(-c2cc(=O)c3c(OC)c(OC)c(OC)c(OC)c3o2)cc1OC
REMARK SMILES IDX 7 1 8 2 9 3 10 4 11 5 24 6 25 7 21 8 18 9 15 10 12 11 6 12
REMARK SMILES IDX 3 13 27 14 4 15 26 16 5 17 2 18 1 19 28 20 29 21 22 22 23 23
REMARK SMILES IDX 13 24 14 25 19 26 20 27 16 28 17 29
REMARK H PARENT
REMARK Flexibility Score: inf
ROOT
ATOM      1  C   UNL     1      45.480  16.357  -4.121  1.00  0.00     0.138 A 
ATOM      2  C   UNL     1      46.333  17.051  -4.992  1.00  0.00     0.100 A 
ATOM      3  C   UNL     1      47.546  16.474  -5.365  1.00  0.00     0.197 A 
ATOM      4  O   UNL     1      48.293  17.098  -6.167  1.00  0.00    -0.289 OA
ATOM      5  C   UNL     1      47.903  15.204  -4.859  1.00  0.00     0.115 A 
ATOM      6  C   UNL     1      46.980  14.555  -4.016  1.00  0.00     0.188 A 
ATOM      7  O   UNL     1      45.837  15.152  -3.686  1.00  0.00    -0.452 OA
ATOM      8  C   UNL     1      47.240  13.279  -3.507  1.00  0.00     0.209 A 
ATOM      9  C   UNL     1      48.424  12.595  -3.884  1.00  0.00     0.211 A 
ATOM     10  C   UNL     1      49.372  13.247  -4.721  1.00  0.00     0.208 A 
ATOM     11  C   UNL     1      49.128  14.571  -5.159  1.00  0.00     0.179 A 
ENDROOT
BRANCH   1  12
ATOM     12  C   UNL     1      44.174  16.915  -3.679  1.00  0.00     0.021 A 
ATOM     13  C   UNL     1      41.680  17.998  -2.910  1.00  0.00     0.160 A 
ATOM     14  C   UNL     1      42.384  18.557  -3.986  1.00  0.00     0.161 A 
ATOM     15  C   UNL     1      42.221  16.893  -2.228  1.00  0.00     0.051 A 
ATOM     16  C   UNL     1      43.626  18.013  -4.366  1.00  0.00     0.062 A 
ATOM     17  C   UNL     1      43.450  16.355  -2.613  1.00  0.00     0.016 A 
BRANCH  13  18
ATOM     18  O   UNL     1      40.447  18.566  -2.551  1.00  0.00    -0.493 OA
ATOM     19  C   UNL     1      40.281  19.576  -1.561  1.00  0.00     0.278 C 
ENDBRANCH  13  18
BRANCH  14  20
ATOM     20  O   UNL     1      41.813  19.653  -4.657  1.00  0.00    -0.493 OA
ATOM     21  C   UNL     1      42.150  21.015  -4.411  1.00  0.00     0.278 C 
ENDBRANCH  14  20
ENDBRANCH   1  12
BRANCH   8  22
ATOM     22  O   UNL     1      46.265  12.744  -2.640  1.00  0.00    -0.490 OA
ATOM     23  C   UNL     1      45.252  11.798  -2.966  1.00  0.00     0.278 C 
ENDBRANCH   8  22
BRANCH  11  24
ATOM     24  O   UNL     1      50.121  15.267  -5.852  1.00  0.00    -0.492 OA
ATOM     25  C   UNL     1      51.318  15.682  -5.203  1.00  0.00     0.278 C 
ENDBRANCH  11  24
BRANCH   9  26
ATOM     26  O   UNL     1      48.606  11.279  -3.415  1.00  0.00    -0.490 OA
ATOM     27  C   UNL     1      49.138  10.875  -2.153  1.00  0.00     0.279 C 
ENDBRANCH   9  26
BRANCH  10  28
ATOM     28  O   UNL     1      50.546  12.562  -5.078  1.00  0.00    -0.490 OA
ATOM     29  C   UNL     1      50.763  11.849  -6.293  1.00  0.00     0.278 C 
ENDBRANCH  10  28
TORSDOF 7
ENDMDL
MODEL 6
REMARK VINA RESULT:    -4.920      1.262      3.425
REMARK INTER + INTRA:          -7.601
REMARK INTER:                  -6.752
REMARK INTRA:                  -0.849
REMARK UNBOUND:                -0.667
REMARK SMILES COc1ccc(-c2cc(=O)c3c(OC)c(OC)c(OC)c(OC)c3o2)cc1OC
REMARK SMILES IDX 7 1 8 2 9 3 10 4 11 5 24 6 25 7 21 8 18 9 15 10 12 11 6 12
REMARK SMILES IDX 3 13 27 14 4 15 26 16 5 17 2 18 1 19 28 20 29 21 22 22 23 23
REMARK SMILES IDX 13 24 14 25 19 26 20 27 16 28 17 29
REMARK H PARENT
REMARK Flexibility Score: inf
ROOT
ATOM      1  C   UNL     1      45.909  17.429  -5.401  1.00  0.00     0.138 A 
ATOM      2  C   UNL     1      46.978  17.685  -6.272  1.00  0.00     0.100 A 
ATOM      3  C   UNL     1      48.049  16.794  -6.320  1.00  0.00     0.197 A 
ATOM      4  O   UNL     1      48.992  17.023  -7.125  1.00  0.00    -0.289 OA
ATOM      5  C   UNL     1      48.048  15.651  -5.490  1.00  0.00     0.115 A 
ATOM      6  C   UNL     1      46.924  15.445  -4.665  1.00  0.00     0.188 A 
ATOM      7  O   UNL     1      45.929  16.329  -4.653  1.00  0.00    -0.452 OA
ATOM      8  C   UNL     1      46.828  14.317  -3.844  1.00  0.00     0.209 A 
ATOM      9  C   UNL     1      47.846  13.331  -3.876  1.00  0.00     0.211 A 
ATOM     10  C   UNL     1      48.994  13.536  -4.691  1.00  0.00     0.208 A 
ATOM     11  C   UNL     1      49.111  14.723  -5.452  1.00  0.00     0.179 A 
ENDROOT
BRANCH   1  12
ATOM     12  C   UNL     1      44.737  18.339  -5.297  1.00  0.00     0.021 A 
ATOM     13  C   UNL     1      42.506  20.051  -5.026  1.00  0.00     0.160 A 
ATOM     14  C   UNL     1      42.636  18.934  -4.189  1.00  0.00     0.161 A 
ATOM     15  C   UNL     1      43.496  20.314  -5.990  1.00  0.00     0.051 A 
ATOM     16  C   UNL     1      43.751  18.084  -4.327  1.00  0.00     0.062 A 
ATOM     17  C   UNL     1      44.601  19.471  -6.119  1.00  0.00     0.016 A 
BRANCH  13  18
ATOM     18  O   UNL     1      41.381  20.877  -4.868  1.00  0.00    -0.493 OA
ATOM     19  C   UNL     1      40.743  21.584  -5.928  1.00  0.00     0.278 C 
ENDBRANCH  13  18
BRANCH  14  20
ATOM     20  O   UNL     1      41.637  18.703  -3.227  1.00  0.00    -0.493 OA
ATOM     21  C   UNL     1      41.801  18.909  -1.828  1.00  0.00     0.278 C 
ENDBRANCH  14  20
ENDBRANCH   1  12
BRANCH   8  22
ATOM     22  O   UNL     1      45.678  14.236  -3.031  1.00  0.00    -0.490 OA
ATOM     23  C   UNL     1      44.452  13.583  -3.341  1.00  0.00     0.278 C 
ENDBRANCH   8  22
BRANCH  11  24
ATOM     24  O   UNL     1      50.299  14.998  -6.133  1.00  0.00    -0.492 OA
ATOM     25  C   UNL     1      51.447  15.480  -5.443  1.00  0.00     0.278 C 
ENDBRANCH  11  24
BRANCH   9  26
ATOM     26  O   UNL     1      47.668  12.171  -3.096  1.00  0.00    -0.490 OA
ATOM     27  C   UNL     1      48.026  11.985  -1.727  1.00  0.00     0.279 C 
ENDBRANCH   9  26
BRANCH  10  28
ATOM     28  O   UNL     1      50.000  12.555  -4.704  1.00  0.00    -0.490 OA
ATOM     29  C   UNL     1      50.105  11.475  -5.629  1.00  0.00     0.278 C 
ENDBRANCH  10  28
TORSDOF 7
ENDMDL
MODEL 7
REMARK VINA RESULT:    -4.859      1.940      8.190
REMARK INTER + INTRA:          -7.515
REMARK INTER:                  -6.720
REMARK INTRA:                  -0.795
REMARK UNBOUND:                -0.667
REMARK SMILES COc1ccc(-c2cc(=O)c3c(OC)c(OC)c(OC)c(OC)c3o2)cc1OC
REMARK SMILES IDX 7 1 8 2 9 3 10 4 11 5 24 6 25 7 21 8 18 9 15 10 12 11 6 12
REMARK SMILES IDX 3 13 27 14 4 15 26 16 5 17 2 18 1 19 28 20 29 21 22 22 23 23
REMARK SMILES IDX 13 24 14 25 19 26 20 27 16 28 17 29
REMARK H PARENT
REMARK Flexibility Score: inf
ROOT
ATOM      1  C   UNL     1      46.856  17.191  -5.628  1.00  0.00     0.138 A 
ATOM      2  C   UNL     1      46.415  18.250  -6.435  1.00  0.00     0.100 A 
ATOM      3  C   UNL     1      45.122  18.745  -6.267  1.00  0.00     0.197 A 
ATOM      4  O   UNL     1      44.747  19.714  -6.982  1.00  0.00    -0.289 OA
ATOM      5  C   UNL     1      44.273  18.172  -5.295  1.00  0.00     0.115 A 
ATOM      6  C   UNL     1      44.798  17.133  -4.501  1.00  0.00     0.188 A 
ATOM      7  O   UNL     1      46.038  16.694  -4.705  1.00  0.00    -0.452 OA
ATOM      8  C   UNL     1      44.035  16.541  -3.490  1.00  0.00     0.209 A 
ATOM      9  C   UNL     1      42.731  17.024  -3.213  1.00  0.00     0.211 A 
ATOM     10  C   UNL     1      42.183  18.061  -4.019  1.00  0.00     0.208 A 
ATOM     11  C   UNL     1      42.941  18.591  -5.091  1.00  0.00     0.179 A 
ENDROOT
BRANCH   1  12
ATOM     12  C   UNL     1      48.220  16.612  -5.756  1.00  0.00     0.021 A 
ATOM     13  C   UNL     1      50.783  15.446  -5.985  1.00  0.00     0.160 A 
ATOM     14  C   UNL     1      49.822  14.863  -5.147  1.00  0.00     0.161 A 
ATOM     15  C   UNL     1      50.457  16.604  -6.713  1.00  0.00     0.051 A 
ATOM     16  C   UNL     1      48.545  15.448  -5.038  1.00  0.00     0.062 A 
ATOM     17  C   UNL     1      49.189  17.176  -6.605  1.00  0.00     0.016 A 
BRANCH  13  18
ATOM     18  O   UNL     1      52.049  14.842  -6.070  1.00  0.00    -0.493 OA
ATOM     19  C   UNL     1      53.048  15.195  -7.022  1.00  0.00     0.278 C 
ENDBRANCH  13  18
BRANCH  14  20
ATOM     20  O   UNL     1      50.172  13.700  -4.441  1.00  0.00    -0.493 OA
ATOM     21  C   UNL     1      49.237  12.805  -3.845  1.00  0.00     0.278 C 
ENDBRANCH  14  20
ENDBRANCH   1  12
BRANCH   8  22
ATOM     22  O   UNL     1      44.647  15.483  -2.787  1.00  0.00    -0.490 OA
ATOM     23  C   UNL     1      44.625  14.101  -3.127  1.00  0.00     0.278 C 
ENDBRANCH   8  22
BRANCH  11  24
ATOM     24  O   UNL     1      42.353  19.498  -5.975  1.00  0.00    -0.492 OA
ATOM     25  C   UNL     1      41.434  19.064  -6.972  1.00  0.00     0.278 C 
ENDBRANCH  11  24
BRANCH   9  26
ATOM     26  O   UNL     1      42.030  16.456  -2.131  1.00  0.00    -0.490 OA
ATOM     27  C   UNL     1      40.988  15.482  -2.191  1.00  0.00     0.279 C 
ENDBRANCH   9  26
BRANCH  10  28
ATOM     28  O   UNL     1      40.885  18.523  -3.741  1.00  0.00    -0.490 OA
ATOM     29  C   UNL     1      40.536  19.503  -2.766  1.00  0.00     0.278 C 
ENDBRANCH  10  28
TORSDOF 7
ENDMDL
MODEL 8
REMARK VINA RESULT:    -4.705      1.909      7.884
REMARK INTER + INTRA:          -7.298
REMARK INTER:                  -6.703
REMARK INTRA:                  -0.596
REMARK UNBOUND:                -0.667
REMARK SMILES COc1ccc(-c2cc(=O)c3c(OC)c(OC)c(OC)c(OC)c3o2)cc1OC
REMARK SMILES IDX 7 1 8 2 9 3 10 4 11 5 24 6 25 7 21 8 18 9 15 10 12 11 6 12
REMARK SMILES IDX 3 13 27 14 4 15 26 16 5 17 2 18 1 19 28 20 29 21 22 22 23 23
REMARK SMILES IDX 13 24 14 25 19 26 20 27 16 28 17 29
REMARK H PARENT
REMARK Flexibility Score: inf
ROOT
ATOM      1  C   UNL     1      45.972  16.506  -4.666  1.00  0.00     0.138 A 
ATOM      2  C   UNL     1      45.323  15.489  -3.951  1.00  0.00     0.100 A 
ATOM      3  C   UNL     1      44.045  15.718  -3.443  1.00  0.00     0.197 A 
ATOM      4  O   UNL     1      43.463  14.787  -2.822  1.00  0.00    -0.289 OA
ATOM      5  C   UNL     1      43.423  16.970  -3.649  1.00  0.00     0.115 A 
ATOM      6  C   UNL     1      44.124  17.930  -4.405  1.00  0.00     0.188 A 
ATOM      7  O   UNL     1      45.345  17.662  -4.864  1.00  0.00    -0.452 OA
ATOM      8  C   UNL     1      43.560  19.178  -4.688  1.00  0.00     0.209 A 
ATOM      9  C   UNL     1      42.241  19.472  -4.260  1.00  0.00     0.211 A 
ATOM     10  C   UNL     1      41.529  18.517  -3.482  1.00  0.00     0.208 A 
ATOM     11  C   UNL     1      42.149  17.292  -3.135  1.00  0.00     0.179 A 
ENDROOT
BRANCH   1  12
ATOM     12  C   UNL     1      47.336  16.331  -5.232  1.00  0.00     0.021 A 
ATOM     13  C   UNL     1      49.921  15.924  -6.297  1.00  0.00     0.160 A 
ATOM     14  C   UNL     1      49.404  15.025  -5.354  1.00  0.00     0.161 A 
ATOM     15  C   UNL     1      49.141  17.019  -6.711  1.00  0.00     0.051 A 
ATOM     16  C   UNL     1      48.114  15.231  -4.827  1.00  0.00     0.062 A 
ATOM     17  C   UNL     1      47.862  17.215  -6.189  1.00  0.00     0.016 A 
BRANCH  13  18
ATOM     18  O   UNL     1      51.212  15.694  -6.800  1.00  0.00    -0.493 OA
ATOM     19  C   UNL     1      52.413  16.145  -6.179  1.00  0.00     0.278 C 
ENDBRANCH  13  18
BRANCH  14  20
ATOM     20  O   UNL     1      50.201  13.934  -4.967  1.00  0.00    -0.493 OA
ATOM     21  C   UNL     1      49.720  12.605  -4.790  1.00  0.00     0.278 C 
ENDBRANCH  14  20
ENDBRANCH   1  12
BRANCH   8  22
ATOM     22  O   UNL     1      44.369  20.075  -5.417  1.00  0.00    -0.490 OA
ATOM     23  C   UNL     1      44.417  20.232  -6.831  1.00  0.00     0.278 C 
ENDBRANCH   8  22
BRANCH  11  24
ATOM     24  O   UNL     1      41.514  16.419  -2.248  1.00  0.00    -0.492 OA
ATOM     25  C   UNL     1      40.365  15.677  -2.641  1.00  0.00     0.278 C 
ENDBRANCH  11  24
BRANCH   9  26
ATOM     26  O   UNL     1      41.682  20.708  -4.639  1.00  0.00    -0.490 OA
ATOM     27  C   UNL     1      40.898  20.984  -5.800  1.00  0.00     0.279 C 
ENDBRANCH   9  26
BRANCH  10  28
ATOM     28  O   UNL     1      40.226  18.825  -3.054  1.00  0.00    -0.490 OA
ATOM     29  C   UNL     1      39.876  19.473  -1.834  1.00  0.00     0.278 C 
ENDBRANCH  10  28
TORSDOF 7
ENDMDL
MODEL 9
REMARK VINA RESULT:    -4.650      1.502      8.085
REMARK INTER + INTRA:          -7.220
REMARK INTER:                  -6.725
REMARK INTRA:                  -0.495
REMARK UNBOUND:                -0.667
REMARK SMILES COc1ccc(-c2cc(=O)c3c(OC)c(OC)c(OC)c(OC)c3o2)cc1OC
REMARK SMILES IDX 7 1 8 2 9 3 10 4 11 5 24 6 25 7 21 8 18 9 15 10 12 11 6 12
REMARK SMILES IDX 3 13 27 14 4 15 26 16 5 17 2 18 1 19 28 20 29 21 22 22 23 23
REMARK SMILES IDX 13 24 14 25 19 26 20 27 16 28 17 29
REMARK H PARENT
REMARK Flexibility Score: inf
ROOT
ATOM      1  C   UNL     1      44.772  15.825  -3.483  1.00  0.00     0.138 A 
ATOM      2  C   UNL     1      43.670  15.895  -2.617  1.00  0.00     0.100 A 
ATOM      3  C   UNL     1      42.799  16.979  -2.705  1.00  0.00     0.197 A 
ATOM      4  O   UNL     1      41.800  17.018  -1.937  1.00  0.00    -0.289 OA
ATOM      5  C   UNL     1      43.038  17.995  -3.658  1.00  0.00     0.115 A 
ATOM      6  C   UNL     1      44.146  17.839  -4.514  1.00  0.00     0.188 A 
ATOM      7  O   UNL     1      44.951  16.786  -4.385  1.00  0.00    -0.452 OA
ATOM      8  C   UNL     1      44.427  18.779  -5.510  1.00  0.00     0.209 A 
ATOM      9  C   UNL     1      43.558  19.882  -5.707  1.00  0.00     0.211 A 
ATOM     10  C   UNL     1      42.445  20.060  -4.838  1.00  0.00     0.208 A 
ATOM     11  C   UNL     1      42.225  19.142  -3.783  1.00  0.00     0.179 A 
ENDROOT
BRANCH   1  12
ATOM     12  C   UNL     1      45.743  14.699  -3.441  1.00  0.00     0.021 A 
ATOM     13  C   UNL     1      47.641  12.609  -3.348  1.00  0.00     0.160 A 
ATOM     14  C   UNL     1      48.033  13.892  -3.754  1.00  0.00     0.161 A 
ATOM     15  C   UNL     1      46.303  12.377  -2.980  1.00  0.00     0.051 A 
ATOM     16  C   UNL     1      47.083  14.931  -3.798  1.00  0.00     0.062 A 
ATOM     17  C   UNL     1      45.368  13.411  -3.020  1.00  0.00     0.016 A 
BRANCH  13  18
ATOM     18  O   UNL     1      48.610  11.592  -3.319  1.00  0.00    -0.493 OA
ATOM     19  C   UNL     1      49.134  11.011  -2.128  1.00  0.00     0.278 C 
ENDBRANCH  13  18
BRANCH  14  20
ATOM     20  O   UNL     1      49.379  14.097  -4.105  1.00  0.00    -0.493 OA
ATOM     21  C   UNL     1      49.849  15.177  -4.905  1.00  0.00     0.278 C 
ENDBRANCH  14  20
ENDBRANCH   1  12
BRANCH   8  22
ATOM     22  O   UNL     1      45.585  18.543  -6.280  1.00  0.00    -0.490 OA
ATOM     23  C   UNL     1      45.840  17.426  -7.125  1.00  0.00     0.278 C 
ENDBRANCH   8  22
BRANCH  11  24
ATOM     24  O   UNL     1      41.228  19.395  -2.839  1.00  0.00    -0.492 OA
ATOM     25  C   UNL     1      41.435  20.327  -1.783  1.00  0.00     0.278 C 
ENDBRANCH  11  24
BRANCH   9  26
ATOM     26  O   UNL     1      43.832  20.758  -6.775  1.00  0.00    -0.490 OA
ATOM     27  C   UNL     1      44.620  21.948  -6.739  1.00  0.00     0.279 C 
ENDBRANCH   9  26
BRANCH  10  28
ATOM     28  O   UNL     1      41.598  21.163  -5.037  1.00  0.00    -0.490 OA
ATOM     29  C   UNL     1      40.503  21.225  -5.948  1.00  0.00     0.278 C 
ENDBRANCH  10  28
TORSDOF 7
ENDMDL
