MODEL 1
REMARK VINA RESULT:    -3.995      0.000      0.000
REMARK INTER + INTRA:          -4.112
REMARK INTER:                  -4.112
REMARK INTRA:                   0.000
REMARK UNBOUND:                 0.000
REMARK SMILES Nc1ncnc2nc[nH]c12
REMARK SMILES IDX 8 1 7 2 6 3 5 4 4 5 3 6 2 7 10 8 9 9 1 11
REMARK H PARENT 9 10 1 12 1 13
REMARK Flexibility Score: inf
ROOT
ATOM      1  C   UNL     1     -16.475  18.870   9.496  1.00  0.00     0.199 A 
ATOM      2  N   UNL     1     -17.298  18.537   8.465  1.00  0.00    -0.217 NA
ATOM      3  C   UNL     1     -17.086  19.540   7.597  1.00  0.00     0.182 A 
ATOM      4  N   UNL     1     -17.670  19.695   6.384  1.00  0.00    -0.215 NA
ATOM      5  C   UNL     1     -17.326  20.788   5.638  1.00  0.00     0.226 A 
ATOM      6  N   UNL     1     -16.415  21.698   6.113  1.00  0.00    -0.217 NA
ATOM      7  C   UNL     1     -15.827  21.543   7.336  1.00  0.00     0.152 A 
ATOM      8  C   UNL     1     -16.187  20.425   8.083  1.00  0.00     0.127 A 
ATOM      9  N   UNL     1     -15.782  20.019   9.293  1.00  0.00    -0.340 N 
ATOM     10  H   UNL     1     -15.096  20.471   9.938  1.00  0.00     0.168 HD
ENDROOT
BRANCH   7  11
ATOM     11  N   UNL     1     -14.880  22.502   7.811  1.00  0.00    -0.382 N 
ATOM     12  H   UNL     1     -15.007  22.984   8.727  1.00  0.00     0.158 HD
ATOM     13  H   UNL     1     -14.040  22.734   7.236  1.00  0.00     0.158 HD
ENDBRANCH   7  11
TORSDOF 1
ENDMDL
MODEL 2
REMARK VINA RESULT:    -3.877     13.476     15.012
REMARK INTER + INTRA:          -3.991
REMARK INTER:                  -3.991
REMARK INTRA:                   0.000
REMARK UNBOUND:                 0.000
REMARK SMILES Nc1ncnc2nc[nH]c12
REMARK SMILES IDX 8 1 7 2 6 3 5 4 4 5 3 6 2 7 10 8 9 9 1 11
REMARK H PARENT 9 10 1 12 1 13
REMARK Flexibility Score: inf
ROOT
ATOM      1  C   UNL     1     -17.342   3.150   8.951  1.00  0.00     0.199 A 
ATOM      2  N   UNL     1     -18.419   3.644   8.281  1.00  0.00    -0.217 NA
ATOM      3  C   UNL     1     -18.026   4.895   7.992  1.00  0.00     0.182 A 
ATOM      4  N   UNL     1     -18.739   5.832   7.322  1.00  0.00    -0.215 NA
ATOM      5  C   UNL     1     -18.168   7.059   7.124  1.00  0.00     0.226 A 
ATOM      6  N   UNL     1     -16.907   7.324   7.594  1.00  0.00    -0.217 NA
ATOM      7  C   UNL     1     -16.187   6.381   8.271  1.00  0.00     0.152 A 
ATOM      8  C   UNL     1     -16.782   5.137   8.465  1.00  0.00     0.127 A 
ATOM      9  N   UNL     1     -16.325   4.039   9.080  1.00  0.00    -0.340 N 
ATOM     10  H   UNL     1     -15.405   3.889   9.551  1.00  0.00     0.168 HD
ENDROOT
BRANCH   7  11
ATOM     11  N   UNL     1     -14.875   6.679   8.752  1.00  0.00    -0.382 N 
ATOM     12  H   UNL     1     -14.440   6.128   9.523  1.00  0.00     0.158 HD
ATOM     13  H   UNL     1     -14.330   7.464   8.330  1.00  0.00     0.158 HD
ENDBRANCH   7  11
TORSDOF 1
ENDMDL
MODEL 3
REMARK VINA RESULT:    -3.841     13.101     14.882
REMARK INTER + INTRA:          -3.953
REMARK INTER:                  -3.953
REMARK INTRA:                   0.000
REMARK UNBOUND:                 0.000
REMARK SMILES Nc1ncnc2nc[nH]c12
REMARK SMILES IDX 8 1 7 2 6 3 5 4 4 5 3 6 2 7 10 8 9 9 1 11
REMARK H PARENT 9 10 1 12 1 13
REMARK Flexibility Score: inf
ROOT
ATOM      1  C   UNL     1     -15.139   7.314   7.997  1.00  0.00     0.199 A 
ATOM      2  N   UNL     1     -16.232   7.659   7.264  1.00  0.00    -0.217 NA
ATOM      3  C   UNL     1     -17.070   6.637   7.502  1.00  0.00     0.182 A 
ATOM      4  N   UNL     1     -18.320   6.484   7.004  1.00  0.00    -0.215 NA
ATOM      5  C   UNL     1     -19.026   5.368   7.362  1.00  0.00     0.226 A 
ATOM      6  N   UNL     1     -18.474   4.435   8.203  1.00  0.00    -0.217 NA
ATOM      7  C   UNL     1     -17.212   4.587   8.705  1.00  0.00     0.152 A 
ATOM      8  C   UNL     1     -16.507   5.728   8.331  1.00  0.00     0.127 A 
ATOM      9  N   UNL     1     -15.276   6.138   8.661  1.00  0.00    -0.340 N 
ATOM     10  H   UNL     1     -14.577   5.672   9.281  1.00  0.00     0.168 HD
ENDROOT
BRANCH   7  11
ATOM     11  N   UNL     1     -16.657   3.603   9.579  1.00  0.00    -0.382 N 
ATOM     12  H   UNL     1     -16.892   2.591   9.477  1.00  0.00     0.158 HD
ATOM     13  H   UNL     1     -16.002   3.890  10.339  1.00  0.00     0.158 HD
ENDBRANCH   7  11
TORSDOF 1
ENDMDL
MODEL 4
REMARK VINA RESULT:    -3.805     11.461     12.560
REMARK INTER + INTRA:          -3.917
REMARK INTER:                  -3.917
REMARK INTRA:                   0.000
REMARK UNBOUND:                 0.000
REMARK SMILES Nc1ncnc2nc[nH]c12
REMARK SMILES IDX 8 1 7 2 6 3 5 4 4 5 3 6 2 7 10 8 9 9 1 11
REMARK H PARENT 9 10 1 12 1 13
REMARK Flexibility Score: inf
ROOT
ATOM      1  C   UNL     1     -12.293   9.001   7.654  1.00  0.00     0.199 A 
ATOM      2  N   UNL     1     -13.012   9.707   6.741  1.00  0.00    -0.217 NA
ATOM      3  C   UNL     1     -14.202   9.085   6.771  1.00  0.00     0.182 A 
ATOM      4  N   UNL     1     -15.296   9.398   6.037  1.00  0.00    -0.215 NA
ATOM      5  C   UNL     1     -16.425   8.644   6.207  1.00  0.00     0.226 A 
ATOM      6  N   UNL     1     -16.438   7.602   7.099  1.00  0.00    -0.217 NA
ATOM      7  C   UNL     1     -15.335   7.285   7.839  1.00  0.00     0.152 A 
ATOM      8  C   UNL     1     -14.195   8.062   7.655  1.00  0.00     0.127 A 
ATOM      9  N   UNL     1     -12.988   7.988   8.231  1.00  0.00    -0.340 N 
ATOM     10  H   UNL     1     -12.650   7.315   8.955  1.00  0.00     0.168 HD
ENDROOT
BRANCH   7  11
ATOM     11  N   UNL     1     -15.372   6.195   8.762  1.00  0.00    -0.382 N 
ATOM     12  H   UNL     1     -15.820   6.291   9.700  1.00  0.00     0.158 HD
ATOM     13  H   UNL     1     -14.944   5.278   8.505  1.00  0.00     0.158 HD
ENDBRANCH   7  11
TORSDOF 1
ENDMDL
MODEL 5
REMARK VINA RESULT:    -3.798      2.487      3.607
REMARK INTER + INTRA:          -3.909
REMARK INTER:                  -3.909
REMARK INTRA:                   0.000
REMARK UNBOUND:                 0.000
REMARK SMILES Nc1ncnc2nc[nH]c12
REMARK SMILES IDX 8 1 7 2 6 3 5 4 4 5 3 6 2 7 10 8 9 9 1 11
REMARK H PARENT 9 10 1 12 1 13
REMARK Flexibility Score: inf
ROOT
ATOM      1  C   UNL     1     -16.712  17.262  12.320  1.00  0.00     0.199 A 
ATOM      2  N   UNL     1     -17.553  16.468  11.605  1.00  0.00    -0.217 NA
ATOM      3  C   UNL     1     -17.526  17.043  10.392  1.00  0.00     0.182 A 
ATOM      4  N   UNL     1     -18.203  16.638   9.290  1.00  0.00    -0.215 NA
ATOM      5  C   UNL     1     -18.047  17.357   8.137  1.00  0.00     0.226 A 
ATOM      6  N   UNL     1     -17.227  18.456   8.106  1.00  0.00    -0.217 NA
ATOM      7  C   UNL     1     -16.545  18.866   9.217  1.00  0.00     0.152 A 
ATOM      8  C   UNL     1     -16.713  18.123  10.382  1.00  0.00     0.127 A 
ATOM      9  N   UNL     1     -16.182  18.284  11.601  1.00  0.00    -0.340 N 
ATOM     10  H   UNL     1     -15.517  19.017  11.932  1.00  0.00     0.168 HD
ENDROOT
BRANCH   7  11
ATOM     11  N   UNL     1     -15.696  20.013   9.162  1.00  0.00    -0.382 N 
ATOM     12  H   UNL     1     -15.050  20.175   8.358  1.00  0.00     0.158 HD
ATOM     13  H   UNL     1     -15.712  20.713   9.937  1.00  0.00     0.158 HD
ENDBRANCH   7  11
TORSDOF 1
ENDMDL
MODEL 6
REMARK VINA RESULT:    -3.752     16.257     18.250
REMARK INTER + INTRA:          -3.862
REMARK INTER:                  -3.862
REMARK INTRA:                   0.000
REMARK UNBOUND:                 0.000
REMARK SMILES Nc1ncnc2nc[nH]c12
REMARK SMILES IDX 8 1 7 2 6 3 5 4 4 5 3 6 2 7 10 8 9 9 1 11
REMARK H PARENT 9 10 1 12 1 13
REMARK Flexibility Score: inf
ROOT
ATOM      1  C   UNL     1      -6.985  11.497  16.516  1.00  0.00     0.199 A 
ATOM      2  N   UNL     1      -5.747  11.349  17.062  1.00  0.00    -0.217 NA
ATOM      3  C   UNL     1      -5.848  10.161  17.680  1.00  0.00     0.182 A 
ATOM      4  N   UNL     1      -4.879   9.535  18.390  1.00  0.00    -0.215 NA
ATOM      5  C   UNL     1      -5.171   8.322  18.950  1.00  0.00     0.226 A 
ATOM      6  N   UNL     1      -6.414   7.763  18.792  1.00  0.00    -0.217 NA
ATOM      7  C   UNL     1      -7.392   8.394  18.078  1.00  0.00     0.152 A 
ATOM      8  C   UNL     1      -7.079   9.627  17.513  1.00  0.00     0.127 A 
ATOM      9  N   UNL     1      -7.823  10.460  16.774  1.00  0.00    -0.340 N 
ATOM     10  H   UNL     1      -8.813  10.350  16.463  1.00  0.00     0.168 HD
ENDROOT
BRANCH   7  11
ATOM     11  N   UNL     1      -8.679   7.793  17.926  1.00  0.00    -0.382 N 
ATOM     12  H   UNL     1      -9.553   8.308  18.170  1.00  0.00     0.158 HD
ATOM     13  H   UNL     1      -8.760   6.816  17.564  1.00  0.00     0.158 HD
ENDBRANCH   7  11
TORSDOF 1
ENDMDL
MODEL 7
REMARK VINA RESULT:    -3.742      2.626      4.840
REMARK INTER + INTRA:          -3.852
REMARK INTER:                  -3.852
REMARK INTRA:                   0.000
REMARK UNBOUND:                 0.000
REMARK SMILES Nc1ncnc2nc[nH]c12
REMARK SMILES IDX 8 1 7 2 6 3 5 4 4 5 3 6 2 7 10 8 9 9 1 11
REMARK H PARENT 9 10 1 12 1 13
REMARK Flexibility Score: inf
ROOT
ATOM      1  C   UNL     1     -16.001  19.396   8.980  1.00  0.00     0.199 A 
ATOM      2  N   UNL     1     -17.098  18.761   8.486  1.00  0.00    -0.217 NA
ATOM      3  C   UNL     1     -17.458  17.975   9.513  1.00  0.00     0.182 A 
ATOM      4  N   UNL     1     -18.509  17.120   9.546  1.00  0.00    -0.215 NA
ATOM      5  C   UNL     1     -18.718  16.398  10.689  1.00  0.00     0.226 A 
ATOM      6  N   UNL     1     -17.881  16.541  11.766  1.00  0.00    -0.217 NA
ATOM      7  C   UNL     1     -16.820  17.402  11.734  1.00  0.00     0.152 A 
ATOM      8  C   UNL     1     -16.622  18.130  10.564  1.00  0.00     0.127 A 
ATOM      9  N   UNL     1     -15.683  19.032  10.248  1.00  0.00    -0.340 N 
ATOM     10  H   UNL     1     -14.890  19.381  10.831  1.00  0.00     0.168 HD
ENDROOT
BRANCH   7  11
ATOM     11  N   UNL     1     -15.962  17.536  12.867  1.00  0.00    -0.382 N 
ATOM     12  H   UNL     1     -15.206  18.254  12.896  1.00  0.00     0.158 HD
ATOM     13  H   UNL     1     -16.084  16.906  13.691  1.00  0.00     0.158 HD
ENDBRANCH   7  11
TORSDOF 1
ENDMDL
MODEL 8
REMARK VINA RESULT:    -3.740     19.445     20.717
REMARK INTER + INTRA:          -3.849
REMARK INTER:                  -3.849
REMARK INTRA:                   0.000
REMARK UNBOUND:                 0.000
REMARK SMILES Nc1ncnc2nc[nH]c12
REMARK SMILES IDX 8 1 7 2 6 3 5 4 4 5 3 6 2 7 10 8 9 9 1 11
REMARK H PARENT 9 10 1 12 1 13
REMARK Flexibility Score: inf
ROOT
ATOM      1  C   UNL     1      -3.706   2.875  13.286  1.00  0.00     0.199 A 
ATOM      2  N   UNL     1      -2.824   3.582  12.529  1.00  0.00    -0.217 NA
ATOM      3  C   UNL     1      -3.610   4.074  11.558  1.00  0.00     0.182 A 
ATOM      4  N   UNL     1      -3.223   4.861  10.526  1.00  0.00    -0.215 NA
ATOM      5  C   UNL     1      -4.175   5.265   9.631  1.00  0.00     0.226 A 
ATOM      6  N   UNL     1      -5.482   4.879   9.781  1.00  0.00    -0.217 NA
ATOM      7  C   UNL     1      -5.874   4.084  10.821  1.00  0.00     0.152 A 
ATOM      8  C   UNL     1      -4.894   3.681  11.725  1.00  0.00     0.127 A 
ATOM      9  N   UNL     1      -4.981   2.916  12.820  1.00  0.00    -0.340 N 
ATOM     10  H   UNL     1      -5.823   2.454  13.229  1.00  0.00     0.168 HD
ENDROOT
BRANCH   7  11
ATOM     11  N   UNL     1      -7.241   3.694  10.959  1.00  0.00    -0.382 N 
ATOM     12  H   UNL     1      -7.562   2.735  10.702  1.00  0.00     0.158 HD
ATOM     13  H   UNL     1      -7.944   4.375  11.324  1.00  0.00     0.158 HD
ENDBRANCH   7  11
TORSDOF 1
ENDMDL
MODEL 9
REMARK VINA RESULT:    -3.716      4.800      6.200
REMARK INTER + INTRA:          -3.824
REMARK INTER:                  -3.824
REMARK INTRA:                   0.000
REMARK UNBOUND:                 0.000
REMARK SMILES Nc1ncnc2nc[nH]c12
REMARK SMILES IDX 8 1 7 2 6 3 5 4 4 5 3 6 2 7 10 8 9 9 1 11
REMARK H PARENT 9 10 1 12 1 13
REMARK Flexibility Score: inf
ROOT
ATOM      1  C   UNL     1     -18.245  17.133  14.591  1.00  0.00     0.199 A 
ATOM      2  N   UNL     1     -18.815  16.042  14.012  1.00  0.00    -0.217 NA
ATOM      3  C   UNL     1     -18.317  16.086  12.766  1.00  0.00     0.182 A 
ATOM      4  N   UNL     1     -18.571  15.212  11.763  1.00  0.00    -0.215 NA
ATOM      5  C   UNL     1     -17.967  15.423  10.554  1.00  0.00     0.226 A 
ATOM      6  N   UNL     1     -17.127  16.494  10.372  1.00  0.00    -0.217 NA
ATOM      7  C   UNL     1     -16.871  17.376  11.384  1.00  0.00     0.152 A 
ATOM      8  C   UNL     1     -17.493  17.147  12.608  1.00  0.00     0.127 A 
ATOM      9  N   UNL     1     -17.431  17.830  13.757  1.00  0.00    -0.340 N 
ATOM     10  H   UNL     1     -16.889  18.695  13.975  1.00  0.00     0.168 HD
ENDROOT
BRANCH   7  11
ATOM     11  N   UNL     1     -15.993  18.483  11.172  1.00  0.00    -0.382 N 
ATOM     12  H   UNL     1     -16.127  19.138  10.372  1.00  0.00     0.158 HD
ATOM     13  H   UNL     1     -15.197  18.650  11.827  1.00  0.00     0.158 HD
ENDBRANCH   7  11
TORSDOF 1
ENDMDL
