MODEL 1
REMARK VINA RESULT:    -3.581      0.000      0.000
REMARK INTER + INTRA:          -9.358
REMARK INTER:                  -6.722
REMARK INTRA:                  -2.636
REMARK UNBOUND:                -2.636
REMARK SMILES CCCCCC=CCC=CCCCCCCCC(=O)OC
REMARK SMILES IDX 11 1 10 2 9 3 8 4 7 5 6 6 5 7 4 8 3 9 2 10 1 11 12 12 13 13
REMARK SMILES IDX 14 14 15 15 16 16 17 17 18 18 19 19 20 20 21 21
REMARK H PARENT
REMARK Flexibility Score: inf
ROOT
ATOM      1  C   UNL     1      19.348   0.303  44.029  1.00  0.00     0.027 C 
ENDROOT
BRANCH   1   2
ATOM      2  C   UNL     1      19.718   1.747  43.794  1.00  0.00    -0.031 C 
ATOM      3  C   UNL     1      20.347   2.224  42.702  1.00  0.00    -0.027 C 
BRANCH   3   4
ATOM      4  C   UNL     1      20.824   1.390  41.541  1.00  0.00     0.054 C 
BRANCH   4   5
ATOM      5  C   UNL     1      19.760   1.317  40.482  1.00  0.00    -0.027 C 
ATOM      6  C   UNL     1      19.238   0.151  40.075  1.00  0.00    -0.031 C 
BRANCH   6   7
ATOM      7  C   UNL     1      18.184   0.098  39.003  1.00  0.00     0.027 C 
BRANCH   7   8
ATOM      8  C   UNL     1      17.521   1.474  38.824  1.00  0.00     0.004 C 
BRANCH   8   9
ATOM      9  C   UNL     1      16.224   1.409  37.998  1.00  0.00     0.000 C 
BRANCH   9  10
ATOM     10  C   UNL     1      14.932   1.385  38.837  1.00  0.00    -0.003 C 
ATOM     11  C   UNL     1      13.735   0.814  38.073  1.00  0.00     0.004 C 
ENDBRANCH   9  10
ENDBRANCH   8   9
ENDBRANCH   7   8
ENDBRANCH   6   7
ENDBRANCH   4   5
ENDBRANCH   3   4
ENDBRANCH   1   2
BRANCH   1  12
ATOM     12  C   UNL     1      17.940  -0.027  43.505  1.00  0.00     0.004 C 
BRANCH  12  13
ATOM     13  C   UNL     1      16.924   1.113  43.708  1.00  0.00     0.000 C 
BRANCH  13  14
ATOM     14  C   UNL     1      16.532   1.797  42.388  1.00  0.00     0.000 C 
BRANCH  14  15
ATOM     15  C   UNL     1      16.719   3.319  42.433  1.00  0.00     0.001 C 
BRANCH  15  16
ATOM     16  C   UNL     1      16.363   3.924  43.804  1.00  0.00     0.012 C 
BRANCH  16  17
ATOM     17  C   UNL     1      17.430   4.908  44.300  1.00  0.00     0.123 C 
BRANCH  17  18
ATOM     18  C   UNL     1      17.655   4.783  45.777  1.00  0.00     0.305 C 
ATOM     19  O   UNL     1      17.120   5.609  46.564  1.00  0.00    -0.252 OA
BRANCH  18  20
ATOM     20  O   UNL     1      18.492   3.779  46.266  1.00  0.00    -0.469 OA
ATOM     21  C   UNL     1      18.005   2.673  47.014  1.00  0.00     0.282 C 
ENDBRANCH  18  20
ENDBRANCH  17  18
ENDBRANCH  16  17
ENDBRANCH  15  16
ENDBRANCH  14  15
ENDBRANCH  13  14
ENDBRANCH  12  13
ENDBRANCH   1  12
TORSDOF 15
ENDMDL
MODEL 2
REMARK VINA RESULT:    -3.494      3.569      6.385
REMARK INTER + INTRA:          -9.194
REMARK INTER:                  -6.740
REMARK INTRA:                  -2.454
REMARK UNBOUND:                -2.636
REMARK SMILES CCCCCC=CCC=CCCCCCCCC(=O)OC
REMARK SMILES IDX 11 1 10 2 9 3 8 4 7 5 6 6 5 7 4 8 3 9 2 10 1 11 12 12 13 13
REMARK SMILES IDX 14 14 15 15 16 16 17 17 18 18 19 19 20 20 21 21
REMARK H PARENT
REMARK Flexibility Score: inf
ROOT
ATOM      1  C   UNL     1      20.262   1.168  41.504  1.00  0.00     0.027 C 
ENDROOT
BRANCH   1   2
ATOM      2  C   UNL     1      20.567   2.129  42.627  1.00  0.00    -0.031 C 
ATOM      3  C   UNL     1      20.002   2.105  43.850  1.00  0.00    -0.027 C 
BRANCH   3   4
ATOM      4  C   UNL     1      18.938   1.135  44.296  1.00  0.00     0.054 C 
BRANCH   4   5
ATOM      5  C   UNL     1      17.600   1.818  44.344  1.00  0.00    -0.027 C 
ATOM      6  C   UNL     1      17.482   3.147  44.476  1.00  0.00    -0.031 C 
BRANCH   6   7
ATOM      7  C   UNL     1      16.133   3.810  44.537  1.00  0.00     0.027 C 
BRANCH   7   8
ATOM      8  C   UNL     1      16.282   5.333  44.696  1.00  0.00     0.004 C 
BRANCH   8   9
ATOM      9  C   UNL     1      15.923   6.105  43.414  1.00  0.00     0.000 C 
BRANCH   9  10
ATOM     10  C   UNL     1      14.688   5.566  42.667  1.00  0.00    -0.003 C 
ATOM     11  C   UNL     1      13.421   6.378  42.945  1.00  0.00     0.004 C 
ENDBRANCH   9  10
ENDBRANCH   8   9
ENDBRANCH   7   8
ENDBRANCH   6   7
ENDBRANCH   4   5
ENDBRANCH   3   4
ENDBRANCH   1   2
BRANCH   1  12
ATOM     12  C   UNL     1      19.016   1.587  40.705  1.00  0.00     0.004 C 
BRANCH  12  13
ATOM     13  C   UNL     1      18.933   3.103  40.443  1.00  0.00     0.000 C 
BRANCH  13  14
ATOM     14  C   UNL     1      17.595   3.709  40.900  1.00  0.00     0.000 C 
BRANCH  14  15
ATOM     15  C   UNL     1      16.448   2.691  40.881  1.00  0.00     0.001 C 
BRANCH  15  16
ATOM     16  C   UNL     1      15.686   2.674  39.543  1.00  0.00     0.012 C 
BRANCH  16  17
ATOM     17  C   UNL     1      15.610   1.268  38.934  1.00  0.00     0.123 C 
BRANCH  17  18
ATOM     18  C   UNL     1      14.534   1.171  37.895  1.00  0.00     0.305 C 
ATOM     19  O   UNL     1      13.368   1.565  38.161  1.00  0.00    -0.252 OA
BRANCH  18  20
ATOM     20  O   UNL     1      14.823   0.601  36.654  1.00  0.00    -0.469 OA
ATOM     21  C   UNL     1      15.595   1.270  35.666  1.00  0.00     0.282 C 
ENDBRANCH  18  20
ENDBRANCH  17  18
ENDBRANCH  16  17
ENDBRANCH  15  16
ENDBRANCH  14  15
ENDBRANCH  13  14
ENDBRANCH  12  13
ENDBRANCH   1  12
TORSDOF 15
ENDMDL
MODEL 3
REMARK VINA RESULT:    -3.451      3.830      6.313
REMARK INTER + INTRA:          -9.114
REMARK INTER:                  -7.216
REMARK INTRA:                  -1.897
REMARK UNBOUND:                -2.636
REMARK SMILES CCCCCC=CCC=CCCCCCCCC(=O)OC
REMARK SMILES IDX 11 1 10 2 9 3 8 4 7 5 6 6 5 7 4 8 3 9 2 10 1 11 12 12 13 13
REMARK SMILES IDX 14 14 15 15 16 16 17 17 18 18 19 19 20 20 21 21
REMARK H PARENT
REMARK Flexibility Score: inf
ROOT
ATOM      1  C   UNL     1      17.833   3.275  44.501  1.00  0.00     0.027 C 
ENDROOT
BRANCH   1   2
ATOM      2  C   UNL     1      18.968   2.518  45.148  1.00  0.00    -0.031 C 
ATOM      3  C   UNL     1      20.091   2.111  44.525  1.00  0.00    -0.027 C 
BRANCH   3   4
ATOM      4  C   UNL     1      20.392   2.309  43.062  1.00  0.00     0.054 C 
BRANCH   4   5
ATOM      5  C   UNL     1      20.131   1.039  42.301  1.00  0.00    -0.027 C 
ATOM      6  C   UNL     1      19.654  -0.063  42.897  1.00  0.00    -0.031 C 
BRANCH   6   7
ATOM      7  C   UNL     1      19.414  -1.330  42.120  1.00  0.00     0.027 C 
BRANCH   7   8
ATOM      8  C   UNL     1      20.236  -2.491  42.706  1.00  0.00     0.004 C 
BRANCH   8   9
ATOM      9  C   UNL     1      19.487  -3.253  43.814  1.00  0.00     0.000 C 
BRANCH   9  10
ATOM     10  C   UNL     1      18.163  -3.899  43.363  1.00  0.00    -0.003 C 
ATOM     11  C   UNL     1      16.951  -3.384  44.142  1.00  0.00     0.004 C 
ENDBRANCH   9  10
ENDBRANCH   8   9
ENDBRANCH   7   8
ENDBRANCH   6   7
ENDBRANCH   4   5
ENDBRANCH   3   4
ENDBRANCH   1   2
BRANCH   1  12
ATOM     12  C   UNL     1      16.553   2.427  44.403  1.00  0.00     0.004 C 
BRANCH  12  13
ATOM     13  C   UNL     1      16.411   1.676  43.066  1.00  0.00     0.000 C 
BRANCH  13  14
ATOM     14  C   UNL     1      16.645   2.587  41.849  1.00  0.00     0.000 C 
BRANCH  14  15
ATOM     15  C   UNL     1      16.929   1.796  40.566  1.00  0.00     0.001 C 
BRANCH  15  16
ATOM     16  C   UNL     1      15.775   1.874  39.549  1.00  0.00     0.012 C 
BRANCH  16  17
ATOM     17  C   UNL     1      15.957   0.890  38.386  1.00  0.00     0.123 C 
BRANCH  17  18
ATOM     18  C   UNL     1      14.675   0.666  37.643  1.00  0.00     0.305 C 
ATOM     19  O   UNL     1      13.575   0.931  38.197  1.00  0.00    -0.252 OA
BRANCH  18  20
ATOM     20  O   UNL     1      14.709   0.122  36.358  1.00  0.00    -0.469 OA
ATOM     21  C   UNL     1      15.406   0.738  35.283  1.00  0.00     0.282 C 
ENDBRANCH  18  20
ENDBRANCH  17  18
ENDBRANCH  16  17
ENDBRANCH  15  16
ENDBRANCH  14  15
ENDBRANCH  13  14
ENDBRANCH  12  13
ENDBRANCH   1  12
TORSDOF 15
ENDMDL
MODEL 4
REMARK VINA RESULT:    -3.445      3.939      6.432
REMARK INTER + INTRA:          -9.102
REMARK INTER:                  -6.549
REMARK INTRA:                  -2.553
REMARK UNBOUND:                -2.636
REMARK SMILES CCCCCC=CCC=CCCCCCCCC(=O)OC
REMARK SMILES IDX 11 1 10 2 9 3 8 4 7 5 6 6 5 7 4 8 3 9 2 10 1 11 12 12 13 13
REMARK SMILES IDX 14 14 15 15 16 16 17 17 18 18 19 19 20 20 21 21
REMARK H PARENT
REMARK Flexibility Score: inf
ROOT
ATOM      1  C   UNL     1      19.000   2.559  42.515  1.00  0.00     0.027 C 
ENDROOT
BRANCH   1   2
ATOM      2  C   UNL     1      17.683   1.820  42.504  1.00  0.00    -0.031 C 
ATOM      3  C   UNL     1      16.665   2.054  41.654  1.00  0.00    -0.027 C 
BRANCH   3   4
ATOM      4  C   UNL     1      16.650   3.121  40.590  1.00  0.00     0.054 C 
BRANCH   4   5
ATOM      5  C   UNL     1      15.807   2.682  39.425  1.00  0.00    -0.027 C 
ATOM      6  C   UNL     1      15.359   1.424  39.304  1.00  0.00    -0.031 C 
BRANCH   6   7
ATOM      7  C   UNL     1      14.528   1.001  38.123  1.00  0.00     0.027 C 
BRANCH   7   8
ATOM      8  C   UNL     1      15.240   1.350  36.804  1.00  0.00     0.004 C 
BRANCH   8   9
ATOM      9  C   UNL     1      14.977   0.317  35.693  1.00  0.00     0.000 C 
BRANCH   9  10
ATOM     10  C   UNL     1      16.245  -0.193  34.982  1.00  0.00    -0.003 C 
ATOM     11  C   UNL     1      16.036  -0.426  33.484  1.00  0.00     0.004 C 
ENDBRANCH   9  10
ENDBRANCH   8   9
ENDBRANCH   7   8
ENDBRANCH   6   7
ENDBRANCH   4   5
ENDBRANCH   3   4
ENDBRANCH   1   2
BRANCH   1  12
ATOM     12  C   UNL     1      20.202   1.598  42.505  1.00  0.00     0.004 C 
BRANCH  12  13
ATOM     13  C   UNL     1      20.308   0.756  41.220  1.00  0.00     0.000 C 
BRANCH  13  14
ATOM     14  C   UNL     1      20.222   1.610  39.944  1.00  0.00     0.000 C 
BRANCH  14  15
ATOM     15  C   UNL     1      19.227   1.046  38.921  1.00  0.00     0.001 C 
BRANCH  15  16
ATOM     16  C   UNL     1      18.577  -0.270  39.384  1.00  0.00     0.012 C 
BRANCH  16  17
ATOM     17  C   UNL     1      17.885  -1.013  38.233  1.00  0.00     0.123 C 
BRANCH  17  18
ATOM     18  C   UNL     1      18.439  -2.393  38.051  1.00  0.00     0.305 C 
ATOM     19  O   UNL     1      18.243  -3.269  38.935  1.00  0.00    -0.252 OA
BRANCH  18  20
ATOM     20  O   UNL     1      19.208  -2.685  36.923  1.00  0.00    -0.469 OA
ATOM     21  C   UNL     1      20.542  -3.166  37.010  1.00  0.00     0.282 C 
ENDBRANCH  18  20
ENDBRANCH  17  18
ENDBRANCH  16  17
ENDBRANCH  15  16
ENDBRANCH  14  15
ENDBRANCH  13  14
ENDBRANCH  12  13
ENDBRANCH   1  12
TORSDOF 15
ENDMDL
MODEL 5
REMARK VINA RESULT:    -3.442      3.447      6.147
REMARK INTER + INTRA:          -9.097
REMARK INTER:                  -6.441
REMARK INTRA:                  -2.656
REMARK UNBOUND:                -2.636
REMARK SMILES CCCCCC=CCC=CCCCCCCCC(=O)OC
REMARK SMILES IDX 11 1 10 2 9 3 8 4 7 5 6 6 5 7 4 8 3 9 2 10 1 11 12 12 13 13
REMARK SMILES IDX 14 14 15 15 16 16 17 17 18 18 19 19 20 20 21 21
REMARK H PARENT
REMARK Flexibility Score: inf
ROOT
ATOM      1  C   UNL     1      20.660   0.864  40.942  1.00  0.00     0.027 C 
ENDROOT
BRANCH   1   2
ATOM      2  C   UNL     1      20.380  -0.609  40.764  1.00  0.00    -0.031 C 
ATOM      3  C   UNL     1      20.013  -1.458  41.744  1.00  0.00    -0.027 C 
BRANCH   3   4
ATOM      4  C   UNL     1      19.855  -1.089  43.197  1.00  0.00     0.054 C 
BRANCH   4   5
ATOM      5  C   UNL     1      18.463  -0.584  43.455  1.00  0.00    -0.027 C 
ATOM      6  C   UNL     1      18.226   0.664  43.886  1.00  0.00    -0.031 C 
BRANCH   6   7
ATOM      7  C   UNL     1      16.826   1.146  44.153  1.00  0.00     0.027 C 
BRANCH   7   8
ATOM      8  C   UNL     1      16.521   2.412  43.334  1.00  0.00     0.004 C 
BRANCH   8   9
ATOM      9  C   UNL     1      17.715   3.381  43.268  1.00  0.00     0.000 C 
BRANCH   9  10
ATOM     10  C   UNL     1      17.550   4.532  42.257  1.00  0.00    -0.003 C 
ATOM     11  C   UNL     1      16.140   5.127  42.254  1.00  0.00     0.004 C 
ENDBRANCH   9  10
ENDBRANCH   8   9
ENDBRANCH   7   8
ENDBRANCH   6   7
ENDBRANCH   4   5
ENDBRANCH   3   4
ENDBRANCH   1   2
BRANCH   1  12
ATOM     12  C   UNL     1      19.509   1.739  40.414  1.00  0.00     0.004 C 
BRANCH  12  13
ATOM     13  C   UNL     1      18.376   0.934  39.751  1.00  0.00     0.000 C 
BRANCH  13  14
ATOM     14  C   UNL     1      16.988   1.543  40.012  1.00  0.00     0.000 C 
BRANCH  14  15
ATOM     15  C   UNL     1      16.691   2.747  39.109  1.00  0.00     0.001 C 
BRANCH  15  16
ATOM     16  C   UNL     1      15.239   3.243  39.233  1.00  0.00     0.012 C 
BRANCH  16  17
ATOM     17  C   UNL     1      14.417   2.956  37.969  1.00  0.00     0.123 C 
BRANCH  17  18
ATOM     18  C   UNL     1      14.469   1.507  37.591  1.00  0.00     0.305 C 
ATOM     19  O   UNL     1      13.957   0.642  38.350  1.00  0.00    -0.252 OA
BRANCH  18  20
ATOM     20  O   UNL     1      15.124   1.122  36.420  1.00  0.00    -0.469 OA
ATOM     21  C   UNL     1      15.956  -0.028  36.350  1.00  0.00     0.282 C 
ENDBRANCH  18  20
ENDBRANCH  17  18
ENDBRANCH  16  17
ENDBRANCH  15  16
ENDBRANCH  14  15
ENDBRANCH  13  14
ENDBRANCH  12  13
ENDBRANCH   1  12
TORSDOF 15
ENDMDL
MODEL 6
REMARK VINA RESULT:    -3.399      3.940      6.385
REMARK INTER + INTRA:          -9.017
REMARK INTER:                  -6.468
REMARK INTRA:                  -2.549
REMARK UNBOUND:                -2.636
REMARK SMILES CCCCCC=CCC=CCCCCCCCC(=O)OC
REMARK SMILES IDX 11 1 10 2 9 3 8 4 7 5 6 6 5 7 4 8 3 9 2 10 1 11 12 12 13 13
REMARK SMILES IDX 14 14 15 15 16 16 17 17 18 18 19 19 20 20 21 21
REMARK H PARENT
REMARK Flexibility Score: inf
ROOT
ATOM      1  C   UNL     1      19.865   1.533  43.426  1.00  0.00     0.027 C 
ENDROOT
BRANCH   1   2
ATOM      2  C   UNL     1      18.910   0.367  43.341  1.00  0.00    -0.031 C 
ATOM      3  C   UNL     1      17.569   0.462  43.249  1.00  0.00    -0.027 C 
BRANCH   3   4
ATOM      4  C   UNL     1      16.788   1.751  43.253  1.00  0.00     0.054 C 
BRANCH   4   5
ATOM      5  C   UNL     1      16.701   2.309  41.861  1.00  0.00    -0.027 C 
ATOM      6  C   UNL     1      16.352   3.582  41.623  1.00  0.00    -0.031 C 
BRANCH   6   7
ATOM      7  C   UNL     1      16.256   4.118  40.220  1.00  0.00     0.027 C 
BRANCH   7   8
ATOM      8  C   UNL     1      16.643   3.036  39.198  1.00  0.00     0.004 C 
BRANCH   8   9
ATOM      9  C   UNL     1      15.688   2.986  37.992  1.00  0.00     0.000 C 
BRANCH   9  10
ATOM     10  C   UNL     1      14.262   2.508  38.324  1.00  0.00    -0.003 C 
ATOM     11  C   UNL     1      14.087   0.996  38.169  1.00  0.00     0.004 C 
ENDBRANCH   9  10
ENDBRANCH   8   9
ENDBRANCH   7   8
ENDBRANCH   6   7
ENDBRANCH   4   5
ENDBRANCH   3   4
ENDBRANCH   1   2
BRANCH   1  12
ATOM     12  C   UNL     1      20.384   1.957  42.041  1.00  0.00     0.004 C 
BRANCH  12  13
ATOM     13  C   UNL     1      20.532   0.786  41.052  1.00  0.00     0.000 C 
BRANCH  13  14
ATOM     14  C   UNL     1      19.593   0.913  39.841  1.00  0.00     0.000 C 
BRANCH  14  15
ATOM     15  C   UNL     1      18.814  -0.378  39.560  1.00  0.00     0.001 C 
BRANCH  15  16
ATOM     16  C   UNL     1      17.743  -0.204  38.467  1.00  0.00     0.012 C 
BRANCH  16  17
ATOM     17  C   UNL     1      18.353  -0.145  37.060  1.00  0.00     0.123 C 
BRANCH  17  18
ATOM     18  C   UNL     1      17.338   0.256  36.032  1.00  0.00     0.305 C 
ATOM     19  O   UNL     1      17.427   1.379  35.469  1.00  0.00    -0.252 OA
BRANCH  18  20
ATOM     20  O   UNL     1      16.276  -0.601  35.740  1.00  0.00    -0.469 OA
ATOM     21  C   UNL     1      15.206  -0.229  34.882  1.00  0.00     0.282 C 
ENDBRANCH  18  20
ENDBRANCH  17  18
ENDBRANCH  16  17
ENDBRANCH  15  16
ENDBRANCH  14  15
ENDBRANCH  13  14
ENDBRANCH  12  13
ENDBRANCH   1  12
TORSDOF 15
ENDMDL
MODEL 7
REMARK VINA RESULT:    -3.394      1.819      2.450
REMARK INTER + INTRA:          -9.007
REMARK INTER:                  -6.379
REMARK INTRA:                  -2.628
REMARK UNBOUND:                -2.636
REMARK SMILES CCCCCC=CCC=CCCCCCCCC(=O)OC
REMARK SMILES IDX 11 1 10 2 9 3 8 4 7 5 6 6 5 7 4 8 3 9 2 10 1 11 12 12 13 13
REMARK SMILES IDX 14 14 15 15 16 16 17 17 18 18 19 19 20 20 21 21
REMARK H PARENT
REMARK Flexibility Score: inf
ROOT
ATOM      1  C   UNL     1      19.300   0.475  43.943  1.00  0.00     0.027 C 
ENDROOT
BRANCH   1   2
ATOM      2  C   UNL     1      19.708   1.883  43.581  1.00  0.00    -0.031 C 
ATOM      3  C   UNL     1      20.382   2.239  42.471  1.00  0.00    -0.027 C 
BRANCH   3   4
ATOM      4  C   UNL     1      20.879   1.287  41.414  1.00  0.00     0.054 C 
BRANCH   4   5
ATOM      5  C   UNL     1      19.835   1.104  40.347  1.00  0.00    -0.027 C 
ATOM      6  C   UNL     1      19.276  -0.087  40.093  1.00  0.00    -0.031 C 
BRANCH   6   7
ATOM      7  C   UNL     1      18.243  -0.252  39.011  1.00  0.00     0.027 C 
BRANCH   7   8
ATOM      8  C   UNL     1      17.617   1.105  38.647  1.00  0.00     0.004 C 
BRANCH   8   9
ATOM      9  C   UNL     1      16.282   0.963  37.894  1.00  0.00     0.000 C 
BRANCH   9  10
ATOM     10  C   UNL     1      15.033   1.264  38.745  1.00  0.00    -0.003 C 
ATOM     11  C   UNL     1      13.737   0.770  38.098  1.00  0.00     0.004 C 
ENDBRANCH   9  10
ENDBRANCH   8   9
ENDBRANCH   7   8
ENDBRANCH   6   7
ENDBRANCH   4   5
ENDBRANCH   3   4
ENDBRANCH   1   2
BRANCH   1  12
ATOM     12  C   UNL     1      17.850   0.168  43.529  1.00  0.00     0.004 C 
BRANCH  12  13
ATOM     13  C   UNL     1      16.950   1.416  43.463  1.00  0.00     0.000 C 
BRANCH  13  14
ATOM     14  C   UNL     1      16.488   1.736  42.032  1.00  0.00     0.000 C 
BRANCH  14  15
ATOM     15  C   UNL     1      16.785   3.185  41.626  1.00  0.00     0.001 C 
BRANCH  15  16
ATOM     16  C   UNL     1      16.632   4.176  42.794  1.00  0.00     0.012 C 
BRANCH  16  17
ATOM     17  C   UNL     1      15.606   5.277  42.492  1.00  0.00     0.123 C 
BRANCH  17  18
ATOM     18  C   UNL     1      16.208   6.644  42.612  1.00  0.00     0.305 C 
ATOM     19  O   UNL     1      16.057   7.305  43.674  1.00  0.00    -0.252 OA
BRANCH  18  20
ATOM     20  O   UNL     1      16.894   7.194  41.527  1.00  0.00    -0.469 OA
ATOM     21  C   UNL     1      18.312   7.209  41.447  1.00  0.00     0.282 C 
ENDBRANCH  18  20
ENDBRANCH  17  18
ENDBRANCH  16  17
ENDBRANCH  15  16
ENDBRANCH  14  15
ENDBRANCH  13  14
ENDBRANCH  12  13
ENDBRANCH   1  12
TORSDOF 15
ENDMDL
MODEL 8
REMARK VINA RESULT:    -3.382      4.159      6.873
REMARK INTER + INTRA:          -8.985
REMARK INTER:                  -6.964
REMARK INTRA:                  -2.020
REMARK UNBOUND:                -2.636
REMARK SMILES CCCCCC=CCC=CCCCCCCCC(=O)OC
REMARK SMILES IDX 11 1 10 2 9 3 8 4 7 5 6 6 5 7 4 8 3 9 2 10 1 11 12 12 13 13
REMARK SMILES IDX 14 14 15 15 16 16 17 17 18 18 19 19 20 20 21 21
REMARK H PARENT
REMARK Flexibility Score: inf
ROOT
ATOM      1  C   UNL     1      17.955   1.707  41.152  1.00  0.00     0.027 C 
ENDROOT
BRANCH   1   2
ATOM      2  C   UNL     1      19.205   2.347  41.705  1.00  0.00    -0.031 C 
ATOM      3  C   UNL     1      19.798   2.024  42.871  1.00  0.00    -0.027 C 
BRANCH   3   4
ATOM      4  C   UNL     1      19.292   0.990  43.844  1.00  0.00     0.054 C 
BRANCH   4   5
ATOM      5  C   UNL     1      19.852  -0.363  43.503  1.00  0.00    -0.027 C 
ATOM      6  C   UNL     1      19.143  -1.278  42.826  1.00  0.00    -0.031 C 
BRANCH   6   7
ATOM      7  C   UNL     1      19.716  -2.632  42.507  1.00  0.00     0.027 C 
BRANCH   7   8
ATOM      8  C   UNL     1      19.562  -2.948  41.010  1.00  0.00     0.004 C 
BRANCH   8   9
ATOM      9  C   UNL     1      19.272  -1.697  40.162  1.00  0.00     0.000 C 
BRANCH   9  10
ATOM     10  C   UNL     1      20.447  -1.235  39.280  1.00  0.00    -0.003 C 
ATOM     11  C   UNL     1      21.246  -0.087  39.902  1.00  0.00     0.004 C 
ENDBRANCH   9  10
ENDBRANCH   8   9
ENDBRANCH   7   8
ENDBRANCH   6   7
ENDBRANCH   4   5
ENDBRANCH   3   4
ENDBRANCH   1   2
BRANCH   1  12
ATOM     12  C   UNL     1      16.677   2.375  41.689  1.00  0.00     0.004 C 
BRANCH  12  13
ATOM     13  C   UNL     1      16.238   3.608  40.877  1.00  0.00     0.000 C 
BRANCH  13  14
ATOM     14  C   UNL     1      16.246   3.352  39.361  1.00  0.00     0.000 C 
BRANCH  14  15
ATOM     15  C   UNL     1      15.004   2.588  38.885  1.00  0.00     0.001 C 
BRANCH  15  16
ATOM     16  C   UNL     1      15.321   1.148  38.443  1.00  0.00     0.012 C 
BRANCH  16  17
ATOM     17  C   UNL     1      14.400   0.670  37.312  1.00  0.00     0.123 C 
BRANCH  17  18
ATOM     18  C   UNL     1      15.107   0.650  35.991  1.00  0.00     0.305 C 
ATOM     19  O   UNL     1      16.156   1.328  35.832  1.00  0.00    -0.252 OA
BRANCH  18  20
ATOM     20  O   UNL     1      14.572  -0.087  34.933  1.00  0.00    -0.469 OA
ATOM     21  C   UNL     1      15.233  -0.221  33.682  1.00  0.00     0.282 C 
ENDBRANCH  18  20
ENDBRANCH  17  18
ENDBRANCH  16  17
ENDBRANCH  15  16
ENDBRANCH  14  15
ENDBRANCH  13  14
ENDBRANCH  12  13
ENDBRANCH   1  12
TORSDOF 15
ENDMDL
MODEL 9
REMARK VINA RESULT:    -3.366      1.211      2.382
REMARK INTER + INTRA:          -8.954
REMARK INTER:                  -6.606
REMARK INTRA:                  -2.348
REMARK UNBOUND:                -2.636
REMARK SMILES CCCCCC=CCC=CCCCCCCCC(=O)OC
REMARK SMILES IDX 11 1 10 2 9 3 8 4 7 5 6 6 5 7 4 8 3 9 2 10 1 11 12 12 13 13
REMARK SMILES IDX 14 14 15 15 16 16 17 17 18 18 19 19 20 20 21 21
REMARK H PARENT
REMARK Flexibility Score: inf
ROOT
ATOM      1  C   UNL     1      20.272   2.159  42.653  1.00  0.00     0.027 C 
ENDROOT
BRANCH   1   2
ATOM      2  C   UNL     1      20.352   1.245  41.455  1.00  0.00    -0.031 C 
ATOM      3  C   UNL     1      19.917   1.544  40.215  1.00  0.00    -0.027 C 
BRANCH   3   4
ATOM      4  C   UNL     1      19.241   2.831  39.819  1.00  0.00     0.054 C 
BRANCH   4   5
ATOM      5  C   UNL     1      17.748   2.654  39.819  1.00  0.00    -0.027 C 
ATOM      6  C   UNL     1      16.915   3.629  39.429  1.00  0.00    -0.031 C 
BRANCH   6   7
ATOM      7  C   UNL     1      15.422   3.438  39.451  1.00  0.00     0.027 C 
BRANCH   7   8
ATOM      8  C   UNL     1      14.906   3.029  38.061  1.00  0.00     0.004 C 
BRANCH   8   9
ATOM      9  C   UNL     1      14.055   1.747  38.094  1.00  0.00     0.000 C 
BRANCH   9  10
ATOM     10  C   UNL     1      14.725   0.518  37.449  1.00  0.00    -0.003 C 
ATOM     11  C   UNL     1      16.128   0.815  36.913  1.00  0.00     0.004 C 
ENDBRANCH   9  10
ENDBRANCH   8   9
ENDBRANCH   7   8
ENDBRANCH   6   7
ENDBRANCH   4   5
ENDBRANCH   3   4
ENDBRANCH   1   2
BRANCH   1  12
ATOM     12  C   UNL     1      19.758   1.427  43.905  1.00  0.00     0.004 C 
BRANCH  12  13
ATOM     13  C   UNL     1      18.701   0.349  43.600  1.00  0.00     0.000 C 
BRANCH  13  14
ATOM     14  C   UNL     1      17.283   0.781  44.007  1.00  0.00     0.000 C 
BRANCH  14  15
ATOM     15  C   UNL     1      16.612   1.673  42.954  1.00  0.00     0.001 C 
BRANCH  15  16
ATOM     16  C   UNL     1      16.619   3.164  43.342  1.00  0.00     0.012 C 
BRANCH  16  17
ATOM     17  C   UNL     1      16.445   3.372  44.853  1.00  0.00     0.123 C 
BRANCH  17  18
ATOM     18  C   UNL     1      17.502   4.274  45.414  1.00  0.00     0.305 C 
ATOM     19  O   UNL     1      17.725   5.390  44.874  1.00  0.00    -0.252 OA
BRANCH  18  20
ATOM     20  O   UNL     1      18.264   3.849  46.504  1.00  0.00    -0.469 OA
ATOM     21  C   UNL     1      18.050   2.600  47.147  1.00  0.00     0.282 C 
ENDBRANCH  18  20
ENDBRANCH  17  18
ENDBRANCH  16  17
ENDBRANCH  15  16
ENDBRANCH  14  15
ENDBRANCH  13  14
ENDBRANCH  12  13
ENDBRANCH   1  12
TORSDOF 15
ENDMDL
