MODEL 1
REMARK VINA RESULT:    -4.087      0.000      0.000
REMARK INTER + INTRA:          -9.764
REMARK INTER:                  -7.192
REMARK INTRA:                  -2.571
REMARK UNBOUND:                -2.571
REMARK SMILES CCCCCCCCCCCCCCC(=O)[O-]
REMARK SMILES IDX 9 1 10 2 11 3 12 4 13 5 14 6 15 7 16 8 17 9 8 10 7 11 6 12
REMARK SMILES IDX 5 13 4 14 3 15 2 16 1 17
REMARK H PARENT
REMARK Flexibility Score: inf
ROOT
ATOM      1  C   UNL     1      16.854 -31.815  24.215  1.00  0.00     0.000 C 
ENDROOT
BRANCH   1   2
ATOM      2  C   UNL     1      18.148 -31.748  23.389  1.00  0.00     0.000 C 
BRANCH   2   3
ATOM      3  C   UNL     1      18.017 -30.729  22.247  1.00  0.00     0.000 C 
BRANCH   3   4
ATOM      4  C   UNL     1      17.965 -31.394  20.862  1.00  0.00     0.000 C 
BRANCH   4   5
ATOM      5  C   UNL     1      18.720 -32.733  20.819  1.00  0.00     0.006 C 
BRANCH   5   6
ATOM      6  C   UNL     1      18.185 -33.664  19.722  1.00  0.00     0.053 C 
BRANCH   6   7
ATOM      7  C   UNL     1      18.294 -35.106  20.115  1.00  0.00     0.041 C 
ATOM      8  O   UNL     1      18.845 -35.429  21.200  1.00  0.00    -0.550 OA
ATOM      9  O   UNL     1      17.759 -36.092  19.296  1.00  0.00    -0.550 OA
ENDBRANCH   6   7
ENDBRANCH   5   6
ENDBRANCH   4   5
ENDBRANCH   3   4
ENDBRANCH   2   3
ENDBRANCH   1   2
BRANCH   1  10
ATOM     10  C   UNL     1      16.318 -33.249  24.361  1.00  0.00     0.000 C 
BRANCH  10  11
ATOM     11  C   UNL     1      15.025 -33.482  23.564  1.00  0.00    -0.000 C 
BRANCH  11  12
ATOM     12  C   UNL     1      15.337 -33.971  22.145  1.00  0.00    -0.000 C 
BRANCH  12  13
ATOM     13  C   UNL     1      14.642 -33.092  21.095  1.00  0.00    -0.000 C 
BRANCH  13  14
ATOM     14  C   UNL     1      13.817 -31.958  21.726  1.00  0.00    -0.000 C 
BRANCH  14  15
ATOM     15  C   UNL     1      14.351 -30.563  21.358  1.00  0.00    -0.000 C 
BRANCH  15  16
ATOM     16  C   UNL     1      14.517 -29.655  22.586  1.00  0.00    -0.003 C 
ATOM     17  C   UNL     1      13.566 -30.023  23.726  1.00  0.00     0.004 C 
ENDBRANCH  15  16
ENDBRANCH  14  15
ENDBRANCH  13  14
ENDBRANCH  12  13
ENDBRANCH  11  12
ENDBRANCH  10  11
ENDBRANCH   1  10
TORSDOF 13
ENDMDL
MODEL 2
REMARK VINA RESULT:    -4.083      1.773      3.626
REMARK INTER + INTRA:          -9.758
REMARK INTER:                  -7.799
REMARK INTRA:                  -1.958
REMARK UNBOUND:                -2.571
REMARK SMILES CCCCCCCCCCCCCCC(=O)[O-]
REMARK SMILES IDX 9 1 10 2 11 3 12 4 13 5 14 6 15 7 16 8 17 9 8 10 7 11 6 12
REMARK SMILES IDX 5 13 4 14 3 15 2 16 1 17
REMARK H PARENT
REMARK Flexibility Score: inf
ROOT
ATOM      1  C   UNL     1      16.808 -30.328  23.268  1.00  0.00     0.000 C 
ENDROOT
BRANCH   1   2
ATOM      2  C   UNL     1      16.939 -31.849  23.091  1.00  0.00     0.000 C 
BRANCH   2   3
ATOM      3  C   UNL     1      15.966 -32.595  24.017  1.00  0.00     0.000 C 
BRANCH   3   4
ATOM      4  C   UNL     1      15.340 -33.830  23.351  1.00  0.00     0.000 C 
BRANCH   4   5
ATOM      5  C   UNL     1      16.186 -34.366  22.183  1.00  0.00     0.006 C 
BRANCH   5   6
ATOM      6  C   UNL     1      15.353 -34.570  20.911  1.00  0.00     0.053 C 
BRANCH   6   7
ATOM      7  C   UNL     1      16.186 -35.094  19.780  1.00  0.00     0.041 C 
ATOM      8  O   UNL     1      16.713 -34.299  18.959  1.00  0.00    -0.550 OA
ATOM      9  O   UNL     1      16.402 -36.460  19.650  1.00  0.00    -0.550 OA
ENDBRANCH   6   7
ENDBRANCH   5   6
ENDBRANCH   4   5
ENDBRANCH   3   4
ENDBRANCH   2   3
ENDBRANCH   1   2
BRANCH   1  10
ATOM     10  C   UNL     1      16.558 -29.595  21.940  1.00  0.00     0.000 C 
BRANCH  10  11
ATOM     11  C   UNL     1      15.629 -28.382  22.098  1.00  0.00    -0.000 C 
BRANCH  11  12
ATOM     12  C   UNL     1      15.101 -28.279  23.534  1.00  0.00    -0.000 C 
BRANCH  12  13
ATOM     13  C   UNL     1      13.588 -28.013  23.546  1.00  0.00    -0.000 C 
BRANCH  13  14
ATOM     14  C   UNL     1      12.789 -29.170  24.168  1.00  0.00    -0.000 C 
BRANCH  14  15
ATOM     15  C   UNL     1      13.187 -30.540  23.590  1.00  0.00    -0.000 C 
BRANCH  15  16
ATOM     16  C   UNL     1      12.462 -30.854  22.273  1.00  0.00    -0.003 C 
ATOM     17  C   UNL     1      13.408 -31.366  21.186  1.00  0.00     0.004 C 
ENDBRANCH  15  16
ENDBRANCH  14  15
ENDBRANCH  13  14
ENDBRANCH  12  13
ENDBRANCH  11  12
ENDBRANCH  10  11
ENDBRANCH   1  10
TORSDOF 13
ENDMDL
MODEL 3
REMARK VINA RESULT:    -4.060      1.536      4.145
REMARK INTER + INTRA:          -9.718
REMARK INTER:                  -7.791
REMARK INTRA:                  -1.926
REMARK UNBOUND:                -2.571
REMARK SMILES CCCCCCCCCCCCCCC(=O)[O-]
REMARK SMILES IDX 9 1 10 2 11 3 12 4 13 5 14 6 15 7 16 8 17 9 8 10 7 11 6 12
REMARK SMILES IDX 5 13 4 14 3 15 2 16 1 17
REMARK H PARENT
REMARK Flexibility Score: inf
ROOT
ATOM      1  C   UNL     1      13.091 -31.167  23.009  1.00  0.00     0.000 C 
ENDROOT
BRANCH   1   2
ATOM      2  C   UNL     1      13.308 -31.060  21.491  1.00  0.00     0.000 C 
BRANCH   2   3
ATOM      3  C   UNL     1      13.925 -32.352  20.933  1.00  0.00     0.000 C 
BRANCH   3   4
ATOM      4  C   UNL     1      14.800 -33.085  21.963  1.00  0.00     0.000 C 
BRANCH   4   5
ATOM      5  C   UNL     1      15.391 -34.394  21.413  1.00  0.00     0.006 C 
BRANCH   5   6
ATOM      6  C   UNL     1      15.517 -34.376  19.884  1.00  0.00     0.053 C 
BRANCH   6   7
ATOM      7  C   UNL     1      16.698 -35.171  19.415  1.00  0.00     0.041 C 
ATOM      8  O   UNL     1      16.660 -36.429  19.425  1.00  0.00    -0.550 OA
ATOM      9  O   UNL     1      17.829 -34.520  18.938  1.00  0.00    -0.550 OA
ENDBRANCH   6   7
ENDBRANCH   5   6
ENDBRANCH   4   5
ENDBRANCH   3   4
ENDBRANCH   2   3
ENDBRANCH   1   2
BRANCH   1  10
ATOM     10  C   UNL     1      13.738 -30.008  23.783  1.00  0.00     0.000 C 
BRANCH  10  11
ATOM     11  C   UNL     1      14.222 -28.877  22.862  1.00  0.00    -0.000 C 
BRANCH  11  12
ATOM     12  C   UNL     1      15.687 -28.525  23.149  1.00  0.00    -0.000 C 
BRANCH  12  13
ATOM     13  C   UNL     1      16.596 -28.972  21.994  1.00  0.00    -0.000 C 
BRANCH  13  14
ATOM     14  C   UNL     1      17.137 -30.399  22.186  1.00  0.00    -0.000 C 
BRANCH  14  15
ATOM     15  C   UNL     1      17.895 -30.913  20.950  1.00  0.00    -0.000 C 
BRANCH  15  16
ATOM     16  C   UNL     1      18.625 -32.239  21.217  1.00  0.00    -0.003 C 
ATOM     17  C   UNL     1      18.535 -32.677  22.680  1.00  0.00     0.004 C 
ENDBRANCH  15  16
ENDBRANCH  14  15
ENDBRANCH  13  14
ENDBRANCH  12  13
ENDBRANCH  11  12
ENDBRANCH  10  11
ENDBRANCH   1  10
TORSDOF 13
ENDMDL
MODEL 4
REMARK VINA RESULT:    -3.975      3.559      6.135
REMARK INTER + INTRA:          -9.567
REMARK INTER:                  -7.711
REMARK INTRA:                  -1.857
REMARK UNBOUND:                -2.571
REMARK SMILES CCCCCCCCCCCCCCC(=O)[O-]
REMARK SMILES IDX 9 1 10 2 11 3 12 4 13 5 14 6 15 7 16 8 17 9 8 10 7 11 6 12
REMARK SMILES IDX 5 13 4 14 3 15 2 16 1 17
REMARK H PARENT
REMARK Flexibility Score: inf
ROOT
ATOM      1  C   UNL     1      14.942 -33.962  20.032  1.00  0.00     0.000 C 
ENDROOT
BRANCH   1   2
ATOM      2  C   UNL     1      14.668 -32.995  21.195  1.00  0.00     0.000 C 
BRANCH   2   3
ATOM      3  C   UNL     1      15.015 -33.646  22.543  1.00  0.00     0.000 C 
BRANCH   3   4
ATOM      4  C   UNL     1      14.964 -32.651  23.714  1.00  0.00     0.000 C 
BRANCH   4   5
ATOM      5  C   UNL     1      13.696 -31.781  23.698  1.00  0.00     0.006 C 
BRANCH   5   6
ATOM      6  C   UNL     1      14.021 -30.288  23.557  1.00  0.00     0.053 C 
BRANCH   6   7
ATOM      7  C   UNL     1      12.800 -29.435  23.732  1.00  0.00     0.041 C 
ATOM      8  O   UNL     1      12.722 -28.628  24.694  1.00  0.00    -0.550 OA
ATOM      9  O   UNL     1      11.761 -29.513  22.813  1.00  0.00    -0.550 OA
ENDBRANCH   6   7
ENDBRANCH   5   6
ENDBRANCH   4   5
ENDBRANCH   3   4
ENDBRANCH   2   3
ENDBRANCH   1   2
BRANCH   1  10
ATOM     10  C   UNL     1      15.634 -35.257  20.489  1.00  0.00     0.000 C 
BRANCH  10  11
ATOM     11  C   UNL     1      16.688 -35.750  19.486  1.00  0.00    -0.000 C 
BRANCH  11  12
ATOM     12  C   UNL     1      17.687 -36.697  20.163  1.00  0.00    -0.000 C 
BRANCH  12  13
ATOM     13  C   UNL     1      17.979 -36.250  21.603  1.00  0.00    -0.000 C 
BRANCH  13  14
ATOM     14  C   UNL     1      19.023 -35.123  21.673  1.00  0.00    -0.000 C 
BRANCH  14  15
ATOM     15  C   UNL     1      18.641 -34.028  22.684  1.00  0.00    -0.000 C 
BRANCH  15  16
ATOM     16  C   UNL     1      18.559 -32.636  22.038  1.00  0.00    -0.003 C 
ATOM     17  C   UNL     1      18.444 -32.697  20.515  1.00  0.00     0.004 C 
ENDBRANCH  15  16
ENDBRANCH  14  15
ENDBRANCH  13  14
ENDBRANCH  12  13
ENDBRANCH  11  12
ENDBRANCH  10  11
ENDBRANCH   1  10
TORSDOF 13
ENDMDL
MODEL 5
REMARK VINA RESULT:    -3.935      1.748      4.762
REMARK INTER + INTRA:          -9.496
REMARK INTER:                  -7.694
REMARK INTRA:                  -1.803
REMARK UNBOUND:                -2.571
REMARK SMILES CCCCCCCCCCCCCCC(=O)[O-]
REMARK SMILES IDX 9 1 10 2 11 3 12 4 13 5 14 6 15 7 16 8 17 9 8 10 7 11 6 12
REMARK SMILES IDX 5 13 4 14 3 15 2 16 1 17
REMARK H PARENT
REMARK Flexibility Score: inf
ROOT
ATOM      1  C   UNL     1      13.637 -29.508  23.513  1.00  0.00     0.000 C 
ENDROOT
BRANCH   1   2
ATOM      2  C   UNL     1      12.283 -29.734  22.823  1.00  0.00     0.000 C 
BRANCH   2   3
ATOM      3  C   UNL     1      12.336 -30.959  21.897  1.00  0.00     0.000 C 
BRANCH   3   4
ATOM      4  C   UNL     1      13.754 -31.254  21.384  1.00  0.00     0.000 C 
BRANCH   4   5
ATOM      5  C   UNL     1      14.218 -32.684  21.714  1.00  0.00     0.006 C 
BRANCH   5   6
ATOM      6  C   UNL     1      14.611 -33.469  20.456  1.00  0.00     0.053 C 
BRANCH   6   7
ATOM      7  C   UNL     1      15.458 -34.661  20.787  1.00  0.00     0.041 C 
ATOM      8  O   UNL     1      15.653 -35.560  19.927  1.00  0.00    -0.550 OA
ATOM      9  O   UNL     1      16.055 -34.763  22.037  1.00  0.00    -0.550 OA
ENDBRANCH   6   7
ENDBRANCH   5   6
ENDBRANCH   4   5
ENDBRANCH   3   4
ENDBRANCH   2   3
ENDBRANCH   1   2
BRANCH   1  10
ATOM     10  C   UNL     1      13.966 -28.019  23.700  1.00  0.00     0.000 C 
BRANCH  10  11
ATOM     11  C   UNL     1      15.421 -27.683  23.340  1.00  0.00    -0.000 C 
BRANCH  11  12
ATOM     12  C   UNL     1      15.833 -28.363  22.029  1.00  0.00    -0.000 C 
BRANCH  12  13
ATOM     13  C   UNL     1      17.208 -29.032  22.164  1.00  0.00    -0.000 C 
BRANCH  13  14
ATOM     14  C   UNL     1      17.233 -30.116  23.255  1.00  0.00    -0.000 C 
BRANCH  14  15
ATOM     15  C   UNL     1      17.470 -31.525  22.681  1.00  0.00    -0.000 C 
BRANCH  15  16
ATOM     16  C   UNL     1      17.800 -31.500  21.181  1.00  0.00    -0.003 C 
ATOM     17  C   UNL     1      19.213 -32.000  20.879  1.00  0.00     0.004 C 
ENDBRANCH  15  16
ENDBRANCH  14  15
ENDBRANCH  13  14
ENDBRANCH  12  13
ENDBRANCH  11  12
ENDBRANCH  10  11
ENDBRANCH   1  10
TORSDOF 13
ENDMDL
MODEL 6
REMARK VINA RESULT:    -3.930      1.289      2.712
REMARK INTER + INTRA:          -9.488
REMARK INTER:                  -7.235
REMARK INTRA:                  -2.253
REMARK UNBOUND:                -2.571
REMARK SMILES CCCCCCCCCCCCCCC(=O)[O-]
REMARK SMILES IDX 9 1 10 2 11 3 12 4 13 5 14 6 15 7 16 8 17 9 8 10 7 11 6 12
REMARK SMILES IDX 5 13 4 14 3 15 2 16 1 17
REMARK H PARENT
REMARK Flexibility Score: inf
ROOT
ATOM      1  C   UNL     1      18.013 -32.972  23.909  1.00  0.00     0.000 C 
ENDROOT
BRANCH   1   2
ATOM      2  C   UNL     1      16.715 -33.384  24.622  1.00  0.00     0.000 C 
BRANCH   2   3
ATOM      3  C   UNL     1      15.718 -34.005  23.631  1.00  0.00     0.000 C 
BRANCH   3   4
ATOM      4  C   UNL     1      16.384 -34.450  22.319  1.00  0.00     0.000 C 
BRANCH   4   5
ATOM      5  C   UNL     1      15.386 -34.554  21.153  1.00  0.00     0.006 C 
BRANCH   5   6
ATOM      6  C   UNL     1      16.040 -34.240  19.801  1.00  0.00     0.053 C 
BRANCH   6   7
ATOM      7  C   UNL     1      17.094 -35.245  19.448  1.00  0.00     0.041 C 
ATOM      8  O   UNL     1      18.256 -34.867  19.143  1.00  0.00    -0.550 OA
ATOM      9  O   UNL     1      16.800 -36.603  19.483  1.00  0.00    -0.550 OA
ENDBRANCH   6   7
ENDBRANCH   5   6
ENDBRANCH   4   5
ENDBRANCH   3   4
ENDBRANCH   2   3
ENDBRANCH   1   2
BRANCH   1  10
ATOM     10  C   UNL     1      18.043 -31.478  23.549  1.00  0.00     0.000 C 
BRANCH  10  11
ATOM     11  C   UNL     1      18.411 -31.231  22.078  1.00  0.00    -0.000 C 
BRANCH  11  12
ATOM     12  C   UNL     1      17.153 -31.008  21.228  1.00  0.00    -0.000 C 
BRANCH  12  13
ATOM     13  C   UNL     1      15.979 -30.535  22.098  1.00  0.00    -0.000 C 
BRANCH  13  14
ATOM     14  C   UNL     1      14.617 -30.745  21.417  1.00  0.00    -0.000 C 
BRANCH  14  15
ATOM     15  C   UNL     1      13.596 -31.433  22.340  1.00  0.00    -0.000 C 
BRANCH  15  16
ATOM     16  C   UNL     1      13.602 -30.849  23.761  1.00  0.00    -0.003 C 
ATOM     17  C   UNL     1      12.920 -29.483  23.842  1.00  0.00     0.004 C 
ENDBRANCH  15  16
ENDBRANCH  14  15
ENDBRANCH  13  14
ENDBRANCH  12  13
ENDBRANCH  11  12
ENDBRANCH  10  11
ENDBRANCH   1  10
TORSDOF 13
ENDMDL
MODEL 7
REMARK VINA RESULT:    -3.928      3.528      5.827
REMARK INTER + INTRA:          -9.484
REMARK INTER:                  -6.980
REMARK INTRA:                  -2.504
REMARK UNBOUND:                -2.571
REMARK SMILES CCCCCCCCCCCCCCC(=O)[O-]
REMARK SMILES IDX 9 1 10 2 11 3 12 4 13 5 14 6 15 7 16 8 17 9 8 10 7 11 6 12
REMARK SMILES IDX 5 13 4 14 3 15 2 16 1 17
REMARK H PARENT
REMARK Flexibility Score: inf
ROOT
ATOM      1  C   UNL     1      16.544 -34.409  22.737  1.00  0.00     0.000 C 
ENDROOT
BRANCH   1   2
ATOM      2  C   UNL     1      15.151 -33.763  22.682  1.00  0.00     0.000 C 
BRANCH   2   3
ATOM      3  C   UNL     1      14.649 -33.420  24.093  1.00  0.00     0.000 C 
BRANCH   3   4
ATOM      4  C   UNL     1      13.868 -32.096  24.140  1.00  0.00     0.000 C 
BRANCH   4   5
ATOM      5  C   UNL     1      14.085 -31.236  22.883  1.00  0.00     0.006 C 
BRANCH   5   6
ATOM      6  C   UNL     1      14.204 -29.743  23.218  1.00  0.00     0.053 C 
BRANCH   6   7
ATOM      7  C   UNL     1      12.881 -29.153  23.604  1.00  0.00     0.041 C 
ATOM      8  O   UNL     1      11.875 -29.312  22.865  1.00  0.00    -0.550 OA
ATOM      9  O   UNL     1      12.755 -28.451  24.796  1.00  0.00    -0.550 OA
ENDBRANCH   6   7
ENDBRANCH   5   6
ENDBRANCH   4   5
ENDBRANCH   3   4
ENDBRANCH   2   3
ENDBRANCH   1   2
BRANCH   1  10
ATOM     10  C   UNL     1      17.101 -34.495  24.167  1.00  0.00     0.000 C 
BRANCH  10  11
ATOM     11  C   UNL     1      18.357 -33.634  24.367  1.00  0.00    -0.000 C 
BRANCH  11  12
ATOM     12  C   UNL     1      18.079 -32.475  25.333  1.00  0.00    -0.000 C 
BRANCH  12  13
ATOM     13  C   UNL     1      17.553 -31.245  24.579  1.00  0.00    -0.000 C 
BRANCH  13  14
ATOM     14  C   UNL     1      18.447 -30.852  23.391  1.00  0.00    -0.000 C 
BRANCH  14  15
ATOM     15  C   UNL     1      17.634 -30.444  22.150  1.00  0.00    -0.000 C 
BRANCH  15  16
ATOM     16  C   UNL     1      17.767 -31.457  21.003  1.00  0.00    -0.003 C 
ATOM     17  C   UNL     1      19.104 -32.200  21.022  1.00  0.00     0.004 C 
ENDBRANCH  15  16
ENDBRANCH  14  15
ENDBRANCH  13  14
ENDBRANCH  12  13
ENDBRANCH  11  12
ENDBRANCH  10  11
ENDBRANCH   1  10
TORSDOF 13
ENDMDL
MODEL 8
REMARK VINA RESULT:    -3.906      2.921      5.148
REMARK INTER + INTRA:          -9.446
REMARK INTER:                  -7.227
REMARK INTRA:                  -2.219
REMARK UNBOUND:                -2.571
REMARK SMILES CCCCCCCCCCCCCCC(=O)[O-]
REMARK SMILES IDX 9 1 10 2 11 3 12 4 13 5 14 6 15 7 16 8 17 9 8 10 7 11 6 12
REMARK SMILES IDX 5 13 4 14 3 15 2 16 1 17
REMARK H PARENT
REMARK Flexibility Score: inf
ROOT
ATOM      1  C   UNL     1      16.721 -34.581  22.721  1.00  0.00     0.000 C 
ENDROOT
BRANCH   1   2
ATOM      2  C   UNL     1      15.362 -33.916  22.452  1.00  0.00     0.000 C 
BRANCH   2   3
ATOM      3  C   UNL     1      15.069 -33.857  20.945  1.00  0.00     0.000 C 
BRANCH   3   4
ATOM      4  C   UNL     1      14.006 -32.806  20.587  1.00  0.00     0.000 C 
BRANCH   4   5
ATOM      5  C   UNL     1      14.211 -31.477  21.335  1.00  0.00     0.006 C 
BRANCH   5   6
ATOM      6  C   UNL     1      12.933 -31.008  22.043  1.00  0.00     0.053 C 
BRANCH   6   7
ATOM      7  C   UNL     1      13.196 -30.623  23.467  1.00  0.00     0.041 C 
ATOM      8  O   UNL     1      12.856 -29.487  23.891  1.00  0.00    -0.550 OA
ATOM      9  O   UNL     1      13.792 -31.530  24.334  1.00  0.00    -0.550 OA
ENDBRANCH   6   7
ENDBRANCH   5   6
ENDBRANCH   4   5
ENDBRANCH   3   4
ENDBRANCH   2   3
ENDBRANCH   1   2
BRANCH   1  10
ATOM     10  C   UNL     1      17.231 -35.395  21.521  1.00  0.00     0.000 C 
BRANCH  10  11
ATOM     11  C   UNL     1      18.588 -34.899  21.001  1.00  0.00    -0.000 C 
BRANCH  11  12
ATOM     12  C   UNL     1      19.005 -33.602  21.706  1.00  0.00    -0.000 C 
BRANCH  12  13
ATOM     13  C   UNL     1      19.032 -32.425  20.720  1.00  0.00    -0.000 C 
BRANCH  13  14
ATOM     14  C   UNL     1      17.918 -31.400  20.990  1.00  0.00    -0.000 C 
BRANCH  14  15
ATOM     15  C   UNL     1      18.195 -30.543  22.238  1.00  0.00    -0.000 C 
BRANCH  15  16
ATOM     16  C   UNL     1      17.123 -30.724  23.324  1.00  0.00    -0.003 C 
ATOM     17  C   UNL     1      17.661 -31.422  24.574  1.00  0.00     0.004 C 
ENDBRANCH  15  16
ENDBRANCH  14  15
ENDBRANCH  13  14
ENDBRANCH  12  13
ENDBRANCH  11  12
ENDBRANCH  10  11
ENDBRANCH   1  10
TORSDOF 13
ENDMDL
MODEL 9
REMARK VINA RESULT:    -3.846      1.379      3.070
REMARK INTER + INTRA:          -9.341
REMARK INTER:                  -7.389
REMARK INTRA:                  -1.951
REMARK UNBOUND:                -2.571
REMARK SMILES CCCCCCCCCCCCCCC(=O)[O-]
REMARK SMILES IDX 9 1 10 2 11 3 12 4 13 5 14 6 15 7 16 8 17 9 8 10 7 11 6 12
REMARK SMILES IDX 5 13 4 14 3 15 2 16 1 17
REMARK H PARENT
REMARK Flexibility Score: inf
ROOT
ATOM      1  C   UNL     1      17.028 -29.429  22.028  1.00  0.00     0.000 C 
ENDROOT
BRANCH   1   2
ATOM      2  C   UNL     1      17.672 -30.530  22.887  1.00  0.00     0.000 C 
BRANCH   2   3
ATOM      3  C   UNL     1      18.467 -31.512  22.013  1.00  0.00     0.000 C 
BRANCH   3   4
ATOM      4  C   UNL     1      17.618 -32.130  20.891  1.00  0.00     0.000 C 
BRANCH   4   5
ATOM      5  C   UNL     1      18.000 -33.591  20.595  1.00  0.00     0.006 C 
BRANCH   5   6
ATOM      6  C   UNL     1      17.304 -34.128  19.338  1.00  0.00     0.053 C 
BRANCH   6   7
ATOM      7  C   UNL     1      16.420 -35.298  19.650  1.00  0.00     0.041 C 
ATOM      8  O   UNL     1      15.294 -35.118  20.183  1.00  0.00    -0.550 OA
ATOM      9  O   UNL     1      16.829 -36.585  19.324  1.00  0.00    -0.550 OA
ENDBRANCH   6   7
ENDBRANCH   5   6
ENDBRANCH   4   5
ENDBRANCH   3   4
ENDBRANCH   2   3
ENDBRANCH   1   2
BRANCH   1  10
ATOM     10  C   UNL     1      16.030 -28.569  22.820  1.00  0.00     0.000 C 
BRANCH  10  11
ATOM     11  C   UNL     1      14.619 -29.176  22.852  1.00  0.00    -0.000 C 
BRANCH  11  12
ATOM     12  C   UNL     1      14.420 -30.164  21.696  1.00  0.00    -0.000 C 
BRANCH  12  13
ATOM     13  C   UNL     1      13.961 -31.534  22.217  1.00  0.00    -0.000 C 
BRANCH  13  14
ATOM     14  C   UNL     1      13.821 -31.569  23.748  1.00  0.00    -0.000 C 
BRANCH  14  15
ATOM     15  C   UNL     1      14.310 -32.895  24.355  1.00  0.00    -0.000 C 
BRANCH  15  16
ATOM     16  C   UNL     1      15.234 -33.671  23.404  1.00  0.00    -0.003 C 
ATOM     17  C   UNL     1      16.509 -34.163  24.090  1.00  0.00     0.004 C 
ENDBRANCH  15  16
ENDBRANCH  14  15
ENDBRANCH  13  14
ENDBRANCH  12  13
ENDBRANCH  11  12
ENDBRANCH  10  11
ENDBRANCH   1  10
TORSDOF 13
ENDMDL
