MODEL 1
REMARK VINA RESULT:    -5.787      0.000      0.000
REMARK INTER + INTRA:          -9.293
REMARK INTER:                  -9.000
REMARK INTRA:                  -0.293
REMARK UNBOUND:                -0.293
REMARK SMILES COc1cc(CNC(=O)CCCCC=CC(C)C)ccc1O
REMARK SMILES IDX 11 1 12 2 13 3 14 4 15 5 16 6 17 7 18 8 10 9 8 10 9 11 7 12
REMARK SMILES IDX 6 14 5 15 4 16 19 17 3 18 20 19 21 20 2 21 1 22 22 23
REMARK H PARENT 7 13 22 24
REMARK Flexibility Score: inf
ROOT
ATOM      1  C   UNL     1     116.629 254.841 339.520  1.00  0.00     0.010 C 
ENDROOT
BRANCH   1   2
ATOM      2  C   UNL     1     116.329 255.103 341.008  1.00  0.00     0.005 C 
BRANCH   2   3
ATOM      3  C   UNL     1     115.638 253.909 341.679  1.00  0.00     0.027 C 
BRANCH   3   4
ATOM      4  C   UNL     1     114.837 254.352 342.873  1.00  0.00    -0.031 C 
ATOM      5  C   UNL     1     113.795 253.640 343.325  1.00  0.00    -0.028 C 
BRANCH   5   6
ATOM      6  C   UNL     1     112.934 254.145 344.459  1.00  0.00     0.005 C 
ATOM      7  C   UNL     1     113.746 255.076 345.368  1.00  0.00     0.012 C 
ATOM      8  C   UNL     1     111.705 254.877 343.913  1.00  0.00     0.012 C 
ENDBRANCH   5   6
ENDBRANCH   3   4
ENDBRANCH   2   3
ENDBRANCH   1   2
BRANCH   1   9
ATOM      9  C   UNL     1     116.723 256.142 338.713  1.00  0.00     0.100 C 
BRANCH   9  10
ATOM     10  C   UNL     1     115.450 256.406 337.961  1.00  0.00     0.220 C 
ATOM     11  O   UNL     1     114.788 255.434 337.505  1.00  0.00    -0.275 OA
ATOM     12  N   UNL     1     114.967 257.747 337.804  1.00  0.00    -0.352 N 
ATOM     13  H   UNL     1     115.561 258.540 338.133  1.00  0.00     0.163 HD
BRANCH  12  14
ATOM     14  C   UNL     1     113.579 258.032 337.452  1.00  0.00     0.151 C 
BRANCH  14  15
ATOM     15  C   UNL     1     113.325 257.627 336.023  1.00  0.00    -0.025 A 
ATOM     16  C   UNL     1     113.977 258.301 334.982  1.00  0.00     0.056 A 
ATOM     17  C   UNL     1     112.389 256.631 335.718  1.00  0.00     0.009 A 
ATOM     18  C   UNL     1     113.702 257.984 333.638  1.00  0.00     0.160 A 
ATOM     19  C   UNL     1     112.120 256.302 334.390  1.00  0.00     0.050 A 
ATOM     20  C   UNL     1     112.765 256.975 333.350  1.00  0.00     0.157 A 
BRANCH  18  21
ATOM     21  O   UNL     1     114.333 258.651 332.576  1.00  0.00    -0.493 OA
ATOM     22  C   UNL     1     115.577 258.264 332.010  1.00  0.00     0.278 C 
ENDBRANCH  18  21
BRANCH  20  23
ATOM     23  O   UNL     1     112.454 256.634 332.034  1.00  0.00    -0.504 OA
ATOM     24  H   UNL     1     112.940 257.042 331.244  1.00  0.00     0.293 HD
ENDBRANCH  20  23
ENDBRANCH  14  15
ENDBRANCH  12  14
ENDBRANCH   9  10
ENDBRANCH   1   9
TORSDOF 10
ENDMDL
MODEL 2
REMARK VINA RESULT:    -5.663      4.240      7.538
REMARK INTER + INTRA:          -9.101
REMARK INTER:                  -8.572
REMARK INTRA:                  -0.529
REMARK UNBOUND:                -0.293
REMARK SMILES COc1cc(CNC(=O)CCCCC=CC(C)C)ccc1O
REMARK SMILES IDX 11 1 12 2 13 3 14 4 15 5 16 6 17 7 18 8 10 9 8 10 9 11 7 12
REMARK SMILES IDX 6 14 5 15 4 16 19 17 3 18 20 19 21 20 2 21 1 22 22 23
REMARK H PARENT 7 13 22 24
REMARK Flexibility Score: inf
ROOT
ATOM      1  C   UNL     1     115.252 256.136 346.266  1.00  0.00     0.010 C 
ENDROOT
BRANCH   1   2
ATOM      2  C   UNL     1     115.327 257.658 346.491  1.00  0.00     0.005 C 
BRANCH   2   3
ATOM      3  C   UNL     1     116.634 258.079 347.174  1.00  0.00     0.027 C 
BRANCH   3   4
ATOM      4  C   UNL     1     116.393 258.459 348.609  1.00  0.00    -0.031 C 
ATOM      5  C   UNL     1     116.680 257.622 349.616  1.00  0.00    -0.028 C 
BRANCH   5   6
ATOM      6  C   UNL     1     116.338 257.971 351.047  1.00  0.00     0.005 C 
ATOM      7  C   UNL     1     115.495 256.857 351.679  1.00  0.00     0.012 C 
ATOM      8  C   UNL     1     117.615 258.198 351.862  1.00  0.00     0.012 C 
ENDBRANCH   5   6
ENDBRANCH   3   4
ENDBRANCH   2   3
ENDBRANCH   1   2
BRANCH   1   9
ATOM      9  C   UNL     1     113.946 255.718 345.578  1.00  0.00     0.100 C 
BRANCH   9  10
ATOM     10  C   UNL     1     114.184 254.610 344.593  1.00  0.00     0.220 C 
ATOM     11  O   UNL     1     113.502 253.552 344.676  1.00  0.00    -0.275 OA
ATOM     12  N   UNL     1     115.144 254.770 343.539  1.00  0.00    -0.352 N 
ATOM     13  H   UNL     1     115.742 255.626 343.527  1.00  0.00     0.163 HD
BRANCH  12  14
ATOM     14  C   UNL     1     115.133 253.925 342.349  1.00  0.00     0.151 C 
BRANCH  14  15
ATOM     15  C   UNL     1     116.207 254.378 341.395  1.00  0.00    -0.025 A 
ATOM     16  C   UNL     1     115.865 255.149 340.275  1.00  0.00     0.056 A 
ATOM     17  C   UNL     1     117.538 253.978 341.575  1.00  0.00     0.009 A 
ATOM     18  C   UNL     1     116.844 255.524 339.336  1.00  0.00     0.160 A 
ATOM     19  C   UNL     1     118.516 254.358 340.655  1.00  0.00     0.050 A 
ATOM     20  C   UNL     1     118.177 255.121 339.536  1.00  0.00     0.157 A 
BRANCH  18  21
ATOM     21  O   UNL     1     116.526 256.286 338.201  1.00  0.00    -0.493 OA
ATOM     22  C   UNL     1     115.204 256.539 337.747  1.00  0.00     0.278 C 
ENDBRANCH  18  21
BRANCH  20  23
ATOM     23  O   UNL     1     119.178 255.462 338.628  1.00  0.00    -0.504 OA
ATOM     24  H   UNL     1     119.549 254.794 337.962  1.00  0.00     0.293 HD
ENDBRANCH  20  23
ENDBRANCH  14  15
ENDBRANCH  12  14
ENDBRANCH   9  10
ENDBRANCH   1   9
TORSDOF 10
ENDMDL
MODEL 3
REMARK VINA RESULT:    -5.635      3.072      9.281
REMARK INTER + INTRA:          -9.058
REMARK INTER:                  -8.470
REMARK INTRA:                  -0.589
REMARK UNBOUND:                -0.293
REMARK SMILES COc1cc(CNC(=O)CCCCC=CC(C)C)ccc1O
REMARK SMILES IDX 11 1 12 2 13 3 14 4 15 5 16 6 17 7 18 8 10 9 8 10 9 11 7 12
REMARK SMILES IDX 6 14 5 15 4 16 19 17 3 18 20 19 21 20 2 21 1 22 22 23
REMARK H PARENT 7 13 22 24
REMARK Flexibility Score: inf
ROOT
ATOM      1  C   UNL     1     115.155 256.177 337.699  1.00  0.00     0.010 C 
ENDROOT
BRANCH   1   2
ATOM      2  C   UNL     1     114.321 257.459 337.515  1.00  0.00     0.005 C 
BRANCH   2   3
ATOM      3  C   UNL     1     113.009 257.195 336.766  1.00  0.00     0.027 C 
BRANCH   3   4
ATOM      4  C   UNL     1     113.149 257.520 335.304  1.00  0.00    -0.031 C 
ATOM      5  C   UNL     1     113.286 256.559 334.380  1.00  0.00    -0.028 C 
BRANCH   5   6
ATOM      6  C   UNL     1     113.529 256.899 332.927  1.00  0.00     0.005 C 
ATOM      7  C   UNL     1     113.670 258.416 332.753  1.00  0.00     0.012 C 
ATOM      8  C   UNL     1     114.785 256.188 332.415  1.00  0.00     0.012 C 
ENDBRANCH   5   6
ENDBRANCH   3   4
ENDBRANCH   2   3
ENDBRANCH   1   2
BRANCH   1   9
ATOM      9  C   UNL     1     116.481 256.448 338.420  1.00  0.00     0.100 C 
BRANCH   9  10
ATOM     10  C   UNL     1     116.807 255.347 339.387  1.00  0.00     0.220 C 
ATOM     11  O   UNL     1     117.929 254.776 339.319  1.00  0.00    -0.275 OA
ATOM     12  N   UNL     1     115.870 254.980 340.410  1.00  0.00    -0.352 N 
ATOM     13  H   UNL     1     114.924 255.420 340.410  1.00  0.00     0.163 HD
BRANCH  12  14
ATOM     14  C   UNL     1     116.274 254.226 341.593  1.00  0.00     0.151 C 
BRANCH  14  15
ATOM     15  C   UNL     1     115.125 254.152 342.564  1.00  0.00    -0.025 A 
ATOM     16  C   UNL     1     115.079 255.026 343.659  1.00  0.00     0.056 A 
ATOM     17  C   UNL     1     114.136 253.170 342.426  1.00  0.00     0.009 A 
ATOM     18  C   UNL     1     114.050 254.927 344.615  1.00  0.00     0.160 A 
ATOM     19  C   UNL     1     113.105 253.074 343.362  1.00  0.00     0.050 A 
ATOM     20  C   UNL     1     113.060 253.940 344.456  1.00  0.00     0.157 A 
BRANCH  18  21
ATOM     21  O   UNL     1     113.987 255.783 345.725  1.00  0.00    -0.493 OA
ATOM     22  C   UNL     1     115.120 256.343 346.374  1.00  0.00     0.278 C 
ENDBRANCH  18  21
BRANCH  20  23
ATOM     23  O   UNL     1     112.028 253.799 345.382  1.00  0.00    -0.504 OA
ATOM     24  H   UNL     1     112.122 254.109 346.343  1.00  0.00     0.293 HD
ENDBRANCH  20  23
ENDBRANCH  14  15
ENDBRANCH  12  14
ENDBRANCH   9  10
ENDBRANCH   1   9
TORSDOF 10
ENDMDL
MODEL 4
REMARK VINA RESULT:    -4.702      6.056     11.810
REMARK INTER + INTRA:          -7.607
REMARK INTER:                  -7.236
REMARK INTRA:                  -0.370
REMARK UNBOUND:                -0.293
REMARK SMILES COc1cc(CNC(=O)CCCCC=CC(C)C)ccc1O
REMARK SMILES IDX 11 1 12 2 13 3 14 4 15 5 16 6 17 7 18 8 10 9 8 10 9 11 7 12
REMARK SMILES IDX 6 14 5 15 4 16 19 17 3 18 20 19 21 20 2 21 1 22 22 23
REMARK H PARENT 7 13 22 24
REMARK Flexibility Score: inf
ROOT
ATOM      1  C   UNL     1     113.629 253.571 343.967  1.00  0.00     0.010 C 
ENDROOT
BRANCH   1   2
ATOM      2  C   UNL     1     114.367 253.522 342.615  1.00  0.00     0.005 C 
BRANCH   2   3
ATOM      3  C   UNL     1     115.498 254.554 342.535  1.00  0.00     0.027 C 
BRANCH   3   4
ATOM      4  C   UNL     1     116.059 254.630 341.141  1.00  0.00    -0.031 C 
ATOM      5  C   UNL     1     117.368 254.811 340.918  1.00  0.00    -0.028 C 
BRANCH   5   6
ATOM      6  C   UNL     1     117.908 254.991 339.518  1.00  0.00     0.005 C 
ATOM      7  C   UNL     1     116.906 255.773 338.660  1.00  0.00     0.012 C 
ATOM      8  C   UNL     1     119.256 255.716 339.552  1.00  0.00     0.012 C 
ENDBRANCH   5   6
ENDBRANCH   3   4
ENDBRANCH   2   3
ENDBRANCH   1   2
BRANCH   1   9
ATOM      9  C   UNL     1     114.529 254.080 345.098  1.00  0.00     0.100 C 
BRANCH   9  10
ATOM     10  C   UNL     1     114.319 255.548 345.339  1.00  0.00     0.220 C 
ATOM     11  O   UNL     1     113.187 256.055 345.115  1.00  0.00    -0.275 OA
ATOM     12  N   UNL     1     115.383 256.355 345.863  1.00  0.00    -0.352 N 
ATOM     13  H   UNL     1     116.329 255.931 345.981  1.00  0.00     0.163 HD
BRANCH  12  14
ATOM     14  C   UNL     1     115.133 257.654 346.482  1.00  0.00     0.151 C 
BRANCH  14  15
ATOM     15  C   UNL     1     115.911 257.761 347.767  1.00  0.00    -0.025 A 
ATOM     16  C   UNL     1     115.276 258.217 348.930  1.00  0.00     0.056 A 
ATOM     17  C   UNL     1     117.283 257.479 347.797  1.00  0.00     0.009 A 
ATOM     18  C   UNL     1     116.002 258.389 350.125  1.00  0.00     0.160 A 
ATOM     19  C   UNL     1     118.006 257.634 348.980  1.00  0.00     0.050 A 
ATOM     20  C   UNL     1     117.377 258.093 350.140  1.00  0.00     0.157 A 
BRANCH  18  21
ATOM     21  O   UNL     1     115.392 258.853 351.300  1.00  0.00    -0.493 OA
ATOM     22  C   UNL     1     114.432 258.122 352.051  1.00  0.00     0.278 C 
ENDBRANCH  18  21
BRANCH  20  23
ATOM     23  O   UNL     1     118.138 258.257 351.296  1.00  0.00    -0.504 OA
ATOM     24  H   UNL     1     118.102 259.108 351.846  1.00  0.00     0.293 HD
ENDBRANCH  20  23
ENDBRANCH  14  15
ENDBRANCH  12  14
ENDBRANCH   9  10
ENDBRANCH   1   9
TORSDOF 10
ENDMDL
MODEL 5
REMARK VINA RESULT:    -4.465      2.265      3.783
REMARK INTER + INTRA:          -7.237
REMARK INTER:                  -6.735
REMARK INTRA:                  -0.502
REMARK UNBOUND:                -0.293
REMARK SMILES COc1cc(CNC(=O)CCCCC=CC(C)C)ccc1O
REMARK SMILES IDX 11 1 12 2 13 3 14 4 15 5 16 6 17 7 18 8 10 9 8 10 9 11 7 12
REMARK SMILES IDX 6 14 5 15 4 16 19 17 3 18 20 19 21 20 2 21 1 22 22 23
REMARK H PARENT 7 13 22 24
REMARK Flexibility Score: inf
ROOT
ATOM      1  C   UNL     1     115.064 254.989 342.786  1.00  0.00     0.010 C 
ENDROOT
BRANCH   1   2
ATOM      2  C   UNL     1     114.108 254.095 343.598  1.00  0.00     0.005 C 
BRANCH   2   3
ATOM      3  C   UNL     1     113.789 254.689 344.975  1.00  0.00     0.027 C 
BRANCH   3   4
ATOM      4  C   UNL     1     114.928 255.535 345.475  1.00  0.00    -0.031 C 
ATOM      5  C   UNL     1     114.716 256.688 346.125  1.00  0.00    -0.028 C 
BRANCH   5   6
ATOM      6  C   UNL     1     115.866 257.581 346.531  1.00  0.00     0.005 C 
ATOM      7  C   UNL     1     115.348 258.977 346.902  1.00  0.00     0.012 C 
ATOM      8  C   UNL     1     116.629 256.968 347.709  1.00  0.00     0.012 C 
ENDBRANCH   5   6
ENDBRANCH   3   4
ENDBRANCH   2   3
ENDBRANCH   1   2
BRANCH   1   9
ATOM      9  C   UNL     1     116.019 254.168 341.911  1.00  0.00     0.100 C 
BRANCH   9  10
ATOM     10  C   UNL     1     116.545 254.988 340.767  1.00  0.00     0.220 C 
ATOM     11  O   UNL     1     117.771 255.284 340.731  1.00  0.00    -0.275 OA
ATOM     12  N   UNL     1     115.672 255.389 339.702  1.00  0.00    -0.352 N 
ATOM     13  H   UNL     1     114.651 255.189 339.783  1.00  0.00     0.163 HD
BRANCH  12  14
ATOM     14  C   UNL     1     116.185 255.822 338.405  1.00  0.00     0.151 C 
BRANCH  14  15
ATOM     15  C   UNL     1     115.093 256.519 337.636  1.00  0.00    -0.025 A 
ATOM     16  C   UNL     1     114.590 255.942 336.462  1.00  0.00     0.056 A 
ATOM     17  C   UNL     1     114.624 257.775 338.042  1.00  0.00     0.009 A 
ATOM     18  C   UNL     1     113.619 256.611 335.692  1.00  0.00     0.160 A 
ATOM     19  C   UNL     1     113.652 258.438 337.292  1.00  0.00     0.050 A 
ATOM     20  C   UNL     1     113.152 257.868 336.119  1.00  0.00     0.157 A 
BRANCH  18  21
ATOM     21  O   UNL     1     113.107 256.060 334.507  1.00  0.00    -0.493 OA
ATOM     22  C   UNL     1     113.458 256.496 333.201  1.00  0.00     0.278 C 
ENDBRANCH  18  21
BRANCH  20  23
ATOM     23  O   UNL     1     112.199 258.570 335.384  1.00  0.00    -0.504 OA
ATOM     24  H   UNL     1     111.378 258.977 335.818  1.00  0.00     0.293 HD
ENDBRANCH  20  23
ENDBRANCH  14  15
ENDBRANCH  12  14
ENDBRANCH   9  10
ENDBRANCH   1   9
TORSDOF 10
ENDMDL
MODEL 6
REMARK VINA RESULT:    -3.574      1.937      2.831
REMARK INTER + INTRA:          -5.852
REMARK INTER:                  -5.263
REMARK INTRA:                  -0.589
REMARK UNBOUND:                -0.293
REMARK SMILES COc1cc(CNC(=O)CCCCC=CC(C)C)ccc1O
REMARK SMILES IDX 11 1 12 2 13 3 14 4 15 5 16 6 17 7 18 8 10 9 8 10 9 11 7 12
REMARK SMILES IDX 6 14 5 15 4 16 19 17 3 18 20 19 21 20 2 21 1 22 22 23
REMARK H PARENT 7 13 22 24
REMARK Flexibility Score: inf
ROOT
ATOM      1  C   UNL     1     117.236 253.966 341.273  1.00  0.00     0.010 C 
ENDROOT
BRANCH   1   2
ATOM      2  C   UNL     1     115.891 254.275 341.958  1.00  0.00     0.005 C 
BRANCH   2   3
ATOM      3  C   UNL     1     115.077 253.006 342.235  1.00  0.00     0.027 C 
BRANCH   3   4
ATOM      4  C   UNL     1     114.134 253.212 343.390  1.00  0.00    -0.031 C 
ATOM      5  C   UNL     1     113.011 253.932 343.261  1.00  0.00    -0.028 C 
BRANCH   5   6
ATOM      6  C   UNL     1     112.124 254.220 344.450  1.00  0.00     0.005 C 
ATOM      7  C   UNL     1     112.971 254.673 345.646  1.00  0.00     0.012 C 
ATOM      8  C   UNL     1     111.088 255.291 344.098  1.00  0.00     0.012 C 
ENDBRANCH   5   6
ENDBRANCH   3   4
ENDBRANCH   2   3
ENDBRANCH   1   2
BRANCH   1   9
ATOM      9  C   UNL     1     117.985 255.241 340.870  1.00  0.00     0.100 C 
BRANCH   9  10
ATOM     10  C   UNL     1     117.732 255.586 339.430  1.00  0.00     0.220 C 
ATOM     11  O   UNL     1     118.705 255.657 338.631  1.00  0.00    -0.275 OA
ATOM     12  N   UNL     1     116.393 255.786 338.958  1.00  0.00    -0.352 N 
ATOM     13  H   UNL     1     115.609 255.786 339.647  1.00  0.00     0.163 HD
BRANCH  12  14
ATOM     14  C   UNL     1     116.057 255.723 337.539  1.00  0.00     0.151 C 
BRANCH  14  15
ATOM     15  C   UNL     1     114.793 256.502 337.282  1.00  0.00    -0.025 A 
ATOM     16  C   UNL     1     113.970 256.158 336.201  1.00  0.00     0.056 A 
ATOM     17  C   UNL     1     114.467 257.614 338.069  1.00  0.00     0.009 A 
ATOM     18  C   UNL     1     112.821 256.916 335.903  1.00  0.00     0.160 A 
ATOM     19  C   UNL     1     113.323 258.362 337.788  1.00  0.00     0.050 A 
ATOM     20  C   UNL     1     112.504 258.025 336.709  1.00  0.00     0.157 A 
BRANCH  18  21
ATOM     21  O   UNL     1     111.987 256.599 334.821  1.00  0.00    -0.493 OA
ATOM     22  C   UNL     1     112.386 256.643 333.458  1.00  0.00     0.278 C 
ENDBRANCH  18  21
BRANCH  20  23
ATOM     23  O   UNL     1     111.382 258.809 336.446  1.00  0.00    -0.504 OA
ATOM     24  H   UNL     1     110.489 258.637 336.894  1.00  0.00     0.293 HD
ENDBRANCH  20  23
ENDBRANCH  14  15
ENDBRANCH  12  14
ENDBRANCH   9  10
ENDBRANCH   1   9
TORSDOF 10
ENDMDL
MODEL 7
REMARK VINA RESULT:    -2.936      2.204      8.776
REMARK INTER + INTRA:          -4.860
REMARK INTER:                  -5.251
REMARK INTRA:                   0.391
REMARK UNBOUND:                -0.293
REMARK SMILES COc1cc(CNC(=O)CCCCC=CC(C)C)ccc1O
REMARK SMILES IDX 11 1 12 2 13 3 14 4 15 5 16 6 17 7 18 8 10 9 8 10 9 11 7 12
REMARK SMILES IDX 6 14 5 15 4 16 19 17 3 18 20 19 21 20 2 21 1 22 22 23
REMARK H PARENT 7 13 22 24
REMARK Flexibility Score: inf
ROOT
ATOM      1  C   UNL     1     112.164 258.037 335.891  1.00  0.00     0.010 C 
ENDROOT
BRANCH   1   2
ATOM      2  C   UNL     1     113.203 259.115 336.255  1.00  0.00     0.005 C 
BRANCH   2   3
ATOM      3  C   UNL     1     114.395 259.120 335.290  1.00  0.00     0.027 C 
BRANCH   3   4
ATOM      4  C   UNL     1     113.941 258.916 333.871  1.00  0.00    -0.031 C 
ATOM      5  C   UNL     1     112.641 258.900 333.543  1.00  0.00    -0.028 C 
BRANCH   5   6
ATOM      6  C   UNL     1     112.192 258.591 332.134  1.00  0.00     0.005 C 
ATOM      7  C   UNL     1     112.243 257.079 331.879  1.00  0.00     0.012 C 
ATOM      8  C   UNL     1     110.775 259.121 331.895  1.00  0.00     0.012 C 
ENDBRANCH   5   6
ENDBRANCH   3   4
ENDBRANCH   2   3
ENDBRANCH   1   2
BRANCH   1   9
ATOM      9  C   UNL     1     112.286 256.794 336.780  1.00  0.00     0.100 C 
BRANCH   9  10
ATOM     10  C   UNL     1     113.671 256.214 336.713  1.00  0.00     0.220 C 
ATOM     11  O   UNL     1     114.040 255.615 335.666  1.00  0.00    -0.275 OA
ATOM     12  N   UNL     1     114.579 256.381 337.810  1.00  0.00    -0.352 N 
ATOM     13  H   UNL     1     114.234 256.823 338.690  1.00  0.00     0.163 HD
BRANCH  12  14
ATOM     14  C   UNL     1     116.020 256.204 337.653  1.00  0.00     0.151 C 
BRANCH  14  15
ATOM     15  C   UNL     1     116.575 255.476 338.850  1.00  0.00    -0.025 A 
ATOM     16  C   UNL     1     115.716 255.078 339.884  1.00  0.00     0.056 A 
ATOM     17  C   UNL     1     117.952 255.254 338.976  1.00  0.00     0.009 A 
ATOM     18  C   UNL     1     116.224 254.458 341.041  1.00  0.00     0.160 A 
ATOM     19  C   UNL     1     118.462 254.629 340.114  1.00  0.00     0.050 A 
ATOM     20  C   UNL     1     117.609 254.236 341.148  1.00  0.00     0.157 A 
BRANCH  18  21
ATOM     21  O   UNL     1     115.387 254.060 342.095  1.00  0.00    -0.493 OA
ATOM     22  C   UNL     1     114.832 254.944 343.058  1.00  0.00     0.278 C 
ENDBRANCH  18  21
BRANCH  20  23
ATOM     23  O   UNL     1     118.158 253.634 342.279  1.00  0.00    -0.504 OA
ATOM     24  H   UNL     1     118.973 254.013 342.748  1.00  0.00     0.293 HD
ENDBRANCH  20  23
ENDBRANCH  14  15
ENDBRANCH  12  14
ENDBRANCH   9  10
ENDBRANCH   1   9
TORSDOF 10
ENDMDL
MODEL 8
REMARK VINA RESULT:    -2.843      6.050      9.121
REMARK INTER + INTRA:          -4.715
REMARK INTER:                  -3.708
REMARK INTRA:                  -1.007
REMARK UNBOUND:                -0.293
REMARK SMILES COc1cc(CNC(=O)CCCCC=CC(C)C)ccc1O
REMARK SMILES IDX 11 1 12 2 13 3 14 4 15 5 16 6 17 7 18 8 10 9 8 10 9 11 7 12
REMARK SMILES IDX 6 14 5 15 4 16 19 17 3 18 20 19 21 20 2 21 1 22 22 23
REMARK H PARENT 7 13 22 24
REMARK Flexibility Score: inf
ROOT
ATOM      1  C   UNL     1     117.306 259.002 347.458  1.00  0.00     0.010 C 
ENDROOT
BRANCH   1   2
ATOM      2  C   UNL     1     117.995 257.625 347.486  1.00  0.00     0.005 C 
BRANCH   2   3
ATOM      3  C   UNL     1     117.647 256.827 348.748  1.00  0.00     0.027 C 
BRANCH   3   4
ATOM      4  C   UNL     1     116.964 257.700 349.766  1.00  0.00    -0.031 C 
ATOM      5  C   UNL     1     115.882 257.283 350.438  1.00  0.00    -0.028 C 
BRANCH   5   6
ATOM      6  C   UNL     1     115.142 258.204 351.380  1.00  0.00     0.005 C 
ATOM      7  C   UNL     1     116.132 259.108 352.125  1.00  0.00     0.012 C 
ATOM      8  C   UNL     1     114.124 259.052 350.611  1.00  0.00     0.012 C 
ENDBRANCH   5   6
ENDBRANCH   3   4
ENDBRANCH   2   3
ENDBRANCH   1   2
BRANCH   1   9
ATOM      9  C   UNL     1     116.306 259.124 346.302  1.00  0.00     0.100 C 
BRANCH   9  10
ATOM     10  C   UNL     1     115.065 258.322 346.572  1.00  0.00     0.220 C 
ATOM     11  O   UNL     1     114.097 258.863 347.171  1.00  0.00    -0.275 OA
ATOM     12  N   UNL     1     114.965 256.967 346.110  1.00  0.00    -0.352 N 
ATOM     13  H   UNL     1     115.800 256.518 345.674  1.00  0.00     0.163 HD
BRANCH  12  14
ATOM     14  C   UNL     1     113.679 256.287 345.985  1.00  0.00     0.151 C 
BRANCH  14  15
ATOM     15  C   UNL     1     113.784 255.188 344.960  1.00  0.00    -0.025 A 
ATOM     16  C   UNL     1     114.815 255.216 344.011  1.00  0.00     0.056 A 
ATOM     17  C   UNL     1     112.820 254.173 344.900  1.00  0.00     0.009 A 
ATOM     18  C   UNL     1     114.890 254.236 343.003  1.00  0.00     0.160 A 
ATOM     19  C   UNL     1     112.895 253.191 343.912  1.00  0.00     0.050 A 
ATOM     20  C   UNL     1     113.918 253.219 342.962  1.00  0.00     0.157 A 
BRANCH  18  21
ATOM     21  O   UNL     1     115.905 254.247 342.035  1.00  0.00    -0.493 OA
ATOM     22  C   UNL     1     116.098 255.286 341.085  1.00  0.00     0.278 C 
ENDBRANCH  18  21
BRANCH  20  23
ATOM     23  O   UNL     1     113.947 252.233 341.977  1.00  0.00    -0.504 OA
ATOM     24  H   UNL     1     114.007 251.248 342.205  1.00  0.00     0.293 HD
ENDBRANCH  20  23
ENDBRANCH  14  15
ENDBRANCH  12  14
ENDBRANCH   9  10
ENDBRANCH   1   9
TORSDOF 10
ENDMDL
