MODEL 1
REMARK VINA RESULT:    -3.948      0.000      0.000
REMARK INTER + INTRA:          -4.246
REMARK INTER:                  -4.179
REMARK INTRA:                  -0.067
REMARK UNBOUND:                -0.067
REMARK SMILES CC(=O)c1cccc(C)c1
REMARK SMILES IDX 9 1 8 2 10 3 4 4 5 5 6 6 7 7 2 8 3 9 1 10
REMARK H PARENT
REMARK Flexibility Score: inf
ROOT
ATOM      1  C   UNL     1     169.098 185.545  30.263  1.00  0.00     0.044 C 
ATOM      2  C   UNL     1     170.135 185.532  31.349  1.00  0.00    -0.050 A 
ATOM      3  C   UNL     1     170.980 184.421  31.505  1.00  0.00     0.015 A 
ATOM      4  C   UNL     1     171.933 184.382  32.543  1.00  0.00     0.017 A 
ATOM      5  C   UNL     1     172.013 185.474  33.429  1.00  0.00     0.012 A 
ATOM      6  C   UNL     1     171.160 186.570  33.285  1.00  0.00     0.001 A 
ATOM      7  C   UNL     1     170.221 186.599  32.254  1.00  0.00     0.003 A 
ENDROOT
BRANCH   4   8
ATOM      8  C   UNL     1     172.842 183.217  32.717  1.00  0.00     0.159 C 
ATOM      9  O   UNL     1     173.930 183.172  32.083  1.00  0.00    -0.295 OA
ATOM     10  C   UNL     1     172.505 182.078  33.634  1.00  0.00     0.093 C 
ENDBRANCH   4   8
TORSDOF 1
ENDMDL
MODEL 2
REMARK VINA RESULT:    -3.802      2.492      4.382
REMARK INTER + INTRA:          -4.091
REMARK INTER:                  -4.022
REMARK INTRA:                  -0.069
REMARK UNBOUND:                -0.067
REMARK SMILES CC(=O)c1cccc(C)c1
REMARK SMILES IDX 9 1 8 2 10 3 4 4 5 5 6 6 7 7 2 8 3 9 1 10
REMARK H PARENT
REMARK Flexibility Score: inf
ROOT
ATOM      1  C   UNL     1     172.384 183.853  32.216  1.00  0.00     0.044 C 
ATOM      2  C   UNL     1     171.375 184.964  32.270  1.00  0.00    -0.050 A 
ATOM      3  C   UNL     1     170.218 184.905  31.477  1.00  0.00     0.015 A 
ATOM      4  C   UNL     1     169.281 185.958  31.492  1.00  0.00     0.017 A 
ATOM      5  C   UNL     1     169.534 187.077  32.308  1.00  0.00     0.012 A 
ATOM      6  C   UNL     1     170.694 187.143  33.084  1.00  0.00     0.001 A 
ATOM      7  C   UNL     1     171.615 186.096  33.061  1.00  0.00     0.003 A 
ENDROOT
BRANCH   4   8
ATOM      8  C   UNL     1     168.045 185.908  30.664  1.00  0.00     0.159 C 
ATOM      9  O   UNL     1     167.145 185.067  30.934  1.00  0.00    -0.295 OA
ATOM     10  C   UNL     1     167.829 186.834  29.504  1.00  0.00     0.093 C 
ENDBRANCH   4   8
TORSDOF 1
ENDMDL
MODEL 3
REMARK VINA RESULT:    -3.716      1.258      2.320
REMARK INTER + INTRA:          -4.000
REMARK INTER:                  -3.928
REMARK INTRA:                  -0.072
REMARK UNBOUND:                -0.067
REMARK SMILES CC(=O)c1cccc(C)c1
REMARK SMILES IDX 9 1 8 2 10 3 4 4 5 5 6 6 7 7 2 8 3 9 1 10
REMARK H PARENT
REMARK Flexibility Score: inf
ROOT
ATOM      1  C   UNL     1     170.190 188.142  33.170  1.00  0.00     0.044 C 
ATOM      2  C   UNL     1     170.461 186.757  32.657  1.00  0.00    -0.050 A 
ATOM      3  C   UNL     1     171.449 185.962  33.259  1.00  0.00     0.015 A 
ATOM      4  C   UNL     1     171.738 184.674  32.764  1.00  0.00     0.017 A 
ATOM      5  C   UNL     1     171.025 184.205  31.644  1.00  0.00     0.012 A 
ATOM      6  C   UNL     1     170.055 185.004  31.033  1.00  0.00     0.001 A 
ATOM      7  C   UNL     1     169.777 186.276  31.532  1.00  0.00     0.003 A 
ENDROOT
BRANCH   4   8
ATOM      8  C   UNL     1     172.775 183.815  33.397  1.00  0.00     0.159 C 
ATOM      9  O   UNL     1     172.774 183.650  34.646  1.00  0.00    -0.295 OA
ATOM     10  C   UNL     1     173.837 183.128  32.589  1.00  0.00     0.093 C 
ENDBRANCH   4   8
TORSDOF 1
ENDMDL
MODEL 4
REMARK VINA RESULT:    -3.714     21.850     22.527
REMARK INTER + INTRA:          -3.998
REMARK INTER:                  -3.921
REMARK INTRA:                  -0.077
REMARK UNBOUND:                -0.067
REMARK SMILES CC(=O)c1cccc(C)c1
REMARK SMILES IDX 9 1 8 2 10 3 4 4 5 5 6 6 7 7 2 8 3 9 1 10
REMARK H PARENT
REMARK Flexibility Score: inf
ROOT
ATOM      1  C   UNL     1     161.949 171.729  14.899  1.00  0.00     0.044 C 
ATOM      2  C   UNL     1     162.795 170.953  15.867  1.00  0.00    -0.050 A 
ATOM      3  C   UNL     1     162.293 170.622  17.135  1.00  0.00     0.015 A 
ATOM      4  C   UNL     1     163.091 169.925  18.066  1.00  0.00     0.017 A 
ATOM      5  C   UNL     1     164.407 169.580  17.703  1.00  0.00     0.012 A 
ATOM      6  C   UNL     1     164.913 169.927  16.448  1.00  0.00     0.001 A 
ATOM      7  C   UNL     1     164.115 170.616  15.535  1.00  0.00     0.003 A 
ENDROOT
BRANCH   4   8
ATOM      8  C   UNL     1     162.571 169.557  19.411  1.00  0.00     0.159 C 
ATOM      9  O   UNL     1     163.286 168.876  20.194  1.00  0.00    -0.295 OA
ATOM     10  C   UNL     1     161.206 169.974  19.874  1.00  0.00     0.093 C 
ENDBRANCH   4   8
TORSDOF 1
ENDMDL
MODEL 5
REMARK VINA RESULT:    -3.539      2.021      2.971
REMARK INTER + INTRA:          -3.813
REMARK INTER:                  -3.746
REMARK INTRA:                  -0.067
REMARK UNBOUND:                -0.067
REMARK SMILES CC(=O)c1cccc(C)c1
REMARK SMILES IDX 9 1 8 2 10 3 4 4 5 5 6 6 7 7 2 8 3 9 1 10
REMARK H PARENT
REMARK Flexibility Score: inf
ROOT
ATOM      1  C   UNL     1     166.473 184.728  33.020  1.00  0.00     0.044 C 
ATOM      2  C   UNL     1     167.707 184.950  32.194  1.00  0.00    -0.050 A 
ATOM      3  C   UNL     1     168.977 184.717  32.746  1.00  0.00     0.015 A 
ATOM      4  C   UNL     1     170.144 184.956  31.991  1.00  0.00     0.017 A 
ATOM      5  C   UNL     1     170.012 185.445  30.678  1.00  0.00     0.012 A 
ATOM      6  C   UNL     1     168.749 185.694  30.136  1.00  0.00     0.001 A 
ATOM      7  C   UNL     1     167.601 185.454  30.891  1.00  0.00     0.003 A 
ENDROOT
BRANCH   4   8
ATOM      8  C   UNL     1     171.497 184.705  32.558  1.00  0.00     0.159 C 
ATOM      9  O   UNL     1     172.039 185.575  33.292  1.00  0.00    -0.295 OA
ATOM     10  C   UNL     1     172.250 183.437  32.282  1.00  0.00     0.093 C 
ENDBRANCH   4   8
TORSDOF 1
ENDMDL
MODEL 6
REMARK VINA RESULT:    -3.481      2.104      3.929
REMARK INTER + INTRA:          -3.751
REMARK INTER:                  -3.673
REMARK INTRA:                  -0.078
REMARK UNBOUND:                -0.067
REMARK SMILES CC(=O)c1cccc(C)c1
REMARK SMILES IDX 9 1 8 2 10 3 4 4 5 5 6 6 7 7 2 8 3 9 1 10
REMARK H PARENT
REMARK Flexibility Score: inf
ROOT
ATOM      1  C   UNL     1     173.768 183.145  32.653  1.00  0.00     0.044 C 
ATOM      2  C   UNL     1     172.440 183.742  33.022  1.00  0.00    -0.050 A 
ATOM      3  C   UNL     1     171.547 184.150  32.018  1.00  0.00     0.015 A 
ATOM      4  C   UNL     1     170.313 184.744  32.352  1.00  0.00     0.017 A 
ATOM      5  C   UNL     1     169.998 184.933  33.711  1.00  0.00     0.012 A 
ATOM      6  C   UNL     1     170.896 184.544  34.709  1.00  0.00     0.001 A 
ATOM      7  C   UNL     1     172.114 183.957  34.368  1.00  0.00     0.003 A 
ENDROOT
BRANCH   4   8
ATOM      8  C   UNL     1     169.350 185.173  31.301  1.00  0.00     0.159 C 
ATOM      9  O   UNL     1     169.740 185.302  30.109  1.00  0.00    -0.295 OA
ATOM     10  C   UNL     1     167.911 185.461  31.613  1.00  0.00     0.093 C 
ENDBRANCH   4   8
TORSDOF 1
ENDMDL
MODEL 7
REMARK VINA RESULT:    -3.461     21.216     22.707
REMARK INTER + INTRA:          -3.730
REMARK INTER:                  -3.656
REMARK INTRA:                  -0.074
REMARK UNBOUND:                -0.067
REMARK SMILES CC(=O)c1cccc(C)c1
REMARK SMILES IDX 9 1 8 2 10 3 4 4 5 5 6 6 7 7 2 8 3 9 1 10
REMARK H PARENT
REMARK Flexibility Score: inf
ROOT
ATOM      1  C   UNL     1     165.025 170.465  15.539  1.00  0.00     0.044 C 
ATOM      2  C   UNL     1     163.625 170.502  16.082  1.00  0.00    -0.050 A 
ATOM      3  C   UNL     1     163.404 170.443  17.467  1.00  0.00     0.015 A 
ATOM      4  C   UNL     1     162.093 170.441  17.986  1.00  0.00     0.017 A 
ATOM      5  C   UNL     1     161.009 170.486  17.088  1.00  0.00     0.012 A 
ATOM      6  C   UNL     1     161.231 170.526  15.709  1.00  0.00     0.001 A 
ATOM      7  C   UNL     1     162.531 170.528  15.206  1.00  0.00     0.003 A 
ENDROOT
BRANCH   4   8
ATOM      8  C   UNL     1     161.840 170.388  19.452  1.00  0.00     0.159 C 
ATOM      9  O   UNL     1     162.541 169.636  20.181  1.00  0.00    -0.295 OA
ATOM     10  C   UNL     1     160.767 171.210  20.102  1.00  0.00     0.093 C 
ENDBRANCH   4   8
TORSDOF 1
ENDMDL
MODEL 8
REMARK VINA RESULT:    -3.460     17.499     18.949
REMARK INTER + INTRA:          -3.729
REMARK INTER:                  -3.653
REMARK INTRA:                  -0.076
REMARK UNBOUND:                -0.067
REMARK SMILES CC(=O)c1cccc(C)c1
REMARK SMILES IDX 9 1 8 2 10 3 4 4 5 5 6 6 7 7 2 8 3 9 1 10
REMARK H PARENT
REMARK Flexibility Score: inf
ROOT
ATOM      1  C   UNL     1     157.004 175.213  20.997  1.00  0.00     0.044 C 
ATOM      2  C   UNL     1     158.046 174.486  21.798  1.00  0.00    -0.050 A 
ATOM      3  C   UNL     1     158.063 174.596  23.198  1.00  0.00     0.015 A 
ATOM      4  C   UNL     1     159.058 173.948  23.958  1.00  0.00     0.017 A 
ATOM      5  C   UNL     1     160.043 173.199  23.285  1.00  0.00     0.012 A 
ATOM      6  C   UNL     1     160.036 173.106  21.892  1.00  0.00     0.001 A 
ATOM      7  C   UNL     1     159.047 173.751  21.149  1.00  0.00     0.003 A 
ENDROOT
BRANCH   4   8
ATOM      8  C   UNL     1     159.085 174.047  25.443  1.00  0.00     0.159 C 
ATOM      9  O   UNL     1     159.749 173.210  26.113  1.00  0.00    -0.295 OA
ATOM     10  C   UNL     1     158.341 175.120  26.180  1.00  0.00     0.093 C 
ENDBRANCH   4   8
TORSDOF 1
ENDMDL
MODEL 9
REMARK VINA RESULT:    -3.435     18.088     19.731
REMARK INTER + INTRA:          -3.702
REMARK INTER:                  -3.626
REMARK INTRA:                  -0.076
REMARK UNBOUND:                -0.067
REMARK SMILES CC(=O)c1cccc(C)c1
REMARK SMILES IDX 9 1 8 2 10 3 4 4 5 5 6 6 7 7 2 8 3 9 1 10
REMARK H PARENT
REMARK Flexibility Score: inf
ROOT
ATOM      1  C   UNL     1     159.268 174.510  25.050  1.00  0.00     0.044 C 
ATOM      2  C   UNL     1     159.171 174.062  23.620  1.00  0.00    -0.050 A 
ATOM      3  C   UNL     1     159.796 172.874  23.209  1.00  0.00     0.015 A 
ATOM      4  C   UNL     1     159.742 172.462  21.862  1.00  0.00     0.017 A 
ATOM      5  C   UNL     1     159.060 173.272  20.933  1.00  0.00     0.012 A 
ATOM      6  C   UNL     1     158.455 174.464  21.340  1.00  0.00     0.001 A 
ATOM      7  C   UNL     1     158.515 174.862  22.675  1.00  0.00     0.003 A 
ENDROOT
BRANCH   4   8
ATOM      8  C   UNL     1     160.390 171.200  21.411  1.00  0.00     0.159 C 
ATOM      9  O   UNL     1     160.478 170.224  22.203  1.00  0.00    -0.295 OA
ATOM     10  C   UNL     1     160.950 171.047  20.027  1.00  0.00     0.093 C 
ENDBRANCH   4   8
TORSDOF 1
ENDMDL
