MODEL 1
REMARK VINA RESULT:    -6.620      0.000      0.000
REMARK INTER + INTRA:          -7.294
REMARK INTER:                  -7.007
REMARK INTRA:                  -0.287
REMARK UNBOUND:                -0.287
REMARK SMILES CC1=CC[C@@]23[C@@H]([C@@H]12)[C@H](C(C)C)CC[C@@H]3C
REMARK SMILES IDX 15 1 14 2 13 3 12 4 8 5 6 6 5 7 7 8 2 9 3 10 4 11 1 12 9 13
REMARK SMILES IDX 10 14 11 15
REMARK H PARENT
REMARK Flexibility Score: inf
ROOT
ATOM      1  C   UNL     1     109.126 113.236 112.646  1.00  0.00     0.008 C 
ATOM      2  C   UNL     1     108.871 111.967 113.479  1.00  0.00    -0.007 C 
ATOM      3  C   UNL     1     109.110 110.708 112.622  1.00  0.00     0.004 C 
ATOM      4  C   UNL     1     110.598 110.378 112.485  1.00  0.00     0.004 C 
ATOM      5  C   UNL     1     111.204 109.968 113.844  1.00  0.00    -0.004 C 
ATOM      6  C   UNL     1     110.926 111.051 114.923  1.00  0.00     0.007 C 
ATOM      7  C   UNL     1     109.721 111.994 114.778  1.00  0.00    -0.013 C 
ATOM      8  C   UNL     1     109.634 110.781 115.703  1.00  0.00     0.025 C 
ATOM      9  C   UNL     1     109.578 111.358 117.076  1.00  0.00    -0.073 C 
ATOM     10  C   UNL     1     109.594 112.683 117.074  1.00  0.00    -0.027 C 
ATOM     11  C   UNL     1     109.670 113.233 115.694  1.00  0.00     0.035 C 
ATOM     12  C   UNL     1     109.521 110.532 118.323  1.00  0.00     0.039 C 
ENDROOT
BRANCH   5  13
ATOM     13  C   UNL     1     112.738 109.684 113.754  1.00  0.00    -0.014 C 
ATOM     14  C   UNL     1     113.597 110.945 113.967  1.00  0.00     0.007 C 
ATOM     15  C   UNL     1     113.105 109.068 112.390  1.00  0.00     0.007 C 
ENDBRANCH   5  13
TORSDOF 1
ENDMDL
MODEL 2
REMARK VINA RESULT:    -6.608      1.829      4.044
REMARK INTER + INTRA:          -7.282
REMARK INTER:                  -7.000
REMARK INTRA:                  -0.282
REMARK UNBOUND:                -0.287
REMARK SMILES CC1=CC[C@@]23[C@@H]([C@@H]12)[C@H](C(C)C)CC[C@@H]3C
REMARK SMILES IDX 15 1 14 2 13 3 12 4 8 5 6 6 5 7 7 8 2 9 3 10 4 11 1 12 9 13
REMARK SMILES IDX 10 14 11 15
REMARK H PARENT
REMARK Flexibility Score: inf
ROOT
ATOM      1  C   UNL     1     113.147 109.031 112.643  1.00  0.00     0.008 C 
ATOM      2  C   UNL     1     113.390 110.317 113.454  1.00  0.00    -0.007 C 
ATOM      3  C   UNL     1     113.150 111.559 112.572  1.00  0.00     0.004 C 
ATOM      4  C   UNL     1     111.661 111.878 112.421  1.00  0.00     0.004 C 
ATOM      5  C   UNL     1     111.046 112.310 113.768  1.00  0.00    -0.004 C 
ATOM      6  C   UNL     1     111.322 111.249 114.869  1.00  0.00     0.007 C 
ATOM      7  C   UNL     1     112.533 110.310 114.748  1.00  0.00    -0.013 C 
ATOM      8  C   UNL     1     112.609 111.540 115.652  1.00  0.00     0.025 C 
ATOM      9  C   UNL     1     112.660 110.988 117.035  1.00  0.00    -0.073 C 
ATOM     10  C   UNL     1     112.650 109.663 117.058  1.00  0.00    -0.027 C 
ATOM     11  C   UNL     1     112.585 109.088 115.687  1.00  0.00     0.035 C 
ATOM     12  C   UNL     1     112.705 111.837 118.267  1.00  0.00     0.039 C 
ENDROOT
BRANCH   5  13
ATOM     13  C   UNL     1     109.511 112.584 113.665  1.00  0.00    -0.014 C 
ATOM     14  C   UNL     1     108.660 111.309 113.815  1.00  0.00     0.007 C 
ATOM     15  C   UNL     1     109.159 113.249 112.319  1.00  0.00     0.007 C 
ENDBRANCH   5  13
TORSDOF 1
ENDMDL
MODEL 3
REMARK VINA RESULT:    -6.572      3.602      6.319
REMARK INTER + INTRA:          -7.244
REMARK INTER:                  -6.960
REMARK INTRA:                  -0.284
REMARK UNBOUND:                -0.287
REMARK SMILES CC1=CC[C@@]23[C@@H]([C@@H]12)[C@H](C(C)C)CC[C@@H]3C
REMARK SMILES IDX 15 1 14 2 13 3 12 4 8 5 6 6 5 7 7 8 2 9 3 10 4 11 1 12 9 13
REMARK SMILES IDX 10 14 11 15
REMARK H PARENT
REMARK Flexibility Score: inf
ROOT
ATOM      1  C   UNL     1     113.222 109.121 107.824  1.00  0.00     0.008 C 
ATOM      2  C   UNL     1     113.418 110.411 108.641  1.00  0.00    -0.007 C 
ATOM      3  C   UNL     1     113.128 111.647 107.767  1.00  0.00     0.004 C 
ATOM      4  C   UNL     1     111.627 111.910 107.621  1.00  0.00     0.004 C 
ATOM      5  C   UNL     1     110.999 112.311 108.972  1.00  0.00    -0.004 C 
ATOM      6  C   UNL     1     111.320 111.255 110.066  1.00  0.00     0.007 C 
ATOM      7  C   UNL     1     112.566 110.364 109.938  1.00  0.00    -0.013 C 
ATOM      8  C   UNL     1     112.597 111.592 110.847  1.00  0.00     0.025 C 
ATOM      9  C   UNL     1     112.673 111.036 112.228  1.00  0.00    -0.073 C 
ATOM     10  C   UNL     1     112.714 109.711 112.244  1.00  0.00    -0.027 C 
ATOM     11  C   UNL     1     112.668 109.140 110.870  1.00  0.00     0.035 C 
ATOM     12  C   UNL     1     112.688 111.879 113.464  1.00  0.00     0.039 C 
ENDROOT
BRANCH   5  13
ATOM     13  C   UNL     1     109.455 112.526 108.874  1.00  0.00    -0.014 C 
ATOM     14  C   UNL     1     108.652 111.223 109.058  1.00  0.00     0.007 C 
ATOM     15  C   UNL     1     109.070 113.148 107.517  1.00  0.00     0.007 C 
ENDBRANCH   5  13
TORSDOF 1
ENDMDL
MODEL 4
REMARK VINA RESULT:    -6.551      3.440      4.865
REMARK INTER + INTRA:          -7.221
REMARK INTER:                  -6.936
REMARK INTRA:                  -0.285
REMARK UNBOUND:                -0.287
REMARK SMILES CC1=CC[C@@]23[C@@H]([C@@H]12)[C@H](C(C)C)CC[C@@H]3C
REMARK SMILES IDX 15 1 14 2 13 3 12 4 8 5 6 6 5 7 7 8 2 9 3 10 4 11 1 12 9 13
REMARK SMILES IDX 10 14 11 15
REMARK H PARENT
REMARK Flexibility Score: inf
ROOT
ATOM      1  C   UNL     1     109.011 113.088 107.817  1.00  0.00     0.008 C 
ATOM      2  C   UNL     1     108.826 111.793 108.629  1.00  0.00    -0.007 C 
ATOM      3  C   UNL     1     109.134 110.564 107.752  1.00  0.00     0.004 C 
ATOM      4  C   UNL     1     110.638 110.318 107.611  1.00  0.00     0.004 C 
ATOM      5  C   UNL     1     111.265 109.920 108.964  1.00  0.00    -0.004 C 
ATOM      6  C   UNL     1     110.928 110.968 110.060  1.00  0.00     0.007 C 
ATOM      7  C   UNL     1     109.673 111.846 109.929  1.00  0.00    -0.013 C 
ATOM      8  C   UNL     1     109.652 110.615 110.835  1.00  0.00     0.025 C 
ATOM      9  C   UNL     1     109.564 111.166 112.217  1.00  0.00    -0.073 C 
ATOM     10  C   UNL     1     109.508 112.490 112.237  1.00  0.00    -0.027 C 
ATOM     11  C   UNL     1     109.553 113.065 110.865  1.00  0.00     0.035 C 
ATOM     12  C   UNL     1     109.553 110.318 113.450  1.00  0.00     0.039 C 
ENDROOT
BRANCH   5  13
ATOM     13  C   UNL     1     112.812 109.722 108.872  1.00  0.00    -0.014 C 
ATOM     14  C   UNL     1     113.599 111.033 109.064  1.00  0.00     0.007 C 
ATOM     15  C   UNL     1     113.209 109.110 107.514  1.00  0.00     0.007 C 
ENDBRANCH   5  13
TORSDOF 1
ENDMDL
MODEL 5
REMARK VINA RESULT:    -6.500      1.586      3.750
REMARK INTER + INTRA:          -7.168
REMARK INTER:                  -6.903
REMARK INTRA:                  -0.264
REMARK UNBOUND:                -0.287
REMARK SMILES CC1=CC[C@@]23[C@@H]([C@@H]12)[C@H](C(C)C)CC[C@@H]3C
REMARK SMILES IDX 15 1 14 2 13 3 12 4 8 5 6 6 5 7 7 8 2 9 3 10 4 11 1 12 9 13
REMARK SMILES IDX 10 14 11 15
REMARK H PARENT
REMARK Flexibility Score: inf
ROOT
ATOM      1  C   UNL     1     113.598 109.407 113.117  1.00  0.00     0.008 C 
ATOM      2  C   UNL     1     113.103 110.816 113.492  1.00  0.00    -0.007 C 
ATOM      3  C   UNL     1     113.151 111.744 112.263  1.00  0.00     0.004 C 
ATOM      4  C   UNL     1     111.962 111.523 111.326  1.00  0.00     0.004 C 
ATOM      5  C   UNL     1     110.638 111.942 111.999  1.00  0.00    -0.004 C 
ATOM      6  C   UNL     1     110.464 111.229 113.369  1.00  0.00     0.007 C 
ATOM      7  C   UNL     1     111.696 110.738 114.146  1.00  0.00    -0.013 C 
ATOM      8  C   UNL     1     111.025 112.055 114.534  1.00  0.00     0.025 C 
ATOM      9  C   UNL     1     110.413 111.787 115.866  1.00  0.00    -0.073 C 
ATOM     10  C   UNL     1     110.649 110.556 116.299  1.00  0.00    -0.027 C 
ATOM     11  C   UNL     1     111.460 109.775 115.326  1.00  0.00     0.035 C 
ATOM     12  C   UNL     1     109.610 112.793 116.629  1.00  0.00     0.039 C 
ENDROOT
BRANCH   5  13
ATOM     13  C   UNL     1     109.394 111.671 111.094  1.00  0.00    -0.014 C 
ATOM     14  C   UNL     1     109.031 110.176 111.002  1.00  0.00     0.007 C 
ATOM     15  C   UNL     1     109.623 112.206 109.667  1.00  0.00     0.007 C 
ENDBRANCH   5  13
TORSDOF 1
ENDMDL
MODEL 6
REMARK VINA RESULT:    -6.476      4.779      7.103
REMARK INTER + INTRA:          -7.142
REMARK INTER:                  -6.878
REMARK INTRA:                  -0.264
REMARK UNBOUND:                -0.287
REMARK SMILES CC1=CC[C@@]23[C@@H]([C@@H]12)[C@H](C(C)C)CC[C@@H]3C
REMARK SMILES IDX 15 1 14 2 13 3 12 4 8 5 6 6 5 7 7 8 2 9 3 10 4 11 1 12 9 13
REMARK SMILES IDX 10 14 11 15
REMARK H PARENT
REMARK Flexibility Score: inf
ROOT
ATOM      1  C   UNL     1     113.639 109.479 108.191  1.00  0.00     0.008 C 
ATOM      2  C   UNL     1     113.119 110.880 108.562  1.00  0.00    -0.007 C 
ATOM      3  C   UNL     1     113.140 111.802 107.326  1.00  0.00     0.004 C 
ATOM      4  C   UNL     1     111.948 111.551 106.400  1.00  0.00     0.004 C 
ATOM      5  C   UNL     1     110.622 111.948 107.081  1.00  0.00    -0.004 C 
ATOM      6  C   UNL     1     110.472 111.240 108.456  1.00  0.00     0.007 C 
ATOM      7  C   UNL     1     111.720 110.778 109.226  1.00  0.00    -0.013 C 
ATOM      8  C   UNL     1     111.025 112.084 109.612  1.00  0.00     0.025 C 
ATOM      9  C   UNL     1     110.429 111.812 110.950  1.00  0.00    -0.073 C 
ATOM     10  C   UNL     1     110.692 110.589 111.388  1.00  0.00    -0.027 C 
ATOM     11  C   UNL     1     111.511 109.817 110.414  1.00  0.00     0.035 C 
ATOM     12  C   UNL     1     109.612 112.807 111.713  1.00  0.00     0.039 C 
ENDROOT
BRANCH   5  13
ATOM     13  C   UNL     1     109.376 111.647 106.187  1.00  0.00    -0.014 C 
ATOM     14  C   UNL     1     109.048 110.144 106.097  1.00  0.00     0.007 C 
ATOM     15  C   UNL     1     109.580 112.188 104.758  1.00  0.00     0.007 C 
ENDBRANCH   5  13
TORSDOF 1
ENDMDL
MODEL 7
REMARK VINA RESULT:    -6.463      4.716      6.391
REMARK INTER + INTRA:          -7.128
REMARK INTER:                  -6.864
REMARK INTRA:                  -0.264
REMARK UNBOUND:                -0.287
REMARK SMILES CC1=CC[C@@]23[C@@H]([C@@H]12)[C@H](C(C)C)CC[C@@H]3C
REMARK SMILES IDX 15 1 14 2 13 3 12 4 8 5 6 6 5 7 7 8 2 9 3 10 4 11 1 12 9 13
REMARK SMILES IDX 10 14 11 15
REMARK H PARENT
REMARK Flexibility Score: inf
ROOT
ATOM      1  C   UNL     1     108.725 112.884 108.223  1.00  0.00     0.008 C 
ATOM      2  C   UNL     1     109.184 111.471 108.625  1.00  0.00    -0.007 C 
ATOM      3  C   UNL     1     109.084 110.513 107.421  1.00  0.00     0.004 C 
ATOM      4  C   UNL     1     110.261 110.675 106.457  1.00  0.00     0.004 C 
ATOM      5  C   UNL     1     111.584 110.232 107.117  1.00  0.00    -0.004 C 
ATOM      6  C   UNL     1     111.806 110.974 108.464  1.00  0.00     0.007 C 
ATOM      7  C   UNL     1     110.604 111.522 109.250  1.00  0.00    -0.013 C 
ATOM      8  C   UNL     1     111.243 110.195 109.660  1.00  0.00     0.025 C 
ATOM      9  C   UNL     1     111.887 110.477 110.973  1.00  0.00    -0.073 C 
ATOM     10  C   UNL     1     111.697 111.725 111.379  1.00  0.00    -0.027 C 
ATOM     11  C   UNL     1     110.892 112.506 110.401  1.00  0.00     0.035 C 
ATOM     12  C   UNL     1     112.674 109.466 111.747  1.00  0.00     0.039 C 
ENDROOT
BRANCH   5  13
ATOM     13  C   UNL     1     112.819 110.443 106.182  1.00  0.00    -0.014 C 
ATOM     14  C   UNL     1     113.224 111.923 106.044  1.00  0.00     0.007 C 
ATOM     15  C   UNL     1     112.546 109.878 104.774  1.00  0.00     0.007 C 
ENDBRANCH   5  13
TORSDOF 1
ENDMDL
MODEL 8
REMARK VINA RESULT:    -6.443      1.726      2.173
REMARK INTER + INTRA:          -7.107
REMARK INTER:                  -6.844
REMARK INTRA:                  -0.264
REMARK UNBOUND:                -0.287
REMARK SMILES CC1=CC[C@@]23[C@@H]([C@@H]12)[C@H](C(C)C)CC[C@@H]3C
REMARK SMILES IDX 15 1 14 2 13 3 12 4 8 5 6 6 5 7 7 8 2 9 3 10 4 11 1 12 9 13
REMARK SMILES IDX 10 14 11 15
REMARK H PARENT
REMARK Flexibility Score: inf
ROOT
ATOM      1  C   UNL     1     108.740 112.875 113.126  1.00  0.00     0.008 C 
ATOM      2  C   UNL     1     109.212 111.466 113.527  1.00  0.00    -0.007 C 
ATOM      3  C   UNL     1     109.128 110.510 112.321  1.00  0.00     0.004 C 
ATOM      4  C   UNL     1     110.308 110.686 111.363  1.00  0.00     0.004 C 
ATOM      5  C   UNL     1     111.633 110.256 112.029  1.00  0.00    -0.004 C 
ATOM      6  C   UNL     1     111.840 110.997 113.378  1.00  0.00     0.007 C 
ATOM      7  C   UNL     1     110.628 111.530 114.160  1.00  0.00    -0.013 C 
ATOM      8  C   UNL     1     111.279 110.209 114.570  1.00  0.00     0.025 C 
ATOM      9  C   UNL     1     111.914 110.496 115.887  1.00  0.00    -0.073 C 
ATOM     10  C   UNL     1     111.709 111.740 116.294  1.00  0.00    -0.027 C 
ATOM     11  C   UNL     1     110.901 112.516 115.314  1.00  0.00     0.035 C 
ATOM     12  C   UNL     1     112.708 109.491 116.662  1.00  0.00     0.039 C 
ENDROOT
BRANCH   5  13
ATOM     13  C   UNL     1     112.870 110.481 111.101  1.00  0.00    -0.014 C 
ATOM     14  C   UNL     1     113.252 111.966 110.957  1.00  0.00     0.007 C 
ATOM     15  C   UNL     1     112.615 109.905 109.694  1.00  0.00     0.007 C 
ENDBRANCH   5  13
TORSDOF 1
ENDMDL
MODEL 9
REMARK VINA RESULT:    -6.185      2.411      4.052
REMARK INTER + INTRA:          -6.834
REMARK INTER:                  -6.570
REMARK INTRA:                  -0.264
REMARK UNBOUND:                -0.287
REMARK SMILES CC1=CC[C@@]23[C@@H]([C@@H]12)[C@H](C(C)C)CC[C@@H]3C
REMARK SMILES IDX 15 1 14 2 13 3 12 4 8 5 6 6 5 7 7 8 2 9 3 10 4 11 1 12 9 13
REMARK SMILES IDX 10 14 11 15
REMARK H PARENT
REMARK Flexibility Score: inf
ROOT
ATOM      1  C   UNL     1     108.675 112.897 117.987  1.00  0.00     0.008 C 
ATOM      2  C   UNL     1     109.146 111.483 118.370  1.00  0.00    -0.007 C 
ATOM      3  C   UNL     1     109.095 110.552 117.143  1.00  0.00     0.004 C 
ATOM      4  C   UNL     1     110.296 110.754 116.216  1.00  0.00     0.004 C 
ATOM      5  C   UNL     1     111.608 110.318 116.902  1.00  0.00    -0.004 C 
ATOM      6  C   UNL     1     111.780 111.033 118.271  1.00  0.00     0.007 C 
ATOM      7  C   UNL     1     110.548 111.543 119.036  1.00  0.00    -0.013 C 
ATOM      8  C   UNL     1     111.197 110.218 119.433  1.00  0.00     0.025 C 
ATOM      9  C   UNL     1     111.801 110.481 120.770  1.00  0.00    -0.073 C 
ATOM     10  C   UNL     1     111.579 111.716 121.197  1.00  0.00    -0.027 C 
ATOM     11  C   UNL     1     110.788 112.506 120.215  1.00  0.00     0.035 C 
ATOM     12  C   UNL     1     112.583 109.466 121.543  1.00  0.00     0.039 C 
ENDROOT
BRANCH   5  13
ATOM     13  C   UNL     1     112.864 110.569 116.008  1.00  0.00    -0.014 C 
ATOM     14  C   UNL     1     113.249 112.058 115.914  1.00  0.00     0.007 C 
ATOM     15  C   UNL     1     112.639 110.033 114.580  1.00  0.00     0.007 C 
ENDBRANCH   5  13
TORSDOF 1
ENDMDL
