MODEL 1
REMARK VINA RESULT:    -3.971      0.000      0.000
REMARK INTER + INTRA:          -5.636
REMARK INTER:                  -5.131
REMARK INTRA:                  -0.505
REMARK UNBOUND:                -0.505
REMARK SMILES C=CC(=O)CCCCC
REMARK SMILES IDX 6 1 7 2 8 3 9 4 5 5 3 6 4 7 2 8 1 9
REMARK H PARENT
REMARK Flexibility Score: inf
ROOT
ATOM      1  C   UNL     1      15.773 -38.447  28.757  1.00  0.00     0.008 C 
ENDROOT
BRANCH   1   2
ATOM      2  C   UNL     1      16.822 -39.125  29.651  1.00  0.00     0.000 C 
BRANCH   2   3
ATOM      3  C   UNL     1      17.854 -38.132  30.207  1.00  0.00    -0.003 C 
ATOM      4  C   UNL     1      19.165 -38.805  30.610  1.00  0.00     0.004 C 
ENDBRANCH   2   3
ENDBRANCH   1   2
BRANCH   1   5
ATOM      5  C   UNL     1      15.951 -38.861  27.293  1.00  0.00     0.080 C 
BRANCH   5   6
ATOM      6  C   UNL     1      16.946 -37.969  26.610  1.00  0.00     0.155 C 
ATOM      7  O   UNL     1      16.595 -36.812  26.251  1.00  0.00    -0.295 OA
BRANCH   6   8
ATOM      8  C   UNL     1      18.333 -38.431  26.404  1.00  0.00     0.039 C 
ATOM      9  C   UNL     1      19.389 -37.717  26.790  1.00  0.00     0.012 C 
ENDBRANCH   6   8
ENDBRANCH   5   6
ENDBRANCH   1   5
TORSDOF 5
ENDMDL
MODEL 2
REMARK VINA RESULT:    -3.898      1.238      1.484
REMARK INTER + INTRA:          -5.542
REMARK INTER:                  -5.270
REMARK INTRA:                  -0.272
REMARK UNBOUND:                -0.505
REMARK SMILES C=CC(=O)CCCCC
REMARK SMILES IDX 6 1 7 2 8 3 9 4 5 5 3 6 4 7 2 8 1 9
REMARK H PARENT
REMARK Flexibility Score: inf
ROOT
ATOM      1  C   UNL     1      15.783 -38.430  28.809  1.00  0.00     0.008 C 
ENDROOT
BRANCH   1   2
ATOM      2  C   UNL     1      16.905 -39.090  29.623  1.00  0.00     0.000 C 
BRANCH   2   3
ATOM      3  C   UNL     1      17.899 -38.069  30.196  1.00  0.00    -0.003 C 
ATOM      4  C   UNL     1      19.244 -38.694  30.564  1.00  0.00     0.004 C 
ENDBRANCH   2   3
ENDBRANCH   1   2
BRANCH   1   5
ATOM      5  C   UNL     1      15.875 -38.821  27.331  1.00  0.00     0.080 C 
BRANCH   5   6
ATOM      6  C   UNL     1      17.053 -38.155  26.682  1.00  0.00     0.155 C 
ATOM      7  O   UNL     1      18.034 -38.856  26.314  1.00  0.00    -0.295 OA
BRANCH   6   8
ATOM      8  C   UNL     1      17.037 -36.699  26.438  1.00  0.00     0.039 C 
ATOM      9  C   UNL     1      17.371 -36.167  25.264  1.00  0.00     0.012 C 
ENDBRANCH   6   8
ENDBRANCH   5   6
ENDBRANCH   1   5
TORSDOF 5
ENDMDL
MODEL 3
REMARK VINA RESULT:    -3.592      1.179      1.482
REMARK INTER + INTRA:          -5.146
REMARK INTER:                  -4.807
REMARK INTRA:                  -0.339
REMARK UNBOUND:                -0.505
REMARK SMILES C=CC(=O)CCCCC
REMARK SMILES IDX 6 1 7 2 8 3 9 4 5 5 3 6 4 7 2 8 1 9
REMARK H PARENT
REMARK Flexibility Score: inf
ROOT
ATOM      1  C   UNL     1      16.076 -38.527  27.312  1.00  0.00     0.008 C 
ENDROOT
BRANCH   1   2
ATOM      2  C   UNL     1      16.430 -39.111  28.688  1.00  0.00     0.000 C 
BRANCH   2   3
ATOM      3  C   UNL     1      16.979 -38.052  29.654  1.00  0.00    -0.003 C 
ATOM      4  C   UNL     1      18.304 -38.465  30.295  1.00  0.00     0.004 C 
ENDBRANCH   2   3
ENDBRANCH   1   2
BRANCH   1   5
ATOM      5  C   UNL     1      16.836 -37.223  27.057  1.00  0.00     0.080 C 
BRANCH   5   6
ATOM      6  C   UNL     1      17.685 -37.339  25.825  1.00  0.00     0.155 C 
ATOM      7  O   UNL     1      17.548 -36.495  24.899  1.00  0.00    -0.295 OA
BRANCH   6   8
ATOM      8  C   UNL     1      18.699 -38.406  25.725  1.00  0.00     0.039 C 
ATOM      9  C   UNL     1      19.285 -38.730  24.574  1.00  0.00     0.012 C 
ENDBRANCH   6   8
ENDBRANCH   5   6
ENDBRANCH   1   5
TORSDOF 5
ENDMDL
MODEL 4
REMARK VINA RESULT:    -3.567      1.235      3.451
REMARK INTER + INTRA:          -5.114
REMARK INTER:                  -4.718
REMARK INTRA:                  -0.396
REMARK UNBOUND:                -0.505
REMARK SMILES C=CC(=O)CCCCC
REMARK SMILES IDX 6 1 7 2 8 3 9 4 5 5 3 6 4 7 2 8 1 9
REMARK H PARENT
REMARK Flexibility Score: inf
ROOT
ATOM      1  C   UNL     1      16.905 -38.006  26.537  1.00  0.00     0.008 C 
ENDROOT
BRANCH   1   2
ATOM      2  C   UNL     1      18.309 -38.496  26.152  1.00  0.00     0.000 C 
BRANCH   2   3
ATOM      3  C   UNL     1      19.424 -37.656  26.793  1.00  0.00    -0.003 C 
ATOM      4  C   UNL     1      20.526 -37.280  25.804  1.00  0.00     0.004 C 
ENDBRANCH   2   3
ENDBRANCH   1   2
BRANCH   1   5
ATOM      5  C   UNL     1      16.286 -38.905  27.612  1.00  0.00     0.080 C 
BRANCH   5   6
ATOM      6  C   UNL     1      16.416 -38.273  28.966  1.00  0.00     0.155 C 
ATOM      7  O   UNL     1      15.766 -37.224  29.224  1.00  0.00    -0.295 OA
BRANCH   6   8
ATOM      8  C   UNL     1      17.263 -38.904  29.998  1.00  0.00     0.039 C 
ATOM      9  C   UNL     1      18.436 -38.393  30.370  1.00  0.00     0.012 C 
ENDBRANCH   6   8
ENDBRANCH   5   6
ENDBRANCH   1   5
TORSDOF 5
ENDMDL
MODEL 5
REMARK VINA RESULT:    -3.540     13.086     14.708
REMARK INTER + INTRA:          -5.080
REMARK INTER:                  -4.671
REMARK INTRA:                  -0.409
REMARK UNBOUND:                -0.505
REMARK SMILES C=CC(=O)CCCCC
REMARK SMILES IDX 6 1 7 2 8 3 9 4 5 5 3 6 4 7 2 8 1 9
REMARK H PARENT
REMARK Flexibility Score: inf
ROOT
ATOM      1  C   UNL     1      20.559 -26.027  20.147  1.00  0.00     0.008 C 
ENDROOT
BRANCH   1   2
ATOM      2  C   UNL     1      20.093 -26.870  21.343  1.00  0.00     0.000 C 
BRANCH   2   3
ATOM      3  C   UNL     1      20.099 -28.376  21.043  1.00  0.00    -0.003 C 
ATOM      4  C   UNL     1      18.695 -28.979  21.006  1.00  0.00     0.004 C 
ENDBRANCH   2   3
ENDBRANCH   1   2
BRANCH   1   5
ATOM      5  C   UNL     1      21.843 -25.262  20.482  1.00  0.00     0.080 C 
BRANCH   5   6
ATOM      6  C   UNL     1      22.995 -25.788  19.677  1.00  0.00     0.155 C 
ATOM      7  O   UNL     1      23.537 -25.044  18.816  1.00  0.00    -0.295 OA
BRANCH   6   8
ATOM      8  C   UNL     1      23.511 -27.148  19.927  1.00  0.00     0.039 C 
ATOM      9  C   UNL     1      23.896 -27.556  21.135  1.00  0.00     0.012 C 
ENDBRANCH   6   8
ENDBRANCH   5   6
ENDBRANCH   1   5
TORSDOF 5
ENDMDL
MODEL 6
REMARK VINA RESULT:    -3.429      8.021      9.718
REMARK INTER + INTRA:          -4.936
REMARK INTER:                  -4.385
REMARK INTRA:                  -0.551
REMARK UNBOUND:                -0.505
REMARK SMILES C=CC(=O)CCCCC
REMARK SMILES IDX 6 1 7 2 8 3 9 4 5 5 3 6 4 7 2 8 1 9
REMARK H PARENT
REMARK Flexibility Score: inf
ROOT
ATOM      1  C   UNL     1      14.035 -31.280  21.348  1.00  0.00     0.008 C 
ENDROOT
BRANCH   1   2
ATOM      2  C   UNL     1      13.653 -32.557  20.586  1.00  0.00     0.000 C 
BRANCH   2   3
ATOM      3  C   UNL     1      14.714 -33.661  20.715  1.00  0.00    -0.003 C 
ATOM      4  C   UNL     1      16.056 -33.136  21.222  1.00  0.00     0.004 C 
ENDBRANCH   2   3
ENDBRANCH   1   2
BRANCH   1   5
ATOM      5  C   UNL     1      12.935 -30.883  22.338  1.00  0.00     0.080 C 
BRANCH   5   6
ATOM      6  C   UNL     1      13.499 -30.734  23.720  1.00  0.00     0.155 C 
ATOM      7  O   UNL     1      13.134 -29.761  24.435  1.00  0.00    -0.295 OA
BRANCH   6   8
ATOM      8  C   UNL     1      14.436 -31.744  24.248  1.00  0.00     0.039 C 
ATOM      9  C   UNL     1      14.039 -32.957  24.629  1.00  0.00     0.012 C 
ENDBRANCH   6   8
ENDBRANCH   5   6
ENDBRANCH   1   5
TORSDOF 5
ENDMDL
MODEL 7
REMARK VINA RESULT:    -3.426     12.944     14.512
REMARK INTER + INTRA:          -4.932
REMARK INTER:                  -4.742
REMARK INTRA:                  -0.190
REMARK UNBOUND:                -0.505
REMARK SMILES C=CC(=O)CCCCC
REMARK SMILES IDX 6 1 7 2 8 3 9 4 5 5 3 6 4 7 2 8 1 9
REMARK H PARENT
REMARK Flexibility Score: inf
ROOT
ATOM      1  C   UNL     1      20.204 -26.727  21.285  1.00  0.00     0.008 C 
ENDROOT
BRANCH   1   2
ATOM      2  C   UNL     1      19.836 -28.144  20.820  1.00  0.00     0.000 C 
BRANCH   2   3
ATOM      3  C   UNL     1      21.028 -29.111  20.873  1.00  0.00    -0.003 C 
ATOM      4  C   UNL     1      20.604 -30.561  21.102  1.00  0.00     0.004 C 
ENDBRANCH   2   3
ENDBRANCH   1   2
BRANCH   1   5
ATOM      5  C   UNL     1      20.924 -25.955  20.175  1.00  0.00     0.080 C 
BRANCH   5   6
ATOM      6  C   UNL     1      22.364 -25.734  20.535  1.00  0.00     0.155 C 
ATOM      7  O   UNL     1      22.785 -26.114  21.660  1.00  0.00    -0.295 OA
BRANCH   6   8
ATOM      8  C   UNL     1      23.283 -25.117  19.558  1.00  0.00     0.039 C 
ATOM      9  C   UNL     1      24.068 -24.086  19.867  1.00  0.00     0.012 C 
ENDBRANCH   6   8
ENDBRANCH   5   6
ENDBRANCH   1   5
TORSDOF 5
ENDMDL
MODEL 8
REMARK VINA RESULT:    -3.422      8.288      9.647
REMARK INTER + INTRA:          -4.927
REMARK INTER:                  -4.780
REMARK INTRA:                  -0.147
REMARK UNBOUND:                -0.505
REMARK SMILES C=CC(=O)CCCCC
REMARK SMILES IDX 6 1 7 2 8 3 9 4 5 5 3 6 4 7 2 8 1 9
REMARK H PARENT
REMARK Flexibility Score: inf
ROOT
ATOM      1  C   UNL     1      13.961 -31.190  24.163  1.00  0.00     0.008 C 
ENDROOT
BRANCH   1   2
ATOM      2  C   UNL     1      13.836 -29.691  23.851  1.00  0.00     0.000 C 
BRANCH   2   3
ATOM      3  C   UNL     1      12.507 -29.096  24.339  1.00  0.00    -0.003 C 
ATOM      4  C   UNL     1      12.693 -27.794  25.119  1.00  0.00     0.004 C 
ENDBRANCH   2   3
ENDBRANCH   1   2
BRANCH   1   5
ATOM      5  C   UNL     1      15.189 -31.793  23.473  1.00  0.00     0.080 C 
BRANCH   5   6
ATOM      6  C   UNL     1      14.843 -33.106  22.835  1.00  0.00     0.155 C 
ATOM      7  O   UNL     1      14.876 -34.158  23.528  1.00  0.00    -0.295 OA
BRANCH   6   8
ATOM      8  C   UNL     1      14.426 -33.151  21.420  1.00  0.00     0.039 C 
ATOM      9  C   UNL     1      13.656 -32.214  20.871  1.00  0.00     0.012 C 
ENDBRANCH   6   8
ENDBRANCH   5   6
ENDBRANCH   1   5
TORSDOF 5
ENDMDL
MODEL 9
REMARK VINA RESULT:    -3.379      8.059      9.528
REMARK INTER + INTRA:          -4.872
REMARK INTER:                  -4.404
REMARK INTRA:                  -0.467
REMARK UNBOUND:                -0.505
REMARK SMILES C=CC(=O)CCCCC
REMARK SMILES IDX 6 1 7 2 8 3 9 4 5 5 3 6 4 7 2 8 1 9
REMARK H PARENT
REMARK Flexibility Score: inf
ROOT
ATOM      1  C   UNL     1      15.060 -30.710  21.697  1.00  0.00     0.008 C 
ENDROOT
BRANCH   1   2
ATOM      2  C   UNL     1      14.919 -30.004  23.054  1.00  0.00     0.000 C 
BRANCH   2   3
ATOM      3  C   UNL     1      13.704 -30.498  23.853  1.00  0.00    -0.003 C 
ATOM      4  C   UNL     1      12.772 -29.362  24.275  1.00  0.00     0.004 C 
ENDBRANCH   2   3
ENDBRANCH   1   2
BRANCH   1   5
ATOM      5  C   UNL     1      13.942 -31.737  21.494  1.00  0.00     0.080 C 
BRANCH   5   6
ATOM      6  C   UNL     1      14.517 -33.101  21.252  1.00  0.00     0.155 C 
ATOM      7  O   UNL     1      14.244 -33.706  20.180  1.00  0.00    -0.295 OA
BRANCH   6   8
ATOM      8  C   UNL     1      15.430 -33.704  22.242  1.00  0.00     0.039 C 
ATOM      9  C   UNL     1      15.050 -33.984  23.488  1.00  0.00     0.012 C 
ENDBRANCH   6   8
ENDBRANCH   5   6
ENDBRANCH   1   5
TORSDOF 5
ENDMDL
