MODEL 1
REMARK VINA RESULT:    -8.037      0.000      0.000
REMARK INTER + INTRA:          -9.937
REMARK INTER:                  -9.681
REMARK INTRA:                  -0.256
REMARK UNBOUND:                -0.256
REMARK SMILES O=c1c(O)c(-c2ccc(O)c(O)c2)oc2cc(O)cc(O)c12
REMARK SMILES IDX 5 1 3 2 2 3 1 4 22 5 20 6 19 7 17 8 16 9 15 10 14 11 6 12
REMARK SMILES IDX 7 13 8 14 9 15 13 16 11 17 10 18 12 20 4 22 21 24 18 26
REMARK H PARENT 10 19 12 21 4 23 21 25 18 27
REMARK Flexibility Score: inf
ROOT
ATOM      1  C   UNL     1      33.082  73.647  31.171  1.00  0.00     0.180 A 
ATOM      2  C   UNL     1      33.232  74.218  32.446  1.00  0.00     0.208 A 
ATOM      3  C   UNL     1      33.833  75.482  32.560  1.00  0.00     0.238 A 
ATOM      4  O   UNL     1      34.015  75.964  33.709  1.00  0.00    -0.285 OA
ATOM      5  C   UNL     1      34.261  76.166  31.397  1.00  0.00     0.111 A 
ATOM      6  C   UNL     1      34.845  77.468  31.391  1.00  0.00     0.134 A 
ATOM      7  C   UNL     1      35.351  77.993  30.195  1.00  0.00     0.093 A 
ATOM      8  C   UNL     1      35.233  77.290  28.993  1.00  0.00     0.123 A 
ATOM      9  C   UNL     1      34.610  76.045  28.979  1.00  0.00     0.094 A 
ATOM     10  C   UNL     1      34.130  75.479  30.162  1.00  0.00     0.146 A 
ATOM     11  O   UNL     1      33.552  74.284  30.105  1.00  0.00    -0.452 OA
ENDROOT
BRANCH   1  12
ATOM     12  C   UNL     1      32.437  72.330  30.968  1.00  0.00     0.025 A 
ATOM     13  C   UNL     1      33.096  71.133  31.302  1.00  0.00     0.016 A 
ATOM     14  C   UNL     1      32.458  69.903  31.124  1.00  0.00     0.051 A 
ATOM     15  C   UNL     1      31.151  69.850  30.624  1.00  0.00     0.157 A 
ATOM     16  C   UNL     1      31.118  72.272  30.486  1.00  0.00     0.062 A 
ATOM     17  C   UNL     1      30.478  71.036  30.307  1.00  0.00     0.158 A 
BRANCH  15  18
ATOM     18  O   UNL     1      30.512  68.624  30.444  1.00  0.00    -0.504 OA
ATOM     19  H   UNL     1      30.291  68.021  31.229  1.00  0.00     0.293 HD
ENDBRANCH  15  18
BRANCH  17  20
ATOM     20  O   UNL     1      29.175  70.981  29.817  1.00  0.00    -0.504 OA
ATOM     21  H   UNL     1      28.761  71.764  29.323  1.00  0.00     0.293 HD
ENDBRANCH  17  20
ENDBRANCH   1  12
BRANCH   2  22
ATOM     22  O   UNL     1      32.824  73.516  33.584  1.00  0.00    -0.502 OA
ATOM     23  H   UNL     1      33.460  73.281  34.335  1.00  0.00     0.293 HD
ENDBRANCH   2  22
BRANCH   6  24
ATOM     24  O   UNL     1      34.928  78.291  32.518  1.00  0.00    -0.507 OA
ATOM     25  H   UNL     1      34.193  78.902  32.839  1.00  0.00     0.293 HD
ENDBRANCH   6  24
BRANCH   8  26
ATOM     26  O   UNL     1      35.724  77.828  27.806  1.00  0.00    -0.508 OA
ATOM     27  H   UNL     1      36.472  77.380  27.290  1.00  0.00     0.293 HD
ENDBRANCH   8  26
TORSDOF 6
ENDMDL
MODEL 2
REMARK VINA RESULT:    -7.975      1.618      3.266
REMARK INTER + INTRA:          -9.863
REMARK INTER:                  -9.561
REMARK INTRA:                  -0.302
REMARK UNBOUND:                -0.256
REMARK SMILES O=c1c(O)c(-c2ccc(O)c(O)c2)oc2cc(O)cc(O)c12
REMARK SMILES IDX 5 1 3 2 2 3 1 4 22 5 20 6 19 7 17 8 16 9 15 10 14 11 6 12
REMARK SMILES IDX 7 13 8 14 9 15 13 16 11 17 10 18 12 20 4 22 21 24 18 26
REMARK H PARENT 10 19 12 21 4 23 21 25 18 27
REMARK Flexibility Score: inf
ROOT
ATOM      1  C   UNL     1      33.406  73.110  31.476  1.00  0.00     0.180 A 
ATOM      2  C   UNL     1      34.129  73.818  30.501  1.00  0.00     0.208 A 
ATOM      3  C   UNL     1      34.863  74.951  30.887  1.00  0.00     0.238 A 
ATOM      4  O   UNL     1      35.465  75.612  30.000  1.00  0.00    -0.285 OA
ATOM      5  C   UNL     1      34.877  75.353  32.244  1.00  0.00     0.111 A 
ATOM      6  C   UNL     1      35.619  76.461  32.753  1.00  0.00     0.134 A 
ATOM      7  C   UNL     1      35.455  76.845  34.090  1.00  0.00     0.093 A 
ATOM      8  C   UNL     1      34.627  76.121  34.952  1.00  0.00     0.123 A 
ATOM      9  C   UNL     1      33.947  75.002  34.479  1.00  0.00     0.094 A 
ATOM     10  C   UNL     1      34.061  74.616  33.140  1.00  0.00     0.146 A 
ATOM     11  O   UNL     1      33.386  73.549  32.729  1.00  0.00    -0.452 OA
ENDROOT
BRANCH   1  12
ATOM     12  C   UNL     1      32.629  71.892  31.151  1.00  0.00     0.025 A 
ATOM     13  C   UNL     1      33.141  70.608  31.406  1.00  0.00     0.016 A 
ATOM     14  C   UNL     1      32.380  69.473  31.114  1.00  0.00     0.051 A 
ATOM     15  C   UNL     1      31.094  69.604  30.576  1.00  0.00     0.157 A 
ATOM     16  C   UNL     1      31.330  72.018  30.630  1.00  0.00     0.062 A 
ATOM     17  C   UNL     1      30.566  70.879  30.336  1.00  0.00     0.158 A 
BRANCH  15  18
ATOM     18  O   UNL     1      30.332  68.474  30.281  1.00  0.00    -0.504 OA
ATOM     19  H   UNL     1      30.331  67.663  30.889  1.00  0.00     0.293 HD
ENDBRANCH  15  18
BRANCH  17  20
ATOM     20  O   UNL     1      29.283  71.007  29.808  1.00  0.00    -0.504 OA
ATOM     21  H   UNL     1      29.130  71.159  28.817  1.00  0.00     0.293 HD
ENDBRANCH  17  20
ENDBRANCH   1  12
BRANCH   2  22
ATOM     22  O   UNL     1      34.084  73.418  29.162  1.00  0.00    -0.502 OA
ATOM     23  H   UNL     1      34.913  73.156  28.644  1.00  0.00     0.293 HD
ENDBRANCH   2  22
BRANCH   6  24
ATOM     24  O   UNL     1      36.542  77.194  32.002  1.00  0.00    -0.507 OA
ATOM     25  H   UNL     1      36.549  78.200  31.923  1.00  0.00     0.293 HD
ENDBRANCH   6  24
BRANCH   8  26
ATOM     26  O   UNL     1      34.483  76.501  36.284  1.00  0.00    -0.508 OA
ATOM     27  H   UNL     1      34.761  75.891  37.043  1.00  0.00     0.293 HD
ENDBRANCH   8  26
TORSDOF 6
ENDMDL
MODEL 3
REMARK VINA RESULT:    -7.757      1.544      2.921
REMARK INTER + INTRA:          -9.600
REMARK INTER:                  -9.682
REMARK INTRA:                   0.082
REMARK UNBOUND:                -0.256
REMARK SMILES O=c1c(O)c(-c2ccc(O)c(O)c2)oc2cc(O)cc(O)c12
REMARK SMILES IDX 5 1 3 2 2 3 1 4 22 5 20 6 19 7 17 8 16 9 15 10 14 11 6 12
REMARK SMILES IDX 7 13 8 14 9 15 13 16 11 17 10 18 12 20 4 22 21 24 18 26
REMARK H PARENT 10 19 12 21 4 23 21 25 18 27
REMARK Flexibility Score: inf
ROOT
ATOM      1  C   UNL     1      33.193  73.665  29.661  1.00  0.00     0.180 A 
ATOM      2  C   UNL     1      32.958  74.446  28.517  1.00  0.00     0.208 A 
ATOM      3  C   UNL     1      33.660  75.652  28.359  1.00  0.00     0.238 A 
ATOM      4  O   UNL     1      33.404  76.373  27.360  1.00  0.00    -0.285 OA
ATOM      5  C   UNL     1      34.599  76.053  29.339  1.00  0.00     0.111 A 
ATOM      6  C   UNL     1      35.396  77.235  29.261  1.00  0.00     0.134 A 
ATOM      7  C   UNL     1      36.197  77.601  30.350  1.00  0.00     0.093 A 
ATOM      8  C   UNL     1      36.280  76.792  31.487  1.00  0.00     0.123 A 
ATOM      9  C   UNL     1      35.553  75.606  31.546  1.00  0.00     0.094 A 
ATOM     10  C   UNL     1      34.716  75.234  30.491  1.00  0.00     0.146 A 
ATOM     11  O   UNL     1      34.032  74.100  30.594  1.00  0.00    -0.452 OA
ENDROOT
BRANCH   1  12
ATOM     12  C   UNL     1      32.510  72.370  29.886  1.00  0.00     0.025 A 
ATOM     13  C   UNL     1      33.220  71.234  30.315  1.00  0.00     0.016 A 
ATOM     14  C   UNL     1      32.551  70.029  30.544  1.00  0.00     0.051 A 
ATOM     15  C   UNL     1      31.165  69.945  30.362  1.00  0.00     0.157 A 
ATOM     16  C   UNL     1      31.117  72.285  29.725  1.00  0.00     0.062 A 
ATOM     17  C   UNL     1      30.446  71.075  29.955  1.00  0.00     0.158 A 
BRANCH  15  18
ATOM     18  O   UNL     1      30.494  68.743  30.588  1.00  0.00    -0.504 OA
ATOM     19  H   UNL     1      29.536  68.726  30.920  1.00  0.00     0.293 HD
ENDBRANCH  15  18
BRANCH  17  20
ATOM     20  O   UNL     1      29.066  70.990  29.781  1.00  0.00    -0.504 OA
ATOM     21  H   UNL     1      28.448  71.739  30.072  1.00  0.00     0.293 HD
ENDBRANCH  17  20
ENDBRANCH   1  12
BRANCH   2  22
ATOM     22  O   UNL     1      32.009  74.043  27.573  1.00  0.00    -0.502 OA
ATOM     23  H   UNL     1      31.584  74.687  26.919  1.00  0.00     0.293 HD
ENDBRANCH   2  22
BRANCH   6  24
ATOM     24  O   UNL     1      35.456  78.063  28.136  1.00  0.00    -0.507 OA
ATOM     25  H   UNL     1      35.030  78.975  28.071  1.00  0.00     0.293 HD
ENDBRANCH   6  24
BRANCH   8  26
ATOM     26  O   UNL     1      37.093  77.155  32.558  1.00  0.00    -0.508 OA
ATOM     27  H   UNL     1      37.771  76.514  32.952  1.00  0.00     0.293 HD
ENDBRANCH   8  26
TORSDOF 6
ENDMDL
MODEL 4
REMARK VINA RESULT:    -7.412      2.369      6.672
REMARK INTER + INTRA:          -9.185
REMARK INTER:                  -9.119
REMARK INTRA:                  -0.065
REMARK UNBOUND:                -0.256
REMARK SMILES O=c1c(O)c(-c2ccc(O)c(O)c2)oc2cc(O)cc(O)c12
REMARK SMILES IDX 5 1 3 2 2 3 1 4 22 5 20 6 19 7 17 8 16 9 15 10 14 11 6 12
REMARK SMILES IDX 7 13 8 14 9 15 13 16 11 17 10 18 12 20 4 22 21 24 18 26
REMARK H PARENT 10 19 12 21 4 23 21 25 18 27
REMARK Flexibility Score: inf
ROOT
ATOM      1  C   UNL     1      33.575  73.466  31.785  1.00  0.00     0.180 A 
ATOM      2  C   UNL     1      32.942  74.435  30.988  1.00  0.00     0.208 A 
ATOM      3  C   UNL     1      31.833  74.059  30.212  1.00  0.00     0.238 A 
ATOM      4  O   UNL     1      31.304  74.918  29.458  1.00  0.00    -0.285 OA
ATOM      5  C   UNL     1      31.361  72.726  30.256  1.00  0.00     0.111 A 
ATOM      6  C   UNL     1      30.223  72.245  29.543  1.00  0.00     0.134 A 
ATOM      7  C   UNL     1      29.925  70.876  29.558  1.00  0.00     0.093 A 
ATOM      8  C   UNL     1      30.687  69.982  30.314  1.00  0.00     0.123 A 
ATOM      9  C   UNL     1      31.764  70.451  31.061  1.00  0.00     0.094 A 
ATOM     10  C   UNL     1      32.108  71.806  31.036  1.00  0.00     0.146 A 
ATOM     11  O   UNL     1      33.149  72.208  31.755  1.00  0.00    -0.452 OA
ENDROOT
BRANCH   1  12
ATOM     12  C   UNL     1      34.733  73.790  32.649  1.00  0.00     0.025 A 
ATOM     13  C   UNL     1      35.968  73.135  32.492  1.00  0.00     0.016 A 
ATOM     14  C   UNL     1      37.054  73.474  33.303  1.00  0.00     0.051 A 
ATOM     15  C   UNL     1      36.928  74.480  34.269  1.00  0.00     0.157 A 
ATOM     16  C   UNL     1      34.618  74.812  33.606  1.00  0.00     0.062 A 
ATOM     17  C   UNL     1      35.709  75.152  34.420  1.00  0.00     0.158 A 
BRANCH  15  18
ATOM     18  O   UNL     1      38.010  74.820  35.081  1.00  0.00    -0.504 OA
ATOM     19  H   UNL     1      38.440  74.143  35.701  1.00  0.00     0.293 HD
ENDBRANCH  15  18
BRANCH  17  20
ATOM     20  O   UNL     1      35.588  76.157  35.377  1.00  0.00    -0.504 OA
ATOM     21  H   UNL     1      35.768  77.129  35.152  1.00  0.00     0.293 HD
ENDBRANCH  17  20
ENDBRANCH   1  12
BRANCH   2  22
ATOM     22  O   UNL     1      33.437  75.741  30.941  1.00  0.00    -0.502 OA
ATOM     23  H   UNL     1      34.420  75.954  31.048  1.00  0.00     0.293 HD
ENDBRANCH   2  22
BRANCH   6  24
ATOM     24  O   UNL     1      29.342  73.067  28.832  1.00  0.00    -0.507 OA
ATOM     25  H   UNL     1      29.359  74.075  28.847  1.00  0.00     0.293 HD
ENDBRANCH   6  24
BRANCH   8  26
ATOM     26  O   UNL     1      30.374  68.625  30.336  1.00  0.00    -0.508 OA
ATOM     27  H   UNL     1      29.602  68.267  30.885  1.00  0.00     0.293 HD
ENDBRANCH   8  26
TORSDOF 6
ENDMDL
MODEL 5
REMARK VINA RESULT:    -7.324      1.931      3.151
REMARK INTER + INTRA:          -9.079
REMARK INTER:                  -9.291
REMARK INTRA:                   0.212
REMARK UNBOUND:                -0.256
REMARK SMILES O=c1c(O)c(-c2ccc(O)c(O)c2)oc2cc(O)cc(O)c12
REMARK SMILES IDX 5 1 3 2 2 3 1 4 22 5 20 6 19 7 17 8 16 9 15 10 14 11 6 12
REMARK SMILES IDX 7 13 8 14 9 15 13 16 11 17 10 18 12 20 4 22 21 24 18 26
REMARK H PARENT 10 19 12 21 4 23 21 25 18 27
REMARK Flexibility Score: inf
ROOT
ATOM      1  C   UNL     1      33.811  73.230  30.854  1.00  0.00     0.180 A 
ATOM      2  C   UNL     1      33.887  74.268  29.910  1.00  0.00     0.208 A 
ATOM      3  C   UNL     1      34.795  75.318  30.123  1.00  0.00     0.238 A 
ATOM      4  O   UNL     1      34.819  76.272  29.302  1.00  0.00    -0.285 OA
ATOM      5  C   UNL     1      35.627  75.308  31.268  1.00  0.00     0.111 A 
ATOM      6  C   UNL     1      36.611  76.299  31.563  1.00  0.00     0.134 A 
ATOM      7  C   UNL     1      37.286  76.259  32.789  1.00  0.00     0.093 A 
ATOM      8  C   UNL     1      37.059  75.226  33.702  1.00  0.00     0.123 A 
ATOM      9  C   UNL     1      36.144  74.221  33.397  1.00  0.00     0.094 A 
ATOM     10  C   UNL     1      35.428  74.255  32.197  1.00  0.00     0.146 A 
ATOM     11  O   UNL     1      34.558  73.283  31.951  1.00  0.00    -0.452 OA
ENDROOT
BRANCH   1  12
ATOM     12  C   UNL     1      32.897  72.077  30.687  1.00  0.00     0.025 A 
ATOM     13  C   UNL     1      33.275  70.781  31.081  1.00  0.00     0.016 A 
ATOM     14  C   UNL     1      32.387  69.712  30.936  1.00  0.00     0.051 A 
ATOM     15  C   UNL     1      31.106  69.924  30.411  1.00  0.00     0.157 A 
ATOM     16  C   UNL     1      31.604  72.287  30.180  1.00  0.00     0.062 A 
ATOM     17  C   UNL     1      30.712  71.214  30.034  1.00  0.00     0.158 A 
BRANCH  15  18
ATOM     18  O   UNL     1      30.217  68.860  30.263  1.00  0.00    -0.504 OA
ATOM     19  H   UNL     1      30.167  68.328  29.401  1.00  0.00     0.293 HD
ENDBRANCH  15  18
BRANCH  17  20
ATOM     20  O   UNL     1      29.435  71.423  29.518  1.00  0.00    -0.504 OA
ATOM     21  H   UNL     1      29.009  72.343  29.513  1.00  0.00     0.293 HD
ENDBRANCH  17  20
ENDBRANCH   1  12
BRANCH   2  22
ATOM     22  O   UNL     1      33.040  74.270  28.798  1.00  0.00    -0.502 OA
ATOM     23  H   UNL     1      32.671  73.419  28.393  1.00  0.00     0.293 HD
ENDBRANCH   2  22
BRANCH   6  24
ATOM     24  O   UNL     1      36.979  77.320  30.681  1.00  0.00    -0.507 OA
ATOM     25  H   UNL     1      37.721  77.983  30.847  1.00  0.00     0.293 HD
ENDBRANCH   6  24
BRANCH   8  26
ATOM     26  O   UNL     1      37.747  75.185  34.913  1.00  0.00    -0.508 OA
ATOM     27  H   UNL     1      38.747  75.033  34.950  1.00  0.00     0.293 HD
ENDBRANCH   8  26
TORSDOF 6
ENDMDL
MODEL 6
REMARK VINA RESULT:    -7.275      2.838      6.408
REMARK INTER + INTRA:          -9.019
REMARK INTER:                  -8.778
REMARK INTRA:                  -0.242
REMARK UNBOUND:                -0.256
REMARK SMILES O=c1c(O)c(-c2ccc(O)c(O)c2)oc2cc(O)cc(O)c12
REMARK SMILES IDX 5 1 3 2 2 3 1 4 22 5 20 6 19 7 17 8 16 9 15 10 14 11 6 12
REMARK SMILES IDX 7 13 8 14 9 15 13 16 11 17 10 18 12 20 4 22 21 24 18 26
REMARK H PARENT 10 19 12 21 4 23 21 25 18 27
REMARK Flexibility Score: inf
ROOT
ATOM      1  C   UNL     1      32.186  74.851  32.601  1.00  0.00     0.180 A 
ATOM      2  C   UNL     1      32.072  75.593  31.413  1.00  0.00     0.208 A 
ATOM      3  C   UNL     1      32.105  74.916  30.182  1.00  0.00     0.238 A 
ATOM      4  O   UNL     1      32.058  75.591  29.121  1.00  0.00    -0.285 OA
ATOM      5  C   UNL     1      32.235  73.507  30.156  1.00  0.00     0.111 A 
ATOM      6  C   UNL     1      32.239  72.716  28.969  1.00  0.00     0.134 A 
ATOM      7  C   UNL     1      32.505  71.343  29.054  1.00  0.00     0.093 A 
ATOM      8  C   UNL     1      32.701  70.724  30.291  1.00  0.00     0.123 A 
ATOM      9  C   UNL     1      32.639  71.477  31.460  1.00  0.00     0.094 A 
ATOM     10  C   UNL     1      32.413  72.855  31.404  1.00  0.00     0.146 A 
ATOM     11  O   UNL     1      32.372  73.538  32.542  1.00  0.00    -0.452 OA
ENDROOT
BRANCH   1  12
ATOM     12  C   UNL     1      32.136  75.489  33.936  1.00  0.00     0.025 A 
ATOM     13  C   UNL     1      33.297  75.655  34.712  1.00  0.00     0.016 A 
ATOM     14  C   UNL     1      33.229  76.281  35.959  1.00  0.00     0.051 A 
ATOM     15  C   UNL     1      32.006  76.763  36.442  1.00  0.00     0.157 A 
ATOM     16  C   UNL     1      30.915  75.993  34.417  1.00  0.00     0.062 A 
ATOM     17  C   UNL     1      30.847  76.622  35.669  1.00  0.00     0.158 A 
BRANCH  15  18
ATOM     18  O   UNL     1      31.934  77.388  37.687  1.00  0.00    -0.504 OA
ATOM     19  H   UNL     1      32.417  78.260  37.871  1.00  0.00     0.293 HD
ENDBRANCH  15  18
BRANCH  17  20
ATOM     20  O   UNL     1      29.634  77.108  36.149  1.00  0.00    -0.504 OA
ATOM     21  H   UNL     1      28.888  76.485  36.437  1.00  0.00     0.293 HD
ENDBRANCH  17  20
ENDBRANCH   1  12
BRANCH   2  22
ATOM     22  O   UNL     1      31.968  76.986  31.460  1.00  0.00    -0.502 OA
ATOM     23  H   UNL     1      32.755  77.597  31.282  1.00  0.00     0.293 HD
ENDBRANCH   2  22
BRANCH   6  24
ATOM     24  O   UNL     1      31.963  73.220  27.694  1.00  0.00    -0.507 OA
ATOM     25  H   UNL     1      32.285  74.110  27.346  1.00  0.00     0.293 HD
ENDBRANCH   6  24
BRANCH   8  26
ATOM     26  O   UNL     1      32.949  69.355  30.367  1.00  0.00    -0.508 OA
ATOM     27  H   UNL     1      32.498  68.698  29.742  1.00  0.00     0.293 HD
ENDBRANCH   8  26
TORSDOF 6
ENDMDL
MODEL 7
REMARK VINA RESULT:    -7.167      2.740      5.707
REMARK INTER + INTRA:          -8.889
REMARK INTER:                  -8.762
REMARK INTRA:                  -0.127
REMARK UNBOUND:                -0.256
REMARK SMILES O=c1c(O)c(-c2ccc(O)c(O)c2)oc2cc(O)cc(O)c12
REMARK SMILES IDX 5 1 3 2 2 3 1 4 22 5 20 6 19 7 17 8 16 9 15 10 14 11 6 12
REMARK SMILES IDX 7 13 8 14 9 15 13 16 11 17 10 18 12 20 4 22 21 24 18 26
REMARK H PARENT 10 19 12 21 4 23 21 25 18 27
REMARK Flexibility Score: inf
ROOT
ATOM      1  C   UNL     1      33.713  74.189  31.586  1.00  0.00     0.180 A 
ATOM      2  C   UNL     1      32.853  73.077  31.575  1.00  0.00     0.208 A 
ATOM      3  C   UNL     1      31.787  73.050  30.661  1.00  0.00     0.238 A 
ATOM      4  O   UNL     1      30.988  72.078  30.693  1.00  0.00    -0.285 OA
ATOM      5  C   UNL     1      31.605  74.125  29.758  1.00  0.00     0.111 A 
ATOM      6  C   UNL     1      30.585  74.184  28.763  1.00  0.00     0.134 A 
ATOM      7  C   UNL     1      30.418  75.354  28.012  1.00  0.00     0.093 A 
ATOM      8  C   UNL     1      31.278  76.443  28.176  1.00  0.00     0.123 A 
ATOM      9  C   UNL     1      32.315  76.372  29.102  1.00  0.00     0.094 A 
ATOM     10  C   UNL     1      32.483  75.232  29.892  1.00  0.00     0.146 A 
ATOM     11  O   UNL     1      33.478  75.211  30.771  1.00  0.00    -0.452 OA
ENDROOT
BRANCH   1  12
ATOM     12  C   UNL     1      34.872  74.279  32.503  1.00  0.00     0.025 A 
ATOM     13  C   UNL     1      35.889  73.308  32.495  1.00  0.00     0.016 A 
ATOM     14  C   UNL     1      36.985  73.426  33.353  1.00  0.00     0.051 A 
ATOM     15  C   UNL     1      37.089  74.522  34.220  1.00  0.00     0.157 A 
ATOM     16  C   UNL     1      34.991  75.386  33.360  1.00  0.00     0.062 A 
ATOM     17  C   UNL     1      36.092  75.505  34.222  1.00  0.00     0.158 A 
BRANCH  15  18
ATOM     18  O   UNL     1      38.181  74.643  35.079  1.00  0.00    -0.504 OA
ATOM     19  H   UNL     1      38.601  75.544  35.277  1.00  0.00     0.293 HD
ENDBRANCH  15  18
BRANCH  17  20
ATOM     20  O   UNL     1      36.201  76.598  35.079  1.00  0.00    -0.504 OA
ATOM     21  H   UNL     1      35.415  77.212  35.259  1.00  0.00     0.293 HD
ENDBRANCH  17  20
ENDBRANCH   1  12
BRANCH   2  22
ATOM     22  O   UNL     1      33.036  72.037  32.490  1.00  0.00    -0.502 OA
ATOM     23  H   UNL     1      32.390  71.859  33.248  1.00  0.00     0.293 HD
ENDBRANCH   2  22
BRANCH   6  24
ATOM     24  O   UNL     1      29.732  73.119  28.456  1.00  0.00    -0.507 OA
ATOM     25  H   UNL     1      29.814  72.189  28.837  1.00  0.00     0.293 HD
ENDBRANCH   6  24
BRANCH   8  26
ATOM     26  O   UNL     1      31.115  77.597  27.412  1.00  0.00    -0.508 OA
ATOM     27  H   UNL     1      31.609  78.453  27.633  1.00  0.00     0.293 HD
ENDBRANCH   8  26
TORSDOF 6
ENDMDL
MODEL 8
REMARK VINA RESULT:    -7.100      2.424      6.796
REMARK INTER + INTRA:          -8.808
REMARK INTER:                  -8.724
REMARK INTRA:                  -0.084
REMARK UNBOUND:                -0.256
REMARK SMILES O=c1c(O)c(-c2ccc(O)c(O)c2)oc2cc(O)cc(O)c12
REMARK SMILES IDX 5 1 3 2 2 3 1 4 22 5 20 6 19 7 17 8 16 9 15 10 14 11 6 12
REMARK SMILES IDX 7 13 8 14 9 15 13 16 11 17 10 18 12 20 4 22 21 24 18 26
REMARK H PARENT 10 19 12 21 4 23 21 25 18 27
REMARK Flexibility Score: inf
ROOT
ATOM      1  C   UNL     1      34.419  75.090  31.285  1.00  0.00     0.180 A 
ATOM      2  C   UNL     1      34.405  75.583  29.969  1.00  0.00     0.208 A 
ATOM      3  C   UNL     1      33.427  75.113  29.077  1.00  0.00     0.238 A 
ATOM      4  O   UNL     1      33.453  75.517  27.885  1.00  0.00    -0.285 OA
ATOM      5  C   UNL     1      32.467  74.170  29.516  1.00  0.00     0.111 A 
ATOM      6  C   UNL     1      31.408  73.657  28.709  1.00  0.00     0.134 A 
ATOM      7  C   UNL     1      30.596  72.630  29.207  1.00  0.00     0.093 A 
ATOM      8  C   UNL     1      30.764  72.145  30.507  1.00  0.00     0.123 A 
ATOM      9  C   UNL     1      31.757  72.682  31.322  1.00  0.00     0.094 A 
ATOM     10  C   UNL     1      32.607  73.681  30.841  1.00  0.00     0.146 A 
ATOM     11  O   UNL     1      33.546  74.158  31.648  1.00  0.00    -0.452 OA
ENDROOT
BRANCH   1  12
ATOM     12  C   UNL     1      35.403  75.555  32.290  1.00  0.00     0.025 A 
ATOM     13  C   UNL     1      35.551  76.921  32.591  1.00  0.00     0.016 A 
ATOM     14  C   UNL     1      36.468  77.334  33.560  1.00  0.00     0.051 A 
ATOM     15  C   UNL     1      37.240  76.391  34.251  1.00  0.00     0.157 A 
ATOM     16  C   UNL     1      36.164  74.612  33.000  1.00  0.00     0.062 A 
ATOM     17  C   UNL     1      37.086  75.028  33.973  1.00  0.00     0.158 A 
BRANCH  15  18
ATOM     18  O   UNL     1      38.158  76.800  35.217  1.00  0.00    -0.504 OA
ATOM     19  H   UNL     1      38.273  77.779  35.458  1.00  0.00     0.293 HD
ENDBRANCH  15  18
BRANCH  17  20
ATOM     20  O   UNL     1      37.850  74.091  34.666  1.00  0.00    -0.504 OA
ATOM     21  H   UNL     1      38.829  74.253  34.872  1.00  0.00     0.293 HD
ENDBRANCH  17  20
ENDBRANCH   1  12
BRANCH   2  22
ATOM     22  O   UNL     1      35.375  76.497  29.549  1.00  0.00    -0.502 OA
ATOM     23  H   UNL     1      35.645  77.298  30.105  1.00  0.00     0.293 HD
ENDBRANCH   2  22
BRANCH   6  24
ATOM     24  O   UNL     1      31.096  74.136  27.433  1.00  0.00    -0.507 OA
ATOM     25  H   UNL     1      31.106  75.108  27.166  1.00  0.00     0.293 HD
ENDBRANCH   6  24
BRANCH   8  26
ATOM     26  O   UNL     1      29.941  71.135  30.999  1.00  0.00    -0.508 OA
ATOM     27  H   UNL     1      28.941  71.141  30.842  1.00  0.00     0.293 HD
ENDBRANCH   8  26
TORSDOF 6
ENDMDL
MODEL 9
REMARK VINA RESULT:    -7.084      2.195      2.251
REMARK INTER + INTRA:          -8.790
REMARK INTER:                  -8.533
REMARK INTRA:                  -0.257
REMARK UNBOUND:                -0.256
REMARK SMILES O=c1c(O)c(-c2ccc(O)c(O)c2)oc2cc(O)cc(O)c12
REMARK SMILES IDX 5 1 3 2 2 3 1 4 22 5 20 6 19 7 17 8 16 9 15 10 14 11 6 12
REMARK SMILES IDX 7 13 8 14 9 15 13 16 11 17 10 18 12 20 4 22 21 24 18 26
REMARK H PARENT 10 19 12 21 4 23 21 25 18 27
REMARK Flexibility Score: inf
ROOT
ATOM      1  C   UNL     1      33.741  73.632  32.086  1.00  0.00     0.180 A 
ATOM      2  C   UNL     1      33.275  74.350  33.200  1.00  0.00     0.208 A 
ATOM      3  C   UNL     1      34.075  75.373  33.735  1.00  0.00     0.238 A 
ATOM      4  O   UNL     1      33.676  75.976  34.766  1.00  0.00    -0.285 OA
ATOM      5  C   UNL     1      35.322  75.676  33.139  1.00  0.00     0.111 A 
ATOM      6  C   UNL     1      36.195  76.718  33.573  1.00  0.00     0.134 A 
ATOM      7  C   UNL     1      37.464  76.843  32.992  1.00  0.00     0.093 A 
ATOM      8  C   UNL     1      37.864  76.004  31.948  1.00  0.00     0.123 A 
ATOM      9  C   UNL     1      36.995  75.023  31.478  1.00  0.00     0.094 A 
ATOM     10  C   UNL     1      35.738  74.850  32.062  1.00  0.00     0.146 A 
ATOM     11  O   UNL     1      34.945  73.896  31.590  1.00  0.00    -0.452 OA
ENDROOT
BRANCH   1  12
ATOM     12  C   UNL     1      32.946  72.556  31.452  1.00  0.00     0.025 A 
ATOM     13  C   UNL     1      33.254  71.199  31.658  1.00  0.00     0.016 A 
ATOM     14  C   UNL     1      32.475  70.201  31.068  1.00  0.00     0.051 A 
ATOM     15  C   UNL     1      31.370  70.542  30.277  1.00  0.00     0.157 A 
ATOM     16  C   UNL     1      31.825  72.892  30.674  1.00  0.00     0.062 A 
ATOM     17  C   UNL     1      31.042  71.889  30.082  1.00  0.00     0.158 A 
BRANCH  15  18
ATOM     18  O   UNL     1      30.591  69.548  29.685  1.00  0.00    -0.504 OA
ATOM     19  H   UNL     1      29.890  69.040  30.214  1.00  0.00     0.293 HD
ENDBRANCH  15  18
BRANCH  17  20
ATOM     20  O   UNL     1      29.939  72.225  29.301  1.00  0.00    -0.504 OA
ATOM     21  H   UNL     1      29.552  73.162  29.304  1.00  0.00     0.293 HD
ENDBRANCH  17  20
ENDBRANCH   1  12
BRANCH   2  22
ATOM     22  O   UNL     1      32.050  74.020  33.787  1.00  0.00    -0.502 OA
ATOM     23  H   UNL     1      31.266  74.659  33.805  1.00  0.00     0.293 HD
ENDBRANCH   2  22
BRANCH   6  24
ATOM     24  O   UNL     1      35.857  77.666  34.543  1.00  0.00    -0.507 OA
ATOM     25  H   UNL     1      35.620  78.627  34.349  1.00  0.00     0.293 HD
ENDBRANCH   6  24
BRANCH   8  26
ATOM     26  O   UNL     1      39.121  76.147  31.366  1.00  0.00    -0.508 OA
ATOM     27  H   UNL     1      39.287  75.906  30.396  1.00  0.00     0.293 HD
ENDBRANCH   8  26
TORSDOF 6
ENDMDL
