MODEL 1
REMARK VINA RESULT:    -4.226      0.000      0.000
REMARK INTER + INTRA:          -6.330
REMARK INTER:                  -5.956
REMARK INTRA:                  -0.375
REMARK UNBOUND:                -0.375
REMARK SMILES CCCCCCCCC(=O)[O-]
REMARK SMILES IDX 6 1 7 2 8 3 9 4 10 5 11 6 5 7 4 8 3 9 2 10 1 11
REMARK H PARENT
REMARK Flexibility Score: inf
ROOT
ATOM      1  C   UNL     1     119.243 178.299 123.888  1.00  0.00     0.000 C 
ENDROOT
BRANCH   1   2
ATOM      2  C   UNL     1     118.004 178.413 124.794  1.00  0.00     0.006 C 
BRANCH   2   3
ATOM      3  C   UNL     1     116.683 178.618 124.034  1.00  0.00     0.053 C 
BRANCH   3   4
ATOM      4  C   UNL     1     115.785 179.601 124.721  1.00  0.00     0.041 C 
ATOM      5  O   UNL     1     114.550 179.375 124.810  1.00  0.00    -0.550 OA
ATOM      6  O   UNL     1     116.319 180.748 125.294  1.00  0.00    -0.550 OA
ENDBRANCH   3   4
ENDBRANCH   2   3
ENDBRANCH   1   2
BRANCH   1   7
ATOM      7  C   UNL     1     120.537 178.736 124.591  1.00  0.00     0.000 C 
BRANCH   7   8
ATOM      8  C   UNL     1     120.237 179.703 125.743  1.00  0.00    -0.000 C 
BRANCH   8   9
ATOM      9  C   UNL     1     120.851 179.200 127.058  1.00  0.00    -0.000 C 
BRANCH   9  10
ATOM     10  C   UNL     1     122.231 178.554 126.857  1.00  0.00    -0.003 C 
ATOM     11  C   UNL     1     123.374 179.431 127.368  1.00  0.00     0.004 C 
ENDBRANCH   9  10
ENDBRANCH   8   9
ENDBRANCH   7   8
ENDBRANCH   1   7
TORSDOF 7
ENDMDL
MODEL 2
REMARK VINA RESULT:    -4.189      1.431      2.145
REMARK INTER + INTRA:          -6.278
REMARK INTER:                  -5.568
REMARK INTRA:                  -0.711
REMARK UNBOUND:                -0.375
REMARK SMILES CCCCCCCCC(=O)[O-]
REMARK SMILES IDX 6 1 7 2 8 3 9 4 10 5 11 6 5 7 4 8 3 9 2 10 1 11
REMARK H PARENT
REMARK Flexibility Score: inf
ROOT
ATOM      1  C   UNL     1     120.477 179.158 124.293  1.00  0.00     0.000 C 
ENDROOT
BRANCH   1   2
ATOM      2  C   UNL     1     119.219 178.368 123.889  1.00  0.00     0.006 C 
BRANCH   2   3
ATOM      3  C   UNL     1     118.142 178.292 124.983  1.00  0.00     0.053 C 
BRANCH   3   4
ATOM      4  C   UNL     1     116.762 178.468 124.428  1.00  0.00     0.041 C 
ATOM      5  O   UNL     1     116.589 178.576 123.185  1.00  0.00    -0.550 OA
ATOM      6  O   UNL     1     115.665 178.477 125.279  1.00  0.00    -0.550 OA
ENDBRANCH   3   4
ENDBRANCH   2   3
ENDBRANCH   1   2
BRANCH   1   7
ATOM      7  C   UNL     1     120.358 179.796 125.686  1.00  0.00     0.000 C 
BRANCH   7   8
ATOM      8  C   UNL     1     121.374 179.185 126.659  1.00  0.00    -0.000 C 
BRANCH   8   9
ATOM      9  C   UNL     1     120.698 178.778 127.977  1.00  0.00    -0.000 C 
BRANCH   9  10
ATOM     10  C   UNL     1     120.195 177.326 127.959  1.00  0.00    -0.003 C 
ATOM     11  C   UNL     1     120.999 176.433 127.014  1.00  0.00     0.004 C 
ENDBRANCH   9  10
ENDBRANCH   8   9
ENDBRANCH   7   8
ENDBRANCH   1   7
TORSDOF 7
ENDMDL
MODEL 3
REMARK VINA RESULT:    -4.180      1.944      3.162
REMARK INTER + INTRA:          -6.266
REMARK INTER:                  -5.441
REMARK INTRA:                  -0.825
REMARK UNBOUND:                -0.375
REMARK SMILES CCCCCCCCC(=O)[O-]
REMARK SMILES IDX 6 1 7 2 8 3 9 4 10 5 11 6 5 7 4 8 3 9 2 10 1 11
REMARK H PARENT
REMARK Flexibility Score: inf
ROOT
ATOM      1  C   UNL     1     120.389 177.360 127.792  1.00  0.00     0.000 C 
ENDROOT
BRANCH   1   2
ATOM      2  C   UNL     1     118.888 177.025 127.718  1.00  0.00     0.006 C 
BRANCH   2   3
ATOM      3  C   UNL     1     118.378 176.715 126.301  1.00  0.00     0.053 C 
BRANCH   3   4
ATOM      4  C   UNL     1     117.239 177.604 125.906  1.00  0.00     0.041 C 
ATOM      5  O   UNL     1     117.174 178.067 124.737  1.00  0.00    -0.550 OA
ATOM      6  O   UNL     1     116.232 177.891 126.818  1.00  0.00    -0.550 OA
ENDBRANCH   3   4
ENDBRANCH   2   3
ENDBRANCH   1   2
BRANCH   1   7
ATOM      7  C   UNL     1     120.663 178.871 127.792  1.00  0.00     0.000 C 
BRANCH   7   8
ATOM      8  C   UNL     1     121.341 179.307 126.488  1.00  0.00    -0.000 C 
BRANCH   8   9
ATOM      9  C   UNL     1     120.306 179.808 125.470  1.00  0.00    -0.000 C 
BRANCH   9  10
ATOM     10  C   UNL     1     120.438 179.116 124.104  1.00  0.00    -0.003 C 
ATOM     11  C   UNL     1     121.413 177.939 124.129  1.00  0.00     0.004 C 
ENDBRANCH   9  10
ENDBRANCH   8   9
ENDBRANCH   7   8
ENDBRANCH   1   7
TORSDOF 7
ENDMDL
MODEL 4
REMARK VINA RESULT:    -4.144      1.242      1.627
REMARK INTER + INTRA:          -6.215
REMARK INTER:                  -5.874
REMARK INTRA:                  -0.342
REMARK UNBOUND:                -0.375
REMARK SMILES CCCCCCCCC(=O)[O-]
REMARK SMILES IDX 6 1 7 2 8 3 9 4 10 5 11 6 5 7 4 8 3 9 2 10 1 11
REMARK H PARENT
REMARK Flexibility Score: inf
ROOT
ATOM      1  C   UNL     1     118.802 179.718 125.392  1.00  0.00     0.000 C 
ENDROOT
BRANCH   1   2
ATOM      2  C   UNL     1     118.431 178.239 125.176  1.00  0.00     0.006 C 
BRANCH   2   3
ATOM      3  C   UNL     1     116.926 177.943 125.280  1.00  0.00     0.053 C 
BRANCH   3   4
ATOM      4  C   UNL     1     116.141 178.641 124.211  1.00  0.00     0.041 C 
ATOM      5  O   UNL     1     115.122 179.317 124.514  1.00  0.00    -0.550 OA
ATOM      6  O   UNL     1     116.555 178.574 122.888  1.00  0.00    -0.550 OA
ENDBRANCH   3   4
ENDBRANCH   2   3
ENDBRANCH   1   2
BRANCH   1   7
ATOM      7  C   UNL     1     120.319 179.947 125.468  1.00  0.00     0.000 C 
BRANCH   7   8
ATOM      8  C   UNL     1     120.976 178.957 126.439  1.00  0.00    -0.000 C 
BRANCH   8   9
ATOM      9  C   UNL     1     122.120 178.194 125.757  1.00  0.00    -0.000 C 
BRANCH   9  10
ATOM     10  C   UNL     1     123.470 178.399 126.461  1.00  0.00    -0.003 C 
ATOM     11  C   UNL     1     123.428 179.514 127.506  1.00  0.00     0.004 C 
ENDBRANCH   9  10
ENDBRANCH   8   9
ENDBRANCH   7   8
ENDBRANCH   1   7
TORSDOF 7
ENDMDL
MODEL 5
REMARK VINA RESULT:    -4.124      7.383      8.311
REMARK INTER + INTRA:          -6.186
REMARK INTER:                  -5.783
REMARK INTRA:                  -0.403
REMARK UNBOUND:                -0.375
REMARK SMILES CCCCCCCCC(=O)[O-]
REMARK SMILES IDX 6 1 7 2 8 3 9 4 10 5 11 6 5 7 4 8 3 9 2 10 1 11
REMARK H PARENT
REMARK Flexibility Score: inf
ROOT
ATOM      1  C   UNL     1     124.881 176.894 122.070  1.00  0.00     0.000 C 
ENDROOT
BRANCH   1   2
ATOM      2  C   UNL     1     123.807 177.723 121.342  1.00  0.00     0.006 C 
BRANCH   2   3
ATOM      3  C   UNL     1     123.696 177.432 119.837  1.00  0.00     0.053 C 
BRANCH   3   4
ATOM      4  C   UNL     1     124.828 178.033 119.062  1.00  0.00     0.041 C 
ATOM      5  O   UNL     1     125.313 179.142 119.409  1.00  0.00    -0.550 OA
ATOM      6  O   UNL     1     125.371 177.352 117.981  1.00  0.00    -0.550 OA
ENDBRANCH   3   4
ENDBRANCH   2   3
ENDBRANCH   1   2
BRANCH   1   7
ATOM      7  C   UNL     1     124.672 176.853 123.591  1.00  0.00     0.000 C 
BRANCH   7   8
ATOM      8  C   UNL     1     125.832 177.539 124.324  1.00  0.00    -0.000 C 
BRANCH   8   9
ATOM      9  C   UNL     1     126.859 178.098 123.328  1.00  0.00    -0.000 C 
BRANCH   9  10
ATOM     10  C   UNL     1     128.300 177.696 123.677  1.00  0.00    -0.003 C 
ATOM     11  C   UNL     1     128.369 176.457 124.570  1.00  0.00     0.004 C 
ENDBRANCH   9  10
ENDBRANCH   8   9
ENDBRANCH   7   8
ENDBRANCH   1   7
TORSDOF 7
ENDMDL
MODEL 6
REMARK VINA RESULT:    -4.101      7.035      8.165
REMARK INTER + INTRA:          -6.154
REMARK INTER:                  -5.771
REMARK INTRA:                  -0.383
REMARK UNBOUND:                -0.375
REMARK SMILES CCCCCCCCC(=O)[O-]
REMARK SMILES IDX 6 1 7 2 8 3 9 4 10 5 11 6 5 7 4 8 3 9 2 10 1 11
REMARK H PARENT
REMARK Flexibility Score: inf
ROOT
ATOM      1  C   UNL     1     123.617 177.744 121.479  1.00  0.00     0.000 C 
ENDROOT
BRANCH   1   2
ATOM      2  C   UNL     1     123.649 177.506 119.958  1.00  0.00     0.006 C 
BRANCH   2   3
ATOM      3  C   UNL     1     124.886 176.739 119.464  1.00  0.00     0.053 C 
BRANCH   3   4
ATOM      4  C   UNL     1     125.531 177.408 118.289  1.00  0.00     0.041 C 
ATOM      5  O   UNL     1     124.844 178.123 117.513  1.00  0.00    -0.550 OA
ATOM      6  O   UNL     1     126.896 177.272 118.073  1.00  0.00    -0.550 OA
ENDBRANCH   3   4
ENDBRANCH   2   3
ENDBRANCH   1   2
BRANCH   1   7
ATOM      7  C   UNL     1     124.737 176.999 122.221  1.00  0.00     0.000 C 
BRANCH   7   8
ATOM      8  C   UNL     1     124.402 176.846 123.710  1.00  0.00    -0.000 C 
BRANCH   8   9
ATOM      9  C   UNL     1     122.884 176.900 123.942  1.00  0.00    -0.000 C 
BRANCH   9  10
ATOM     10  C   UNL     1     122.518 177.402 125.347  1.00  0.00    -0.003 C 
ATOM     11  C   UNL     1     123.673 178.132 126.033  1.00  0.00     0.004 C 
ENDBRANCH   9  10
ENDBRANCH   8   9
ENDBRANCH   7   8
ENDBRANCH   1   7
TORSDOF 7
ENDMDL
MODEL 7
REMARK VINA RESULT:    -4.099      1.716      2.648
REMARK INTER + INTRA:          -6.151
REMARK INTER:                  -5.430
REMARK INTRA:                  -0.721
REMARK UNBOUND:                -0.375
REMARK SMILES CCCCCCCCC(=O)[O-]
REMARK SMILES IDX 6 1 7 2 8 3 9 4 10 5 11 6 5 7 4 8 3 9 2 10 1 11
REMARK H PARENT
REMARK Flexibility Score: inf
ROOT
ATOM      1  C   UNL     1     120.032 179.772 125.531  1.00  0.00     0.000 C 
ENDROOT
BRANCH   1   2
ATOM      2  C   UNL     1     119.232 178.811 124.632  1.00  0.00     0.006 C 
BRANCH   2   3
ATOM      3  C   UNL     1     118.504 177.692 125.394  1.00  0.00     0.053 C 
BRANCH   3   4
ATOM      4  C   UNL     1     117.028 177.932 125.472  1.00  0.00     0.041 C 
ATOM      5  O   UNL     1     116.427 177.832 126.574  1.00  0.00    -0.550 OA
ATOM      6  O   UNL     1     116.322 178.303 124.335  1.00  0.00    -0.550 OA
ENDBRANCH   3   4
ENDBRANCH   2   3
ENDBRANCH   1   2
BRANCH   1   7
ATOM      7  C   UNL     1     120.608 179.081 126.777  1.00  0.00     0.000 C 
BRANCH   7   8
ATOM      8  C   UNL     1     122.140 179.026 126.716  1.00  0.00    -0.000 C 
BRANCH   8   9
ATOM      9  C   UNL     1     122.625 177.635 126.283  1.00  0.00    -0.000 C 
BRANCH   9  10
ATOM     10  C   UNL     1     122.919 177.553 124.777  1.00  0.00    -0.003 C 
ATOM     11  C   UNL     1     122.070 176.500 124.065  1.00  0.00     0.004 C 
ENDBRANCH   9  10
ENDBRANCH   8   9
ENDBRANCH   7   8
ENDBRANCH   1   7
TORSDOF 7
ENDMDL
MODEL 8
REMARK VINA RESULT:    -4.063      3.309      5.210
REMARK INTER + INTRA:          -6.101
REMARK INTER:                  -5.215
REMARK INTRA:                  -0.885
REMARK UNBOUND:                -0.375
REMARK SMILES CCCCCCCCC(=O)[O-]
REMARK SMILES IDX 6 1 7 2 8 3 9 4 10 5 11 6 5 7 4 8 3 9 2 10 1 11
REMARK H PARENT
REMARK Flexibility Score: inf
ROOT
ATOM      1  C   UNL     1     121.357 179.248 126.580  1.00  0.00     0.000 C 
ENDROOT
BRANCH   1   2
ATOM      2  C   UNL     1     120.761 178.881 127.951  1.00  0.00     0.006 C 
BRANCH   2   3
ATOM      3  C   UNL     1     119.987 177.552 127.969  1.00  0.00     0.053 C 
BRANCH   3   4
ATOM      4  C   UNL     1     120.805 176.418 127.430  1.00  0.00     0.041 C 
ATOM      5  O   UNL     1     120.447 175.824 126.379  1.00  0.00    -0.550 OA
ATOM      6  O   UNL     1     121.979 176.042 128.068  1.00  0.00    -0.550 OA
ENDBRANCH   3   4
ENDBRANCH   2   3
ENDBRANCH   1   2
BRANCH   1   7
ATOM      7  C   UNL     1     120.314 179.833 125.615  1.00  0.00     0.000 C 
BRANCH   7   8
ATOM      8  C   UNL     1     120.227 179.002 124.329  1.00  0.00    -0.000 C 
BRANCH   8   9
ATOM      9  C   UNL     1     118.935 178.173 124.295  1.00  0.00    -0.000 C 
BRANCH   9  10
ATOM     10  C   UNL     1     117.815 178.790 125.148  1.00  0.00    -0.003 C 
ATOM     11  C   UNL     1     116.945 177.736 125.833  1.00  0.00     0.004 C 
ENDBRANCH   9  10
ENDBRANCH   8   9
ENDBRANCH   7   8
ENDBRANCH   1   7
TORSDOF 7
ENDMDL
MODEL 9
REMARK VINA RESULT:    -4.032      8.560      9.773
REMARK INTER + INTRA:          -6.057
REMARK INTER:                  -5.236
REMARK INTRA:                  -0.822
REMARK UNBOUND:                -0.375
REMARK SMILES CCCCCCCCC(=O)[O-]
REMARK SMILES IDX 6 1 7 2 8 3 9 4 10 5 11 6 5 7 4 8 3 9 2 10 1 11
REMARK H PARENT
REMARK Flexibility Score: inf
ROOT
ATOM      1  C   UNL     1     125.334 177.542 121.553  1.00  0.00     0.000 C 
ENDROOT
BRANCH   1   2
ATOM      2  C   UNL     1     125.605 176.413 120.542  1.00  0.00     0.006 C 
BRANCH   2   3
ATOM      3  C   UNL     1     126.426 175.243 121.107  1.00  0.00     0.053 C 
BRANCH   3   4
ATOM      4  C   UNL     1     127.859 175.301 120.676  1.00  0.00     0.041 C 
ATOM      5  O   UNL     1     128.174 175.883 119.604  1.00  0.00    -0.550 OA
ATOM      6  O   UNL     1     128.850 174.745 121.474  1.00  0.00    -0.550 OA
ENDBRANCH   3   4
ENDBRANCH   2   3
ENDBRANCH   1   2
BRANCH   1   7
ATOM      7  C   UNL     1     124.808 177.023 122.899  1.00  0.00     0.000 C 
BRANCH   7   8
ATOM      8  C   UNL     1     125.729 177.448 124.050  1.00  0.00    -0.000 C 
BRANCH   8   9
ATOM      9  C   UNL     1     126.955 178.207 123.523  1.00  0.00    -0.000 C 
BRANCH   9  10
ATOM     10  C   UNL     1     128.277 177.495 123.849  1.00  0.00    -0.003 C 
ATOM     11  C   UNL     1     128.073 176.202 124.640  1.00  0.00     0.004 C 
ENDBRANCH   9  10
ENDBRANCH   8   9
ENDBRANCH   7   8
ENDBRANCH   1   7
TORSDOF 7
ENDMDL
