MODEL 1
REMARK VINA RESULT:    -5.906      0.000      0.000
REMARK INTER + INTRA:          -7.384
REMARK INTER:                  -7.287
REMARK INTRA:                  -0.097
REMARK UNBOUND:                -0.097
REMARK SMILES O=c1c(O)c(-c2cc(O)c(O)c(O)c2)oc2cc(O)cc(O)c12
REMARK SMILES IDX 5 1 3 2 2 3 1 4 23 5 21 6 20 7 18 8 17 9 16 10 15 11 6 12
REMARK SMILES IDX 7 13 8 14 14 15 10 16 12 17 9 18 11 20 13 22 4 24 22 26
REMARK SMILES IDX 19 28
REMARK H PARENT 9 19 11 21 13 23 4 25 22 27 19 29
REMARK Flexibility Score: inf
ROOT
ATOM      1  C   UNL     1      -9.370   7.794  15.914  1.00  0.00     0.180 A 
ATOM      2  C   UNL     1     -10.696   7.915  16.365  1.00  0.00     0.208 A 
ATOM      3  C   UNL     1     -10.934   8.459  17.638  1.00  0.00     0.238 A 
ATOM      4  O   UNL     1     -12.125   8.615  18.014  1.00  0.00    -0.285 OA
ATOM      5  C   UNL     1      -9.845   8.862  18.448  1.00  0.00     0.111 A 
ATOM      6  C   UNL     1      -9.969   9.388  19.769  1.00  0.00     0.134 A 
ATOM      7  C   UNL     1      -8.834   9.875  20.428  1.00  0.00     0.093 A 
ATOM      8  C   UNL     1      -7.571   9.794  19.841  1.00  0.00     0.123 A 
ATOM      9  C   UNL     1      -7.430   9.226  18.575  1.00  0.00     0.094 A 
ATOM     10  C   UNL     1      -8.549   8.765  17.878  1.00  0.00     0.146 A 
ATOM     11  O   UNL     1      -8.374   8.242  16.671  1.00  0.00    -0.452 OA
ENDROOT
BRANCH   1  12
ATOM     12  C   UNL     1      -9.037   7.208  14.595  1.00  0.00     0.029 A 
ATOM     13  C   UNL     1      -9.555   7.791  13.430  1.00  0.00     0.062 A 
ATOM     14  C   UNL     1      -9.243   7.275  12.167  1.00  0.00     0.162 A 
ATOM     15  C   UNL     1      -8.165   6.115  14.481  1.00  0.00     0.062 A 
ATOM     16  C   UNL     1      -8.382   6.157  12.060  1.00  0.00     0.200 A 
ATOM     17  C   UNL     1      -7.843   5.588  13.228  1.00  0.00     0.162 A 
BRANCH  14  18
ATOM     18  O   UNL     1      -9.808   7.904  11.054  1.00  0.00    -0.504 OA
ATOM     19  H   UNL     1     -10.050   8.884  11.019  1.00  0.00     0.293 HD
ENDBRANCH  14  18
BRANCH  16  20
ATOM     20  O   UNL     1      -8.041   5.594  10.827  1.00  0.00    -0.502 OA
ATOM     21  H   UNL     1      -7.429   4.799  10.717  1.00  0.00     0.293 HD
ENDBRANCH  16  20
BRANCH  17  22
ATOM     22  O   UNL     1      -6.978   4.495  13.164  1.00  0.00    -0.504 OA
ATOM     23  H   UNL     1      -7.142   3.643  13.687  1.00  0.00     0.293 HD
ENDBRANCH  17  22
ENDBRANCH   1  12
BRANCH   2  24
ATOM     24  O   UNL     1     -11.757   7.532  15.541  1.00  0.00    -0.502 OA
ATOM     25  H   UNL     1     -12.519   8.157  15.310  1.00  0.00     0.293 HD
ENDBRANCH   2  24
BRANCH   6  26
ATOM     26  O   UNL     1     -11.170   9.431  20.483  1.00  0.00    -0.507 OA
ATOM     27  H   UNL     1     -11.983   9.963  20.210  1.00  0.00     0.293 HD
ENDBRANCH   6  26
BRANCH   8  28
ATOM     28  O   UNL     1      -6.461  10.273  20.533  1.00  0.00    -0.508 OA
ATOM     29  H   UNL     1      -5.536  10.270  20.117  1.00  0.00     0.293 HD
ENDBRANCH   8  28
TORSDOF 7
ENDMDL
MODEL 2
REMARK VINA RESULT:    -5.883      0.125      1.769
REMARK INTER + INTRA:          -7.355
REMARK INTER:                  -7.288
REMARK INTRA:                  -0.068
REMARK UNBOUND:                -0.097
REMARK SMILES O=c1c(O)c(-c2cc(O)c(O)c(O)c2)oc2cc(O)cc(O)c12
REMARK SMILES IDX 5 1 3 2 2 3 1 4 23 5 21 6 20 7 18 8 17 9 16 10 15 11 6 12
REMARK SMILES IDX 7 13 8 14 14 15 10 16 12 17 9 18 11 20 13 22 4 24 22 26
REMARK SMILES IDX 19 28
REMARK H PARENT 9 19 11 21 13 23 4 25 22 27 19 29
REMARK Flexibility Score: inf
ROOT
ATOM      1  C   UNL     1      -9.329   7.824  15.800  1.00  0.00     0.180 A 
ATOM      2  C   UNL     1     -10.663   7.922  16.233  1.00  0.00     0.208 A 
ATOM      3  C   UNL     1     -10.926   8.446  17.509  1.00  0.00     0.238 A 
ATOM      4  O   UNL     1     -12.125   8.582  17.870  1.00  0.00    -0.285 OA
ATOM      5  C   UNL     1      -9.854   8.850  18.340  1.00  0.00     0.111 A 
ATOM      6  C   UNL     1     -10.004   9.357  19.667  1.00  0.00     0.134 A 
ATOM      7  C   UNL     1      -8.885   9.848  20.349  1.00  0.00     0.093 A 
ATOM      8  C   UNL     1      -7.612   9.790  19.780  1.00  0.00     0.123 A 
ATOM      9  C   UNL     1      -7.446   9.241  18.508  1.00  0.00     0.094 A 
ATOM     10  C   UNL     1      -8.549   8.776  17.788  1.00  0.00     0.146 A 
ATOM     11  O   UNL     1      -8.350   8.272  16.577  1.00  0.00    -0.452 OA
ENDROOT
BRANCH   1  12
ATOM     12  C   UNL     1      -8.970   7.259  14.478  1.00  0.00     0.029 A 
ATOM     13  C   UNL     1      -8.099   6.163  14.410  1.00  0.00     0.062 A 
ATOM     14  C   UNL     1      -7.755   5.591  13.179  1.00  0.00     0.162 A 
ATOM     15  C   UNL     1      -9.530   7.760  13.294  1.00  0.00     0.062 A 
ATOM     16  C   UNL     1      -8.305   6.117  11.985  1.00  0.00     0.200 A 
ATOM     17  C   UNL     1      -9.199   7.201  12.057  1.00  0.00     0.162 A 
BRANCH  14  18
ATOM     18  O   UNL     1      -6.872   4.510  13.192  1.00  0.00    -0.504 OA
ATOM     19  H   UNL     1      -5.867   4.599  13.250  1.00  0.00     0.293 HD
ENDBRANCH  14  18
BRANCH  16  20
ATOM     20  O   UNL     1      -7.994   5.594  10.727  1.00  0.00    -0.502 OA
ATOM     21  H   UNL     1      -7.578   4.686  10.577  1.00  0.00     0.293 HD
ENDBRANCH  16  20
BRANCH  17  22
ATOM     22  O   UNL     1      -9.775   7.737  10.904  1.00  0.00    -0.504 OA
ATOM     23  H   UNL     1     -10.771   7.901  10.822  1.00  0.00     0.293 HD
ENDBRANCH  17  22
ENDBRANCH   1  12
BRANCH   2  24
ATOM     24  O   UNL     1     -11.707   7.539  15.388  1.00  0.00    -0.502 OA
ATOM     25  H   UNL     1     -12.353   8.205  14.983  1.00  0.00     0.293 HD
ENDBRANCH   2  24
BRANCH   6  26
ATOM     26  O   UNL     1     -11.216   9.375  20.363  1.00  0.00    -0.507 OA
ATOM     27  H   UNL     1     -11.648  10.205  20.742  1.00  0.00     0.293 HD
ENDBRANCH   6  26
BRANCH   8  28
ATOM     28  O   UNL     1      -6.518  10.273  20.494  1.00  0.00    -0.508 OA
ATOM     29  H   UNL     1      -6.609  11.043  21.146  1.00  0.00     0.293 HD
ENDBRANCH   8  28
TORSDOF 7
ENDMDL
MODEL 3
REMARK VINA RESULT:    -5.818      4.178      8.149
REMARK INTER + INTRA:          -7.276
REMARK INTER:                  -7.699
REMARK INTRA:                   0.424
REMARK UNBOUND:                -0.097
REMARK SMILES O=c1c(O)c(-c2cc(O)c(O)c(O)c2)oc2cc(O)cc(O)c12
REMARK SMILES IDX 5 1 3 2 2 3 1 4 23 5 21 6 20 7 18 8 17 9 16 10 15 11 6 12
REMARK SMILES IDX 7 13 8 14 14 15 10 16 12 17 9 18 11 20 13 22 4 24 22 26
REMARK SMILES IDX 19 28
REMARK H PARENT 9 19 11 21 13 23 4 25 22 27 19 29
REMARK Flexibility Score: inf
ROOT
ATOM      1  C   UNL     1      -5.443  10.236  17.001  1.00  0.00     0.180 A 
ATOM      2  C   UNL     1      -4.096  10.583  17.199  1.00  0.00     0.208 A 
ATOM      3  C   UNL     1      -3.267  10.761  16.080  1.00  0.00     0.238 A 
ATOM      4  O   UNL     1      -2.076  11.125  16.262  1.00  0.00    -0.285 OA
ATOM      5  C   UNL     1      -3.792  10.576  14.778  1.00  0.00     0.111 A 
ATOM      6  C   UNL     1      -3.032  10.691  13.575  1.00  0.00     0.134 A 
ATOM      7  C   UNL     1      -3.683  10.615  12.337  1.00  0.00     0.093 A 
ATOM      8  C   UNL     1      -5.052  10.362  12.259  1.00  0.00     0.123 A 
ATOM      9  C   UNL     1      -5.793  10.188  13.428  1.00  0.00     0.094 A 
ATOM     10  C   UNL     1      -5.179  10.295  14.677  1.00  0.00     0.146 A 
ATOM     11  O   UNL     1      -5.921  10.134  15.766  1.00  0.00    -0.452 OA
ENDROOT
BRANCH   1  12
ATOM     12  C   UNL     1      -6.373  10.006  18.131  1.00  0.00     0.029 A 
ATOM     13  C   UNL     1      -7.614   9.400  17.892  1.00  0.00     0.062 A 
ATOM     14  C   UNL     1      -8.507   9.149  18.941  1.00  0.00     0.162 A 
ATOM     15  C   UNL     1      -6.014  10.329  19.448  1.00  0.00     0.062 A 
ATOM     16  C   UNL     1      -8.149   9.499  20.264  1.00  0.00     0.200 A 
ATOM     17  C   UNL     1      -6.893  10.085  20.506  1.00  0.00     0.162 A 
BRANCH  14  18
ATOM     18  O   UNL     1      -9.729   8.552  18.620  1.00  0.00    -0.504 OA
ATOM     19  H   UNL     1     -10.008   7.632  18.928  1.00  0.00     0.293 HD
ENDBRANCH  14  18
BRANCH  16  20
ATOM     20  O   UNL     1      -9.001   9.280  21.350  1.00  0.00    -0.502 OA
ATOM     21  H   UNL     1      -8.782   8.677  22.130  1.00  0.00     0.293 HD
ENDBRANCH  16  20
BRANCH  17  22
ATOM     22  O   UNL     1      -6.496  10.430  21.799  1.00  0.00    -0.504 OA
ATOM     23  H   UNL     1      -5.525  10.424  22.087  1.00  0.00     0.293 HD
ENDBRANCH  17  22
ENDBRANCH   1  12
BRANCH   2  24
ATOM     24  O   UNL     1      -3.604  10.783  18.492  1.00  0.00    -0.502 OA
ATOM     25  H   UNL     1      -3.591  11.693  18.935  1.00  0.00     0.293 HD
ENDBRANCH   2  24
BRANCH   6  26
ATOM     26  O   UNL     1      -1.644  10.852  13.540  1.00  0.00    -0.507 OA
ATOM     27  H   UNL     1      -1.170  11.679  13.208  1.00  0.00     0.293 HD
ENDBRANCH   6  26
BRANCH   8  28
ATOM     28  O   UNL     1      -5.664  10.277  11.010  1.00  0.00    -0.508 OA
ATOM     29  H   UNL     1      -6.018   9.397  10.653  1.00  0.00     0.293 HD
ENDBRANCH   8  28
TORSDOF 7
ENDMDL
MODEL 4
REMARK VINA RESULT:    -5.796      2.307      7.821
REMARK INTER + INTRA:          -7.248
REMARK INTER:                  -7.056
REMARK INTRA:                  -0.192
REMARK UNBOUND:                -0.097
REMARK SMILES O=c1c(O)c(-c2cc(O)c(O)c(O)c2)oc2cc(O)cc(O)c12
REMARK SMILES IDX 5 1 3 2 2 3 1 4 23 5 21 6 20 7 18 8 17 9 16 10 15 11 6 12
REMARK SMILES IDX 7 13 8 14 14 15 10 16 12 17 9 18 11 20 13 22 4 24 22 26
REMARK SMILES IDX 19 28
REMARK H PARENT 9 19 11 21 13 23 4 25 22 27 19 29
REMARK Flexibility Score: inf
ROOT
ATOM      1  C   UNL     1      -9.394   7.394  13.589  1.00  0.00     0.180 A 
ATOM      2  C   UNL     1      -8.064   7.443  13.136  1.00  0.00     0.208 A 
ATOM      3  C   UNL     1      -7.775   7.021  11.828  1.00  0.00     0.238 A 
ATOM      4  O   UNL     1      -6.592   7.118  11.410  1.00  0.00    -0.285 OA
ATOM      5  C   UNL     1      -8.815   6.541  10.996  1.00  0.00     0.111 A 
ATOM      6  C   UNL     1      -8.629   6.050   9.668  1.00  0.00     0.134 A 
ATOM      7  C   UNL     1      -9.747   5.723   8.890  1.00  0.00     0.093 A 
ATOM      8  C   UNL     1     -11.037   5.806   9.413  1.00  0.00     0.123 A 
ATOM      9  C   UNL     1     -11.226   6.227  10.730  1.00  0.00     0.094 A 
ATOM     10  C   UNL     1     -10.133   6.595  11.519  1.00  0.00     0.146 A 
ATOM     11  O   UNL     1     -10.356   7.001  12.762  1.00  0.00    -0.452 OA
ENDROOT
BRANCH   1  12
ATOM     12  C   UNL     1      -9.773   7.798  14.962  1.00  0.00     0.029 A 
ATOM     13  C   UNL     1     -10.704   8.830  15.145  1.00  0.00     0.062 A 
ATOM     14  C   UNL     1     -11.101   9.223  16.429  1.00  0.00     0.162 A 
ATOM     15  C   UNL     1      -9.265   7.130  16.087  1.00  0.00     0.062 A 
ATOM     16  C   UNL     1     -10.567   8.561  17.560  1.00  0.00     0.200 A 
ATOM     17  C   UNL     1      -9.651   7.509  17.375  1.00  0.00     0.162 A 
BRANCH  14  18
ATOM     18  O   UNL     1     -12.023  10.268  16.530  1.00  0.00    -0.504 OA
ATOM     19  H   UNL     1     -11.778  11.221  16.755  1.00  0.00     0.293 HD
ENDBRANCH  14  18
BRANCH  16  20
ATOM     20  O   UNL     1     -10.919   8.914  18.866  1.00  0.00    -0.502 OA
ATOM     21  H   UNL     1     -10.574   9.732  19.345  1.00  0.00     0.293 HD
ENDBRANCH  16  20
BRANCH  17  22
ATOM     22  O   UNL     1      -9.114   6.821  18.464  1.00  0.00    -0.504 OA
ATOM     23  H   UNL     1      -8.119   6.659  18.564  1.00  0.00     0.293 HD
ENDBRANCH  17  22
ENDBRANCH   1  12
BRANCH   2  24
ATOM     24  O   UNL     1      -7.056   7.941  13.965  1.00  0.00    -0.502 OA
ATOM     25  H   UNL     1      -6.961   7.662  14.934  1.00  0.00     0.293 HD
ENDBRANCH   2  24
BRANCH   6  26
ATOM     26  O   UNL     1      -7.378   5.842   9.081  1.00  0.00    -0.507 OA
ATOM     27  H   UNL     1      -6.494   6.031   9.529  1.00  0.00     0.293 HD
ENDBRANCH   6  26
BRANCH   8  28
ATOM     28  O   UNL     1     -12.125   5.457   8.616  1.00  0.00    -0.508 OA
ATOM     29  H   UNL     1     -12.019   5.277   7.624  1.00  0.00     0.293 HD
ENDBRANCH   8  28
TORSDOF 7
ENDMDL
MODEL 5
REMARK VINA RESULT:    -5.775      2.142      6.986
REMARK INTER + INTRA:          -7.223
REMARK INTER:                  -6.934
REMARK INTRA:                  -0.288
REMARK UNBOUND:                -0.097
REMARK SMILES O=c1c(O)c(-c2cc(O)c(O)c(O)c2)oc2cc(O)cc(O)c12
REMARK SMILES IDX 5 1 3 2 2 3 1 4 23 5 21 6 20 7 18 8 17 9 16 10 15 11 6 12
REMARK SMILES IDX 7 13 8 14 14 15 10 16 12 17 9 18 11 20 13 22 4 24 22 26
REMARK SMILES IDX 19 28
REMARK H PARENT 9 19 11 21 13 23 4 25 22 27 19 29
REMARK Flexibility Score: inf
ROOT
ATOM      1  C   UNL     1      -8.857   8.644  16.961  1.00  0.00     0.180 A 
ATOM      2  C   UNL     1      -9.306   7.320  16.816  1.00  0.00     0.208 A 
ATOM      3  C   UNL     1      -9.819   6.909  15.575  1.00  0.00     0.238 A 
ATOM      4  O   UNL     1     -10.169   5.708  15.434  1.00  0.00    -0.285 OA
ATOM      5  C   UNL     1      -9.890   7.829  14.501  1.00  0.00     0.111 A 
ATOM      6  C   UNL     1     -10.429   7.531  13.213  1.00  0.00     0.134 A 
ATOM      7  C   UNL     1     -10.329   8.478  12.187  1.00  0.00     0.093 A 
ATOM      8  C   UNL     1      -9.771   9.735  12.420  1.00  0.00     0.123 A 
ATOM      9  C   UNL     1      -9.296  10.058  13.691  1.00  0.00     0.094 A 
ATOM     10  C   UNL     1      -9.348   9.121  14.725  1.00  0.00     0.146 A 
ATOM     11  O   UNL     1      -8.876   9.464  15.917  1.00  0.00    -0.452 OA
ENDROOT
BRANCH   1  12
ATOM     12  C   UNL     1      -8.326   9.158  18.245  1.00  0.00     0.029 A 
ATOM     13  C   UNL     1      -6.965   9.477  18.351  1.00  0.00     0.062 A 
ATOM     14  C   UNL     1      -6.435   9.986  19.543  1.00  0.00     0.162 A 
ATOM     15  C   UNL     1      -9.169   9.391  19.342  1.00  0.00     0.062 A 
ATOM     16  C   UNL     1      -7.286  10.196  20.654  1.00  0.00     0.200 A 
ATOM     17  C   UNL     1      -8.656   9.899  20.539  1.00  0.00     0.162 A 
BRANCH  14  18
ATOM     18  O   UNL     1      -5.067  10.267  19.574  1.00  0.00    -0.504 OA
ATOM     19  H   UNL     1      -4.362   9.620  19.898  1.00  0.00     0.293 HD
ENDBRANCH  14  18
BRANCH  16  20
ATOM     20  O   UNL     1      -6.813  10.694  21.871  1.00  0.00    -0.502 OA
ATOM     21  H   UNL     1      -6.644  11.672  22.057  1.00  0.00     0.293 HD
ENDBRANCH  16  20
BRANCH  17  22
ATOM     22  O   UNL     1      -9.531  10.107  21.607  1.00  0.00    -0.504 OA
ATOM     23  H   UNL     1      -9.204  10.358  22.532  1.00  0.00     0.293 HD
ENDBRANCH  17  22
ENDBRANCH   1  12
BRANCH   2  24
ATOM     24  O   UNL     1      -9.206   6.422  17.881  1.00  0.00    -0.502 OA
ATOM     25  H   UNL     1      -8.506   6.513  18.606  1.00  0.00     0.293 HD
ENDBRANCH   2  24
BRANCH   6  26
ATOM     26  O   UNL     1     -11.090   6.340  12.900  1.00  0.00    -0.507 OA
ATOM     27  H   UNL     1     -10.659   5.542  12.457  1.00  0.00     0.293 HD
ENDBRANCH   6  26
BRANCH   8  28
ATOM     28  O   UNL     1      -9.703  10.659  11.379  1.00  0.00    -0.508 OA
ATOM     29  H   UNL     1      -9.574  10.366  10.418  1.00  0.00     0.293 HD
ENDBRANCH   8  28
TORSDOF 7
ENDMDL
MODEL 6
REMARK VINA RESULT:    -5.621      2.564      3.836
REMARK INTER + INTRA:          -7.032
REMARK INTER:                  -6.843
REMARK INTRA:                  -0.190
REMARK UNBOUND:                -0.097
REMARK SMILES O=c1c(O)c(-c2cc(O)c(O)c(O)c2)oc2cc(O)cc(O)c12
REMARK SMILES IDX 5 1 3 2 2 3 1 4 23 5 21 6 20 7 18 8 17 9 16 10 15 11 6 12
REMARK SMILES IDX 7 13 8 14 14 15 10 16 12 17 9 18 11 20 13 22 4 24 22 26
REMARK SMILES IDX 19 28
REMARK H PARENT 9 19 11 21 13 23 4 25 22 27 19 29
REMARK Flexibility Score: inf
ROOT
ATOM      1  C   UNL     1     -10.446   7.322  12.686  1.00  0.00     0.180 A 
ATOM      2  C   UNL     1     -11.223   8.491  12.757  1.00  0.00     0.208 A 
ATOM      3  C   UNL     1     -11.475   9.066  14.013  1.00  0.00     0.238 A 
ATOM      4  O   UNL     1     -12.125  10.142  14.065  1.00  0.00    -0.285 OA
ATOM      5  C   UNL     1     -10.961   8.456  15.183  1.00  0.00     0.111 A 
ATOM      6  C   UNL     1     -11.189   8.930  16.510  1.00  0.00     0.134 A 
ATOM      7  C   UNL     1     -10.524   8.325  17.583  1.00  0.00     0.093 A 
ATOM      8  C   UNL     1      -9.693   7.222  17.385  1.00  0.00     0.123 A 
ATOM      9  C   UNL     1      -9.511   6.713  16.099  1.00  0.00     0.094 A 
ATOM     10  C   UNL     1     -10.131   7.319  15.004  1.00  0.00     0.146 A 
ATOM     11  O   UNL     1      -9.923   6.811  13.796  1.00  0.00    -0.452 OA
ENDROOT
BRANCH   1  12
ATOM     12  C   UNL     1     -10.158   6.644  11.401  1.00  0.00     0.029 A 
ATOM     13  C   UNL     1     -11.214   6.103  10.655  1.00  0.00     0.062 A 
ATOM     14  C   UNL     1     -10.979   5.474   9.426  1.00  0.00     0.162 A 
ATOM     15  C   UNL     1      -8.855   6.582  10.884  1.00  0.00     0.062 A 
ATOM     16  C   UNL     1      -9.660   5.395   8.921  1.00  0.00     0.200 A 
ATOM     17  C   UNL     1      -8.603   5.960   9.659  1.00  0.00     0.162 A 
BRANCH  14  18
ATOM     18  O   UNL     1     -12.081   4.949   8.747  1.00  0.00    -0.504 OA
ATOM     19  H   UNL     1     -12.518   5.389   7.950  1.00  0.00     0.293 HD
ENDBRANCH  14  18
BRANCH  16  20
ATOM     20  O   UNL     1      -9.363   4.773   7.705  1.00  0.00    -0.502 OA
ATOM     21  H   UNL     1      -8.460   4.810   7.254  1.00  0.00     0.293 HD
ENDBRANCH  16  20
BRANCH  17  22
ATOM     22  O   UNL     1      -7.291   5.915   9.188  1.00  0.00    -0.504 OA
ATOM     23  H   UNL     1      -6.984   5.234   8.504  1.00  0.00     0.293 HD
ENDBRANCH  17  22
ENDBRANCH   1  12
BRANCH   2  24
ATOM     24  O   UNL     1     -11.701   9.089  11.588  1.00  0.00    -0.502 OA
ATOM     25  H   UNL     1     -11.528  10.060  11.363  1.00  0.00     0.293 HD
ENDBRANCH   2  24
BRANCH   6  26
ATOM     26  O   UNL     1     -12.072   9.966  16.829  1.00  0.00    -0.507 OA
ATOM     27  H   UNL     1     -12.979  10.098  16.407  1.00  0.00     0.293 HD
ENDBRANCH   6  26
BRANCH   8  28
ATOM     28  O   UNL     1      -9.060   6.634  18.478  1.00  0.00    -0.508 OA
ATOM     29  H   UNL     1      -8.248   7.059  18.912  1.00  0.00     0.293 HD
ENDBRANCH   8  28
TORSDOF 7
ENDMDL
MODEL 7
REMARK VINA RESULT:    -5.462      1.979      3.905
REMARK INTER + INTRA:          -6.836
REMARK INTER:                  -6.563
REMARK INTRA:                  -0.273
REMARK UNBOUND:                -0.097
REMARK SMILES O=c1c(O)c(-c2cc(O)c(O)c(O)c2)oc2cc(O)cc(O)c12
REMARK SMILES IDX 5 1 3 2 2 3 1 4 23 5 21 6 20 7 18 8 17 9 16 10 15 11 6 12
REMARK SMILES IDX 7 13 8 14 14 15 10 16 12 17 9 18 11 20 13 22 4 24 22 26
REMARK SMILES IDX 19 28
REMARK H PARENT 9 19 11 21 13 23 4 25 22 27 19 29
REMARK Flexibility Score: inf
ROOT
ATOM      1  C   UNL     1      -8.073   9.569  16.980  1.00  0.00     0.180 A 
ATOM      2  C   UNL     1      -6.813   9.755  17.576  1.00  0.00     0.208 A 
ATOM      3  C   UNL     1      -6.744  10.012  18.955  1.00  0.00     0.238 A 
ATOM      4  O   UNL     1      -5.612  10.124  19.492  1.00  0.00    -0.285 OA
ATOM      5  C   UNL     1      -7.934  10.094  19.717  1.00  0.00     0.111 A 
ATOM      6  C   UNL     1      -7.984  10.389  21.113  1.00  0.00     0.134 A 
ATOM      7  C   UNL     1      -9.206  10.315  21.792  1.00  0.00     0.093 A 
ATOM      8  C   UNL     1     -10.389  10.023  21.113  1.00  0.00     0.123 A 
ATOM      9  C   UNL     1     -10.361   9.793  19.738  1.00  0.00     0.094 A 
ATOM     10  C   UNL     1      -9.152   9.823  19.040  1.00  0.00     0.146 A 
ATOM     11  O   UNL     1      -9.166   9.587  17.734  1.00  0.00    -0.452 OA
ENDROOT
BRANCH   1  12
ATOM     12  C   UNL     1      -8.229   9.320  15.528  1.00  0.00     0.029 A 
ATOM     13  C   UNL     1      -8.701   8.075  15.089  1.00  0.00     0.062 A 
ATOM     14  C   UNL     1      -8.880   7.813  13.725  1.00  0.00     0.162 A 
ATOM     15  C   UNL     1      -7.969  10.323  14.583  1.00  0.00     0.062 A 
ATOM     16  C   UNL     1      -8.594   8.822  12.775  1.00  0.00     0.200 A 
ATOM     17  C   UNL     1      -8.143  10.079  13.219  1.00  0.00     0.162 A 
BRANCH  14  18
ATOM     18  O   UNL     1      -9.343   6.545  13.366  1.00  0.00    -0.504 OA
ATOM     19  H   UNL     1      -9.040   5.686  13.803  1.00  0.00     0.293 HD
ENDBRANCH  14  18
BRANCH  16  20
ATOM     20  O   UNL     1      -8.746   8.617  11.401  1.00  0.00    -0.502 OA
ATOM     21  H   UNL     1      -9.367   9.153  10.813  1.00  0.00     0.293 HD
ENDBRANCH  16  20
BRANCH  17  22
ATOM     22  O   UNL     1      -7.866  11.105  12.314  1.00  0.00    -0.504 OA
ATOM     23  H   UNL     1      -6.919  11.356  12.054  1.00  0.00     0.293 HD
ENDBRANCH  17  22
ENDBRANCH   1  12
BRANCH   2  24
ATOM     24  O   UNL     1      -5.650   9.648  16.809  1.00  0.00    -0.502 OA
ATOM     25  H   UNL     1      -5.461  10.253  16.020  1.00  0.00     0.293 HD
ENDBRANCH   2  24
BRANCH   6  26
ATOM     26  O   UNL     1      -6.875  10.782  21.868  1.00  0.00    -0.507 OA
ATOM     27  H   UNL     1      -5.931  10.458  21.714  1.00  0.00     0.293 HD
ENDBRANCH   6  26
BRANCH   8  28
ATOM     28  O   UNL     1     -11.591   9.975  21.818  1.00  0.00    -0.508 OA
ATOM     29  H   UNL     1     -12.125  10.814  22.012  1.00  0.00     0.293 HD
ENDBRANCH   8  28
TORSDOF 7
ENDMDL
MODEL 8
REMARK VINA RESULT:    -5.436      3.571      5.517
REMARK INTER + INTRA:          -6.804
REMARK INTER:                  -6.481
REMARK INTRA:                  -0.323
REMARK UNBOUND:                -0.097
REMARK SMILES O=c1c(O)c(-c2cc(O)c(O)c(O)c2)oc2cc(O)cc(O)c12
REMARK SMILES IDX 5 1 3 2 2 3 1 4 23 5 21 6 20 7 18 8 17 9 16 10 15 11 6 12
REMARK SMILES IDX 7 13 8 14 14 15 10 16 12 17 9 18 11 20 13 22 4 24 22 26
REMARK SMILES IDX 19 28
REMARK H PARENT 9 19 11 21 13 23 4 25 22 27 19 29
REMARK Flexibility Score: inf
ROOT
ATOM      1  C   UNL     1      -8.257   7.075  11.339  1.00  0.00     0.180 A 
ATOM      2  C   UNL     1      -9.398   7.892  11.278  1.00  0.00     0.208 A 
ATOM      3  C   UNL     1     -10.277   7.915  12.373  1.00  0.00     0.238 A 
ATOM      4  O   UNL     1     -11.269   8.690  12.335  1.00  0.00    -0.285 OA
ATOM      5  C   UNL     1     -10.012   7.111  13.507  1.00  0.00     0.111 A 
ATOM      6  C   UNL     1     -10.857   7.025  14.655  1.00  0.00     0.134 A 
ATOM      7  C   UNL     1     -10.430   6.298  15.773  1.00  0.00     0.093 A 
ATOM      8  C   UNL     1      -9.223   5.599  15.760  1.00  0.00     0.123 A 
ATOM      9  C   UNL     1      -8.419   5.627  14.620  1.00  0.00     0.094 A 
ATOM     10  C   UNL     1      -8.800   6.373  13.503  1.00  0.00     0.146 A 
ATOM     11  O   UNL     1      -8.001   6.382  12.443  1.00  0.00    -0.452 OA
ENDROOT
BRANCH   1  12
ATOM     12  C   UNL     1      -7.296   6.978  10.216  1.00  0.00     0.029 A 
ATOM     13  C   UNL     1      -6.045   7.601  10.322  1.00  0.00     0.062 A 
ATOM     14  C   UNL     1      -5.105   7.512   9.287  1.00  0.00     0.162 A 
ATOM     15  C   UNL     1      -7.588   6.226   9.068  1.00  0.00     0.062 A 
ATOM     16  C   UNL     1      -5.415   6.771   8.122  1.00  0.00     0.200 A 
ATOM     17  C   UNL     1      -6.662   6.126   8.027  1.00  0.00     0.162 A 
BRANCH  14  18
ATOM     18  O   UNL     1      -3.886   8.171   9.463  1.00  0.00    -0.504 OA
ATOM     19  H   UNL     1      -3.502   8.836   8.807  1.00  0.00     0.293 HD
ENDBRANCH  14  18
BRANCH  16  20
ATOM     20  O   UNL     1      -4.522   6.653   7.055  1.00  0.00    -0.502 OA
ATOM     21  H   UNL     1      -3.578   6.305   7.140  1.00  0.00     0.293 HD
ENDBRANCH  16  20
BRANCH  17  22
ATOM     22  O   UNL     1      -6.999   5.373   6.901  1.00  0.00    -0.504 OA
ATOM     23  H   UNL     1      -6.796   4.383   6.832  1.00  0.00     0.293 HD
ENDBRANCH  17  22
ENDBRANCH   1  12
BRANCH   2  24
ATOM     24  O   UNL     1      -9.630   8.695  10.159  1.00  0.00    -0.502 OA
ATOM     25  H   UNL     1     -10.109   9.585  10.217  1.00  0.00     0.293 HD
ENDBRANCH   2  24
BRANCH   6  26
ATOM     26  O   UNL     1     -12.124   7.610  14.738  1.00  0.00    -0.507 OA
ATOM     27  H   UNL     1     -12.935   7.168  15.146  1.00  0.00     0.293 HD
ENDBRANCH   6  26
BRANCH   8  28
ATOM     28  O   UNL     1      -8.838   4.872  16.884  1.00  0.00    -0.508 OA
ATOM     29  H   UNL     1      -8.767   5.307  17.797  1.00  0.00     0.293 HD
ENDBRANCH   8  28
TORSDOF 7
ENDMDL
MODEL 9
REMARK VINA RESULT:    -5.414      1.303      6.810
REMARK INTER + INTRA:          -6.776
REMARK INTER:                  -6.927
REMARK INTRA:                   0.151
REMARK UNBOUND:                -0.097
REMARK SMILES O=c1c(O)c(-c2cc(O)c(O)c(O)c2)oc2cc(O)cc(O)c12
REMARK SMILES IDX 5 1 3 2 2 3 1 4 23 5 21 6 20 7 18 8 17 9 16 10 15 11 6 12
REMARK SMILES IDX 7 13 8 14 14 15 10 16 12 17 9 18 11 20 13 22 4 24 22 26
REMARK SMILES IDX 19 28
REMARK H PARENT 9 19 11 21 13 23 4 25 22 27 19 29
REMARK Flexibility Score: inf
ROOT
ATOM      1  C   UNL     1      -9.046   8.849  16.791  1.00  0.00     0.180 A 
ATOM      2  C   UNL     1     -10.365   9.221  16.479  1.00  0.00     0.208 A 
ATOM      3  C   UNL     1     -10.926   8.783  15.268  1.00  0.00     0.238 A 
ATOM      4  O   UNL     1     -12.125   9.075  15.018  1.00  0.00    -0.285 OA
ATOM      5  C   UNL     1     -10.158   7.993  14.380  1.00  0.00     0.111 A 
ATOM      6  C   UNL     1     -10.612   7.529  13.109  1.00  0.00     0.134 A 
ATOM      7  C   UNL     1      -9.816   6.645  12.371  1.00  0.00     0.093 A 
ATOM      8  C   UNL     1      -8.554   6.261  12.827  1.00  0.00     0.123 A 
ATOM      9  C   UNL     1      -8.075   6.757  14.040  1.00  0.00     0.094 A 
ATOM     10  C   UNL     1      -8.862   7.611  14.815  1.00  0.00     0.146 A 
ATOM     11  O   UNL     1      -8.375   8.052  15.968  1.00  0.00    -0.452 OA
ENDROOT
BRANCH   1  12
ATOM     12  C   UNL     1      -8.378   9.291  18.037  1.00  0.00     0.029 A 
ATOM     13  C   UNL     1      -9.094   9.292  19.242  1.00  0.00     0.062 A 
ATOM     14  C   UNL     1      -8.486   9.684  20.441  1.00  0.00     0.162 A 
ATOM     15  C   UNL     1      -7.023   9.654  18.049  1.00  0.00     0.062 A 
ATOM     16  C   UNL     1      -7.125  10.072  20.442  1.00  0.00     0.200 A 
ATOM     17  C   UNL     1      -6.401  10.047  19.236  1.00  0.00     0.162 A 
BRANCH  14  18
ATOM     18  O   UNL     1      -9.270   9.670  21.598  1.00  0.00    -0.504 OA
ATOM     19  H   UNL     1      -9.932  10.393  21.843  1.00  0.00     0.293 HD
ENDBRANCH  14  18
BRANCH  16  20
ATOM     20  O   UNL     1      -6.467  10.480  21.605  1.00  0.00    -0.502 OA
ATOM     21  H   UNL     1      -6.210   9.859  22.359  1.00  0.00     0.293 HD
ENDBRANCH  16  20
BRANCH  17  22
ATOM     22  O   UNL     1      -5.053  10.407  19.199  1.00  0.00    -0.504 OA
ATOM     23  H   UNL     1      -4.458  10.365  20.018  1.00  0.00     0.293 HD
ENDBRANCH  17  22
ENDBRANCH   1  12
BRANCH   2  24
ATOM     24  O   UNL     1     -11.113   9.983  17.379  1.00  0.00    -0.502 OA
ATOM     25  H   UNL     1     -12.110   9.855  17.504  1.00  0.00     0.293 HD
ENDBRANCH   2  24
BRANCH   6  26
ATOM     26  O   UNL     1     -11.817   7.923  12.518  1.00  0.00    -0.507 OA
ATOM     27  H   UNL     1     -11.913   8.685  11.863  1.00  0.00     0.293 HD
ENDBRANCH   6  26
BRANCH   8  28
ATOM     28  O   UNL     1      -7.782   5.393  12.059  1.00  0.00    -0.508 OA
ATOM     29  H   UNL     1      -7.966   5.250  11.073  1.00  0.00     0.293 HD
ENDBRANCH   8  28
TORSDOF 7
ENDMDL
