MODEL 1
REMARK VINA RESULT:    -2.971      0.000      0.000
REMARK INTER + INTRA:          -4.353
REMARK INTER:                  -4.100
REMARK INTRA:                  -0.252
REMARK UNBOUND:                -0.252
REMARK SMILES CCCCCCCCO
REMARK SMILES IDX 5 1 4 2 3 3 2 4 1 5 6 6 7 7 8 8 9 9
REMARK H PARENT 9 10
REMARK Flexibility Score: inf
ROOT
ATOM      1  C   UNL     1       2.502   0.792  -3.394  1.00  0.00     0.000 C 
ENDROOT
BRANCH   1   2
ATOM      2  C   UNL     1       3.707   1.741  -3.521  1.00  0.00    -0.000 C 
BRANCH   2   3
ATOM      3  C   UNL     1       5.019   0.991  -3.806  1.00  0.00    -0.000 C 
BRANCH   3   4
ATOM      4  C   UNL     1       4.956  -0.489  -3.403  1.00  0.00    -0.003 C 
ATOM      5  C   UNL     1       5.951  -1.320  -4.208  1.00  0.00     0.004 C 
ENDBRANCH   3   4
ENDBRANCH   2   3
ENDBRANCH   1   2
BRANCH   1   6
ATOM      6  C   UNL     1       1.168   1.485  -3.719  1.00  0.00     0.002 C 
BRANCH   6   7
ATOM      7  C   UNL     1       1.350   2.747  -4.577  1.00  0.00     0.028 C 
BRANCH   7   8
ATOM      8  C   UNL     1       0.169   3.711  -4.421  1.00  0.00     0.156 C 
BRANCH   8   9
ATOM      9  O   UNL     1      -0.816   3.168  -3.582  1.00  0.00    -0.396 OA
ATOM     10  H   UNL     1      -0.557   2.225  -3.414  1.00  0.00     0.210 HD
ENDBRANCH   8   9
ENDBRANCH   7   8
ENDBRANCH   6   7
ENDBRANCH   1   6
TORSDOF 7
ENDMDL
MODEL 2
REMARK VINA RESULT:    -2.970      2.155      2.984
REMARK INTER + INTRA:          -4.350
REMARK INTER:                  -4.259
REMARK INTRA:                  -0.091
REMARK UNBOUND:                -0.252
REMARK SMILES CCCCCCCCO
REMARK SMILES IDX 5 1 4 2 3 3 2 4 1 5 6 6 7 7 8 8 9 9
REMARK H PARENT 9 10
REMARK Flexibility Score: inf
ROOT
ATOM      1  C   UNL     1      -0.044   1.817  -4.224  1.00  0.00     0.000 C 
ENDROOT
BRANCH   1   2
ATOM      2  C   UNL     1       1.485   1.970  -4.140  1.00  0.00    -0.000 C 
BRANCH   2   3
ATOM      3  C   UNL     1       2.152   0.808  -3.385  1.00  0.00    -0.000 C 
BRANCH   3   4
ATOM      4  C   UNL     1       3.651   1.040  -3.145  1.00  0.00    -0.003 C 
ATOM      5  C   UNL     1       4.430  -0.270  -3.228  1.00  0.00     0.004 C 
ENDBRANCH   3   4
ENDBRANCH   2   3
ENDBRANCH   1   2
BRANCH   1   6
ATOM      6  C   UNL     1      -0.664   2.686  -5.331  1.00  0.00     0.002 C 
BRANCH   6   7
ATOM      7  C   UNL     1      -2.070   3.190  -4.970  1.00  0.00     0.028 C 
BRANCH   7   8
ATOM      8  C   UNL     1      -3.039   3.056  -6.151  1.00  0.00     0.156 C 
BRANCH   8   9
ATOM      9  O   UNL     1      -3.330   1.708  -6.411  1.00  0.00    -0.396 OA
ATOM     10  H   UNL     1      -2.557   1.343  -6.915  1.00  0.00     0.210 HD
ENDBRANCH   8   9
ENDBRANCH   7   8
ENDBRANCH   6   7
ENDBRANCH   1   6
TORSDOF 7
ENDMDL
MODEL 3
REMARK VINA RESULT:    -2.919      3.157      4.755
REMARK INTER + INTRA:          -4.281
REMARK INTER:                  -4.007
REMARK INTRA:                  -0.274
REMARK UNBOUND:                -0.252
REMARK SMILES CCCCCCCCO
REMARK SMILES IDX 5 1 4 2 3 3 2 4 1 5 6 6 7 7 8 8 9 9
REMARK H PARENT 9 10
REMARK Flexibility Score: inf
ROOT
ATOM      1  C   UNL     1       0.008   2.626  -6.549  1.00  0.00     0.000 C 
ENDROOT
BRANCH   1   2
ATOM      2  C   UNL     1      -0.739   2.634  -5.205  1.00  0.00    -0.000 C 
BRANCH   2   3
ATOM      3  C   UNL     1       0.016   1.866  -4.107  1.00  0.00    -0.000 C 
BRANCH   3   4
ATOM      4  C   UNL     1       1.538   2.054  -4.190  1.00  0.00    -0.003 C 
ATOM      5  C   UNL     1       2.269   0.955  -3.425  1.00  0.00     0.004 C 
ENDBRANCH   3   4
ENDBRANCH   2   3
ENDBRANCH   1   2
BRANCH   1   6
ATOM      6  C   UNL     1      -0.804   3.278  -7.680  1.00  0.00     0.002 C 
BRANCH   6   7
ATOM      7  C   UNL     1      -2.311   3.314  -7.382  1.00  0.00     0.028 C 
BRANCH   7   8
ATOM      8  C   UNL     1      -3.070   2.242  -8.171  1.00  0.00     0.156 C 
BRANCH   8   9
ATOM      9  O   UNL     1      -3.679   1.319  -7.307  1.00  0.00    -0.396 OA
ATOM     10  H   UNL     1      -4.017   0.578  -7.875  1.00  0.00     0.210 HD
ENDBRANCH   8   9
ENDBRANCH   7   8
ENDBRANCH   6   7
ENDBRANCH   1   6
TORSDOF 7
ENDMDL
MODEL 4
REMARK VINA RESULT:    -2.889      3.849      5.127
REMARK INTER + INTRA:          -4.239
REMARK INTER:                  -3.756
REMARK INTRA:                  -0.483
REMARK UNBOUND:                -0.252
REMARK SMILES CCCCCCCCO
REMARK SMILES IDX 5 1 4 2 3 3 2 4 1 5 6 6 7 7 8 8 9 9
REMARK H PARENT 9 10
REMARK Flexibility Score: inf
ROOT
ATOM      1  C   UNL     1      -1.137   3.660  -4.168  1.00  0.00     0.000 C 
ENDROOT
BRANCH   1   2
ATOM      2  C   UNL     1      -0.500   2.279  -4.400  1.00  0.00    -0.000 C 
BRANCH   2   3
ATOM      3  C   UNL     1       0.980   2.374  -4.803  1.00  0.00    -0.000 C 
BRANCH   3   4
ATOM      4  C   UNL     1       1.206   3.279  -6.024  1.00  0.00    -0.003 C 
ATOM      5  C   UNL     1       0.603   2.663  -7.283  1.00  0.00     0.004 C 
ENDBRANCH   3   4
ENDBRANCH   2   3
ENDBRANCH   1   2
BRANCH   1   6
ATOM      6  C   UNL     1      -2.470   3.829  -4.916  1.00  0.00     0.002 C 
BRANCH   6   7
ATOM      7  C   UNL     1      -2.800   2.628  -5.817  1.00  0.00     0.028 C 
BRANCH   7   8
ATOM      8  C   UNL     1      -3.181   3.071  -7.234  1.00  0.00     0.156 C 
BRANCH   8   9
ATOM      9  O   UNL     1      -3.731   2.005  -7.962  1.00  0.00    -0.396 OA
ATOM     10  H   UNL     1      -3.638   1.196  -7.396  1.00  0.00     0.210 HD
ENDBRANCH   8   9
ENDBRANCH   7   8
ENDBRANCH   6   7
ENDBRANCH   1   6
TORSDOF 7
ENDMDL
MODEL 5
REMARK VINA RESULT:    -2.888      2.718      5.961
REMARK INTER + INTRA:          -4.238
REMARK INTER:                  -4.070
REMARK INTRA:                  -0.168
REMARK UNBOUND:                -0.252
REMARK SMILES CCCCCCCCO
REMARK SMILES IDX 5 1 4 2 3 3 2 4 1 5 6 6 7 7 8 8 9 9
REMARK H PARENT 9 10
REMARK Flexibility Score: inf
ROOT
ATOM      1  C   UNL     1      -0.050   2.068  -4.198  1.00  0.00     0.000 C 
ENDROOT
BRANCH   1   2
ATOM      2  C   UNL     1      -0.663   3.475  -4.098  1.00  0.00    -0.000 C 
BRANCH   2   3
ATOM      3  C   UNL     1      -1.997   3.591  -4.854  1.00  0.00    -0.000 C 
BRANCH   3   4
ATOM      4  C   UNL     1      -1.897   3.116  -6.311  1.00  0.00    -0.003 C 
ATOM      5  C   UNL     1      -3.238   2.583  -6.809  1.00  0.00     0.004 C 
ENDBRANCH   3   4
ENDBRANCH   2   3
ENDBRANCH   1   2
BRANCH   1   6
ATOM      6  C   UNL     1       1.487   2.089  -4.145  1.00  0.00     0.002 C 
BRANCH   6   7
ATOM      7  C   UNL     1       2.074   0.842  -3.465  1.00  0.00     0.028 C 
BRANCH   7   8
ATOM      8  C   UNL     1       3.538   1.052  -3.064  1.00  0.00     0.156 C 
BRANCH   8   9
ATOM      9  O   UNL     1       3.747   0.700  -1.722  1.00  0.00    -0.396 OA
ATOM     10  H   UNL     1       2.850   0.569  -1.320  1.00  0.00     0.210 HD
ENDBRANCH   8   9
ENDBRANCH   7   8
ENDBRANCH   6   7
ENDBRANCH   1   6
TORSDOF 7
ENDMDL
MODEL 6
REMARK VINA RESULT:    -2.879      2.215      5.401
REMARK INTER + INTRA:          -4.226
REMARK INTER:                  -3.892
REMARK INTRA:                  -0.334
REMARK UNBOUND:                -0.252
REMARK SMILES CCCCCCCCO
REMARK SMILES IDX 5 1 4 2 3 3 2 4 1 5 6 6 7 7 8 8 9 9
REMARK H PARENT 9 10
REMARK Flexibility Score: inf
ROOT
ATOM      1  C   UNL     1       1.722   3.176  -5.859  1.00  0.00     0.000 C 
ENDROOT
BRANCH   1   2
ATOM      2  C   UNL     1       0.349   2.572  -6.199  1.00  0.00    -0.000 C 
BRANCH   2   3
ATOM      3  C   UNL     1      -0.493   2.279  -4.946  1.00  0.00    -0.000 C 
BRANCH   3   4
ATOM      4  C   UNL     1      -1.948   2.752  -5.085  1.00  0.00    -0.003 C 
ATOM      5  C   UNL     1      -2.171   4.067  -4.345  1.00  0.00     0.004 C 
ENDBRANCH   3   4
ENDBRANCH   2   3
ENDBRANCH   1   2
BRANCH   1   6
ATOM      6  C   UNL     1       2.112   2.965  -4.387  1.00  0.00     0.002 C 
BRANCH   6   7
ATOM      7  C   UNL     1       3.482   2.287  -4.228  1.00  0.00     0.028 C 
BRANCH   7   8
ATOM      8  C   UNL     1       3.421   1.112  -3.244  1.00  0.00     0.156 C 
BRANCH   8   9
ATOM      9  O   UNL     1       2.092   0.773  -2.949  1.00  0.00    -0.396 OA
ATOM     10  H   UNL     1       1.533   1.542  -3.233  1.00  0.00     0.210 HD
ENDBRANCH   8   9
ENDBRANCH   7   8
ENDBRANCH   6   7
ENDBRANCH   1   6
TORSDOF 7
ENDMDL
MODEL 7
REMARK VINA RESULT:    -2.856     11.535     12.354
REMARK INTER + INTRA:          -4.194
REMARK INTER:                  -3.805
REMARK INTRA:                  -0.390
REMARK UNBOUND:                -0.252
REMARK SMILES CCCCCCCCO
REMARK SMILES IDX 5 1 4 2 3 3 2 4 1 5 6 6 7 7 8 8 9 9
REMARK H PARENT 9 10
REMARK Flexibility Score: inf
ROOT
ATOM      1  C   UNL     1       0.220  -0.213   7.991  1.00  0.00     0.000 C 
ENDROOT
BRANCH   1   2
ATOM      2  C   UNL     1       0.397   0.450   9.368  1.00  0.00    -0.000 C 
BRANCH   2   3
ATOM      3  C   UNL     1      -0.660   1.533   9.641  1.00  0.00    -0.000 C 
BRANCH   3   4
ATOM      4  C   UNL     1      -0.040   2.899   9.971  1.00  0.00    -0.003 C 
ATOM      5  C   UNL     1       0.733   3.453   8.777  1.00  0.00     0.004 C 
ENDBRANCH   3   4
ENDBRANCH   2   3
ENDBRANCH   1   2
BRANCH   1   6
ATOM      6  C   UNL     1      -1.131   0.130   7.341  1.00  0.00     0.002 C 
BRANCH   6   7
ATOM      7  C   UNL     1      -0.973   0.830   5.981  1.00  0.00     0.028 C 
BRANCH   7   8
ATOM      8  C   UNL     1      -0.445  -0.130   4.909  1.00  0.00     0.156 C 
BRANCH   8   9
ATOM      9  O   UNL     1      -0.522   0.450   3.634  1.00  0.00    -0.396 OA
ATOM     10  H   UNL     1      -0.040   1.316   3.687  1.00  0.00     0.210 HD
ENDBRANCH   8   9
ENDBRANCH   7   8
ENDBRANCH   6   7
ENDBRANCH   1   6
TORSDOF 7
ENDMDL
MODEL 8
REMARK VINA RESULT:    -2.832      2.469      5.579
REMARK INTER + INTRA:          -4.160
REMARK INTER:                  -4.067
REMARK INTRA:                  -0.093
REMARK UNBOUND:                -0.252
REMARK SMILES CCCCCCCCO
REMARK SMILES IDX 5 1 4 2 3 3 2 4 1 5 6 6 7 7 8 8 9 9
REMARK H PARENT 9 10
REMARK Flexibility Score: inf
ROOT
ATOM      1  C   UNL     1       2.176   0.780  -3.376  1.00  0.00     0.000 C 
ENDROOT
BRANCH   1   2
ATOM      2  C   UNL     1       1.511   1.939  -4.138  1.00  0.00    -0.000 C 
BRANCH   2   3
ATOM      3  C   UNL     1      -0.025   1.864  -4.101  1.00  0.00    -0.000 C 
BRANCH   3   4
ATOM      4  C   UNL     1      -0.690   2.799  -5.122  1.00  0.00    -0.003 C 
ATOM      5  C   UNL     1      -1.714   3.707  -4.449  1.00  0.00     0.004 C 
ENDBRANCH   3   4
ENDBRANCH   2   3
ENDBRANCH   1   2
BRANCH   1   6
ATOM      6  C   UNL     1       3.657   1.053  -3.062  1.00  0.00     0.002 C 
BRANCH   6   7
ATOM      7  C   UNL     1       4.470  -0.237  -2.872  1.00  0.00     0.028 C 
BRANCH   7   8
ATOM      8  C   UNL     1       4.937  -0.402  -1.421  1.00  0.00     0.156 C 
BRANCH   8   9
ATOM      9  O   UNL     1       4.162   0.380  -0.551  1.00  0.00    -0.396 OA
ATOM     10  H   UNL     1       3.712  -0.249   0.070  1.00  0.00     0.210 HD
ENDBRANCH   8   9
ENDBRANCH   7   8
ENDBRANCH   6   7
ENDBRANCH   1   6
TORSDOF 7
ENDMDL
MODEL 9
REMARK VINA RESULT:    -2.807      2.750      6.420
REMARK INTER + INTRA:          -4.126
REMARK INTER:                  -3.912
REMARK INTRA:                  -0.214
REMARK UNBOUND:                -0.252
REMARK SMILES CCCCCCCCO
REMARK SMILES IDX 5 1 4 2 3 3 2 4 1 5 6 6 7 7 8 8 9 9
REMARK H PARENT 9 10
REMARK Flexibility Score: inf
ROOT
ATOM      1  C   UNL     1      -0.270   2.623  -6.076  1.00  0.00     0.000 C 
ENDROOT
BRANCH   1   2
ATOM      2  C   UNL     1      -1.540   2.611  -5.208  1.00  0.00    -0.000 C 
BRANCH   2   3
ATOM      3  C   UNL     1      -2.816   2.862  -6.027  1.00  0.00    -0.000 C 
BRANCH   3   4
ATOM      4  C   UNL     1      -3.418   4.253  -5.776  1.00  0.00    -0.003 C 
ATOM      5  C   UNL     1      -3.064   4.761  -4.381  1.00  0.00     0.004 C 
ENDBRANCH   3   4
ENDBRANCH   2   3
ENDBRANCH   1   2
BRANCH   1   6
ATOM      6  C   UNL     1       1.010   2.819  -5.248  1.00  0.00     0.002 C 
BRANCH   6   7
ATOM      7  C   UNL     1       1.082   1.876  -4.036  1.00  0.00     0.028 C 
BRANCH   7   8
ATOM      8  C   UNL     1       2.530   1.523  -3.679  1.00  0.00     0.156 C 
BRANCH   8   9
ATOM      9  O   UNL     1       2.577   0.606  -2.618  1.00  0.00    -0.396 OA
ATOM     10  H   UNL     1       3.463   0.717  -2.186  1.00  0.00     0.210 HD
ENDBRANCH   8   9
ENDBRANCH   7   8
ENDBRANCH   6   7
ENDBRANCH   1   6
TORSDOF 7
ENDMDL
