MODEL 1
REMARK VINA RESULT:    -6.102      0.000      0.000
REMARK INTER + INTRA:          -6.741
REMARK INTER:                  -6.458
REMARK INTRA:                  -0.283
REMARK UNBOUND:                -0.283
REMARK SMILES CC1=CC[C@@H]2[C@H]3[C@@H](C(C)C)CC[C@]2(C)[C@@H]13
REMARK SMILES IDX 1 1 2 2 3 3 4 4 5 5 6 6 15 7 13 8 12 9 11 10 7 11 14 12 8 13
REMARK SMILES IDX 9 14 10 15
REMARK H PARENT
REMARK Flexibility Score: inf
ROOT
ATOM      1  C   UNL     1       5.362   5.980  10.925  1.00  0.00     0.039 C 
ATOM      2  C   UNL     1       6.148   6.114  12.198  1.00  0.00    -0.073 C 
ATOM      3  C   UNL     1       7.107   5.216  12.557  1.00  0.00    -0.027 C 
ATOM      4  C   UNL     1       7.942   5.495  13.814  1.00  0.00     0.031 C 
ATOM      5  C   UNL     1       7.484   6.829  14.489  1.00  0.00     0.003 C 
ATOM      6  C   UNL     1       5.940   6.799  14.560  1.00  0.00     0.004 C 
ATOM      7  C   UNL     1       5.954   7.333  13.109  1.00  0.00     0.024 C 
ATOM      8  C   UNL     1       7.326   7.960  13.446  1.00  0.00    -0.022 C 
ATOM      9  C   UNL     1       7.113   9.320  14.158  1.00  0.00     0.008 C 
ATOM     10  C   UNL     1       6.143   9.235  15.377  1.00  0.00     0.005 C 
ATOM     11  C   UNL     1       5.397   7.862  15.566  1.00  0.00    -0.005 C 
ATOM     12  C   UNL     1       8.372   8.102  12.312  1.00  0.00     0.012 C 
ENDROOT
BRANCH  11  13
ATOM     13  C   UNL     1       5.436   7.327  17.045  1.00  0.00    -0.014 C 
ATOM     14  C   UNL     1       6.529   7.982  17.925  1.00  0.00     0.007 C 
ATOM     15  C   UNL     1       4.089   7.535  17.773  1.00  0.00     0.007 C 
ENDBRANCH  11  13
TORSDOF 1
ENDMDL
MODEL 2
REMARK VINA RESULT:    -5.829     11.660     14.771
REMARK INTER + INTRA:          -6.453
REMARK INTER:                  -6.183
REMARK INTRA:                  -0.270
REMARK UNBOUND:                -0.283
REMARK SMILES CC1=CC[C@@H]2[C@H]3[C@@H](C(C)C)CC[C@]2(C)[C@@H]13
REMARK SMILES IDX 1 1 2 2 3 3 4 4 5 5 6 6 15 7 13 8 12 9 11 10 7 11 14 12 8 13
REMARK SMILES IDX 9 14 10 15
REMARK H PARENT
REMARK Flexibility Score: inf
ROOT
ATOM      1  C   UNL     1      11.078   4.170  30.905  1.00  0.00     0.039 C 
ATOM      2  C   UNL     1      10.705   4.548  29.500  1.00  0.00    -0.073 C 
ATOM      3  C   UNL     1       9.876   3.783  28.738  1.00  0.00    -0.027 C 
ATOM      4  C   UNL     1       9.454   4.304  27.358  1.00  0.00     0.031 C 
ATOM      5  C   UNL     1      10.120   5.690  27.071  1.00  0.00     0.003 C 
ATOM      6  C   UNL     1      11.615   5.565  27.443  1.00  0.00     0.004 C 
ATOM      7  C   UNL     1      11.186   5.875  28.896  1.00  0.00     0.024 C 
ATOM      8  C   UNL     1       9.988   6.637  28.287  1.00  0.00    -0.022 C 
ATOM      9  C   UNL     1      10.430   8.071  27.899  1.00  0.00     0.008 C 
ATOM     10  C   UNL     1      11.714   8.105  27.014  1.00  0.00     0.005 C 
ATOM     11  C   UNL     1      12.453   6.727  26.824  1.00  0.00    -0.005 C 
ATOM     12  C   UNL     1       8.657   6.679  29.079  1.00  0.00     0.012 C 
ENDROOT
BRANCH  11  13
ATOM     13  C   UNL     1      12.840   6.426  25.329  1.00  0.00    -0.014 C 
ATOM     14  C   UNL     1      11.948   7.145  24.288  1.00  0.00     0.007 C 
ATOM     15  C   UNL     1      14.301   6.820  25.017  1.00  0.00     0.007 C 
ENDBRANCH  11  13
TORSDOF 1
ENDMDL
MODEL 3
REMARK VINA RESULT:    -5.715     11.010     13.888
REMARK INTER + INTRA:          -6.332
REMARK INTER:                  -6.059
REMARK INTRA:                  -0.274
REMARK UNBOUND:                -0.283
REMARK SMILES CC1=CC[C@@H]2[C@H]3[C@@H](C(C)C)CC[C@]2(C)[C@@H]13
REMARK SMILES IDX 1 1 2 2 3 3 4 4 5 5 6 6 15 7 13 8 12 9 11 10 7 11 14 12 8 13
REMARK SMILES IDX 9 14 10 15
REMARK H PARENT
REMARK Flexibility Score: inf
ROOT
ATOM      1  C   UNL     1      10.908   8.366  27.092  1.00  0.00     0.039 C 
ATOM      2  C   UNL     1      12.065   7.660  26.445  1.00  0.00    -0.073 C 
ATOM      3  C   UNL     1      12.286   6.327  26.610  1.00  0.00    -0.027 C 
ATOM      4  C   UNL     1      13.422   5.665  25.818  1.00  0.00     0.031 C 
ATOM      5  C   UNL     1      14.163   6.724  24.938  1.00  0.00     0.003 C 
ATOM      6  C   UNL     1      14.439   7.952  25.835  1.00  0.00     0.004 C 
ATOM      7  C   UNL     1      13.004   8.412  25.492  1.00  0.00     0.024 C 
ATOM      8  C   UNL     1      13.159   7.620  24.175  1.00  0.00    -0.022 C 
ATOM      9  C   UNL     1      13.903   8.490  23.131  1.00  0.00     0.008 C 
ATOM     10  C   UNL     1      15.240   9.090  23.665  1.00  0.00     0.005 C 
ATOM     11  C   UNL     1      15.517   8.887  25.202  1.00  0.00    -0.005 C 
ATOM     12  C   UNL     1      11.896   6.981  23.543  1.00  0.00     0.012 C 
ENDROOT
BRANCH  11  13
ATOM     13  C   UNL     1      16.974   8.380  25.514  1.00  0.00    -0.014 C 
ATOM     14  C   UNL     1      17.647   7.630  24.338  1.00  0.00     0.007 C 
ATOM     15  C   UNL     1      17.919   9.538  25.907  1.00  0.00     0.007 C 
ENDBRANCH  11  13
TORSDOF 1
ENDMDL
MODEL 4
REMARK VINA RESULT:    -5.597      1.239      4.586
REMARK INTER + INTRA:          -6.207
REMARK INTER:                  -5.853
REMARK INTRA:                  -0.354
REMARK UNBOUND:                -0.283
REMARK SMILES CC1=CC[C@@H]2[C@H]3[C@@H](C(C)C)CC[C@]2(C)[C@@H]13
REMARK SMILES IDX 1 1 2 2 3 3 4 4 5 5 6 6 15 7 13 8 12 9 11 10 7 11 14 12 8 13
REMARK SMILES IDX 9 14 10 15
REMARK H PARENT
REMARK Flexibility Score: inf
ROOT
ATOM      1  C   UNL     1       6.222   7.538  19.005  1.00  0.00     0.039 C 
ATOM      2  C   UNL     1       5.883   7.396  17.548  1.00  0.00    -0.073 C 
ATOM      3  C   UNL     1       4.760   6.756  17.123  1.00  0.00    -0.027 C 
ATOM      4  C   UNL     1       4.432   6.761  15.624  1.00  0.00     0.031 C 
ATOM      5  C   UNL     1       5.535   7.532  14.827  1.00  0.00     0.003 C 
ATOM      6  C   UNL     1       6.904   7.023  15.332  1.00  0.00     0.004 C 
ATOM      7  C   UNL     1       6.763   8.053  16.476  1.00  0.00     0.024 C 
ATOM      8  C   UNL     1       5.883   8.876  15.508  1.00  0.00    -0.022 C 
ATOM      9  C   UNL     1       6.788   9.727  14.582  1.00  0.00     0.008 C 
ATOM     10  C   UNL     1       7.901   8.898  13.870  1.00  0.00     0.005 C 
ATOM     11  C   UNL     1       8.051   7.403  14.344  1.00  0.00    -0.005 C 
ATOM     12  C   UNL     1       4.746   9.746  16.101  1.00  0.00     0.012 C 
ENDROOT
BRANCH  11  13
ATOM     13  C   UNL     1       8.152   6.377  13.156  1.00  0.00    -0.014 C 
ATOM     14  C   UNL     1       7.501   5.004  13.450  1.00  0.00     0.007 C 
ATOM     15  C   UNL     1       7.497   6.918  11.866  1.00  0.00     0.007 C 
ENDBRANCH  11  13
TORSDOF 1
ENDMDL
MODEL 5
REMARK VINA RESULT:    -5.317      9.525     12.275
REMARK INTER + INTRA:          -5.911
REMARK INTER:                  -5.636
REMARK INTRA:                  -0.275
REMARK UNBOUND:                -0.283
REMARK SMILES CC1=CC[C@@H]2[C@H]3[C@@H](C(C)C)CC[C@]2(C)[C@@H]13
REMARK SMILES IDX 1 1 2 2 3 3 4 4 5 5 6 6 15 7 13 8 12 9 11 10 7 11 14 12 8 13
REMARK SMILES IDX 9 14 10 15
REMARK H PARENT
REMARK Flexibility Score: inf
ROOT
ATOM      1  C   UNL     1      11.623   6.664  20.929  1.00  0.00     0.039 C 
ATOM      2  C   UNL     1      12.375   7.785  21.589  1.00  0.00    -0.073 C 
ATOM      3  C   UNL     1      12.529   9.002  20.999  1.00  0.00    -0.027 C 
ATOM      4  C   UNL     1      13.209  10.125  21.793  1.00  0.00     0.031 C 
ATOM      5  C   UNL     1      13.637   9.611  23.207  1.00  0.00     0.003 C 
ATOM      6  C   UNL     1      14.342   8.250  23.005  1.00  0.00     0.004 C 
ATOM      7  C   UNL     1      12.931   7.621  23.011  1.00  0.00     0.024 C 
ATOM      8  C   UNL     1      12.495   8.818  23.885  1.00  0.00    -0.022 C 
ATOM      9  C   UNL     1      12.847   8.532  25.367  1.00  0.00     0.008 C 
ATOM     10  C   UNL     1      14.332   8.105  25.579  1.00  0.00     0.005 C 
ATOM     11  C   UNL     1      15.165   7.845  24.268  1.00  0.00    -0.005 C 
ATOM     12  C   UNL     1      11.037   9.330  23.765  1.00  0.00     0.012 C 
ENDROOT
BRANCH  11  13
ATOM     13  C   UNL     1      16.580   8.532  24.279  1.00  0.00    -0.014 C 
ATOM     14  C   UNL     1      16.784   9.540  25.437  1.00  0.00     0.007 C 
ATOM     15  C   UNL     1      17.726   7.500  24.375  1.00  0.00     0.007 C 
ENDBRANCH  11  13
TORSDOF 1
ENDMDL
MODEL 6
REMARK VINA RESULT:    -5.297      1.383      2.765
REMARK INTER + INTRA:          -5.889
REMARK INTER:                  -5.607
REMARK INTRA:                  -0.282
REMARK UNBOUND:                -0.283
REMARK SMILES CC1=CC[C@@H]2[C@H]3[C@@H](C(C)C)CC[C@]2(C)[C@@H]13
REMARK SMILES IDX 1 1 2 2 3 3 4 4 5 5 6 6 15 7 13 8 12 9 11 10 7 11 14 12 8 13
REMARK SMILES IDX 9 14 10 15
REMARK H PARENT
REMARK Flexibility Score: inf
ROOT
ATOM      1  C   UNL     1       7.962   4.351  14.301  1.00  0.00     0.039 C 
ATOM      2  C   UNL     1       7.441   5.757  14.392  1.00  0.00    -0.073 C 
ATOM      3  C   UNL     1       8.101   6.813  13.843  1.00  0.00    -0.027 C 
ATOM      4  C   UNL     1       7.438   8.196  13.881  1.00  0.00     0.031 C 
ATOM      5  C   UNL     1       6.056   8.119  14.610  1.00  0.00     0.003 C 
ATOM      6  C   UNL     1       6.269   7.311  15.910  1.00  0.00     0.004 C 
ATOM      7  C   UNL     1       6.081   6.044  15.046  1.00  0.00     0.024 C 
ATOM      8  C   UNL     1       5.223   6.918  14.105  1.00  0.00    -0.022 C 
ATOM      9  C   UNL     1       3.776   7.002  14.654  1.00  0.00     0.008 C 
ATOM     10  C   UNL     1       3.705   7.431  16.152  1.00  0.00     0.005 C 
ATOM     11  C   UNL     1       5.085   7.516  16.907  1.00  0.00    -0.005 C 
ATOM     12  C   UNL     1       5.208   6.584  12.592  1.00  0.00     0.012 C 
ENDROOT
BRANCH  11  13
ATOM     13  C   UNL     1       5.259   8.836  17.745  1.00  0.00    -0.014 C 
ATOM     14  C   UNL     1       4.316   9.987  17.315  1.00  0.00     0.007 C 
ATOM     15  C   UNL     1       5.022   8.601  19.253  1.00  0.00     0.007 C 
ENDBRANCH  11  13
TORSDOF 1
ENDMDL
MODEL 7
REMARK VINA RESULT:    -5.265      1.250      2.727
REMARK INTER + INTRA:          -5.856
REMARK INTER:                  -5.778
REMARK INTRA:                  -0.078
REMARK UNBOUND:                -0.283
REMARK SMILES CC1=CC[C@@H]2[C@H]3[C@@H](C(C)C)CC[C@]2(C)[C@@H]13
REMARK SMILES IDX 1 1 2 2 3 3 4 4 5 5 6 6 15 7 13 8 12 9 11 10 7 11 14 12 8 13
REMARK SMILES IDX 9 14 10 15
REMARK H PARENT
REMARK Flexibility Score: inf
ROOT
ATOM      1  C   UNL     1       8.617   8.507  11.912  1.00  0.00     0.039 C 
ATOM      2  C   UNL     1       7.403   7.805  12.451  1.00  0.00    -0.073 C 
ATOM      3  C   UNL     1       6.554   7.106  11.651  1.00  0.00    -0.027 C 
ATOM      4  C   UNL     1       5.406   6.322  12.301  1.00  0.00     0.031 C 
ATOM      5  C   UNL     1       5.427   6.512  13.854  1.00  0.00     0.003 C 
ATOM      6  C   UNL     1       5.604   8.023  14.128  1.00  0.00     0.004 C 
ATOM      7  C   UNL     1       7.122   7.783  13.960  1.00  0.00     0.024 C 
ATOM      8  C   UNL     1       6.854   6.332  14.421  1.00  0.00    -0.022 C 
ATOM      9  C   UNL     1       6.813   6.280  15.970  1.00  0.00     0.008 C 
ATOM     10  C   UNL     1       5.845   7.330  16.599  1.00  0.00     0.005 C 
ATOM     11  C   UNL     1       5.230   8.381  15.600  1.00  0.00    -0.005 C 
ATOM     12  C   UNL     1       7.757   5.201  13.867  1.00  0.00     0.012 C 
ENDROOT
BRANCH  11  13
ATOM     13  C   UNL     1       3.678   8.573  15.771  1.00  0.00    -0.014 C 
ATOM     14  C   UNL     1       2.851   8.162  14.528  1.00  0.00     0.007 C 
ATOM     15  C   UNL     1       3.123   7.768  16.967  1.00  0.00     0.007 C 
ENDBRANCH  11  13
TORSDOF 1
ENDMDL
MODEL 8
REMARK VINA RESULT:    -5.172     11.078     13.267
REMARK INTER + INTRA:          -5.758
REMARK INTER:                  -5.510
REMARK INTRA:                  -0.248
REMARK UNBOUND:                -0.283
REMARK SMILES CC1=CC[C@@H]2[C@H]3[C@@H](C(C)C)CC[C@]2(C)[C@@H]13
REMARK SMILES IDX 1 1 2 2 3 3 4 4 5 5 6 6 15 7 13 8 12 9 11 10 7 11 14 12 8 13
REMARK SMILES IDX 9 14 10 15
REMARK H PARENT
REMARK Flexibility Score: inf
ROOT
ATOM      1  C   UNL     1      17.611   7.365  24.006  1.00  0.00     0.039 C 
ATOM      2  C   UNL     1      16.369   8.114  24.396  1.00  0.00    -0.073 C 
ATOM      3  C   UNL     1      16.408   9.396  24.852  1.00  0.00    -0.027 C 
ATOM      4  C   UNL     1      15.084  10.125  25.115  1.00  0.00     0.031 C 
ATOM      5  C   UNL     1      13.873   9.183  24.809  1.00  0.00     0.003 C 
ATOM      6  C   UNL     1      14.170   7.823  25.479  1.00  0.00     0.004 C 
ATOM      7  C   UNL     1      14.985   7.479  24.211  1.00  0.00     0.024 C 
ATOM      8  C   UNL     1      14.056   8.456  23.456  1.00  0.00    -0.022 C 
ATOM      9  C   UNL     1      12.748   7.726  23.059  1.00  0.00     0.008 C 
ATOM     10  C   UNL     1      12.058   6.998  24.253  1.00  0.00     0.005 C 
ATOM     11  C   UNL     1      12.880   6.953  25.596  1.00  0.00    -0.005 C 
ATOM     12  C   UNL     1      14.629   9.235  22.245  1.00  0.00     0.012 C 
ENDROOT
BRANCH  11  13
ATOM     13  C   UNL     1      12.032   7.346  26.861  1.00  0.00    -0.014 C 
ATOM     14  C   UNL     1      10.898   8.361  26.572  1.00  0.00     0.007 C 
ATOM     15  C   UNL     1      11.375   6.116  27.525  1.00  0.00     0.007 C 
ENDBRANCH  11  13
TORSDOF 1
ENDMDL
MODEL 9
REMARK VINA RESULT:    -5.127      8.199     10.766
REMARK INTER + INTRA:          -5.710
REMARK INTER:                  -5.481
REMARK INTRA:                  -0.229
REMARK UNBOUND:                -0.283
REMARK SMILES CC1=CC[C@@H]2[C@H]3[C@@H](C(C)C)CC[C@]2(C)[C@@H]13
REMARK SMILES IDX 1 1 2 2 3 3 4 4 5 5 6 6 15 7 13 8 12 9 11 10 7 11 14 12 8 13
REMARK SMILES IDX 9 14 10 15
REMARK H PARENT
REMARK Flexibility Score: inf
ROOT
ATOM      1  C   UNL     1       8.939   9.106  22.828  1.00  0.00     0.039 C 
ATOM      2  C   UNL     1      10.224   8.450  22.412  1.00  0.00    -0.073 C 
ATOM      3  C   UNL     1      10.256   7.224  21.821  1.00  0.00    -0.027 C 
ATOM      4  C   UNL     1      11.601   6.682  21.322  1.00  0.00     0.031 C 
ATOM      5  C   UNL     1      12.748   7.701  21.627  1.00  0.00     0.003 C 
ATOM      6  C   UNL     1      12.578   8.154  23.096  1.00  0.00     0.004 C 
ATOM      7  C   UNL     1      11.561   9.190  22.562  1.00  0.00     0.024 C 
ATOM      8  C   UNL     1      12.341   9.139  21.229  1.00  0.00    -0.022 C 
ATOM      9  C   UNL     1      13.567  10.084  21.310  1.00  0.00     0.008 C 
ATOM     10  C   UNL     1      14.455   9.840  22.569  1.00  0.00     0.005 C 
ATOM     11  C   UNL     1      13.875   8.835  23.634  1.00  0.00    -0.005 C 
ATOM     12  C   UNL     1      11.565   9.373  19.909  1.00  0.00     0.012 C 
ENDROOT
BRANCH  11  13
ATOM     13  C   UNL     1      14.923   7.771  24.126  1.00  0.00    -0.014 C 
ATOM     14  C   UNL     1      16.348   8.338  24.337  1.00  0.00     0.007 C 
ATOM     15  C   UNL     1      14.500   7.111  25.457  1.00  0.00     0.007 C 
ENDBRANCH  11  13
TORSDOF 1
ENDMDL
