MODEL 1
REMARK VINA RESULT:    -4.476      0.000      0.000
REMARK INTER + INTRA:          -4.476
REMARK INTER:                  -4.476
REMARK INTRA:                   0.000
REMARK UNBOUND:                 0.000
REMARK SMILES CC1=CC=CC(C)(C)[C@H]1C
REMARK SMILES IDX 10 1 9 2 2 3 3 4 4 5 5 6 6 7 7 8 8 9 1 10
REMARK H PARENT
REMARK Flexibility Score: inf
ROOT
ATOM      1  C   UNL     1     135.770 135.246 163.509  1.00  0.00     0.013 C 
ATOM      2  C   UNL     1     136.111 136.309 162.448  1.00  0.00     0.021 C 
ATOM      3  C   UNL     1     137.464 136.915 162.794  1.00  0.00    -0.070 C 
ATOM      4  C   UNL     1     138.588 136.365 162.305  1.00  0.00    -0.001 C 
ATOM      5  C   UNL     1     138.528 135.257 161.335  1.00  0.00    -0.004 C 
ATOM      6  C   UNL     1     137.374 134.929 160.744  1.00  0.00    -0.020 C 
ATOM      7  C   UNL     1     136.117 135.748 160.979  1.00  0.00    -0.011 C 
ATOM      8  C   UNL     1     136.116 136.928 159.979  1.00  0.00     0.016 C 
ATOM      9  C   UNL     1     134.875 134.878 160.689  1.00  0.00     0.016 C 
ATOM     10  C   UNL     1     137.556 138.069 163.750  1.00  0.00     0.040 C 
ENDROOT
TORSDOF 0
ENDMDL
MODEL 2
REMARK VINA RESULT:    -3.205     14.381     16.367
REMARK INTER + INTRA:          -3.205
REMARK INTER:                  -3.205
REMARK INTRA:                   0.000
REMARK UNBOUND:                 0.000
REMARK SMILES CC1=CC=CC(C)(C)[C@H]1C
REMARK SMILES IDX 10 1 9 2 2 3 3 4 4 5 5 6 6 7 7 8 8 9 1 10
REMARK H PARENT
REMARK Flexibility Score: inf
ROOT
ATOM      1  C   UNL     1     154.116 136.660 160.401  1.00  0.00     0.013 C 
ATOM      2  C   UNL     1     153.179 137.246 161.474  1.00  0.00     0.021 C 
ATOM      3  C   UNL     1     151.767 136.746 161.201  1.00  0.00    -0.070 C 
ATOM      4  C   UNL     1     151.346 135.598 161.757  1.00  0.00    -0.001 C 
ATOM      5  C   UNL     1     152.186 134.875 162.729  1.00  0.00    -0.004 C 
ATOM      6  C   UNL     1     153.272 135.452 163.255  1.00  0.00    -0.020 C 
ATOM      7  C   UNL     1     153.614 136.898 162.944  1.00  0.00    -0.011 C 
ATOM      8  C   UNL     1     152.843 137.801 163.935  1.00  0.00     0.016 C 
ATOM      9  C   UNL     1     155.124 137.127 163.168  1.00  0.00     0.016 C 
ATOM     10  C   UNL     1     150.873 137.481 160.245  1.00  0.00     0.040 C 
ENDROOT
TORSDOF 0
ENDMDL
MODEL 3
REMARK VINA RESULT:    -3.143      1.021      3.522
REMARK INTER + INTRA:          -3.143
REMARK INTER:                  -3.143
REMARK INTRA:                   0.000
REMARK UNBOUND:                 0.000
REMARK SMILES CC1=CC=CC(C)(C)[C@H]1C
REMARK SMILES IDX 10 1 9 2 2 3 3 4 4 5 5 6 6 7 7 8 8 9 1 10
REMARK H PARENT
REMARK Flexibility Score: inf
ROOT
ATOM      1  C   UNL     1     137.520 134.879 160.772  1.00  0.00     0.013 C 
ATOM      2  C   UNL     1     137.108 136.304 161.185  1.00  0.00     0.021 C 
ATOM      3  C   UNL     1     135.589 136.394 161.148  1.00  0.00    -0.070 C 
ATOM      4  C   UNL     1     134.875 136.093 162.246  1.00  0.00    -0.001 C 
ATOM      5  C   UNL     1     135.544 135.798 163.526  1.00  0.00    -0.004 C 
ATOM      6  C   UNL     1     136.848 136.046 163.688  1.00  0.00    -0.020 C 
ATOM      7  C   UNL     1     137.653 136.729 162.598  1.00  0.00    -0.011 C 
ATOM      8  C   UNL     1     137.498 138.258 162.768  1.00  0.00     0.016 C 
ATOM      9  C   UNL     1     139.147 136.381 162.768  1.00  0.00     0.016 C 
ATOM     10  C   UNL     1     134.879 136.730 159.869  1.00  0.00     0.040 C 
ENDROOT
TORSDOF 0
ENDMDL
MODEL 4
REMARK VINA RESULT:    -2.881     14.930     16.865
REMARK INTER + INTRA:          -2.881
REMARK INTER:                  -2.881
REMARK INTRA:                   0.000
REMARK UNBOUND:                 0.000
REMARK SMILES CC1=CC=CC(C)(C)[C@H]1C
REMARK SMILES IDX 10 1 9 2 2 3 3 4 4 5 5 6 6 7 7 8 8 9 1 10
REMARK H PARENT
REMARK Flexibility Score: inf
ROOT
ATOM      1  C   UNL     1     152.531 137.480 160.588  1.00  0.00     0.013 C 
ATOM      2  C   UNL     1     152.504 137.299 162.117  1.00  0.00     0.021 C 
ATOM      3  C   UNL     1     152.722 135.825 162.429  1.00  0.00    -0.070 C 
ATOM      4  C   UNL     1     153.969 135.356 162.604  1.00  0.00    -0.001 C 
ATOM      5  C   UNL     1     155.125 136.271 162.622  1.00  0.00    -0.004 C 
ATOM      6  C   UNL     1     154.949 137.594 162.700  1.00  0.00    -0.020 C 
ATOM      7  C   UNL     1     153.561 138.186 162.872  1.00  0.00    -0.011 C 
ATOM      8  C   UNL     1     153.228 138.208 164.381  1.00  0.00     0.016 C 
ATOM      9  C   UNL     1     153.559 139.644 162.363  1.00  0.00     0.016 C 
ATOM     10  C   UNL     1     151.560 134.875 162.455  1.00  0.00     0.040 C 
ENDROOT
TORSDOF 0
ENDMDL
MODEL 5
REMARK VINA RESULT:    -2.806      1.192      3.139
REMARK INTER + INTRA:          -2.806
REMARK INTER:                  -2.806
REMARK INTRA:                   0.000
REMARK UNBOUND:                 0.000
REMARK SMILES CC1=CC=CC(C)(C)[C@H]1C
REMARK SMILES IDX 10 1 9 2 2 3 3 4 4 5 5 6 6 7 7 8 8 9 1 10
REMARK H PARENT
REMARK Flexibility Score: inf
ROOT
ATOM      1  C   UNL     1     136.461 137.122 160.648  1.00  0.00     0.013 C 
ATOM      2  C   UNL     1     136.821 136.053 161.697  1.00  0.00     0.021 C 
ATOM      3  C   UNL     1     138.329 135.845 161.672  1.00  0.00    -0.070 C 
ATOM      4  C   UNL     1     139.119 136.590 162.462  1.00  0.00    -0.001 C 
ATOM      5  C   UNL     1     138.542 137.521 163.449  1.00  0.00    -0.004 C 
ATOM      6  C   UNL     1     137.238 137.480 163.744  1.00  0.00    -0.020 C 
ATOM      7  C   UNL     1     136.337 136.413 163.149  1.00  0.00    -0.011 C 
ATOM      8  C   UNL     1     136.421 135.155 164.044  1.00  0.00     0.016 C 
ATOM      9  C   UNL     1     134.875 136.909 163.164  1.00  0.00     0.016 C 
ATOM     10  C   UNL     1     138.945 134.876 160.705  1.00  0.00     0.040 C 
ENDROOT
TORSDOF 0
ENDMDL
MODEL 6
REMARK VINA RESULT:    -2.317     14.729     16.504
REMARK INTER + INTRA:          -2.317
REMARK INTER:                  -2.317
REMARK INTRA:                   0.000
REMARK UNBOUND:                 0.000
REMARK SMILES CC1=CC=CC(C)(C)[C@H]1C
REMARK SMILES IDX 10 1 9 2 2 3 3 4 4 5 5 6 6 7 7 8 8 9 1 10
REMARK H PARENT
REMARK Flexibility Score: inf
ROOT
ATOM      1  C   UNL     1     155.125 136.558 162.959  1.00  0.00     0.013 C 
ATOM      2  C   UNL     1     153.632 136.801 163.247  1.00  0.00     0.021 C 
ATOM      3  C   UNL     1     153.427 138.289 163.495  1.00  0.00    -0.070 C 
ATOM      4  C   UNL     1     153.148 139.106 162.465  1.00  0.00    -0.001 C 
ATOM      5  C   UNL     1     152.912 138.566 161.114  1.00  0.00    -0.004 C 
ATOM      6  C   UNL     1     152.739 137.253 160.923  1.00  0.00    -0.020 C 
ATOM      7  C   UNL     1     152.682 136.296 162.100  1.00  0.00    -0.011 C 
ATOM      8  C   UNL     1     151.226 136.256 162.620  1.00  0.00     0.016 C 
ATOM      9  C   UNL     1     153.056 134.876 161.625  1.00  0.00     0.016 C 
ATOM     10  C   UNL     1     153.623 138.864 164.868  1.00  0.00     0.040 C 
ENDROOT
TORSDOF 0
ENDMDL
MODEL 7
REMARK VINA RESULT:    -2.160     14.679     16.433
REMARK INTER + INTRA:          -2.160
REMARK INTER:                  -2.160
REMARK INTRA:                   0.000
REMARK UNBOUND:                 0.000
REMARK SMILES CC1=CC=CC(C)(C)[C@H]1C
REMARK SMILES IDX 10 1 9 2 2 3 3 4 4 5 5 6 6 7 7 8 8 9 1 10
REMARK H PARENT
REMARK Flexibility Score: inf
ROOT
ATOM      1  C   UNL     1     151.372 135.259 162.272  1.00  0.00     0.013 C 
ATOM      2  C   UNL     1     152.606 135.815 161.537  1.00  0.00     0.021 C 
ATOM      3  C   UNL     1     152.203 137.101 160.828  1.00  0.00    -0.070 C 
ATOM      4  C   UNL     1     152.309 138.278 161.466  1.00  0.00    -0.001 C 
ATOM      5  C   UNL     1     152.929 138.361 162.801  1.00  0.00    -0.004 C 
ATOM      6  C   UNL     1     153.605 137.323 163.307  1.00  0.00    -0.020 C 
ATOM      7  C   UNL     1     153.837 136.069 162.483  1.00  0.00    -0.011 C 
ATOM      8  C   UNL     1     155.106 136.280 161.627  1.00  0.00     0.016 C 
ATOM      9  C   UNL     1     154.093 134.875 163.428  1.00  0.00     0.016 C 
ATOM     10  C   UNL     1     151.603 137.052 159.453  1.00  0.00     0.040 C 
ENDROOT
TORSDOF 0
ENDMDL
MODEL 8
REMARK VINA RESULT:    -2.122     16.173     18.082
REMARK INTER + INTRA:          -2.122
REMARK INTER:                  -2.122
REMARK INTRA:                   0.000
REMARK UNBOUND:                 0.000
REMARK SMILES CC1=CC=CC(C)(C)[C@H]1C
REMARK SMILES IDX 10 1 9 2 2 3 3 4 4 5 5 6 6 7 7 8 8 9 1 10
REMARK H PARENT
REMARK Flexibility Score: inf
ROOT
ATOM      1  C   UNL     1     136.223 154.696 160.393  1.00  0.00     0.013 C 
ATOM      2  C   UNL     1     136.986 153.615 161.180  1.00  0.00     0.021 C 
ATOM      3  C   UNL     1     138.455 154.012 161.240  1.00  0.00    -0.070 C 
ATOM      4  C   UNL     1     138.900 154.772 162.254  1.00  0.00    -0.001 C 
ATOM      5  C   UNL     1     138.017 155.125 163.380  1.00  0.00    -0.004 C 
ATOM      6  C   UNL     1     136.837 154.515 163.540  1.00  0.00    -0.020 C 
ATOM      7  C   UNL     1     136.419 153.376 162.628  1.00  0.00    -0.011 C 
ATOM      8  C   UNL     1     137.002 152.062 163.197  1.00  0.00     0.016 C 
ATOM      9  C   UNL     1     134.880 153.255 162.631  1.00  0.00     0.016 C 
ATOM     10  C   UNL     1     139.388 153.635 160.127  1.00  0.00     0.040 C 
ENDROOT
TORSDOF 0
ENDMDL
