MODEL 1
REMARK VINA RESULT:    -2.592      0.000      0.000
REMARK INTER + INTRA:          -3.101
REMARK INTER:                  -3.046
REMARK INTRA:                  -0.055
REMARK UNBOUND:                -0.055
REMARK SMILES CCCCC(=O)[O-]
REMARK SMILES IDX 4 1 5 2 6 3 7 4 3 5 2 6 1 7
REMARK H PARENT
REMARK Flexibility Score: inf
ROOT
ATOM      1  C   UNL     1      72.264  31.226  59.621  1.00  0.00     0.053 C 
ENDROOT
BRANCH   1   2
ATOM      2  C   UNL     1      72.135  32.718  59.591  1.00  0.00     0.041 C 
ATOM      3  O   UNL     1      72.123  33.375  60.665  1.00  0.00    -0.550 OA
ATOM      4  O   UNL     1      72.062  33.385  58.375  1.00  0.00    -0.550 OA
ENDBRANCH   1   2
BRANCH   1   5
ATOM      5  C   UNL     1      73.517  30.778  60.383  1.00  0.00     0.006 C 
BRANCH   5   6
ATOM      6  C   UNL     1      73.174  29.938  61.623  1.00  0.00    -0.003 C 
ATOM      7  C   UNL     1      74.125  30.244  62.776  1.00  0.00     0.004 C 
ENDBRANCH   5   6
ENDBRANCH   1   5
TORSDOF 3
ENDMDL
MODEL 2
REMARK VINA RESULT:    -2.548     19.706     20.845
REMARK INTER + INTRA:          -3.050
REMARK INTER:                  -3.008
REMARK INTRA:                  -0.042
REMARK UNBOUND:                -0.055
REMARK SMILES CCCCC(=O)[O-]
REMARK SMILES IDX 4 1 5 2 6 3 7 4 3 5 2 6 1 7
REMARK H PARENT
REMARK Flexibility Score: inf
ROOT
ATOM      1  C   UNL     1      55.896  25.643  49.983  1.00  0.00     0.053 C 
ENDROOT
BRANCH   1   2
ATOM      2  C   UNL     1      57.265  25.751  50.582  1.00  0.00     0.041 C 
ATOM      3  O   UNL     1      57.487  26.569  51.513  1.00  0.00    -0.550 OA
ATOM      4  O   UNL     1      58.287  24.925  50.133  1.00  0.00    -0.550 OA
ENDBRANCH   1   2
BRANCH   1   5
ATOM      5  C   UNL     1      55.020  26.849  50.345  1.00  0.00     0.006 C 
BRANCH   5   6
ATOM      6  C   UNL     1      53.983  27.161  49.255  1.00  0.00    -0.003 C 
ATOM      7  C   UNL     1      53.910  26.037  48.227  1.00  0.00     0.004 C 
ENDBRANCH   5   6
ENDBRANCH   1   5
TORSDOF 3
ENDMDL
MODEL 3
REMARK VINA RESULT:    -2.538      2.856      4.181
REMARK INTER + INTRA:          -3.038
REMARK INTER:                  -3.008
REMARK INTRA:                  -0.030
REMARK UNBOUND:                -0.055
REMARK SMILES CCCCC(=O)[O-]
REMARK SMILES IDX 4 1 5 2 6 3 7 4 3 5 2 6 1 7
REMARK H PARENT
REMARK Flexibility Score: inf
ROOT
ATOM      1  C   UNL     1      72.355  30.372  61.370  1.00  0.00     0.053 C 
ENDROOT
BRANCH   1   2
ATOM      2  C   UNL     1      73.527  29.778  62.089  1.00  0.00     0.041 C 
ATOM      3  O   UNL     1      73.995  28.666  61.730  1.00  0.00    -0.550 OA
ATOM      4  O   UNL     1      74.124  30.470  63.135  1.00  0.00    -0.550 OA
ENDBRANCH   1   2
BRANCH   1   5
ATOM      5  C   UNL     1      72.791  31.176  60.138  1.00  0.00     0.006 C 
BRANCH   5   6
ATOM      6  C   UNL     1      72.354  32.647  60.220  1.00  0.00    -0.003 C 
ATOM      7  C   UNL     1      71.900  33.162  58.858  1.00  0.00     0.004 C 
ENDBRANCH   5   6
ENDBRANCH   1   5
TORSDOF 3
ENDMDL
MODEL 4
REMARK VINA RESULT:    -2.387      2.844      4.001
REMARK INTER + INTRA:          -2.860
REMARK INTER:                  -2.766
REMARK INTRA:                  -0.093
REMARK UNBOUND:                -0.055
REMARK SMILES CCCCC(=O)[O-]
REMARK SMILES IDX 4 1 5 2 6 3 7 4 3 5 2 6 1 7
REMARK H PARENT
REMARK Flexibility Score: inf
ROOT
ATOM      1  C   UNL     1      72.939  30.051  61.688  1.00  0.00     0.053 C 
ENDROOT
BRANCH   1   2
ATOM      2  C   UNL     1      72.213  28.892  61.078  1.00  0.00     0.041 C 
ATOM      3  O   UNL     1      72.854  27.905  60.632  1.00  0.00    -0.550 OA
ATOM      4  O   UNL     1      70.824  28.888  61.031  1.00  0.00    -0.550 OA
ENDBRANCH   1   2
BRANCH   1   5
ATOM      5  C   UNL     1      73.434  31.037  60.623  1.00  0.00     0.006 C 
BRANCH   5   6
ATOM      6  C   UNL     1      72.526  32.270  60.504  1.00  0.00    -0.003 C 
ATOM      7  C   UNL     1      71.767  32.270  59.181  1.00  0.00     0.004 C 
ENDBRANCH   5   6
ENDBRANCH   1   5
TORSDOF 3
ENDMDL
MODEL 5
REMARK VINA RESULT:    -2.373     22.722     23.303
REMARK INTER + INTRA:          -2.844
REMARK INTER:                  -2.809
REMARK INTRA:                  -0.035
REMARK UNBOUND:                -0.055
REMARK SMILES CCCCC(=O)[O-]
REMARK SMILES IDX 4 1 5 2 6 3 7 4 3 5 2 6 1 7
REMARK H PARENT
REMARK Flexibility Score: inf
ROOT
ATOM      1  C   UNL     1      58.711  17.981  49.696  1.00  0.00     0.053 C 
ENDROOT
BRANCH   1   2
ATOM      2  C   UNL     1      59.021  16.646  49.092  1.00  0.00     0.041 C 
ATOM      3  O   UNL     1      59.848  15.875  49.646  1.00  0.00    -0.550 OA
ATOM      4  O   UNL     1      58.371  16.239  47.934  1.00  0.00    -0.550 OA
ENDBRANCH   1   2
BRANCH   1   5
ATOM      5  C   UNL     1      57.726  17.861  50.866  1.00  0.00     0.006 C 
BRANCH   5   6
ATOM      6  C   UNL     1      56.354  18.465  50.534  1.00  0.00    -0.003 C 
ATOM      7  C   UNL     1      55.640  18.936  51.797  1.00  0.00     0.004 C 
ENDBRANCH   5   6
ENDBRANCH   1   5
TORSDOF 3
ENDMDL
MODEL 6
REMARK VINA RESULT:    -2.299     22.511     23.127
REMARK INTER + INTRA:          -2.757
REMARK INTER:                  -2.694
REMARK INTRA:                  -0.064
REMARK UNBOUND:                -0.055
REMARK SMILES CCCCC(=O)[O-]
REMARK SMILES IDX 4 1 5 2 6 3 7 4 3 5 2 6 1 7
REMARK H PARENT
REMARK Flexibility Score: inf
ROOT
ATOM      1  C   UNL     1      57.205  18.252  51.753  1.00  0.00     0.053 C 
ENDROOT
BRANCH   1   2
ATOM      2  C   UNL     1      55.873  18.834  51.391  1.00  0.00     0.041 C 
ATOM      3  O   UNL     1      55.188  19.440  52.257  1.00  0.00    -0.550 OA
ATOM      4  O   UNL     1      55.403  18.736  50.087  1.00  0.00    -0.550 OA
ENDBRANCH   1   2
BRANCH   1   5
ATOM      5  C   UNL     1      58.126  18.135  50.533  1.00  0.00     0.006 C 
BRANCH   5   6
ATOM      6  C   UNL     1      58.442  16.673  50.182  1.00  0.00    -0.003 C 
ATOM      7  C   UNL     1      58.511  16.472  48.671  1.00  0.00     0.004 C 
ENDBRANCH   5   6
ENDBRANCH   1   5
TORSDOF 3
ENDMDL
MODEL 7
REMARK VINA RESULT:    -2.079      0.268      1.240
REMARK INTER + INTRA:          -2.499
REMARK INTER:                  -2.456
REMARK INTRA:                  -0.043
REMARK UNBOUND:                -0.055
REMARK SMILES CCCCC(=O)[O-]
REMARK SMILES IDX 4 1 5 2 6 3 7 4 3 5 2 6 1 7
REMARK H PARENT
REMARK Flexibility Score: inf
ROOT
ATOM      1  C   UNL     1      72.572  31.122  59.545  1.00  0.00     0.053 C 
ENDROOT
BRANCH   1   2
ATOM      2  C   UNL     1      72.223  32.576  59.461  1.00  0.00     0.041 C 
ATOM      3  O   UNL     1      71.848  33.077  58.368  1.00  0.00    -0.550 OA
ATOM      4  O   UNL     1      72.281  33.372  60.598  1.00  0.00    -0.550 OA
ENDBRANCH   1   2
BRANCH   1   5
ATOM      5  C   UNL     1      73.734  30.871  60.513  1.00  0.00     0.006 C 
BRANCH   5   6
ATOM      6  C   UNL     1      73.392  29.810  61.570  1.00  0.00    -0.003 C 
ATOM      7  C   UNL     1      74.125  30.081  62.880  1.00  0.00     0.004 C 
ENDBRANCH   5   6
ENDBRANCH   1   5
TORSDOF 3
ENDMDL
