MODEL 1
REMARK VINA RESULT:    -4.204      0.000      0.000
REMARK INTER + INTRA:         -12.019
REMARK INTER:                  -9.119
REMARK INTRA:                  -2.899
REMARK UNBOUND:                -2.899
REMARK SMILES CCCCCCCCCCCCCCCCCCCCCC(=O)[O-]
REMARK SMILES IDX 12 1 11 2 10 3 9 4 8 5 7 6 6 7 5 8 4 9 3 10 2 11 1 12 13 13
REMARK SMILES IDX 14 14 15 15 16 16 17 17 18 18 19 19 20 20 21 21 22 22 23 23
REMARK SMILES IDX 24 24
REMARK H PARENT
REMARK Flexibility Score: inf
ROOT
ATOM      1  C   UNL     1      34.159   9.414  48.955  1.00  0.00     0.000 C 
ENDROOT
BRANCH   1   2
ATOM      2  C   UNL     1      35.035  10.588  49.432  1.00  0.00     0.000 C 
BRANCH   2   3
ATOM      3  C   UNL     1      34.321  11.947  49.549  1.00  0.00     0.000 C 
BRANCH   3   4
ATOM      4  C   UNL     1      35.203  13.130  49.117  1.00  0.00    -0.000 C 
BRANCH   4   5
ATOM      5  C   UNL     1      36.708  12.817  49.206  1.00  0.00    -0.000 C 
BRANCH   5   6
ATOM      6  C   UNL     1      37.535  13.212  47.965  1.00  0.00    -0.000 C 
BRANCH   6   7
ATOM      7  C   UNL     1      37.073  12.574  46.642  1.00  0.00    -0.000 C 
BRANCH   7   8
ATOM      8  C   UNL     1      36.180  13.472  45.761  1.00  0.00    -0.000 C 
BRANCH   8   9
ATOM      9  C   UNL     1      35.024  12.748  45.048  1.00  0.00    -0.000 C 
BRANCH   9  10
ATOM     10  C   UNL     1      35.047  11.225  45.268  1.00  0.00    -0.000 C 
BRANCH  10  11
ATOM     11  C   UNL     1      34.367  10.455  44.124  1.00  0.00    -0.003 C 
ATOM     12  C   UNL     1      34.658   8.955  44.164  1.00  0.00     0.004 C 
ENDBRANCH  10  11
ENDBRANCH   9  10
ENDBRANCH   8   9
ENDBRANCH   7   8
ENDBRANCH   6   7
ENDBRANCH   5   6
ENDBRANCH   4   5
ENDBRANCH   3   4
ENDBRANCH   2   3
ENDBRANCH   1   2
BRANCH   1  13
ATOM     13  C   UNL     1      33.007   9.856  48.037  1.00  0.00     0.000 C 
BRANCH  13  14
ATOM     14  C   UNL     1      31.620   9.686  48.685  1.00  0.00     0.000 C 
BRANCH  14  15
ATOM     15  C   UNL     1      31.585   8.820  49.958  1.00  0.00     0.000 C 
BRANCH  15  16
ATOM     16  C   UNL     1      30.267   8.043  50.119  1.00  0.00     0.000 C 
BRANCH  16  17
ATOM     17  C   UNL     1      29.825   7.334  48.824  1.00  0.00     0.000 C 
BRANCH  17  18
ATOM     18  C   UNL     1      30.482   5.964  48.569  1.00  0.00     0.000 C 
BRANCH  18  19
ATOM     19  C   UNL     1      31.537   5.942  47.447  1.00  0.00     0.000 C 
BRANCH  19  20
ATOM     20  C   UNL     1      32.988   6.084  47.955  1.00  0.00     0.006 C 
BRANCH  20  21
ATOM     21  C   UNL     1      34.000   6.220  46.811  1.00  0.00     0.053 C 
BRANCH  21  22
ATOM     22  C   UNL     1      34.885   5.016  46.749  1.00  0.00     0.041 C 
ATOM     23  O   UNL     1      35.317   4.492  47.810  1.00  0.00    -0.550 OA
ATOM     24  O   UNL     1      35.270   4.498  45.519  1.00  0.00    -0.550 OA
ENDBRANCH  21  22
ENDBRANCH  20  21
ENDBRANCH  19  20
ENDBRANCH  18  19
ENDBRANCH  17  18
ENDBRANCH  16  17
ENDBRANCH  15  16
ENDBRANCH  14  15
ENDBRANCH  13  14
ENDBRANCH   1  13
TORSDOF 20
ENDMDL
MODEL 2
REMARK VINA RESULT:    -4.089      3.416      7.124
REMARK INTER + INTRA:         -11.769
REMARK INTER:                  -9.175
REMARK INTRA:                  -2.594
REMARK UNBOUND:                -2.899
REMARK SMILES CCCCCCCCCCCCCCCCCCCCCC(=O)[O-]
REMARK SMILES IDX 12 1 11 2 10 3 9 4 8 5 7 6 6 7 5 8 4 9 3 10 2 11 1 12 13 13
REMARK SMILES IDX 14 14 15 15 16 16 17 17 18 18 19 19 20 20 21 21 22 22 23 23
REMARK SMILES IDX 24 24
REMARK H PARENT
REMARK Flexibility Score: inf
ROOT
ATOM      1  C   UNL     1      30.300   8.459  49.362  1.00  0.00     0.000 C 
ENDROOT
BRANCH   1   2
ATOM      2  C   UNL     1      29.667   7.212  50.008  1.00  0.00     0.000 C 
BRANCH   2   3
ATOM      3  C   UNL     1      29.500   5.995  49.080  1.00  0.00     0.000 C 
BRANCH   3   4
ATOM      4  C   UNL     1      30.404   6.057  47.837  1.00  0.00    -0.000 C 
BRANCH   4   5
ATOM      5  C   UNL     1      31.641   5.147  47.952  1.00  0.00    -0.000 C 
BRANCH   5   6
ATOM      6  C   UNL     1      32.904   5.824  48.522  1.00  0.00    -0.000 C 
BRANCH   6   7
ATOM      7  C   UNL     1      33.706   6.666  47.512  1.00  0.00    -0.000 C 
BRANCH   7   8
ATOM      8  C   UNL     1      33.218   6.576  46.051  1.00  0.00    -0.000 C 
BRANCH   8   9
ATOM      9  C   UNL     1      34.255   6.977  44.988  1.00  0.00    -0.000 C 
BRANCH   9  10
ATOM     10  C   UNL     1      33.803   8.174  44.133  1.00  0.00    -0.000 C 
BRANCH  10  11
ATOM     11  C   UNL     1      34.884   9.261  44.023  1.00  0.00    -0.003 C 
ATOM     12  C   UNL     1      34.306  10.676  44.033  1.00  0.00     0.004 C 
ENDBRANCH  10  11
ENDBRANCH   9  10
ENDBRANCH   8   9
ENDBRANCH   7   8
ENDBRANCH   6   7
ENDBRANCH   5   6
ENDBRANCH   4   5
ENDBRANCH   3   4
ENDBRANCH   2   3
ENDBRANCH   1   2
BRANCH   1  13
ATOM     13  C   UNL     1      31.639   8.857  50.006  1.00  0.00     0.000 C 
BRANCH  13  14
ATOM     14  C   UNL     1      32.227  10.155  49.419  1.00  0.00     0.000 C 
BRANCH  14  15
ATOM     15  C   UNL     1      32.551  10.115  47.915  1.00  0.00     0.000 C 
BRANCH  15  16
ATOM     16  C   UNL     1      34.060  10.040  47.626  1.00  0.00     0.000 C 
BRANCH  16  17
ATOM     17  C   UNL     1      34.821  11.303  48.075  1.00  0.00     0.000 C 
BRANCH  17  18
ATOM     18  C   UNL     1      36.352  11.234  47.925  1.00  0.00     0.000 C 
BRANCH  18  19
ATOM     19  C   UNL     1      36.925  11.975  46.701  1.00  0.00     0.000 C 
BRANCH  19  20
ATOM     20  C   UNL     1      35.996  13.080  46.154  1.00  0.00     0.006 C 
BRANCH  20  21
ATOM     21  C   UNL     1      36.577  14.486  46.351  1.00  0.00     0.053 C 
BRANCH  21  22
ATOM     22  C   UNL     1      35.717  15.282  47.281  1.00  0.00     0.041 C 
ATOM     23  O   UNL     1      34.988  16.207  46.835  1.00  0.00    -0.550 OA
ATOM     24  O   UNL     1      35.756  15.034  48.647  1.00  0.00    -0.550 OA
ENDBRANCH  21  22
ENDBRANCH  20  21
ENDBRANCH  19  20
ENDBRANCH  18  19
ENDBRANCH  17  18
ENDBRANCH  16  17
ENDBRANCH  15  16
ENDBRANCH  14  15
ENDBRANCH  13  14
ENDBRANCH   1  13
TORSDOF 20
ENDMDL
MODEL 3
REMARK VINA RESULT:    -4.065      4.145      7.714
REMARK INTER + INTRA:         -11.716
REMARK INTER:                  -9.577
REMARK INTRA:                  -2.139
REMARK UNBOUND:                -2.899
REMARK SMILES CCCCCCCCCCCCCCCCCCCCCC(=O)[O-]
REMARK SMILES IDX 12 1 11 2 10 3 9 4 8 5 7 6 6 7 5 8 4 9 3 10 2 11 1 12 13 13
REMARK SMILES IDX 14 14 15 15 16 16 17 17 18 18 19 19 20 20 21 21 22 22 23 23
REMARK SMILES IDX 24 24
REMARK H PARENT
REMARK Flexibility Score: inf
ROOT
ATOM      1  C   UNL     1      31.471   8.761  49.434  1.00  0.00     0.000 C 
ENDROOT
BRANCH   1   2
ATOM      2  C   UNL     1      30.054   8.163  49.367  1.00  0.00     0.000 C 
BRANCH   2   3
ATOM      3  C   UNL     1      29.967   6.710  48.865  1.00  0.00     0.000 C 
BRANCH   3   4
ATOM      4  C   UNL     1      30.861   6.442  47.642  1.00  0.00    -0.000 C 
BRANCH   4   5
ATOM      5  C   UNL     1      32.029   5.487  47.953  1.00  0.00    -0.000 C 
BRANCH   5   6
ATOM      6  C   UNL     1      33.423   6.145  47.990  1.00  0.00    -0.000 C 
BRANCH   6   7
ATOM      7  C   UNL     1      33.680   7.194  46.892  1.00  0.00    -0.000 C 
BRANCH   7   8
ATOM      8  C   UNL     1      33.819   6.627  45.465  1.00  0.00    -0.000 C 
BRANCH   8   9
ATOM      9  C   UNL     1      34.320   7.627  44.408  1.00  0.00    -0.000 C 
BRANCH   9  10
ATOM     10  C   UNL     1      34.268   9.086  44.895  1.00  0.00    -0.000 C 
BRANCH  10  11
ATOM     11  C   UNL     1      34.164  10.090  43.736  1.00  0.00    -0.003 C 
ATOM     12  C   UNL     1      34.397  11.534  44.179  1.00  0.00     0.004 C 
ENDBRANCH  10  11
ENDBRANCH   9  10
ENDBRANCH   8   9
ENDBRANCH   7   8
ENDBRANCH   6   7
ENDBRANCH   5   6
ENDBRANCH   4   5
ENDBRANCH   3   4
ENDBRANCH   2   3
ENDBRANCH   1   2
BRANCH   1  13
ATOM     13  C   UNL     1      31.655   9.981  48.513  1.00  0.00     0.000 C 
BRANCH  13  14
ATOM     14  C   UNL     1      32.831  10.881  48.935  1.00  0.00     0.000 C 
BRANCH  14  15
ATOM     15  C   UNL     1      34.166  10.608  48.218  1.00  0.00     0.000 C 
BRANCH  15  16
ATOM     16  C   UNL     1      35.135  11.802  48.275  1.00  0.00     0.000 C 
BRANCH  16  17
ATOM     17  C   UNL     1      36.453  11.543  47.521  1.00  0.00     0.000 C 
BRANCH  17  18
ATOM     18  C   UNL     1      36.865  12.642  46.524  1.00  0.00     0.000 C 
BRANCH  18  19
ATOM     19  C   UNL     1      35.914  13.853  46.453  1.00  0.00     0.000 C 
BRANCH  19  20
ATOM     20  C   UNL     1      36.266  14.978  47.448  1.00  0.00     0.006 C 
BRANCH  20  21
ATOM     21  C   UNL     1      35.295  16.163  47.363  1.00  0.00     0.053 C 
BRANCH  21  22
ATOM     22  C   UNL     1      35.985  17.367  46.804  1.00  0.00     0.041 C 
ATOM     23  O   UNL     1      36.219  18.361  47.541  1.00  0.00    -0.550 OA
ATOM     24  O   UNL     1      36.329  17.410  45.460  1.00  0.00    -0.550 OA
ENDBRANCH  21  22
ENDBRANCH  20  21
ENDBRANCH  19  20
ENDBRANCH  18  19
ENDBRANCH  17  18
ENDBRANCH  16  17
ENDBRANCH  15  16
ENDBRANCH  14  15
ENDBRANCH  13  14
ENDBRANCH   1  13
TORSDOF 20
ENDMDL
MODEL 4
REMARK VINA RESULT:    -4.042      0.881      1.536
REMARK INTER + INTRA:         -11.667
REMARK INTER:                  -9.085
REMARK INTRA:                  -2.582
REMARK UNBOUND:                -2.899
REMARK SMILES CCCCCCCCCCCCCCCCCCCCCC(=O)[O-]
REMARK SMILES IDX 12 1 11 2 10 3 9 4 8 5 7 6 6 7 5 8 4 9 3 10 2 11 1 12 13 13
REMARK SMILES IDX 14 14 15 15 16 16 17 17 18 18 19 19 20 20 21 21 22 22 23 23
REMARK SMILES IDX 24 24
REMARK H PARENT
REMARK Flexibility Score: inf
ROOT
ATOM      1  C   UNL     1      35.069  10.642  48.651  1.00  0.00     0.000 C 
ENDROOT
BRANCH   1   2
ATOM      2  C   UNL     1      34.568  11.718  49.632  1.00  0.00     0.000 C 
BRANCH   2   3
ATOM      3  C   UNL     1      34.888  13.174  49.244  1.00  0.00     0.000 C 
BRANCH   3   4
ATOM      4  C   UNL     1      36.203  13.312  48.459  1.00  0.00    -0.000 C 
BRANCH   4   5
ATOM      5  C   UNL     1      36.141  14.405  47.376  1.00  0.00    -0.000 C 
BRANCH   5   6
ATOM      6  C   UNL     1      36.258  13.899  45.924  1.00  0.00    -0.000 C 
BRANCH   6   7
ATOM      7  C   UNL     1      35.586  12.540  45.650  1.00  0.00    -0.000 C 
BRANCH   7   8
ATOM      8  C   UNL     1      34.637  12.512  44.435  1.00  0.00    -0.000 C 
BRANCH   8   9
ATOM      9  C   UNL     1      34.036  11.135  44.104  1.00  0.00    -0.000 C 
BRANCH   9  10
ATOM     10  C   UNL     1      34.768   9.979  44.809  1.00  0.00    -0.000 C 
BRANCH  10  11
ATOM     11  C   UNL     1      34.694   8.665  44.015  1.00  0.00    -0.003 C 
ATOM     12  C   UNL     1      34.022   7.536  44.797  1.00  0.00     0.004 C 
ENDBRANCH  10  11
ENDBRANCH   9  10
ENDBRANCH   8   9
ENDBRANCH   7   8
ENDBRANCH   6   7
ENDBRANCH   5   6
ENDBRANCH   4   5
ENDBRANCH   3   4
ENDBRANCH   2   3
ENDBRANCH   1   2
BRANCH   1  13
ATOM     13  C   UNL     1      34.156   9.406  48.592  1.00  0.00     0.000 C 
BRANCH  13  14
ATOM     14  C   UNL     1      32.872   9.643  47.776  1.00  0.00     0.000 C 
BRANCH  14  15
ATOM     15  C   UNL     1      31.655  10.135  48.581  1.00  0.00     0.000 C 
BRANCH  15  16
ATOM     16  C   UNL     1      31.135   9.090  49.583  1.00  0.00     0.000 C 
BRANCH  16  17
ATOM     17  C   UNL     1      30.243   8.020  48.926  1.00  0.00     0.000 C 
BRANCH  17  18
ATOM     18  C   UNL     1      30.851   6.606  48.866  1.00  0.00     0.000 C 
BRANCH  18  19
ATOM     19  C   UNL     1      31.836   6.365  47.705  1.00  0.00     0.000 C 
BRANCH  19  20
ATOM     20  C   UNL     1      33.201   5.801  48.155  1.00  0.00     0.006 C 
BRANCH  20  21
ATOM     21  C   UNL     1      33.728   4.715  47.209  1.00  0.00     0.053 C 
BRANCH  21  22
ATOM     22  C   UNL     1      35.223   4.727  47.180  1.00  0.00     0.041 C 
ATOM     23  O   UNL     1      35.874   5.067  48.204  1.00  0.00    -0.550 OA
ATOM     24  O   UNL     1      35.899   4.408  46.010  1.00  0.00    -0.550 OA
ENDBRANCH  21  22
ENDBRANCH  20  21
ENDBRANCH  19  20
ENDBRANCH  18  19
ENDBRANCH  17  18
ENDBRANCH  16  17
ENDBRANCH  15  16
ENDBRANCH  14  15
ENDBRANCH  13  14
ENDBRANCH   1  13
TORSDOF 20
ENDMDL
MODEL 5
REMARK VINA RESULT:    -4.036      3.696      8.394
REMARK INTER + INTRA:         -11.654
REMARK INTER:                  -9.428
REMARK INTRA:                  -2.226
REMARK UNBOUND:                -2.899
REMARK SMILES CCCCCCCCCCCCCCCCCCCCCC(=O)[O-]
REMARK SMILES IDX 12 1 11 2 10 3 9 4 8 5 7 6 6 7 5 8 4 9 3 10 2 11 1 12 13 13
REMARK SMILES IDX 14 14 15 15 16 16 17 17 18 18 19 19 20 20 21 21 22 22 23 23
REMARK SMILES IDX 24 24
REMARK H PARENT
REMARK Flexibility Score: inf
ROOT
ATOM      1  C   UNL     1      34.048   9.946  46.684  1.00  0.00     0.000 C 
ENDROOT
BRANCH   1   2
ATOM      2  C   UNL     1      34.385  10.255  48.155  1.00  0.00     0.000 C 
BRANCH   2   3
ATOM      3  C   UNL     1      33.222  10.803  49.002  1.00  0.00     0.000 C 
BRANCH   3   4
ATOM      4  C   UNL     1      31.861  10.196  48.622  1.00  0.00    -0.000 C 
BRANCH   4   5
ATOM      5  C   UNL     1      31.505   8.955  49.460  1.00  0.00    -0.000 C 
BRANCH   5   6
ATOM      6  C   UNL     1      30.173   8.271  49.089  1.00  0.00    -0.000 C 
BRANCH   6   7
ATOM      7  C   UNL     1      30.241   6.739  48.949  1.00  0.00    -0.000 C 
BRANCH   7   8
ATOM      8  C   UNL     1      30.980   6.229  47.695  1.00  0.00    -0.000 C 
BRANCH   8   9
ATOM      9  C   UNL     1      32.324   5.531  47.966  1.00  0.00    -0.000 C 
BRANCH   9  10
ATOM     10  C   UNL     1      33.537   6.416  47.626  1.00  0.00    -0.000 C 
BRANCH  10  11
ATOM     11  C   UNL     1      34.290   5.929  46.378  1.00  0.00    -0.003 C 
ATOM     12  C   UNL     1      33.870   6.666  45.106  1.00  0.00     0.004 C 
ENDBRANCH  10  11
ENDBRANCH   9  10
ENDBRANCH   8   9
ENDBRANCH   7   8
ENDBRANCH   6   7
ENDBRANCH   5   6
ENDBRANCH   4   5
ENDBRANCH   3   4
ENDBRANCH   2   3
ENDBRANCH   1   2
BRANCH   1  13
ATOM     13  C   UNL     1      34.889  10.763  45.688  1.00  0.00     0.000 C 
BRANCH  13  14
ATOM     14  C   UNL     1      36.056  11.513  46.358  1.00  0.00     0.000 C 
BRANCH  14  15
ATOM     15  C   UNL     1      36.067  13.039  46.157  1.00  0.00     0.000 C 
BRANCH  15  16
ATOM     16  C   UNL     1      37.439  13.673  46.442  1.00  0.00     0.000 C 
BRANCH  16  17
ATOM     17  C   UNL     1      37.655  15.001  45.690  1.00  0.00     0.000 C 
BRANCH  17  18
ATOM     18  C   UNL     1      36.367  15.738  45.277  1.00  0.00     0.000 C 
BRANCH  18  19
ATOM     19  C   UNL     1      36.342  17.245  45.600  1.00  0.00     0.000 C 
BRANCH  19  20
ATOM     20  C   UNL     1      35.833  17.567  47.021  1.00  0.00     0.006 C 
BRANCH  20  21
ATOM     21  C   UNL     1      34.813  16.539  47.526  1.00  0.00     0.053 C 
BRANCH  21  22
ATOM     22  C   UNL     1      35.357  15.799  48.707  1.00  0.00     0.041 C 
ATOM     23  O   UNL     1      36.397  16.209  49.288  1.00  0.00    -0.550 OA
ATOM     24  O   UNL     1      34.744  14.630  49.139  1.00  0.00    -0.550 OA
ENDBRANCH  21  22
ENDBRANCH  20  21
ENDBRANCH  19  20
ENDBRANCH  18  19
ENDBRANCH  17  18
ENDBRANCH  16  17
ENDBRANCH  15  16
ENDBRANCH  14  15
ENDBRANCH  13  14
ENDBRANCH   1  13
TORSDOF 20
ENDMDL
MODEL 6
REMARK VINA RESULT:    -3.996      1.379      2.814
REMARK INTER + INTRA:         -11.566
REMARK INTER:                  -9.226
REMARK INTRA:                  -2.340
REMARK UNBOUND:                -2.899
REMARK SMILES CCCCCCCCCCCCCCCCCCCCCC(=O)[O-]
REMARK SMILES IDX 12 1 11 2 10 3 9 4 8 5 7 6 6 7 5 8 4 9 3 10 2 11 1 12 13 13
REMARK SMILES IDX 14 14 15 15 16 16 17 17 18 18 19 19 20 20 21 21 22 22 23 23
REMARK SMILES IDX 24 24
REMARK H PARENT
REMARK Flexibility Score: inf
ROOT
ATOM      1  C   UNL     1      33.017   9.491  48.274  1.00  0.00     0.000 C 
ENDROOT
BRANCH   1   2
ATOM      2  C   UNL     1      34.119   9.629  49.341  1.00  0.00     0.000 C 
BRANCH   2   3
ATOM      3  C   UNL     1      34.299  11.039  49.934  1.00  0.00     0.000 C 
BRANCH   3   4
ATOM      4  C   UNL     1      35.258  11.918  49.114  1.00  0.00    -0.000 C 
BRANCH   4   5
ATOM      5  C   UNL     1      36.339  11.102  48.381  1.00  0.00    -0.000 C 
BRANCH   5   6
ATOM      6  C   UNL     1      36.771  11.664  47.011  1.00  0.00    -0.000 C 
BRANCH   6   7
ATOM      7  C   UNL     1      35.620  11.927  46.021  1.00  0.00    -0.000 C 
BRANCH   7   8
ATOM      8  C   UNL     1      35.494  13.387  45.538  1.00  0.00    -0.000 C 
BRANCH   8   9
ATOM      9  C   UNL     1      36.546  14.357  46.105  1.00  0.00    -0.000 C 
BRANCH   9  10
ATOM     10  C   UNL     1      36.028  15.161  47.310  1.00  0.00    -0.000 C 
BRANCH  10  11
ATOM     11  C   UNL     1      35.226  16.403  46.889  1.00  0.00    -0.003 C 
ATOM     12  C   UNL     1      35.996  17.308  45.927  1.00  0.00     0.004 C 
ENDBRANCH  10  11
ENDBRANCH   9  10
ENDBRANCH   8   9
ENDBRANCH   7   8
ENDBRANCH   6   7
ENDBRANCH   5   6
ENDBRANCH   4   5
ENDBRANCH   3   4
ENDBRANCH   2   3
ENDBRANCH   1   2
BRANCH   1  13
ATOM     13  C   UNL     1      31.598   9.640  48.850  1.00  0.00     0.000 C 
BRANCH  13  14
ATOM     14  C   UNL     1      31.287   8.618  49.959  1.00  0.00     0.000 C 
BRANCH  14  15
ATOM     15  C   UNL     1      29.849   8.069  49.971  1.00  0.00     0.000 C 
BRANCH  15  16
ATOM     16  C   UNL     1      29.774   6.571  49.627  1.00  0.00     0.000 C 
BRANCH  16  17
ATOM     17  C   UNL     1      29.715   6.305  48.111  1.00  0.00     0.000 C 
BRANCH  17  18
ATOM     18  C   UNL     1      31.081   6.253  47.400  1.00  0.00     0.000 C 
BRANCH  18  19
ATOM     19  C   UNL     1      32.159   5.416  48.115  1.00  0.00     0.000 C 
BRANCH  19  20
ATOM     20  C   UNL     1      33.586   5.988  47.971  1.00  0.00     0.006 C 
BRANCH  20  21
ATOM     21  C   UNL     1      34.131   5.854  46.544  1.00  0.00     0.053 C 
BRANCH  21  22
ATOM     22  C   UNL     1      35.238   4.849  46.498  1.00  0.00     0.041 C 
ATOM     23  O   UNL     1      35.485   4.227  45.431  1.00  0.00    -0.550 OA
ATOM     24  O   UNL     1      35.967   4.563  47.645  1.00  0.00    -0.550 OA
ENDBRANCH  21  22
ENDBRANCH  20  21
ENDBRANCH  19  20
ENDBRANCH  18  19
ENDBRANCH  17  18
ENDBRANCH  16  17
ENDBRANCH  15  16
ENDBRANCH  14  15
ENDBRANCH  13  14
ENDBRANCH   1  13
TORSDOF 20
ENDMDL
MODEL 7
REMARK VINA RESULT:    -3.963      4.054      8.313
REMARK INTER + INTRA:         -11.495
REMARK INTER:                  -9.569
REMARK INTRA:                  -1.926
REMARK UNBOUND:                -2.899
REMARK SMILES CCCCCCCCCCCCCCCCCCCCCC(=O)[O-]
REMARK SMILES IDX 12 1 11 2 10 3 9 4 8 5 7 6 6 7 5 8 4 9 3 10 2 11 1 12 13 13
REMARK SMILES IDX 14 14 15 15 16 16 17 17 18 18 19 19 20 20 21 21 22 22 23 23
REMARK SMILES IDX 24 24
REMARK H PARENT
REMARK Flexibility Score: inf
ROOT
ATOM      1  C   UNL     1      33.692   7.389  44.504  1.00  0.00     0.000 C 
ENDROOT
BRANCH   1   2
ATOM      2  C   UNL     1      34.105   6.662  45.797  1.00  0.00     0.000 C 
BRANCH   2   3
ATOM      3  C   UNL     1      34.790   5.297  45.604  1.00  0.00     0.000 C 
BRANCH   3   4
ATOM      4  C   UNL     1      35.331   4.704  46.916  1.00  0.00    -0.000 C 
BRANCH   4   5
ATOM      5  C   UNL     1      34.496   5.111  48.145  1.00  0.00    -0.000 C 
BRANCH   5   6
ATOM      6  C   UNL     1      35.280   5.829  49.263  1.00  0.00    -0.000 C 
BRANCH   6   7
ATOM      7  C   UNL     1      34.477   6.882  50.051  1.00  0.00    -0.000 C 
BRANCH   7   8
ATOM      8  C   UNL     1      33.679   7.878  49.185  1.00  0.00    -0.000 C 
BRANCH   8   9
ATOM      9  C   UNL     1      32.167   7.927  49.468  1.00  0.00    -0.000 C 
BRANCH   9  10
ATOM     10  C   UNL     1      31.316   7.770  48.195  1.00  0.00    -0.000 C 
BRANCH  10  11
ATOM     11  C   UNL     1      30.936   6.307  47.918  1.00  0.00    -0.003 C 
ATOM     12  C   UNL     1      29.535   5.953  48.416  1.00  0.00     0.004 C 
ENDBRANCH  10  11
ENDBRANCH   9  10
ENDBRANCH   8   9
ENDBRANCH   7   8
ENDBRANCH   6   7
ENDBRANCH   5   6
ENDBRANCH   4   5
ENDBRANCH   3   4
ENDBRANCH   2   3
ENDBRANCH   1   2
BRANCH   1  13
ATOM     13  C   UNL     1      34.621   8.562  44.148  1.00  0.00     0.000 C 
BRANCH  13  14
ATOM     14  C   UNL     1      34.353   9.821  44.995  1.00  0.00     0.000 C 
BRANCH  14  15
ATOM     15  C   UNL     1      34.384  11.155  44.227  1.00  0.00     0.000 C 
BRANCH  15  16
ATOM     16  C   UNL     1      35.072  12.285  45.013  1.00  0.00     0.000 C 
BRANCH  16  17
ATOM     17  C   UNL     1      35.537  11.845  46.414  1.00  0.00     0.000 C 
BRANCH  17  18
ATOM     18  C   UNL     1      36.919  12.374  46.842  1.00  0.00     0.000 C 
BRANCH  18  19
ATOM     19  C   UNL     1      37.430  13.591  46.047  1.00  0.00     0.000 C 
BRANCH  19  20
ATOM     20  C   UNL     1      37.075  14.948  46.691  1.00  0.00     0.006 C 
BRANCH  20  21
ATOM     21  C   UNL     1      35.950  15.675  45.945  1.00  0.00     0.053 C 
BRANCH  21  22
ATOM     22  C   UNL     1      35.446  16.829  46.753  1.00  0.00     0.041 C 
ATOM     23  O   UNL     1      34.381  16.719  47.417  1.00  0.00    -0.550 OA
ATOM     24  O   UNL     1      36.126  18.039  46.738  1.00  0.00    -0.550 OA
ENDBRANCH  21  22
ENDBRANCH  20  21
ENDBRANCH  19  20
ENDBRANCH  18  19
ENDBRANCH  17  18
ENDBRANCH  16  17
ENDBRANCH  15  16
ENDBRANCH  14  15
ENDBRANCH  13  14
ENDBRANCH   1  13
TORSDOF 20
ENDMDL
MODEL 8
REMARK VINA RESULT:    -3.956      1.847      6.877
REMARK INTER + INTRA:         -11.481
REMARK INTER:                  -8.726
REMARK INTRA:                  -2.754
REMARK UNBOUND:                -2.899
REMARK SMILES CCCCCCCCCCCCCCCCCCCCCC(=O)[O-]
REMARK SMILES IDX 12 1 11 2 10 3 9 4 8 5 7 6 6 7 5 8 4 9 3 10 2 11 1 12 13 13
REMARK SMILES IDX 14 14 15 15 16 16 17 17 18 18 19 19 20 20 21 21 22 22 23 23
REMARK SMILES IDX 24 24
REMARK H PARENT
REMARK Flexibility Score: inf
ROOT
ATOM      1  C   UNL     1      33.415  10.183  47.895  1.00  0.00     0.000 C 
ENDROOT
BRANCH   1   2
ATOM      2  C   UNL     1      32.031   9.863  48.490  1.00  0.00     0.000 C 
BRANCH   2   3
ATOM      3  C   UNL     1      32.036   9.331  49.936  1.00  0.00     0.000 C 
BRANCH   3   4
ATOM      4  C   UNL     1      31.296   7.991  50.086  1.00  0.00    -0.000 C 
BRANCH   4   5
ATOM      5  C   UNL     1      30.044   7.896  49.194  1.00  0.00    -0.000 C 
BRANCH   5   6
ATOM      6  C   UNL     1      29.904   6.583  48.396  1.00  0.00    -0.000 C 
BRANCH   6   7
ATOM      7  C   UNL     1      31.224   5.832  48.138  1.00  0.00    -0.000 C 
BRANCH   7   8
ATOM      8  C   UNL     1      32.025   6.320  46.913  1.00  0.00    -0.000 C 
BRANCH   8   9
ATOM      9  C   UNL     1      33.511   6.617  47.179  1.00  0.00    -0.000 C 
BRANCH   9  10
ATOM     10  C   UNL     1      34.080   5.811  48.360  1.00  0.00    -0.000 C 
BRANCH  10  11
ATOM     11  C   UNL     1      35.143   4.792  47.921  1.00  0.00    -0.003 C 
ATOM     12  C   UNL     1      35.251   4.666  46.401  1.00  0.00     0.004 C 
ENDBRANCH  10  11
ENDBRANCH   9  10
ENDBRANCH   8   9
ENDBRANCH   7   8
ENDBRANCH   6   7
ENDBRANCH   5   6
ENDBRANCH   4   5
ENDBRANCH   3   4
ENDBRANCH   2   3
ENDBRANCH   1   2
BRANCH   1  13
ATOM     13  C   UNL     1      34.456  10.567  48.960  1.00  0.00     0.000 C 
BRANCH  13  14
ATOM     14  C   UNL     1      34.422  12.064  49.323  1.00  0.00     0.000 C 
BRANCH  14  15
ATOM     15  C   UNL     1      35.796  12.746  49.454  1.00  0.00     0.000 C 
BRANCH  15  16
ATOM     16  C   UNL     1      35.722  14.277  49.321  1.00  0.00     0.000 C 
BRANCH  16  17
ATOM     17  C   UNL     1      35.743  14.755  47.857  1.00  0.00     0.000 C 
BRANCH  17  18
ATOM     18  C   UNL     1      36.501  13.838  46.879  1.00  0.00     0.000 C 
BRANCH  18  19
ATOM     19  C   UNL     1      35.749  13.506  45.575  1.00  0.00     0.000 C 
BRANCH  19  20
ATOM     20  C   UNL     1      35.384  12.013  45.432  1.00  0.00     0.006 C 
BRANCH  20  21
ATOM     21  C   UNL     1      34.418  11.754  44.269  1.00  0.00     0.053 C 
BRANCH  21  22
ATOM     22  C   UNL     1      34.307  10.287  43.998  1.00  0.00     0.041 C 
ATOM     23  O   UNL     1      33.554   9.868  43.079  1.00  0.00    -0.550 OA
ATOM     24  O   UNL     1      34.998   9.379  44.789  1.00  0.00    -0.550 OA
ENDBRANCH  21  22
ENDBRANCH  20  21
ENDBRANCH  19  20
ENDBRANCH  18  19
ENDBRANCH  17  18
ENDBRANCH  16  17
ENDBRANCH  15  16
ENDBRANCH  14  15
ENDBRANCH  13  14
ENDBRANCH   1  13
TORSDOF 20
ENDMDL
MODEL 9
REMARK VINA RESULT:    -3.908      2.155      3.575
REMARK INTER + INTRA:         -11.377
REMARK INTER:                  -9.057
REMARK INTRA:                  -2.320
REMARK UNBOUND:                -2.899
REMARK SMILES CCCCCCCCCCCCCCCCCCCCCC(=O)[O-]
REMARK SMILES IDX 12 1 11 2 10 3 9 4 8 5 7 6 6 7 5 8 4 9 3 10 2 11 1 12 13 13
REMARK SMILES IDX 14 14 15 15 16 16 17 17 18 18 19 19 20 20 21 21 22 22 23 23
REMARK SMILES IDX 24 24
REMARK H PARENT
REMARK Flexibility Score: inf
ROOT
ATOM      1  C   UNL     1      34.428  10.338  47.097  1.00  0.00     0.000 C 
ENDROOT
BRANCH   1   2
ATOM      2  C   UNL     1      35.339  11.091  48.083  1.00  0.00     0.000 C 
BRANCH   2   3
ATOM      3  C   UNL     1      35.929  12.416  47.565  1.00  0.00     0.000 C 
BRANCH   3   4
ATOM      4  C   UNL     1      35.745  12.605  46.050  1.00  0.00    -0.000 C 
BRANCH   4   5
ATOM      5  C   UNL     1      35.742  14.086  45.629  1.00  0.00    -0.000 C 
BRANCH   5   6
ATOM      6  C   UNL     1      37.063  14.843  45.878  1.00  0.00    -0.000 C 
BRANCH   6   7
ATOM      7  C   UNL     1      37.190  16.194  45.150  1.00  0.00    -0.000 C 
BRANCH   7   8
ATOM      8  C   UNL     1      36.304  17.325  45.711  1.00  0.00    -0.000 C 
BRANCH   8   9
ATOM      9  C   UNL     1      36.747  17.888  47.073  1.00  0.00    -0.000 C 
BRANCH   9  10
ATOM     10  C   UNL     1      35.592  17.979  48.087  1.00  0.00    -0.000 C 
BRANCH  10  11
ATOM     11  C   UNL     1      34.566  16.848  47.912  1.00  0.00    -0.003 C 
ATOM     12  C   UNL     1      34.776  15.700  48.899  1.00  0.00     0.004 C 
ENDBRANCH  10  11
ENDBRANCH   9  10
ENDBRANCH   8   9
ENDBRANCH   7   8
ENDBRANCH   6   7
ENDBRANCH   5   6
ENDBRANCH   4   5
ENDBRANCH   3   4
ENDBRANCH   2   3
ENDBRANCH   1   2
BRANCH   1  13
ATOM     13  C   UNL     1      33.128   9.829  47.744  1.00  0.00     0.000 C 
BRANCH  13  14
ATOM     14  C   UNL     1      33.293   9.484  49.236  1.00  0.00     0.000 C 
BRANCH  14  15
ATOM     15  C   UNL     1      32.005   9.059  49.965  1.00  0.00     0.000 C 
BRANCH  15  16
ATOM     16  C   UNL     1      30.827   8.808  49.007  1.00  0.00     0.000 C 
BRANCH  16  17
ATOM     17  C   UNL     1      29.941   7.625  49.442  1.00  0.00     0.000 C 
BRANCH  17  18
ATOM     18  C   UNL     1      29.954   6.412  48.494  1.00  0.00     0.000 C 
BRANCH  18  19
ATOM     19  C   UNL     1      31.158   6.343  47.534  1.00  0.00     0.000 C 
BRANCH  19  20
ATOM     20  C   UNL     1      32.285   5.407  48.017  1.00  0.00     0.006 C 
BRANCH  20  21
ATOM     21  C   UNL     1      33.652   6.103  48.051  1.00  0.00     0.053 C 
BRANCH  21  22
ATOM     22  C   UNL     1      34.646   5.345  47.228  1.00  0.00     0.041 C 
ATOM     23  O   UNL     1      34.643   5.454  45.973  1.00  0.00    -0.550 OA
ATOM     24  O   UNL     1      35.544   4.482  47.842  1.00  0.00    -0.550 OA
ENDBRANCH  21  22
ENDBRANCH  20  21
ENDBRANCH  19  20
ENDBRANCH  18  19
ENDBRANCH  17  18
ENDBRANCH  16  17
ENDBRANCH  15  16
ENDBRANCH  14  15
ENDBRANCH  13  14
ENDBRANCH   1  13
TORSDOF 20
ENDMDL
