MODEL 1
REMARK VINA RESULT:    -5.254      0.000      0.000
REMARK INTER + INTRA:          -5.819
REMARK INTER:                  -5.562
REMARK INTRA:                  -0.258
REMARK UNBOUND:                -0.258
REMARK SMILES CC1=CC[C@@H]2[C@H]3[C@H](C(C)C)CC[C@]2(C)[C@@H]13
REMARK SMILES IDX 1 1 2 2 3 3 4 4 5 5 6 6 15 7 13 8 12 9 11 10 7 11 14 12 8 13
REMARK SMILES IDX 9 14 10 15
REMARK H PARENT
REMARK Flexibility Score: inf
ROOT
ATOM      1  C   UNL     1      12.277  17.823  34.175  1.00  0.00     0.039 C 
ATOM      2  C   UNL     1      13.121  17.215  35.254  1.00  0.00    -0.073 C 
ATOM      3  C   UNL     1      14.361  16.728  34.989  1.00  0.00    -0.027 C 
ATOM      4  C   UNL     1      15.185  16.135  36.136  1.00  0.00     0.031 C 
ATOM      5  C   UNL     1      14.370  16.176  37.470  1.00  0.00     0.003 C 
ATOM      6  C   UNL     1      12.947  15.651  37.162  1.00  0.00     0.004 C 
ATOM      7  C   UNL     1      12.620  17.094  36.696  1.00  0.00     0.024 C 
ATOM      8  C   UNL     1      13.711  17.559  37.691  1.00  0.00    -0.022 C 
ATOM      9  C   UNL     1      13.139  17.624  39.140  1.00  0.00     0.008 C 
ATOM     10  C   UNL     1      12.053  16.545  39.401  1.00  0.00     0.005 C 
ATOM     11  C   UNL     1      12.229  15.286  38.495  1.00  0.00    -0.005 C 
ATOM     12  C   UNL     1      14.528  18.831  37.361  1.00  0.00     0.012 C 
ENDROOT
BRANCH  11  13
ATOM     13  C   UNL     1      10.917  14.479  38.258  1.00  0.00    -0.014 C 
ATOM     14  C   UNL     1      11.133  13.326  37.266  1.00  0.00     0.007 C 
ATOM     15  C   UNL     1      10.255  13.959  39.545  1.00  0.00     0.007 C 
ENDBRANCH  11  13
TORSDOF 1
ENDMDL
MODEL 2
REMARK VINA RESULT:    -5.153     11.339     13.947
REMARK INTER + INTRA:          -5.712
REMARK INTER:                  -5.403
REMARK INTRA:                  -0.310
REMARK UNBOUND:                -0.258
REMARK SMILES CC1=CC[C@@H]2[C@H]3[C@H](C(C)C)CC[C@]2(C)[C@@H]13
REMARK SMILES IDX 1 1 2 2 3 3 4 4 5 5 6 6 15 7 13 8 12 9 11 10 7 11 14 12 8 13
REMARK SMILES IDX 9 14 10 15
REMARK H PARENT
REMARK Flexibility Score: inf
ROOT
ATOM      1  C   UNL     1      11.529  19.957  25.039  1.00  0.00     0.039 C 
ATOM      2  C   UNL     1      10.183  19.690  25.642  1.00  0.00    -0.073 C 
ATOM      3  C   UNL     1      10.040  18.858  26.706  1.00  0.00    -0.027 C 
ATOM      4  C   UNL     1       8.641  18.637  27.291  1.00  0.00     0.031 C 
ATOM      5  C   UNL     1       7.577  19.440  26.474  1.00  0.00     0.003 C 
ATOM      6  C   UNL     1       7.856  19.189  24.973  1.00  0.00     0.004 C 
ATOM      7  C   UNL     1       8.908  20.323  25.078  1.00  0.00     0.024 C 
ATOM      8  C   UNL     1       8.035  20.897  26.220  1.00  0.00    -0.022 C 
ATOM      9  C   UNL     1       6.839  21.712  25.638  1.00  0.00     0.008 C 
ATOM     10  C   UNL     1       6.331  21.141  24.287  1.00  0.00     0.005 C 
ATOM     11  C   UNL     1       6.613  19.614  24.136  1.00  0.00    -0.005 C 
ATOM     12  C   UNL     1       8.723  21.669  27.369  1.00  0.00     0.012 C 
ENDROOT
BRANCH  11  13
ATOM     13  C   UNL     1       6.698  19.120  22.660  1.00  0.00    -0.014 C 
ATOM     14  C   UNL     1       7.786  18.051  22.482  1.00  0.00     0.007 C 
ATOM     15  C   UNL     1       5.361  18.623  22.084  1.00  0.00     0.007 C 
ENDBRANCH  11  13
TORSDOF 1
ENDMDL
MODEL 3
REMARK VINA RESULT:    -5.148     11.688     14.972
REMARK INTER + INTRA:          -5.707
REMARK INTER:                  -5.445
REMARK INTRA:                  -0.262
REMARK UNBOUND:                -0.258
REMARK SMILES CC1=CC[C@@H]2[C@H]3[C@H](C(C)C)CC[C@]2(C)[C@@H]13
REMARK SMILES IDX 1 1 2 2 3 3 4 4 5 5 6 6 15 7 13 8 12 9 11 10 7 11 14 12 8 13
REMARK SMILES IDX 9 14 10 15
REMARK H PARENT
REMARK Flexibility Score: inf
ROOT
ATOM      1  C   UNL     1       7.456  18.363  27.438  1.00  0.00     0.039 C 
ATOM      2  C   UNL     1       7.846  19.404  26.432  1.00  0.00    -0.073 C 
ATOM      3  C   UNL     1       8.180  20.663  26.815  1.00  0.00    -0.027 C 
ATOM      4  C   UNL     1       8.589  21.679  25.743  1.00  0.00     0.031 C 
ATOM      5  C   UNL     1       8.503  21.035  24.321  1.00  0.00     0.003 C 
ATOM      6  C   UNL     1       7.151  20.287  24.230  1.00  0.00     0.004 C 
ATOM      7  C   UNL     1       7.867  19.104  24.931  1.00  0.00     0.024 C 
ATOM      8  C   UNL     1       9.171  19.638  24.288  1.00  0.00    -0.022 C 
ATOM      9  C   UNL     1       9.285  19.164  22.807  1.00  0.00     0.008 C 
ATOM     10  C   UNL     1       7.902  19.034  22.115  1.00  0.00     0.005 C 
ATOM     11  C   UNL     1       6.827  19.979  22.738  1.00  0.00    -0.005 C 
ATOM     12  C   UNL     1      10.508  19.438  25.038  1.00  0.00     0.012 C 
ENDROOT
BRANCH  11  13
ATOM     13  C   UNL     1       5.358  19.500  22.538  1.00  0.00    -0.014 C 
ATOM     14  C   UNL     1       4.659  20.274  21.411  1.00  0.00     0.007 C 
ATOM     15  C   UNL     1       5.213  17.985  22.316  1.00  0.00     0.007 C 
ENDBRANCH  11  13
TORSDOF 1
ENDMDL
MODEL 4
REMARK VINA RESULT:    -4.938     11.175     13.723
REMARK INTER + INTRA:          -5.484
REMARK INTER:                  -5.266
REMARK INTRA:                  -0.219
REMARK UNBOUND:                -0.258
REMARK SMILES CC1=CC[C@@H]2[C@H]3[C@H](C(C)C)CC[C@]2(C)[C@@H]13
REMARK SMILES IDX 1 1 2 2 3 3 4 4 5 5 6 6 15 7 13 8 12 9 11 10 7 11 14 12 8 13
REMARK SMILES IDX 9 14 10 15
REMARK H PARENT
REMARK Flexibility Score: inf
ROOT
ATOM      1  C   UNL     1       6.962  18.529  23.075  1.00  0.00     0.039 C 
ATOM      2  C   UNL     1       7.510  19.463  24.111  1.00  0.00    -0.073 C 
ATOM      3  C   UNL     1       6.867  20.615  24.433  1.00  0.00    -0.027 C 
ATOM      4  C   UNL     1       7.465  21.521  25.513  1.00  0.00     0.031 C 
ATOM      5  C   UNL     1       8.807  20.919  26.047  1.00  0.00     0.003 C 
ATOM      6  C   UNL     1       9.645  20.491  24.819  1.00  0.00     0.004 C 
ATOM      7  C   UNL     1       8.826  19.174  24.839  1.00  0.00     0.024 C 
ATOM      8  C   UNL     1       8.667  19.410  26.361  1.00  0.00    -0.022 C 
ATOM      9  C   UNL     1       9.940  18.930  27.125  1.00  0.00     0.008 C 
ATOM     10  C   UNL     1      11.238  19.114  26.294  1.00  0.00     0.005 C 
ATOM     11  C   UNL     1      11.125  20.270  25.251  1.00  0.00    -0.005 C 
ATOM     12  C   UNL     1       7.381  18.914  27.063  1.00  0.00     0.012 C 
ENDROOT
BRANCH  11  13
ATOM     13  C   UNL     1      12.084  20.130  24.031  1.00  0.00    -0.014 C 
ATOM     14  C   UNL     1      13.552  20.309  24.442  1.00  0.00     0.007 C 
ATOM     15  C   UNL     1      11.906  18.825  23.236  1.00  0.00     0.007 C 
ENDBRANCH  11  13
TORSDOF 1
ENDMDL
MODEL 5
REMARK VINA RESULT:    -4.899      1.268      2.848
REMARK INTER + INTRA:          -5.443
REMARK INTER:                  -5.227
REMARK INTRA:                  -0.216
REMARK UNBOUND:                -0.258
REMARK SMILES CC1=CC[C@@H]2[C@H]3[C@H](C(C)C)CC[C@]2(C)[C@@H]13
REMARK SMILES IDX 1 1 2 2 3 3 4 4 5 5 6 6 15 7 13 8 12 9 11 10 7 11 14 12 8 13
REMARK SMILES IDX 9 14 10 15
REMARK H PARENT
REMARK Flexibility Score: inf
ROOT
ATOM      1  C   UNL     1      15.342  18.415  38.820  1.00  0.00     0.039 C 
ATOM      2  C   UNL     1      14.560  17.747  37.729  1.00  0.00    -0.073 C 
ATOM      3  C   UNL     1      14.404  18.332  36.514  1.00  0.00    -0.027 C 
ATOM      4  C   UNL     1      13.611  17.592  35.432  1.00  0.00     0.031 C 
ATOM      5  C   UNL     1      13.070  16.234  35.987  1.00  0.00     0.003 C 
ATOM      6  C   UNL     1      12.447  16.513  37.375  1.00  0.00     0.004 C 
ATOM      7  C   UNL     1      13.886  16.389  37.940  1.00  0.00     0.024 C 
ATOM      8  C   UNL     1      14.171  15.450  36.742  1.00  0.00    -0.022 C 
ATOM      9  C   UNL     1      13.654  14.009  37.042  1.00  0.00     0.008 C 
ATOM     10  C   UNL     1      12.384  14.005  37.934  1.00  0.00     0.005 C 
ATOM     11  C   UNL     1      11.545  15.313  37.791  1.00  0.00    -0.005 C 
ATOM     12  C   UNL     1      15.597  15.413  36.146  1.00  0.00     0.012 C 
ENDROOT
BRANCH  11  13
ATOM     13  C   UNL     1      10.654  15.643  39.027  1.00  0.00    -0.014 C 
ATOM     14  C   UNL     1       9.292  16.214  38.605  1.00  0.00     0.007 C 
ATOM     15  C   UNL     1      10.463  14.466  39.999  1.00  0.00     0.007 C 
ENDBRANCH  11  13
TORSDOF 1
ENDMDL
MODEL 6
REMARK VINA RESULT:    -4.816     10.851     13.147
REMARK INTER + INTRA:          -5.355
REMARK INTER:                  -4.931
REMARK INTRA:                  -0.424
REMARK UNBOUND:                -0.258
REMARK SMILES CC1=CC[C@@H]2[C@H]3[C@H](C(C)C)CC[C@]2(C)[C@@H]13
REMARK SMILES IDX 1 1 2 2 3 3 4 4 5 5 6 6 15 7 13 8 12 9 11 10 7 11 14 12 8 13
REMARK SMILES IDX 9 14 10 15
REMARK H PARENT
REMARK Flexibility Score: inf
ROOT
ATOM      1  C   UNL     1      12.072  20.976  24.568  1.00  0.00     0.039 C 
ATOM      2  C   UNL     1      11.118  20.273  25.485  1.00  0.00    -0.073 C 
ATOM      3  C   UNL     1      11.531  19.264  26.294  1.00  0.00    -0.027 C 
ATOM      4  C   UNL     1      10.513  18.596  27.224  1.00  0.00     0.031 C 
ATOM      5  C   UNL     1       9.096  19.225  27.022  1.00  0.00     0.003 C 
ATOM      6  C   UNL     1       8.839  19.313  25.499  1.00  0.00     0.004 C 
ATOM      7  C   UNL     1       9.633  20.644  25.539  1.00  0.00     0.024 C 
ATOM      8  C   UNL     1       9.157  20.772  27.007  1.00  0.00    -0.022 C 
ATOM      9  C   UNL     1       7.705  21.339  27.064  1.00  0.00     0.008 C 
ATOM     10  C   UNL     1       6.844  20.896  25.852  1.00  0.00     0.005 C 
ATOM     11  C   UNL     1       7.320  19.541  25.240  1.00  0.00    -0.005 C 
ATOM     12  C   UNL     1      10.072  21.488  28.028  1.00  0.00     0.012 C 
ENDROOT
BRANCH  11  13
ATOM     13  C   UNL     1       6.939  19.343  23.742  1.00  0.00    -0.014 C 
ATOM     14  C   UNL     1       6.561  20.674  23.074  1.00  0.00     0.007 C 
ATOM     15  C   UNL     1       8.005  18.611  22.910  1.00  0.00     0.007 C 
ENDBRANCH  11  13
TORSDOF 1
ENDMDL
MODEL 7
REMARK VINA RESULT:    -4.648     10.136     13.604
REMARK INTER + INTRA:          -5.177
REMARK INTER:                  -4.871
REMARK INTRA:                  -0.307
REMARK UNBOUND:                -0.258
REMARK SMILES CC1=CC[C@@H]2[C@H]3[C@H](C(C)C)CC[C@]2(C)[C@@H]13
REMARK SMILES IDX 1 1 2 2 3 3 4 4 5 5 6 6 15 7 13 8 12 9 11 10 7 11 14 12 8 13
REMARK SMILES IDX 9 14 10 15
REMARK H PARENT
REMARK Flexibility Score: inf
ROOT
ATOM      1  C   UNL     1      11.773  19.093  27.931  1.00  0.00     0.039 C 
ATOM      2  C   UNL     1      11.522  19.994  26.759  1.00  0.00    -0.073 C 
ATOM      3  C   UNL     1      11.767  21.327  26.829  1.00  0.00    -0.027 C 
ATOM      4  C   UNL     1      11.509  22.194  25.592  1.00  0.00     0.031 C 
ATOM      5  C   UNL     1      10.945  21.322  24.424  1.00  0.00     0.003 C 
ATOM      6  C   UNL     1       9.827  20.426  25.011  1.00  0.00     0.004 C 
ATOM      7  C   UNL     1      10.961  19.458  25.439  1.00  0.00     0.024 C 
ATOM      8  C   UNL     1      11.762  20.020  24.239  1.00  0.00    -0.022 C 
ATOM      9  C   UNL     1      11.322  19.327  22.913  1.00  0.00     0.008 C 
ATOM     10  C   UNL     1       9.820  18.936  22.916  1.00  0.00     0.005 C 
ATOM     11  C   UNL     1       8.964  19.846  23.851  1.00  0.00    -0.005 C 
ATOM     12  C   UNL     1      13.304  20.092  24.340  1.00  0.00     0.012 C 
ENDROOT
BRANCH  11  13
ATOM     13  C   UNL     1       7.651  19.182  24.366  1.00  0.00    -0.014 C 
ATOM     14  C   UNL     1       7.373  19.542  25.833  1.00  0.00     0.007 C 
ATOM     15  C   UNL     1       6.414  19.476  23.500  1.00  0.00     0.007 C 
ENDBRANCH  11  13
TORSDOF 1
ENDMDL
MODEL 8
REMARK VINA RESULT:    -4.613     10.814     12.882
REMARK INTER + INTRA:          -5.141
REMARK INTER:                  -4.830
REMARK INTRA:                  -0.311
REMARK UNBOUND:                -0.258
REMARK SMILES CC1=CC[C@@H]2[C@H]3[C@H](C(C)C)CC[C@]2(C)[C@@H]13
REMARK SMILES IDX 1 1 2 2 3 3 4 4 5 5 6 6 15 7 13 8 12 9 11 10 7 11 14 12 8 13
REMARK SMILES IDX 9 14 10 15
REMARK H PARENT
REMARK Flexibility Score: inf
ROOT
ATOM      1  C   UNL     1      10.969  22.844  23.319  1.00  0.00     0.039 C 
ATOM      2  C   UNL     1      11.238  21.409  23.658  1.00  0.00    -0.073 C 
ATOM      3  C   UNL     1      11.657  20.528  22.713  1.00  0.00    -0.027 C 
ATOM      4  C   UNL     1      11.934  19.078  23.123  1.00  0.00     0.031 C 
ATOM      5  C   UNL     1      11.628  18.874  24.643  1.00  0.00     0.003 C 
ATOM      6  C   UNL     1      10.258  19.531  24.934  1.00  0.00     0.004 C 
ATOM      7  C   UNL     1      11.036  20.865  25.075  1.00  0.00     0.024 C 
ATOM      8  C   UNL     1      12.247  20.002  25.504  1.00  0.00    -0.022 C 
ATOM      9  C   UNL     1      12.136  19.611  27.010  1.00  0.00     0.008 C 
ATOM     10  C   UNL     1      10.665  19.429  27.470  1.00  0.00     0.005 C 
ATOM     11  C   UNL     1       9.716  19.018  26.300  1.00  0.00    -0.005 C 
ATOM     12  C   UNL     1      13.673  20.496  25.165  1.00  0.00     0.012 C 
ENDROOT
BRANCH  11  13
ATOM     13  C   UNL     1       8.220  19.397  26.524  1.00  0.00    -0.014 C 
ATOM     14  C   UNL     1       7.485  19.605  25.192  1.00  0.00     0.007 C 
ATOM     15  C   UNL     1       7.446  18.411  27.414  1.00  0.00     0.007 C 
ENDBRANCH  11  13
TORSDOF 1
ENDMDL
MODEL 9
REMARK VINA RESULT:    -4.602     12.411     15.946
REMARK INTER + INTRA:          -5.129
REMARK INTER:                  -4.705
REMARK INTRA:                  -0.424
REMARK UNBOUND:                -0.258
REMARK SMILES CC1=CC[C@@H]2[C@H]3[C@H](C(C)C)CC[C@]2(C)[C@@H]13
REMARK SMILES IDX 1 1 2 2 3 3 4 4 5 5 6 6 15 7 13 8 12 9 11 10 7 11 14 12 8 13
REMARK SMILES IDX 9 14 10 15
REMARK H PARENT
REMARK Flexibility Score: inf
ROOT
ATOM      1  C   UNL     1       7.729  19.000  26.597  1.00  0.00     0.039 C 
ATOM      2  C   UNL     1       7.794  19.477  25.177  1.00  0.00    -0.073 C 
ATOM      3  C   UNL     1       8.983  19.734  24.574  1.00  0.00    -0.027 C 
ATOM      4  C   UNL     1       8.988  20.202  23.115  1.00  0.00     0.031 C 
ATOM      5  C   UNL     1       7.524  20.333  22.581  1.00  0.00     0.003 C 
ATOM      6  C   UNL     1       6.704  21.089  23.652  1.00  0.00     0.004 C 
ATOM      7  C   UNL     1       6.528  19.715  24.350  1.00  0.00     0.024 C 
ATOM      8  C   UNL     1       6.674  19.090  22.941  1.00  0.00    -0.022 C 
ATOM      9  C   UNL     1       5.320  19.159  22.169  1.00  0.00     0.008 C 
ATOM     10  C   UNL     1       4.487  20.415  22.538  1.00  0.00     0.005 C 
ATOM     11  C   UNL     1       5.375  21.604  23.023  1.00  0.00    -0.005 C 
ATOM     12  C   UNL     1       7.315  17.689  22.810  1.00  0.00     0.012 C 
ENDROOT
BRANCH  11  13
ATOM     13  C   UNL     1       4.638  22.621  23.945  1.00  0.00    -0.014 C 
ATOM     14  C   UNL     1       3.351  22.023  24.532  1.00  0.00     0.007 C 
ATOM     15  C   UNL     1       5.514  23.208  25.064  1.00  0.00     0.007 C 
ENDBRANCH  11  13
TORSDOF 1
ENDMDL
