MODEL 1
REMARK VINA RESULT:    88.524      0.000      0.000
REMARK INTER + INTRA:         187.968
REMARK INTER:                 186.851
REMARK INTRA:                   1.117
REMARK UNBOUND:                 1.117
REMARK SMILES CCC(=O)CCCCC[C@H]1NC(=O)[C@@H]2CCCCN2C(=O)[C@H]([C@H](C)CC)NC(=O)[C@H](Cc2cn(OC)c3ccccc23)NC1=O
REMARK SMILES IDX 9 1 10 2 44 3 43 4 45 6 30 7 28 8 27 9 29 11 22 12 23 14
REMARK SMILES IDX 24 15 25 16 26 17 31 18 32 19 33 20 42 21 34 22 37 23 41 24
REMARK SMILES IDX 38 25 40 26 39 27 35 28 36 29 11 30 12 31 13 33 14 34 19 35
REMARK SMILES IDX 15 36 18 37 16 38 17 39 20 40 21 41 8 43 7 44 6 45 5 46 3 47
REMARK SMILES IDX 4 48 2 49 1 50
REMARK H PARENT 43 5 27 10 11 32
REMARK Flexibility Score: 80.00
ROOT
ATOM      1  C   UNL     1      -8.345 -14.579  20.751  1.00  0.00     0.035 C 
ENDROOT
BRANCH   1   2
ATOM      2  C   UNL     1      -9.442 -14.379  19.677  1.00  0.00     0.171 C 
BRANCH   2   3
ATOM      3  C   UNL     1      -9.401 -15.368  18.536  1.00  0.00     0.243 C 
ATOM      4  N   UNL     1      -8.178 -16.046  18.186  1.00  0.00    -0.342 N 
ATOM      5  H   UNL     1      -7.434 -16.108  18.915  1.00  0.00     0.164 HD
ATOM      6  O   UNL     1     -10.445 -15.534  17.852  1.00  0.00    -0.273 OA
BRANCH   4   7
ATOM      7  C   UNL     1      -7.743 -16.414  16.830  1.00  0.00     0.175 C 
BRANCH   7   8
ATOM      8  C   UNL     1      -7.720 -15.227  15.889  1.00  0.00     0.243 C 
ATOM      9  N   UNL     1      -8.907 -14.704  15.264  1.00  0.00    -0.342 N 
ATOM     10  H   UNL     1      -9.782 -15.266  15.277  1.00  0.00     0.164 HD
ATOM     11  O   UNL     1      -6.605 -14.686  15.649  1.00  0.00    -0.273 OA
BRANCH   9  12
ATOM     12  C   UNL     1      -8.892 -13.420  14.548  1.00  0.00     0.174 CG0
ATOM     13  G   UNL     1      -9.822 -12.398  15.183  1.00  0.00     0.000 G0
BRANCH  12  14
ATOM     14  C   UNL     1      -9.128 -13.639  13.017  1.00  0.00     0.018 C 
ATOM     15  C   UNL     1      -7.834 -13.420  12.214  1.00  0.00     0.010 C 
BRANCH  14  16
ATOM     16  C   UNL     1     -10.273 -12.792  12.404  1.00  0.00     0.002 C 
ATOM     17  C   UNL     1     -11.509 -13.614  12.032  1.00  0.00     0.004 C 
ENDBRANCH  14  16
ENDBRANCH  12  14
ENDBRANCH   9  12
ENDBRANCH   7   8
BRANCH   7  18
ATOM     18  C   UNL     1      -8.484 -17.639  16.243  1.00  0.00     0.073 C 
BRANCH  18  19
ATOM     19  C   UNL     1      -7.541 -18.794  16.039  1.00  0.00    -0.016 A 
ATOM     20  C   UNL     1      -7.294 -19.805  16.965  1.00  0.00     0.134 A 
ATOM     21  C   UNL     1      -6.869 -19.168  14.884  1.00  0.00     0.006 A 
ATOM     22  N   UNL     1      -6.493 -20.749  16.414  1.00  0.00    -0.191 N 
ATOM     23  C   UNL     1      -6.243 -20.360  15.154  1.00  0.00     0.087 A 
ATOM     24  C   UNL     1      -6.774 -18.565  13.629  1.00  0.00     0.011 A 
ATOM     25  C   UNL     1      -5.489 -21.031  14.190  1.00  0.00     0.030 A 
ATOM     26  C   UNL     1      -6.025 -19.222  12.635  1.00  0.00     0.001 A 
ATOM     27  C   UNL     1      -5.384 -20.448  12.914  1.00  0.00     0.002 A 
BRANCH  22  28
ATOM     28  O   UNL     1      -6.034 -21.915  17.001  1.00  0.00    -0.417 OA
ATOM     29  C   UNL     1      -6.876 -23.039  17.224  1.00  0.00     0.313 C 
ENDBRANCH  22  28
ENDBRANCH  18  19
ENDBRANCH   7  18
ENDBRANCH   4   7
ENDBRANCH   2   3
BRANCH   2  30
ATOM     30  N   UNL     1      -9.499 -13.005  19.168  1.00  0.00    -0.343 N 
ATOM     31  C   UNL     1     -10.755 -12.415  18.828  1.00  0.00     0.243 C 
ATOM     32  H   UNL     1      -8.653 -12.585  18.721  1.00  0.00     0.164 HD
ATOM     33  O   UNL     1     -11.684 -12.396  19.680  1.00  0.00    -0.273 OA
BRANCH  31  34
ATOM     34  C   UNL     1     -10.958 -11.866  17.432  1.00  0.00     0.174 C 
ATOM     35  N   UNL     1     -10.565 -12.876  16.433  1.00  0.00    -0.329 N 
ATOM     36  C   UNL     1     -12.413 -11.418  17.154  1.00  0.00     0.035 C 
ATOM     37  C   UNL     1     -11.419 -14.062  16.308  1.00  0.00     0.120 C 
ATOM     38  C   UNL     1     -13.370 -12.614  16.983  1.00  0.00     0.004 C 
ATOM     39  C   UNL     1     -12.843 -13.625  15.955  1.00  0.00     0.022 C 
BRANCH  35  40
ATOM     40  C   UNL     1      -9.828 -12.451  15.276  1.00  0.00     0.246 CG0
ATOM     41  O   UNL     1      -9.879 -11.238  14.938  1.00  0.00    -0.272 OA
ATOM     42  G   UNL     1      -8.907 -13.393  14.517  1.00  0.00     0.000 G0
ENDBRANCH  35  40
ENDBRANCH  31  34
ENDBRANCH   2  30
ENDBRANCH   1   2
BRANCH   1  43
ATOM     43  C   UNL     1      -7.397 -13.395  21.016  1.00  0.00     0.003 C 
BRANCH  43  44
ATOM     44  C   UNL     1      -7.863 -12.500  22.171  1.00  0.00     0.001 C 
BRANCH  44  45
ATOM     45  C   UNL     1      -6.838 -12.507  23.315  1.00  0.00     0.008 C 
BRANCH  45  46
ATOM     46  C   UNL     1      -6.283 -11.104  23.596  1.00  0.00     0.075 C 
BRANCH  46  47
ATOM     47  C   UNL     1      -6.262 -10.797  25.074  1.00  0.00     0.132 C 
ATOM     48  O   UNL     1      -6.763 -11.589  25.859  1.00  0.00    -0.300 OA
BRANCH  47  49
ATOM     49  C   UNL     1      -5.623  -9.537  25.597  1.00  0.00     0.072 C 
ATOM     50  C   UNL     1      -4.738  -8.897  24.533  1.00  0.00     0.012 C 
ENDBRANCH  47  49
ENDBRANCH  46  47
ENDBRANCH  45  46
ENDBRANCH  44  45
ENDBRANCH  43  44
ENDBRANCH   1  43
TORSDOF 12
ENDMDL
MODEL 2
REMARK VINA RESULT:    90.820      3.410      8.466
REMARK INTER + INTRA:         192.814
REMARK INTER:                 192.015
REMARK INTRA:                   0.799
REMARK UNBOUND:                 1.117
REMARK SMILES CCC(=O)CCCCC[C@H]1NC(=O)[C@@H]2CCCCN2C(=O)[C@H]([C@H](C)CC)NC(=O)[C@H](Cc2cn(OC)c3ccccc23)NC1=O
REMARK SMILES IDX 9 1 10 2 44 3 43 4 45 6 30 7 28 8 27 9 29 11 22 12 23 14
REMARK SMILES IDX 24 15 25 16 26 17 31 18 32 19 33 20 42 21 34 22 37 23 41 24
REMARK SMILES IDX 38 25 40 26 39 27 35 28 36 29 11 30 12 31 13 33 14 34 19 35
REMARK SMILES IDX 15 36 18 37 16 38 17 39 20 40 21 41 8 43 7 44 6 45 5 46 3 47
REMARK SMILES IDX 4 48 2 49 1 50
REMARK H PARENT 43 5 27 10 11 32
REMARK Flexibility Score: 80.00
ROOT
ATOM      1  C   UNL     1     -11.305 -16.727  12.004  1.00  0.00     0.035 C 
ENDROOT
BRANCH   1   2
ATOM      2  C   UNL     1     -11.025 -15.255  11.615  1.00  0.00     0.171 C 
BRANCH   2   3
ATOM      3  C   UNL     1     -10.135 -14.503  12.575  1.00  0.00     0.243 C 
ATOM      4  N   UNL     1     -10.530 -14.294  13.945  1.00  0.00    -0.342 N 
ATOM      5  H   UNL     1     -11.248 -14.937  14.345  1.00  0.00     0.164 HD
ATOM      6  O   UNL     1      -9.067 -14.003  12.132  1.00  0.00    -0.273 OA
BRANCH   4   7
ATOM      7  C   UNL     1     -10.249 -13.102  14.761  1.00  0.00     0.175 C 
BRANCH   7   8
ATOM      8  C   UNL     1     -10.225 -11.831  13.937  1.00  0.00     0.243 C 
ATOM      9  N   UNL     1     -10.941 -11.692  12.696  1.00  0.00    -0.342 N 
ATOM     10  H   UNL     1     -11.321 -12.539  12.227  1.00  0.00     0.164 HD
ATOM     11  O   UNL     1      -9.540 -10.862  14.368  1.00  0.00    -0.273 OA
BRANCH   9  12
ATOM     12  C   UNL     1     -11.090 -10.384  12.041  1.00  0.00     0.174 CG0
ATOM     13  G   UNL     1     -11.534 -10.514  10.593  1.00  0.00     0.000 G0
BRANCH  12  14
ATOM     14  C   UNL     1      -9.805  -9.515  12.244  1.00  0.00     0.018 C 
ATOM     15  C   UNL     1     -10.005  -8.471  13.356  1.00  0.00     0.010 C 
BRANCH  14  16
ATOM     16  C   UNL     1      -9.276  -8.820  10.963  1.00  0.00     0.002 C 
ATOM     17  C   UNL     1      -9.132  -7.303  11.105  1.00  0.00     0.004 C 
ENDBRANCH  14  16
ENDBRANCH  12  14
ENDBRANCH   9  12
ENDBRANCH   7   8
BRANCH   7  18
ATOM     18  C   UNL     1      -9.017 -13.250  15.684  1.00  0.00     0.073 C 
BRANCH  18  19
ATOM     19  C   UNL     1      -9.323 -14.149  16.853  1.00  0.00    -0.016 A 
ATOM     20  C   UNL     1      -9.774 -15.464  16.761  1.00  0.00     0.134 A 
ATOM     21  C   UNL     1      -9.083 -13.927  18.201  1.00  0.00     0.006 A 
ATOM     22  N   UNL     1      -9.827 -16.021  17.994  1.00  0.00    -0.191 N 
ATOM     23  C   UNL     1      -9.404 -15.087  18.862  1.00  0.00     0.087 A 
ATOM     24  C   UNL     1      -8.600 -12.811  18.886  1.00  0.00     0.011 A 
ATOM     25  C   UNL     1      -9.258 -15.213  20.243  1.00  0.00     0.030 A 
ATOM     26  C   UNL     1      -8.436 -12.911  20.280  1.00  0.00     0.001 A 
ATOM     27  C   UNL     1      -8.765 -14.106  20.956  1.00  0.00     0.002 A 
BRANCH  22  28
ATOM     28  O   UNL     1     -10.208 -17.310  18.325  1.00  0.00    -0.417 OA
ATOM     29  C   UNL     1      -9.640 -18.455  17.701  1.00  0.00     0.313 C 
ENDBRANCH  22  28
ENDBRANCH  18  19
ENDBRANCH   7  18
ENDBRANCH   4   7
ENDBRANCH   2   3
BRANCH   2  30
ATOM     30  N   UNL     1     -12.250 -14.495  11.342  1.00  0.00    -0.343 N 
ATOM     31  C   UNL     1     -12.556 -14.081  10.009  1.00  0.00     0.243 C 
ATOM     32  H   UNL     1     -12.704 -13.955  12.112  1.00  0.00     0.164 HD
ATOM     33  O   UNL     1     -12.592 -14.937   9.085  1.00  0.00    -0.273 OA
BRANCH  31  34
ATOM     34  C   UNL     1     -12.787 -12.611   9.729  1.00  0.00     0.174 C 
ATOM     35  N   UNL     1     -11.533 -11.860   9.921  1.00  0.00    -0.329 N 
ATOM     36  C   UNL     1     -13.330 -12.335   8.307  1.00  0.00     0.035 C 
ATOM     37  C   UNL     1     -10.462 -12.084   8.944  1.00  0.00     0.120 C 
ATOM     38  C   UNL     1     -12.252 -12.525   7.222  1.00  0.00     0.004 C 
ATOM     39  C   UNL     1     -10.974 -11.737   7.544  1.00  0.00     0.022 C 
BRANCH  35  40
ATOM     40  C   UNL     1     -11.588 -10.586  10.582  1.00  0.00     0.246 CG0
ATOM     41  O   UNL     1     -12.142  -9.621   9.991  1.00  0.00    -0.272 OA
ATOM     42  G   UNL     1     -11.096 -10.399  12.008  1.00  0.00     0.000 G0
ENDBRANCH  35  40
ENDBRANCH  31  34
ENDBRANCH   2  30
ENDBRANCH   1   2
BRANCH   1  43
ATOM     43  C   UNL     1     -10.362 -17.799  11.428  1.00  0.00     0.003 C 
BRANCH  43  44
ATOM     44  C   UNL     1      -9.566 -18.542  12.508  1.00  0.00     0.001 C 
BRANCH  44  45
ATOM     45  C   UNL     1      -8.063 -18.514  12.194  1.00  0.00     0.008 C 
BRANCH  45  46
ATOM     46  C   UNL     1      -7.228 -18.115  13.418  1.00  0.00     0.075 C 
BRANCH  46  47
ATOM     47  C   UNL     1      -7.065 -19.264  14.383  1.00  0.00     0.132 C 
ATOM     48  O   UNL     1      -7.178 -19.062  15.583  1.00  0.00    -0.300 OA
BRANCH  47  49
ATOM     49  C   UNL     1      -6.778 -20.659  13.890  1.00  0.00     0.072 C 
ATOM     50  C   UNL     1      -5.367 -20.751  13.319  1.00  0.00     0.012 C 
ENDBRANCH  47  49
ENDBRANCH  46  47
ENDBRANCH  45  46
ENDBRANCH  44  45
ENDBRANCH  43  44
ENDBRANCH   1  43
TORSDOF 12
ENDMDL
MODEL 3
REMARK VINA RESULT:    91.060      1.864      3.226
REMARK INTER + INTRA:         193.320
REMARK INTER:                 187.071
REMARK INTRA:                   6.248
REMARK UNBOUND:                 1.117
REMARK SMILES CCC(=O)CCCCC[C@H]1NC(=O)[C@@H]2CCCCN2C(=O)[C@H]([C@H](C)CC)NC(=O)[C@H](Cc2cn(OC)c3ccccc23)NC1=O
REMARK SMILES IDX 9 1 10 2 44 3 43 4 45 6 30 7 28 8 27 9 29 11 22 12 23 14
REMARK SMILES IDX 24 15 25 16 26 17 31 18 32 19 33 20 42 21 34 22 37 23 41 24
REMARK SMILES IDX 38 25 40 26 39 27 35 28 36 29 11 30 12 31 13 33 14 34 19 35
REMARK SMILES IDX 15 36 18 37 16 38 17 39 20 40 21 41 8 43 7 44 6 45 5 46 3 47
REMARK SMILES IDX 4 48 2 49 1 50
REMARK H PARENT 43 5 27 10 11 32
REMARK Flexibility Score: 80.00
ROOT
ATOM      1  C   UNL     1      -9.268 -12.299  19.206  1.00  0.00     0.035 C 
ENDROOT
BRANCH   1   2
ATOM      2  C   UNL     1      -9.873 -13.060  18.001  1.00  0.00     0.171 C 
BRANCH   2   3
ATOM      3  C   UNL     1      -9.131 -14.315  17.606  1.00  0.00     0.243 C 
ATOM      4  N   UNL     1      -7.695 -14.390  17.702  1.00  0.00    -0.342 N 
ATOM      5  H   UNL     1      -7.218 -13.722  18.345  1.00  0.00     0.164 HD
ATOM      6  O   UNL     1      -9.794 -15.273  17.126  1.00  0.00    -0.273 OA
BRANCH   4   7
ATOM      7  C   UNL     1      -6.797 -15.109  16.784  1.00  0.00     0.175 C 
BRANCH   7   8
ATOM      8  C   UNL     1      -7.409 -15.303  15.412  1.00  0.00     0.243 C 
ATOM      9  N   UNL     1      -7.204 -14.379  14.328  1.00  0.00    -0.342 N 
ATOM     10  H   UNL     1      -6.804 -13.440  14.526  1.00  0.00     0.164 HD
ATOM     11  O   UNL     1      -8.130 -16.324  15.227  1.00  0.00    -0.273 OA
BRANCH   9  12
ATOM     12  C   UNL     1      -7.611 -14.708  12.954  1.00  0.00     0.174 CG0
ATOM     13  G   UNL     1      -8.628 -13.720  12.404  1.00  0.00     0.000 G0
BRANCH  12  14
ATOM     14  C   UNL     1      -8.049 -16.206  12.852  1.00  0.00     0.018 C 
ATOM     15  C   UNL     1      -6.858 -17.116  12.508  1.00  0.00     0.010 C 
BRANCH  14  16
ATOM     16  C   UNL     1      -9.218 -16.480  11.869  1.00  0.00     0.002 C 
ATOM     17  C   UNL     1      -9.651 -17.947  11.829  1.00  0.00     0.004 C 
ENDBRANCH  14  16
ENDBRANCH  12  14
ENDBRANCH   9  12
ENDBRANCH   7   8
BRANCH   7  18
ATOM     18  C   UNL     1      -6.208 -16.411  17.375  1.00  0.00     0.073 C 
BRANCH  18  19
ATOM     19  C   UNL     1      -6.861 -17.624  16.767  1.00  0.00    -0.016 A 
ATOM     20  C   UNL     1      -6.220 -18.569  15.970  1.00  0.00     0.134 A 
ATOM     21  C   UNL     1      -8.138 -18.121  16.988  1.00  0.00     0.006 A 
ATOM     22  N   UNL     1      -7.065 -19.592  15.697  1.00  0.00    -0.191 N 
ATOM     23  C   UNL     1      -8.223 -19.317  16.318  1.00  0.00     0.087 A 
ATOM     24  C   UNL     1      -9.212 -17.625  17.728  1.00  0.00     0.011 A 
ATOM     25  C   UNL     1      -9.379 -20.097  16.349  1.00  0.00     0.030 A 
ATOM     26  C   UNL     1     -10.388 -18.394  17.783  1.00  0.00     0.001 A 
ATOM     27  C   UNL     1     -10.473 -19.624  17.096  1.00  0.00     0.002 A 
BRANCH  22  28
ATOM     28  O   UNL     1      -6.804 -20.729  14.952  1.00  0.00    -0.417 OA
ATOM     29  C   UNL     1      -5.750 -20.791  13.999  1.00  0.00     0.313 C 
ENDBRANCH  22  28
ENDBRANCH  18  19
ENDBRANCH   7  18
ENDBRANCH   4   7
ENDBRANCH   2   3
BRANCH   2  30
ATOM     30  N   UNL     1     -10.088 -12.198  16.834  1.00  0.00    -0.343 N 
ATOM     31  C   UNL     1     -10.301 -12.775  15.544  1.00  0.00     0.243 C 
ATOM     32  H   UNL     1      -9.743 -11.211  16.849  1.00  0.00     0.164 HD
ATOM     33  O   UNL     1     -11.217 -13.627  15.388  1.00  0.00    -0.273 OA
BRANCH  31  34
ATOM     34  C   UNL     1      -9.389 -12.383  14.401  1.00  0.00     0.174 C 
ATOM     35  N   UNL     1      -9.683 -13.211  13.217  1.00  0.00    -0.329 N 
ATOM     36  C   UNL     1      -9.498 -10.889  14.014  1.00  0.00     0.035 C 
ATOM     37  C   UNL     1     -10.964 -12.980  12.540  1.00  0.00     0.120 C 
ATOM     38  C   UNL     1     -10.811 -10.572  13.272  1.00  0.00     0.004 C 
ATOM     39  C   UNL     1     -11.041 -11.521  12.087  1.00  0.00     0.022 C 
BRANCH  35  40
ATOM     40  C   UNL     1      -8.586 -13.708  12.434  1.00  0.00     0.246 CG0
ATOM     41  O   UNL     1      -8.409 -13.243  11.276  1.00  0.00    -0.272 OA
ATOM     42  G   UNL     1      -7.574 -14.691  13.001  1.00  0.00     0.000 G0
ENDBRANCH  35  40
ENDBRANCH  31  34
ENDBRANCH   2  30
ENDBRANCH   1   2
BRANCH   1  43
ATOM     43  C   UNL     1      -8.988 -13.113  20.483  1.00  0.00     0.003 C 
BRANCH  43  44
ATOM     44  C   UNL     1      -8.390 -12.267  21.614  1.00  0.00     0.001 C 
BRANCH  44  45
ATOM     45  C   UNL     1      -7.651 -13.155  22.627  1.00  0.00     0.008 C 
BRANCH  45  46
ATOM     46  C   UNL     1      -6.270 -12.588  22.985  1.00  0.00     0.075 C 
BRANCH  46  47
ATOM     47  C   UNL     1      -6.337 -11.666  24.178  1.00  0.00     0.132 C 
ATOM     48  O   UNL     1      -6.861 -12.057  25.211  1.00  0.00    -0.300 OA
BRANCH  47  49
ATOM     49  C   UNL     1      -5.756 -10.277  24.121  1.00  0.00     0.072 C 
ATOM     50  C   UNL     1      -5.862  -9.589  25.477  1.00  0.00     0.012 C 
ENDBRANCH  47  49
ENDBRANCH  46  47
ENDBRANCH  45  46
ENDBRANCH  44  45
ENDBRANCH  43  44
ENDBRANCH   1  43
TORSDOF 12
ENDMDL
MODEL 4
REMARK VINA RESULT:    91.222      4.252      8.673
REMARK INTER + INTRA:         193.663
REMARK INTER:                 191.645
REMARK INTRA:                   2.018
REMARK UNBOUND:                 1.117
REMARK SMILES CCC(=O)CCCCC[C@H]1NC(=O)[C@@H]2CCCCN2C(=O)[C@H]([C@H](C)CC)NC(=O)[C@H](Cc2cn(OC)c3ccccc23)NC1=O
REMARK SMILES IDX 9 1 10 2 44 3 43 4 45 6 30 7 28 8 27 9 29 11 22 12 23 14
REMARK SMILES IDX 24 15 25 16 26 17 31 18 32 19 33 20 42 21 34 22 37 23 41 24
REMARK SMILES IDX 38 25 40 26 39 27 35 28 36 29 11 30 12 31 13 33 14 34 19 35
REMARK SMILES IDX 15 36 18 37 16 38 17 39 20 40 21 41 8 43 7 44 6 45 5 46 3 47
REMARK SMILES IDX 4 48 2 49 1 50
REMARK H PARENT 43 5 27 10 11 32
REMARK Flexibility Score: 80.00
ROOT
ATOM      1  C   UNL     1      -6.127 -19.250  15.685  1.00  0.00     0.035 C 
ENDROOT
BRANCH   1   2
ATOM      2  C   UNL     1      -6.854 -19.715  14.400  1.00  0.00     0.171 C 
BRANCH   2   3
ATOM      3  C   UNL     1      -7.118 -18.623  13.391  1.00  0.00     0.243 C 
ATOM      4  N   UNL     1      -8.130 -17.623  13.626  1.00  0.00    -0.342 N 
ATOM      5  H   UNL     1      -8.427 -17.460  14.612  1.00  0.00     0.164 HD
ATOM      6  O   UNL     1      -6.480 -18.647  12.305  1.00  0.00    -0.273 OA
BRANCH   4   7
ATOM      7  C   UNL     1      -8.996 -17.004  12.611  1.00  0.00     0.175 C 
BRANCH   7   8
ATOM      8  C   UNL     1      -9.649 -18.029  11.706  1.00  0.00     0.243 C 
ATOM      9  N   UNL     1     -10.936 -18.609  11.986  1.00  0.00    -0.342 N 
ATOM     10  H   UNL     1     -11.353 -18.496  12.932  1.00  0.00     0.164 HD
ATOM     11  O   UNL     1      -9.024 -18.382  10.667  1.00  0.00    -0.273 OA
BRANCH   9  12
ATOM     12  C   UNL     1     -11.647 -19.417  10.984  1.00  0.00     0.174 CG0
ATOM     13  G   UNL     1     -11.950 -20.820  11.487  1.00  0.00     0.000 G0
BRANCH  12  14
ATOM     14  C   UNL     1     -10.899 -19.374   9.610  1.00  0.00     0.018 C 
ATOM     15  C   UNL     1     -11.408 -18.219   8.731  1.00  0.00     0.010 C 
BRANCH  14  16
ATOM     16  C   UNL     1     -10.933 -20.699   8.805  1.00  0.00     0.002 C 
ATOM     17  C   UNL     1      -9.661 -20.955   7.994  1.00  0.00     0.004 C 
ENDBRANCH  14  16
ENDBRANCH  12  14
ENDBRANCH   9  12
ENDBRANCH   7   8
BRANCH   7  18
ATOM     18  C   UNL     1      -8.323 -15.849  11.832  1.00  0.00     0.073 C 
BRANCH  18  19
ATOM     19  C   UNL     1      -8.955 -14.527  12.176  1.00  0.00    -0.016 A 
ATOM     20  C   UNL     1      -8.351 -13.515  12.918  1.00  0.00     0.134 A 
ATOM     21  C   UNL     1     -10.152 -13.995  11.718  1.00  0.00     0.006 A 
ATOM     22  N   UNL     1      -9.144 -12.417  12.933  1.00  0.00    -0.191 N 
ATOM     23  C   UNL     1     -10.231 -12.712  12.202  1.00  0.00     0.087 A 
ATOM     24  C   UNL     1     -11.157 -14.530  10.911  1.00  0.00     0.011 A 
ATOM     25  C   UNL     1     -11.311 -11.879  11.907  1.00  0.00     0.030 A 
ATOM     26  C   UNL     1     -12.256 -13.710  10.592  1.00  0.00     0.001 A 
ATOM     27  C   UNL     1     -12.334 -12.392  11.089  1.00  0.00     0.002 A 
BRANCH  22  28
ATOM     28  O   UNL     1      -8.896 -11.201  13.546  1.00  0.00    -0.417 OA
ATOM     29  C   UNL     1      -9.593 -10.013  13.194  1.00  0.00     0.313 C 
ENDBRANCH  22  28
ENDBRANCH  18  19
ENDBRANCH   7  18
ENDBRANCH   4   7
ENDBRANCH   2   3
BRANCH   2  30
ATOM     30  N   UNL     1      -8.081 -20.468  14.681  1.00  0.00    -0.343 N 
ATOM     31  C   UNL     1      -8.856 -21.005  13.607  1.00  0.00     0.243 C 
ATOM     32  H   UNL     1      -8.582 -20.319  15.586  1.00  0.00     0.164 HD
ATOM     33  O   UNL     1      -8.303 -21.752  12.755  1.00  0.00    -0.273 OA
BRANCH  31  34
ATOM     34  C   UNL     1     -10.316 -20.628  13.491  1.00  0.00     0.174 C 
ATOM     35  N   UNL     1     -10.968 -21.452  12.457  1.00  0.00    -0.329 N 
ATOM     36  C   UNL     1     -11.096 -20.773  14.819  1.00  0.00     0.035 C 
ATOM     37  C   UNL     1     -11.153 -22.877  12.754  1.00  0.00     0.120 C 
ATOM     38  C   UNL     1     -11.352 -22.247  15.188  1.00  0.00     0.004 C 
ATOM     39  C   UNL     1     -11.990 -23.023  14.027  1.00  0.00     0.022 C 
BRANCH  35  40
ATOM     40  C   UNL     1     -11.898 -20.824  11.560  1.00  0.00     0.246 CG0
ATOM     41  O   UNL     1     -12.990 -21.404  11.318  1.00  0.00    -0.272 OA
ATOM     42  G   UNL     1     -11.650 -19.439  10.984  1.00  0.00     0.000 G0
ENDBRANCH  35  40
ENDBRANCH  31  34
ENDBRANCH   2  30
ENDBRANCH   1   2
BRANCH   1  43
ATOM     43  C   UNL     1      -6.997 -18.969  16.924  1.00  0.00     0.003 C 
BRANCH  43  44
ATOM     44  C   UNL     1      -7.915 -17.752  16.748  1.00  0.00     0.001 C 
BRANCH  44  45
ATOM     45  C   UNL     1      -9.342 -18.074  17.218  1.00  0.00     0.008 C 
BRANCH  45  46
ATOM     46  C   UNL     1      -9.760 -17.210  18.415  1.00  0.00     0.075 C 
BRANCH  46  47
ATOM     47  C   UNL     1      -9.801 -15.744  18.059  1.00  0.00     0.132 C 
ATOM     48  O   UNL     1     -10.304 -15.397  17.001  1.00  0.00    -0.300 OA
BRANCH  47  49
ATOM     49  C   UNL     1      -9.244 -14.701  18.994  1.00  0.00     0.072 C 
ATOM     50  C   UNL     1      -8.248 -13.803  18.270  1.00  0.00     0.012 C 
ENDBRANCH  47  49
ENDBRANCH  46  47
ENDBRANCH  45  46
ENDBRANCH  44  45
ENDBRANCH  43  44
ENDBRANCH   1  43
TORSDOF 12
ENDMDL
MODEL 5
REMARK VINA RESULT:    91.360      1.743      2.421
REMARK INTER + INTRA:         193.954
REMARK INTER:                 192.209
REMARK INTRA:                   1.745
REMARK UNBOUND:                 1.117
REMARK SMILES CCC(=O)CCCCC[C@H]1NC(=O)[C@@H]2CCCCN2C(=O)[C@H]([C@H](C)CC)NC(=O)[C@H](Cc2cn(OC)c3ccccc23)NC1=O
REMARK SMILES IDX 9 1 10 2 44 3 43 4 45 6 30 7 28 8 27 9 29 11 22 12 23 14
REMARK SMILES IDX 24 15 25 16 26 17 31 18 32 19 33 20 42 21 34 22 37 23 41 24
REMARK SMILES IDX 38 25 40 26 39 27 35 28 36 29 11 30 12 31 13 33 14 34 19 35
REMARK SMILES IDX 15 36 18 37 16 38 17 39 20 40 21 41 8 43 7 44 6 45 5 46 3 47
REMARK SMILES IDX 4 48 2 49 1 50
REMARK H PARENT 43 5 27 10 11 32
REMARK Flexibility Score: 80.00
ROOT
ATOM      1  C   UNL     1      -7.617 -13.407  21.646  1.00  0.00     0.035 C 
ENDROOT
BRANCH   1   2
ATOM      2  C   UNL     1      -8.965 -13.715  20.949  1.00  0.00     0.171 C 
BRANCH   2   3
ATOM      3  C   UNL     1      -8.974 -14.974  20.115  1.00  0.00     0.243 C 
ATOM      4  N   UNL     1      -8.034 -15.157  19.038  1.00  0.00    -0.342 N 
ATOM      5  H   UNL     1      -7.159 -14.591  19.059  1.00  0.00     0.164 HD
ATOM      6  O   UNL     1      -9.870 -15.831  20.339  1.00  0.00    -0.273 OA
BRANCH   4   7
ATOM      7  C   UNL     1      -8.294 -15.843  17.762  1.00  0.00     0.175 C 
BRANCH   7   8
ATOM      8  C   UNL     1      -8.156 -14.917  16.571  1.00  0.00     0.243 C 
ATOM      9  N   UNL     1      -9.290 -14.397  15.851  1.00  0.00    -0.342 N 
ATOM     10  H   UNL     1     -10.228 -14.820  16.002  1.00  0.00     0.164 HD
ATOM     11  O   UNL     1      -6.991 -14.597  16.203  1.00  0.00    -0.273 OA
BRANCH   9  12
ATOM     12  C   UNL     1      -9.140 -13.325  14.857  1.00  0.00     0.174 CG0
ATOM     13  G   UNL     1      -9.893 -12.065  15.254  1.00  0.00     0.000 G0
BRANCH  12  14
ATOM     14  C   UNL     1      -9.477 -13.851  13.423  1.00  0.00     0.018 C 
ATOM     15  C   UNL     1      -8.369 -13.491  12.419  1.00  0.00     0.010 C 
BRANCH  14  16
ATOM     16  C   UNL     1     -10.853 -13.400  12.867  1.00  0.00     0.002 C 
ATOM     17  C   UNL     1     -11.077 -13.783  11.403  1.00  0.00     0.004 C 
ENDBRANCH  14  16
ENDBRANCH  12  14
ENDBRANCH   9  12
ENDBRANCH   7   8
BRANCH   7  18
ATOM     18  C   UNL     1      -9.606 -16.662  17.745  1.00  0.00     0.073 C 
BRANCH  18  19
ATOM     19  C   UNL     1      -9.422 -17.959  17.003  1.00  0.00    -0.016 A 
ATOM     20  C   UNL     1     -10.444 -18.707  16.423  1.00  0.00     0.134 A 
ATOM     21  C   UNL     1      -8.240 -18.575  16.618  1.00  0.00     0.006 A 
ATOM     22  N   UNL     1      -9.920 -19.746  15.730  1.00  0.00    -0.191 N 
ATOM     23  C   UNL     1      -8.585 -19.659  15.848  1.00  0.00     0.087 A 
ATOM     24  C   UNL     1      -6.904 -18.262  16.873  1.00  0.00     0.011 A 
ATOM     25  C   UNL     1      -7.623 -20.493  15.277  1.00  0.00     0.030 A 
ATOM     26  C   UNL     1      -5.912 -19.082  16.304  1.00  0.00     0.001 A 
ATOM     27  C   UNL     1      -6.270 -20.193  15.511  1.00  0.00     0.002 A 
BRANCH  22  28
ATOM     28  O   UNL     1     -10.600 -20.707  15.003  1.00  0.00    -0.417 OA
ATOM     29  C   UNL     1     -10.429 -20.864  13.600  1.00  0.00     0.313 C 
ENDBRANCH  22  28
ENDBRANCH  18  19
ENDBRANCH   7  18
ENDBRANCH   4   7
ENDBRANCH   2   3
BRANCH   2  30
ATOM     30  N   UNL     1      -9.480 -12.579  20.178  1.00  0.00    -0.343 N 
ATOM     31  C   UNL     1      -9.987 -12.779  18.857  1.00  0.00     0.243 C 
ATOM     32  H   UNL     1      -9.165 -11.610  20.413  1.00  0.00     0.164 HD
ATOM     33  O   UNL     1     -10.893 -13.633  18.662  1.00  0.00    -0.273 OA
BRANCH  31  34
ATOM     34  C   UNL     1      -9.393 -11.988  17.712  1.00  0.00     0.174 C 
ATOM     35  N   UNL     1     -10.354 -11.920  16.596  1.00  0.00    -0.329 N 
ATOM     36  C   UNL     1      -8.974 -10.552  18.108  1.00  0.00     0.035 C 
ATOM     37  C   UNL     1     -11.557 -11.105  16.798  1.00  0.00     0.120 C 
ATOM     38  C   UNL     1     -10.189  -9.626  18.313  1.00  0.00     0.004 C 
ATOM     39  C   UNL     1     -11.146  -9.665  17.114  1.00  0.00     0.022 C 
BRANCH  35  40
ATOM     40  C   UNL     1      -9.865 -12.081  15.255  1.00  0.00     0.246 CG0
ATOM     41  O   UNL     1      -9.998 -11.125  14.444  1.00  0.00    -0.272 OA
ATOM     42  G   UNL     1      -9.101 -13.321  14.821  1.00  0.00     0.000 G0
ENDBRANCH  35  40
ENDBRANCH  31  34
ENDBRANCH   2  30
ENDBRANCH   1   2
BRANCH   1  43
ATOM     43  C   UNL     1      -7.550 -12.142  22.521  1.00  0.00     0.003 C 
BRANCH  43  44
ATOM     44  C   UNL     1      -6.795 -12.363  23.838  1.00  0.00     0.001 C 
BRANCH  44  45
ATOM     45  C   UNL     1      -6.504 -11.023  24.531  1.00  0.00     0.008 C 
BRANCH  45  46
ATOM     46  C   UNL     1      -5.496 -10.176  23.742  1.00  0.00     0.075 C 
BRANCH  46  47
ATOM     47  C   UNL     1      -4.773  -9.194  24.632  1.00  0.00     0.132 C 
ATOM     48  O   UNL     1      -5.148  -9.040  25.785  1.00  0.00    -0.300 OA
BRANCH  47  49
ATOM     49  C   UNL     1      -3.591  -8.410  24.125  1.00  0.00     0.072 C 
ATOM     50  C   UNL     1      -2.283  -9.074  24.539  1.00  0.00     0.012 C 
ENDBRANCH  47  49
ENDBRANCH  46  47
ENDBRANCH  45  46
ENDBRANCH  44  45
ENDBRANCH  43  44
ENDBRANCH   1  43
TORSDOF 12
ENDMDL
