MODEL 1
REMARK VINA RESULT:    -8.358      0.000      0.000
REMARK INTER + INTRA:         -12.120
REMARK INTER:                 -10.556
REMARK INTRA:                  -1.564
REMARK UNBOUND:                -1.564
REMARK SMILES O[C@@H]1OC[C@@H](Cc2ccc3c(c2)OCO3)[C@H]1Cc1ccc2c(c1)OCO2
REMARK SMILES IDX 4 1 5 2 16 3 2 4 3 5 6 6 7 7 12 8 8 9 11 10 9 11 10 12 13 13
REMARK SMILES IDX 15 14 14 15 17 16 18 17 23 18 19 19 22 20 20 21 21 22 24 23
REMARK SMILES IDX 26 24 25 25 1 26
REMARK H PARENT 1 27
REMARK Flexibility Score: inf
ROOT
ATOM      1  C   UNL     1     -15.123 -25.167 -12.777  1.00  0.00     0.168 C 
ATOM      2  C   UNL     1     -14.324 -26.387 -12.325  1.00  0.00     0.028 C 
ATOM      3  C   UNL     1     -12.928 -25.959 -12.750  1.00  0.00     0.055 C 
ATOM      4  C   UNL     1     -13.207 -25.147 -14.013  1.00  0.00     0.250 C 
ATOM      5  O   UNL     1     -14.509 -24.610 -13.919  1.00  0.00    -0.352 OA
ENDROOT
BRANCH   2   6
ATOM      6  C   UNL     1     -14.844 -27.680 -13.008  1.00  0.00     0.042 C 
BRANCH   6   7
ATOM      7  C   UNL     1     -14.435 -28.917 -12.251  1.00  0.00    -0.044 A 
ATOM      8  C   UNL     1     -14.008 -30.073 -12.944  1.00  0.00     0.054 A 
ATOM      9  C   UNL     1     -14.483 -28.928 -10.833  1.00  0.00     0.008 A 
ATOM     10  C   UNL     1     -13.650 -31.190 -12.194  1.00  0.00     0.166 A 
ATOM     11  C   UNL     1     -14.112 -30.079 -10.113  1.00  0.00     0.051 A 
ATOM     12  C   UNL     1     -13.700 -31.192 -10.839  1.00  0.00     0.165 A 
ATOM     13  O   UNL     1     -13.210 -32.421 -12.641  1.00  0.00    -0.454 OA
ATOM     14  O   UNL     1     -13.293 -32.425 -10.365  1.00  0.00    -0.454 OA
ATOM     15  C   UNL     1     -12.967 -33.247 -11.494  1.00  0.00     0.468 C 
ENDBRANCH   6   7
ENDBRANCH   2   6
BRANCH   3  16
ATOM     16  C   UNL     1     -11.871 -27.071 -12.955  1.00  0.00     0.044 C 
BRANCH  16  17
ATOM     17  C   UNL     1     -11.045 -27.319 -11.713  1.00  0.00    -0.044 A 
ATOM     18  C   UNL     1     -11.007 -28.608 -11.129  1.00  0.00     0.054 A 
ATOM     19  C   UNL     1     -10.336 -26.254 -11.097  1.00  0.00     0.008 A 
ATOM     20  C   UNL     1     -10.235 -28.785  -9.984  1.00  0.00     0.166 A 
ATOM     21  C   UNL     1      -9.567 -26.479  -9.941  1.00  0.00     0.051 A 
ATOM     22  C   UNL     1      -9.543 -27.767  -9.417  1.00  0.00     0.165 A 
ATOM     23  O   UNL     1     -10.038 -29.940  -9.252  1.00  0.00    -0.454 OA
ATOM     24  O   UNL     1      -8.875 -28.229  -8.300  1.00  0.00    -0.454 OA
ATOM     25  C   UNL     1      -9.165 -29.627  -8.158  1.00  0.00     0.468 C 
ENDBRANCH  16  17
ENDBRANCH   3  16
BRANCH   4  26
ATOM     26  O   UNL     1     -12.285 -24.098 -14.143  1.00  0.00    -0.368 OA
ATOM     27  H   UNL     1     -12.305 -23.818 -15.095  1.00  0.00     0.213 HD
ENDBRANCH   4  26
TORSDOF 5
ENDMDL
MODEL 2
REMARK VINA RESULT:    -8.320      4.219      7.283
REMARK INTER + INTRA:         -12.073
REMARK INTER:                 -11.056
REMARK INTRA:                  -1.017
REMARK UNBOUND:                -1.564
REMARK SMILES O[C@@H]1OC[C@@H](Cc2ccc3c(c2)OCO3)[C@H]1Cc1ccc2c(c1)OCO2
REMARK SMILES IDX 4 1 5 2 16 3 2 4 3 5 6 6 7 7 12 8 8 9 11 10 9 11 10 12 13 13
REMARK SMILES IDX 15 14 14 15 17 16 18 17 23 18 19 19 22 20 20 21 21 22 24 23
REMARK SMILES IDX 26 24 25 25 1 26
REMARK H PARENT 1 27
REMARK Flexibility Score: inf
ROOT
ATOM      1  C   UNL     1     -14.216 -35.052 -15.159  1.00  0.00     0.168 C 
ATOM      2  C   UNL     1     -14.405 -34.346 -13.818  1.00  0.00     0.028 C 
ATOM      3  C   UNL     1     -13.110 -33.552 -13.754  1.00  0.00     0.055 C 
ATOM      4  C   UNL     1     -12.123 -34.482 -14.456  1.00  0.00     0.250 C 
ATOM      5  O   UNL     1     -12.840 -35.288 -15.366  1.00  0.00    -0.352 OA
ENDROOT
BRANCH   2   6
ATOM      6  C   UNL     1     -14.596 -35.372 -12.669  1.00  0.00     0.042 C 
BRANCH   6   7
ATOM      7  C   UNL     1     -16.054 -35.667 -12.419  1.00  0.00    -0.044 A 
ATOM      8  C   UNL     1     -17.053 -34.776 -12.873  1.00  0.00     0.054 A 
ATOM      9  C   UNL     1     -16.429 -36.842 -11.717  1.00  0.00     0.008 A 
ATOM     10  C   UNL     1     -18.382 -35.094 -12.606  1.00  0.00     0.166 A 
ATOM     11  C   UNL     1     -17.784 -37.125 -11.469  1.00  0.00     0.051 A 
ATOM     12  C   UNL     1     -18.731 -36.218 -11.933  1.00  0.00     0.165 A 
ATOM     13  O   UNL     1     -19.519 -34.386 -12.942  1.00  0.00    -0.454 OA
ATOM     14  O   UNL     1     -20.107 -36.275 -11.813  1.00  0.00    -0.454 OA
ATOM     15  C   UNL     1     -20.655 -35.112 -12.450  1.00  0.00     0.468 C 
ENDBRANCH   6   7
ENDBRANCH   2   6
BRANCH   3  16
ATOM     16  C   UNL     1     -12.628 -33.082 -12.360  1.00  0.00     0.044 C 
BRANCH  16  17
ATOM     17  C   UNL     1     -13.133 -31.702 -12.008  1.00  0.00    -0.044 A 
ATOM     18  C   UNL     1     -13.287 -30.721 -13.018  1.00  0.00     0.054 A 
ATOM     19  C   UNL     1     -13.414 -31.361 -10.659  1.00  0.00     0.008 A 
ATOM     20  C   UNL     1     -13.752 -29.464 -12.644  1.00  0.00     0.166 A 
ATOM     21  C   UNL     1     -13.882 -30.078 -10.326  1.00  0.00     0.051 A 
ATOM     22  C   UNL     1     -14.040 -29.156 -11.355  1.00  0.00     0.165 A 
ATOM     23  O   UNL     1     -13.990 -28.364 -13.444  1.00  0.00    -0.454 OA
ATOM     24  O   UNL     1     -14.474 -27.847 -11.279  1.00  0.00    -0.454 OA
ATOM     25  C   UNL     1     -14.460 -27.299 -12.605  1.00  0.00     0.468 C 
ENDBRANCH  16  17
ENDBRANCH   3  16
BRANCH   4  26
ATOM     26  O   UNL     1     -11.158 -33.744 -15.157  1.00  0.00    -0.368 OA
ATOM     27  H   UNL     1     -10.416 -33.568 -14.521  1.00  0.00     0.213 HD
ENDBRANCH   4  26
TORSDOF 5
ENDMDL
MODEL 3
REMARK VINA RESULT:    -8.271      3.326      8.304
REMARK INTER + INTRA:         -12.011
REMARK INTER:                 -11.169
REMARK INTRA:                  -0.842
REMARK UNBOUND:                -1.564
REMARK SMILES O[C@@H]1OC[C@@H](Cc2ccc3c(c2)OCO3)[C@H]1Cc1ccc2c(c1)OCO2
REMARK SMILES IDX 4 1 5 2 16 3 2 4 3 5 6 6 7 7 12 8 8 9 11 10 9 11 10 12 13 13
REMARK SMILES IDX 15 14 14 15 17 16 18 17 23 18 19 19 22 20 20 21 21 22 24 23
REMARK SMILES IDX 26 24 25 25 1 26
REMARK H PARENT 1 27
REMARK Flexibility Score: inf
ROOT
ATOM      1  C   UNL     1     -12.034 -31.309 -11.282  1.00  0.00     0.168 C 
ATOM      2  C   UNL     1     -13.340 -31.477 -12.056  1.00  0.00     0.028 C 
ATOM      3  C   UNL     1     -13.330 -32.983 -12.265  1.00  0.00     0.055 C 
ATOM      4  C   UNL     1     -11.839 -33.281 -12.409  1.00  0.00     0.250 C 
ATOM      5  O   UNL     1     -11.116 -32.294 -11.706  1.00  0.00    -0.352 OA
ENDROOT
BRANCH   2   6
ATOM      6  C   UNL     1     -13.327 -30.640 -13.362  1.00  0.00     0.042 C 
BRANCH   6   7
ATOM      7  C   UNL     1     -13.752 -29.214 -13.118  1.00  0.00    -0.044 A 
ATOM      8  C   UNL     1     -13.403 -28.195 -14.035  1.00  0.00     0.054 A 
ATOM      9  C   UNL     1     -14.500 -28.886 -11.958  1.00  0.00     0.008 A 
ATOM     10  C   UNL     1     -13.815 -26.895 -13.754  1.00  0.00     0.166 A 
ATOM     11  C   UNL     1     -14.896 -27.558 -11.713  1.00  0.00     0.051 A 
ATOM     12  C   UNL     1     -14.529 -26.591 -12.642  1.00  0.00     0.165 A 
ATOM     13  O   UNL     1     -13.595 -25.747 -14.490  1.00  0.00    -0.454 OA
ATOM     14  O   UNL     1     -14.795 -25.235 -12.623  1.00  0.00    -0.454 OA
ATOM     15  C   UNL     1     -14.211 -24.652 -13.796  1.00  0.00     0.468 C 
ENDBRANCH   6   7
ENDBRANCH   2   6
BRANCH   3  16
ATOM     16  C   UNL     1     -14.186 -33.550 -13.423  1.00  0.00     0.044 C 
BRANCH  16  17
ATOM     17  C   UNL     1     -15.214 -34.550 -12.946  1.00  0.00    -0.044 A 
ATOM     18  C   UNL     1     -16.595 -34.268 -13.076  1.00  0.00     0.054 A 
ATOM     19  C   UNL     1     -14.806 -35.760 -12.324  1.00  0.00     0.008 A 
ATOM     20  C   UNL     1     -17.504 -35.219 -12.618  1.00  0.00     0.166 A 
ATOM     21  C   UNL     1     -15.759 -36.693 -11.877  1.00  0.00     0.051 A 
ATOM     22  C   UNL     1     -17.103 -36.381 -12.047  1.00  0.00     0.165 A 
ATOM     23  O   UNL     1     -18.883 -35.171 -12.648  1.00  0.00    -0.454 OA
ATOM     24  O   UNL     1     -18.211 -37.124 -11.689  1.00  0.00    -0.454 OA
ATOM     25  C   UNL     1     -19.381 -36.382 -12.060  1.00  0.00     0.468 C 
ENDBRANCH  16  17
ENDBRANCH   3  16
BRANCH   4  26
ATOM     26  O   UNL     1     -11.530 -34.542 -11.877  1.00  0.00    -0.368 OA
ATOM     27  H   UNL     1     -11.262 -34.395 -10.933  1.00  0.00     0.213 HD
ENDBRANCH   4  26
TORSDOF 5
ENDMDL
MODEL 4
REMARK VINA RESULT:    -8.140      2.532      6.188
REMARK INTER + INTRA:         -11.845
REMARK INTER:                 -10.645
REMARK INTRA:                  -1.200
REMARK UNBOUND:                -1.564
REMARK SMILES O[C@@H]1OC[C@@H](Cc2ccc3c(c2)OCO3)[C@H]1Cc1ccc2c(c1)OCO2
REMARK SMILES IDX 4 1 5 2 16 3 2 4 3 5 6 6 7 7 12 8 8 9 11 10 9 11 10 12 13 13
REMARK SMILES IDX 15 14 14 15 17 16 18 17 23 18 19 19 22 20 20 21 21 22 24 23
REMARK SMILES IDX 26 24 25 25 1 26
REMARK H PARENT 1 27
REMARK Flexibility Score: inf
ROOT
ATOM      1  C   UNL     1     -10.919 -32.535 -10.325  1.00  0.00     0.168 C 
ATOM      2  C   UNL     1     -12.186 -32.103 -11.060  1.00  0.00     0.028 C 
ATOM      3  C   UNL     1     -12.309 -30.675 -10.555  1.00  0.00     0.055 C 
ATOM      4  C   UNL     1     -11.762 -30.784  -9.133  1.00  0.00     0.250 C 
ATOM      5  O   UNL     1     -10.850 -31.861  -9.087  1.00  0.00    -0.352 OA
ENDROOT
BRANCH   2   6
ATOM      6  C   UNL     1     -13.382 -33.025 -10.701  1.00  0.00     0.042 C 
BRANCH   6   7
ATOM      7  C   UNL     1     -13.961 -33.693 -11.922  1.00  0.00    -0.044 A 
ATOM      8  C   UNL     1     -14.416 -35.030 -11.859  1.00  0.00     0.054 A 
ATOM      9  C   UNL     1     -14.045 -32.981 -13.147  1.00  0.00     0.008 A 
ATOM     10  C   UNL     1     -14.933 -35.600 -13.019  1.00  0.00     0.166 A 
ATOM     11  C   UNL     1     -14.575 -33.596 -14.296  1.00  0.00     0.051 A 
ATOM     12  C   UNL     1     -15.008 -34.913 -14.186  1.00  0.00     0.165 A 
ATOM     13  O   UNL     1     -15.430 -36.875 -13.202  1.00  0.00    -0.454 OA
ATOM     14  O   UNL     1     -15.558 -35.722 -15.162  1.00  0.00    -0.454 OA
ATOM     15  C   UNL     1     -15.845 -36.996 -14.570  1.00  0.00     0.468 C 
ENDBRANCH   6   7
ENDBRANCH   2   6
BRANCH   3  16
ATOM     16  C   UNL     1     -13.703 -30.007 -10.627  1.00  0.00     0.044 C 
BRANCH  16  17
ATOM     17  C   UNL     1     -13.766 -28.910 -11.665  1.00  0.00    -0.044 A 
ATOM     18  C   UNL     1     -14.302 -27.643 -11.331  1.00  0.00     0.054 A 
ATOM     19  C   UNL     1     -13.329 -29.151 -12.994  1.00  0.00     0.008 A 
ATOM     20  C   UNL     1     -14.342 -26.666 -12.321  1.00  0.00     0.166 A 
ATOM     21  C   UNL     1     -13.387 -28.134 -13.964  1.00  0.00     0.051 A 
ATOM     22  C   UNL     1     -13.901 -26.900 -13.582  1.00  0.00     0.165 A 
ATOM     23  O   UNL     1     -14.804 -25.368 -12.229  1.00  0.00    -0.454 OA
ATOM     24  O   UNL     1     -14.062 -25.761 -14.346  1.00  0.00    -0.454 OA
ATOM     25  C   UNL     1     -14.641 -24.747 -13.512  1.00  0.00     0.468 C 
ENDBRANCH  16  17
ENDBRANCH   3  16
BRANCH   4  26
ATOM     26  O   UNL     1     -11.099 -29.605  -8.763  1.00  0.00    -0.368 OA
ATOM     27  H   UNL     1     -10.474 -29.385  -9.502  1.00  0.00     0.213 HD
ENDBRANCH   4  26
TORSDOF 5
ENDMDL
MODEL 5
REMARK VINA RESULT:    -8.118      2.316      7.361
REMARK INTER + INTRA:         -11.817
REMARK INTER:                 -10.429
REMARK INTRA:                  -1.388
REMARK UNBOUND:                -1.564
REMARK SMILES O[C@@H]1OC[C@@H](Cc2ccc3c(c2)OCO3)[C@H]1Cc1ccc2c(c1)OCO2
REMARK SMILES IDX 4 1 5 2 16 3 2 4 3 5 6 6 7 7 12 8 8 9 11 10 9 11 10 12 13 13
REMARK SMILES IDX 15 14 14 15 17 16 18 17 23 18 19 19 22 20 20 21 21 22 24 23
REMARK SMILES IDX 26 24 25 25 1 26
REMARK H PARENT 1 27
REMARK Flexibility Score: inf
ROOT
ATOM      1  C   UNL     1     -11.873 -30.380  -8.435  1.00  0.00     0.168 C 
ATOM      2  C   UNL     1     -12.328 -30.577  -9.879  1.00  0.00     0.028 C 
ATOM      3  C   UNL     1     -12.007 -32.052 -10.057  1.00  0.00     0.055 C 
ATOM      4  C   UNL     1     -10.760 -32.221  -9.192  1.00  0.00     0.250 C 
ATOM      5  O   UNL     1     -10.793 -31.249  -8.169  1.00  0.00    -0.352 OA
ENDROOT
BRANCH   2   6
ATOM      6  C   UNL     1     -11.566 -29.625 -10.839  1.00  0.00     0.042 C 
BRANCH   6   7
ATOM      7  C   UNL     1     -12.495 -28.650 -11.516  1.00  0.00    -0.044 A 
ATOM      8  C   UNL     1     -11.982 -27.503 -12.164  1.00  0.00     0.054 A 
ATOM      9  C   UNL     1     -13.896 -28.879 -11.501  1.00  0.00     0.008 A 
ATOM     10  C   UNL     1     -12.887 -26.633 -12.766  1.00  0.00     0.166 A 
ATOM     11  C   UNL     1     -14.775 -27.973 -12.122  1.00  0.00     0.051 A 
ATOM     12  C   UNL     1     -14.224 -26.858 -12.745  1.00  0.00     0.165 A 
ATOM     13  O   UNL     1     -12.629 -25.460 -13.448  1.00  0.00    -0.454 OA
ATOM     14  O   UNL     1     -14.874 -25.839 -13.413  1.00  0.00    -0.454 OA
ATOM     15  C   UNL     1     -13.882 -24.915 -13.883  1.00  0.00     0.468 C 
ENDBRANCH   6   7
ENDBRANCH   2   6
BRANCH   3  16
ATOM     16  C   UNL     1     -11.827 -32.576 -11.503  1.00  0.00     0.044 C 
BRANCH  16  17
ATOM     17  C   UNL     1     -13.122 -33.074 -12.103  1.00  0.00    -0.044 A 
ATOM     18  C   UNL     1     -13.693 -34.289 -11.655  1.00  0.00     0.054 A 
ATOM     19  C   UNL     1     -13.753 -32.352 -13.151  1.00  0.00     0.008 A 
ATOM     20  C   UNL     1     -14.884 -34.707 -12.241  1.00  0.00     0.166 A 
ATOM     21  C   UNL     1     -14.957 -32.812 -13.714  1.00  0.00     0.051 A 
ATOM     22  C   UNL     1     -15.491 -33.999 -13.225  1.00  0.00     0.165 A 
ATOM     23  O   UNL     1     -15.626 -35.839 -11.964  1.00  0.00    -0.454 OA
ATOM     24  O   UNL     1     -16.646 -34.649 -13.616  1.00  0.00    -0.454 OA
ATOM     25  C   UNL     1     -16.773 -35.840 -12.827  1.00  0.00     0.468 C 
ENDBRANCH  16  17
ENDBRANCH   3  16
BRANCH   4  26
ATOM     26  O   UNL     1     -10.727 -33.498  -8.611  1.00  0.00    -0.368 OA
ATOM     27  H   UNL     1     -10.973 -34.142  -9.325  1.00  0.00     0.213 HD
ENDBRANCH   4  26
TORSDOF 5
ENDMDL
MODEL 6
REMARK VINA RESULT:    -8.094      2.386      5.890
REMARK INTER + INTRA:         -11.787
REMARK INTER:                 -10.667
REMARK INTRA:                  -1.120
REMARK UNBOUND:                -1.564
REMARK SMILES O[C@@H]1OC[C@@H](Cc2ccc3c(c2)OCO3)[C@H]1Cc1ccc2c(c1)OCO2
REMARK SMILES IDX 4 1 5 2 16 3 2 4 3 5 6 6 7 7 12 8 8 9 11 10 9 11 10 12 13 13
REMARK SMILES IDX 15 14 14 15 17 16 18 17 23 18 19 19 22 20 20 21 21 22 24 23
REMARK SMILES IDX 26 24 25 25 1 26
REMARK H PARENT 1 27
REMARK Flexibility Score: inf
ROOT
ATOM      1  C   UNL     1     -10.447 -32.167 -10.925  1.00  0.00     0.168 C 
ATOM      2  C   UNL     1     -11.862 -31.843 -11.399  1.00  0.00     0.028 C 
ATOM      3  C   UNL     1     -11.968 -30.397 -10.942  1.00  0.00     0.055 C 
ATOM      4  C   UNL     1     -11.136 -30.399  -9.661  1.00  0.00     0.250 C 
ATOM      5  O   UNL     1     -10.169 -31.422  -9.759  1.00  0.00    -0.352 OA
ENDROOT
BRANCH   2   6
ATOM      6  C   UNL     1     -12.900 -32.804 -10.760  1.00  0.00     0.042 C 
BRANCH   6   7
ATOM      7  C   UNL     1     -13.745 -33.490 -11.803  1.00  0.00    -0.044 A 
ATOM      8  C   UNL     1     -14.185 -34.820 -11.607  1.00  0.00     0.054 A 
ATOM      9  C   UNL     1     -14.097 -32.804 -12.994  1.00  0.00     0.008 A 
ATOM     10  C   UNL     1     -14.955 -35.406 -12.607  1.00  0.00     0.166 A 
ATOM     11  C   UNL     1     -14.878 -33.435 -13.979  1.00  0.00     0.051 A 
ATOM     12  C   UNL     1     -15.287 -34.743 -13.743  1.00  0.00     0.165 A 
ATOM     13  O   UNL     1     -15.492 -36.679 -12.644  1.00  0.00    -0.454 OA
ATOM     14  O   UNL     1     -16.050 -35.565 -14.550  1.00  0.00    -0.454 OA
ATOM     15  C   UNL     1     -16.206 -36.823 -13.879  1.00  0.00     0.468 C 
ENDBRANCH   6   7
ENDBRANCH   2   6
BRANCH   3  16
ATOM     16  C   UNL     1     -13.387 -29.808 -10.753  1.00  0.00     0.044 C 
BRANCH  16  17
ATOM     17  C   UNL     1     -13.626 -28.588 -11.613  1.00  0.00    -0.044 A 
ATOM     18  C   UNL     1     -12.533 -27.817 -12.075  1.00  0.00     0.054 A 
ATOM     19  C   UNL     1     -14.949 -28.179 -11.929  1.00  0.00     0.008 A 
ATOM     20  C   UNL     1     -12.804 -26.700 -12.860  1.00  0.00     0.166 A 
ATOM     21  C   UNL     1     -15.177 -27.044 -12.727  1.00  0.00     0.051 A 
ATOM     22  C   UNL     1     -14.070 -26.332 -13.176  1.00  0.00     0.165 A 
ATOM     23  O   UNL     1     -11.911 -25.812 -13.428  1.00  0.00    -0.454 OA
ATOM     24  O   UNL     1     -14.038 -25.194 -13.958  1.00  0.00    -0.454 OA
ATOM     25  C   UNL     1     -12.665 -24.826 -14.147  1.00  0.00     0.468 C 
ENDBRANCH  16  17
ENDBRANCH   3  16
BRANCH   4  26
ATOM     26  O   UNL     1     -10.486 -29.168  -9.488  1.00  0.00    -0.368 OA
ATOM     27  H   UNL     1      -9.934 -29.021 -10.300  1.00  0.00     0.213 HD
ENDBRANCH   4  26
TORSDOF 5
ENDMDL
MODEL 7
REMARK VINA RESULT:    -7.905      1.422      6.416
REMARK INTER + INTRA:         -11.549
REMARK INTER:                 -10.133
REMARK INTRA:                  -1.416
REMARK UNBOUND:                -1.564
REMARK SMILES O[C@@H]1OC[C@@H](Cc2ccc3c(c2)OCO3)[C@H]1Cc1ccc2c(c1)OCO2
REMARK SMILES IDX 4 1 5 2 16 3 2 4 3 5 6 6 7 7 12 8 8 9 11 10 9 11 10 12 13 13
REMARK SMILES IDX 15 14 14 15 17 16 18 17 23 18 19 19 22 20 20 21 21 22 24 23
REMARK SMILES IDX 26 24 25 25 1 26
REMARK H PARENT 1 27
REMARK Flexibility Score: inf
ROOT
ATOM      1  C   UNL     1     -13.419 -33.014 -10.880  1.00  0.00     0.168 C 
ATOM      2  C   UNL     1     -12.949 -31.616 -11.275  1.00  0.00     0.028 C 
ATOM      3  C   UNL     1     -13.751 -31.419 -12.551  1.00  0.00     0.055 C 
ATOM      4  C   UNL     1     -13.812 -32.835 -13.119  1.00  0.00     0.250 C 
ATOM      5  O   UNL     1     -13.712 -33.750 -12.048  1.00  0.00    -0.352 OA
ENDROOT
BRANCH   2   6
ATOM      6  C   UNL     1     -11.409 -31.577 -11.463  1.00  0.00     0.042 C 
BRANCH   6   7
ATOM      7  C   UNL     1     -10.779 -30.442 -10.696  1.00  0.00    -0.044 A 
ATOM      8  C   UNL     1     -10.432 -30.603  -9.335  1.00  0.00     0.054 A 
ATOM      9  C   UNL     1     -10.538 -29.200 -11.338  1.00  0.00     0.008 A 
ATOM     10  C   UNL     1      -9.861 -29.519  -8.674  1.00  0.00     0.166 A 
ATOM     11  C   UNL     1      -9.959 -28.130 -10.632  1.00  0.00     0.051 A 
ATOM     12  C   UNL     1      -9.635 -28.335  -9.295  1.00  0.00     0.165 A 
ATOM     13  O   UNL     1      -9.445 -29.436  -7.359  1.00  0.00    -0.454 OA
ATOM     14  O   UNL     1      -9.065 -27.447  -8.402  1.00  0.00    -0.454 OA
ATOM     15  C   UNL     1      -8.925 -28.117  -7.142  1.00  0.00     0.468 C 
ENDBRANCH   6   7
ENDBRANCH   2   6
BRANCH   3  16
ATOM     16  C   UNL     1     -13.235 -30.371 -13.566  1.00  0.00     0.044 C 
BRANCH  16  17
ATOM     17  C   UNL     1     -13.719 -28.974 -13.252  1.00  0.00    -0.044 A 
ATOM     18  C   UNL     1     -13.417 -27.902 -14.126  1.00  0.00     0.054 A 
ATOM     19  C   UNL     1     -14.442 -28.715 -12.058  1.00  0.00     0.008 A 
ATOM     20  C   UNL     1     -13.882 -26.633 -13.792  1.00  0.00     0.166 A 
ATOM     21  C   UNL     1     -14.894 -27.417 -11.760  1.00  0.00     0.051 A 
ATOM     22  C   UNL     1     -14.592 -26.401 -12.660  1.00  0.00     0.165 A 
ATOM     23  O   UNL     1     -13.723 -25.450 -14.487  1.00  0.00    -0.454 OA
ATOM     24  O   UNL     1     -14.916 -25.061 -12.586  1.00  0.00    -0.454 OA
ATOM     25  C   UNL     1     -14.377 -24.410 -13.746  1.00  0.00     0.468 C 
ENDBRANCH  16  17
ENDBRANCH   3  16
BRANCH   4  26
ATOM     26  O   UNL     1     -15.024 -33.049 -13.793  1.00  0.00    -0.368 OA
ATOM     27  H   UNL     1     -15.537 -33.707 -13.255  1.00  0.00     0.213 HD
ENDBRANCH   4  26
TORSDOF 5
ENDMDL
MODEL 8
REMARK VINA RESULT:    -7.771      1.692      5.282
REMARK INTER + INTRA:         -11.379
REMARK INTER:                  -9.429
REMARK INTRA:                  -1.950
REMARK UNBOUND:                -1.564
REMARK SMILES O[C@@H]1OC[C@@H](Cc2ccc3c(c2)OCO3)[C@H]1Cc1ccc2c(c1)OCO2
REMARK SMILES IDX 4 1 5 2 16 3 2 4 3 5 6 6 7 7 12 8 8 9 11 10 9 11 10 12 13 13
REMARK SMILES IDX 15 14 14 15 17 16 18 17 23 18 19 19 22 20 20 21 21 22 24 23
REMARK SMILES IDX 26 24 25 25 1 26
REMARK H PARENT 1 27
REMARK Flexibility Score: inf
ROOT
ATOM      1  C   UNL     1     -12.246 -26.560 -13.141  1.00  0.00     0.168 C 
ATOM      2  C   UNL     1     -12.145 -27.875 -12.372  1.00  0.00     0.028 C 
ATOM      3  C   UNL     1     -13.621 -28.192 -12.197  1.00  0.00     0.055 C 
ATOM      4  C   UNL     1     -14.238 -26.802 -12.059  1.00  0.00     0.250 C 
ATOM      5  O   UNL     1     -13.415 -25.879 -12.740  1.00  0.00    -0.352 OA
ENDROOT
BRANCH   2   6
ATOM      6  C   UNL     1     -11.359 -27.687 -11.047  1.00  0.00     0.042 C 
BRANCH   6   7
ATOM      7  C   UNL     1     -10.729 -28.976 -10.581  1.00  0.00    -0.044 A 
ATOM      8  C   UNL     1     -10.675 -29.290  -9.203  1.00  0.00     0.054 A 
ATOM      9  C   UNL     1     -10.182 -29.880 -11.528  1.00  0.00     0.008 A 
ATOM     10  C   UNL     1     -10.075 -30.489  -8.830  1.00  0.00     0.166 A 
ATOM     11  C   UNL     1      -9.584 -31.082 -11.107  1.00  0.00     0.051 A 
ATOM     12  C   UNL     1      -9.552 -31.346  -9.741  1.00  0.00     0.165 A 
ATOM     13  O   UNL     1      -9.902 -31.005  -7.560  1.00  0.00    -0.454 OA
ATOM     14  O   UNL     1      -9.025 -32.446  -9.091  1.00  0.00    -0.454 OA
ATOM     15  C   UNL     1      -9.230 -32.266  -7.682  1.00  0.00     0.468 C 
ENDBRANCH   6   7
ENDBRANCH   2   6
BRANCH   3  16
ATOM     16  C   UNL     1     -14.015 -29.156 -11.051  1.00  0.00     0.044 C 
BRANCH  16  17
ATOM     17  C   UNL     1     -13.810 -30.607 -11.420  1.00  0.00    -0.044 A 
ATOM     18  C   UNL     1     -14.106 -31.058 -12.729  1.00  0.00     0.054 A 
ATOM     19  C   UNL     1     -13.362 -31.540 -10.447  1.00  0.00     0.008 A 
ATOM     20  C   UNL     1     -13.905 -32.404 -13.019  1.00  0.00     0.166 A 
ATOM     21  C   UNL     1     -13.172 -32.892 -10.785  1.00  0.00     0.051 A 
ATOM     22  C   UNL     1     -13.454 -33.282 -12.089  1.00  0.00     0.165 A 
ATOM     23  O   UNL     1     -14.110 -33.065 -14.214  1.00  0.00    -0.454 OA
ATOM     24  O   UNL     1     -13.353 -34.539 -12.653  1.00  0.00    -0.454 OA
ATOM     25  C   UNL     1     -13.764 -34.444 -14.023  1.00  0.00     0.468 C 
ENDBRANCH  16  17
ENDBRANCH   3  16
BRANCH   4  26
ATOM     26  O   UNL     1     -15.524 -26.771 -12.619  1.00  0.00    -0.368 OA
ATOM     27  H   UNL     1     -15.974 -25.965 -12.255  1.00  0.00     0.213 HD
ENDBRANCH   4  26
TORSDOF 5
ENDMDL
MODEL 9
REMARK VINA RESULT:    -7.685      2.020      6.369
REMARK INTER + INTRA:         -11.271
REMARK INTER:                 -10.077
REMARK INTRA:                  -1.194
REMARK UNBOUND:                -1.564
REMARK SMILES O[C@@H]1OC[C@@H](Cc2ccc3c(c2)OCO3)[C@H]1Cc1ccc2c(c1)OCO2
REMARK SMILES IDX 4 1 5 2 16 3 2 4 3 5 6 6 7 7 12 8 8 9 11 10 9 11 10 12 13 13
REMARK SMILES IDX 15 14 14 15 17 16 18 17 23 18 19 19 22 20 20 21 21 22 24 23
REMARK SMILES IDX 26 24 25 25 1 26
REMARK H PARENT 1 27
REMARK Flexibility Score: inf
ROOT
ATOM      1  C   UNL     1     -14.047 -33.708 -11.437  1.00  0.00     0.168 C 
ATOM      2  C   UNL     1     -13.204 -32.439 -11.334  1.00  0.00     0.028 C 
ATOM      3  C   UNL     1     -13.753 -31.661 -12.520  1.00  0.00     0.055 C 
ATOM      4  C   UNL     1     -14.075 -32.773 -13.516  1.00  0.00     0.250 C 
ATOM      5  O   UNL     1     -14.346 -33.955 -12.794  1.00  0.00    -0.352 OA
ENDROOT
BRANCH   2   6
ATOM      6  C   UNL     1     -11.689 -32.766 -11.417  1.00  0.00     0.042 C 
BRANCH   6   7
ATOM      7  C   UNL     1     -10.937 -32.247 -10.218  1.00  0.00    -0.044 A 
ATOM      8  C   UNL     1     -10.698 -30.861 -10.067  1.00  0.00     0.054 A 
ATOM      9  C   UNL     1     -10.460 -33.152  -9.235  1.00  0.00     0.008 A 
ATOM     10  C   UNL     1      -9.992 -30.439  -8.944  1.00  0.00     0.166 A 
ATOM     11  C   UNL     1      -9.749 -32.681  -8.115  1.00  0.00     0.051 A 
ATOM     12  C   UNL     1      -9.537 -31.311  -8.011  1.00  0.00     0.165 A 
ATOM     13  O   UNL     1      -9.638 -29.153  -8.585  1.00  0.00    -0.454 OA
ATOM     14  O   UNL     1      -8.875 -30.617  -7.016  1.00  0.00    -0.454 OA
ATOM     15  C   UNL     1      -8.916 -29.222  -7.347  1.00  0.00     0.468 C 
ENDBRANCH   6   7
ENDBRANCH   2   6
BRANCH   3  16
ATOM     16  C   UNL     1     -12.866 -30.541 -13.114  1.00  0.00     0.044 C 
BRANCH  16  17
ATOM     17  C   UNL     1     -13.442 -29.163 -12.882  1.00  0.00    -0.044 A 
ATOM     18  C   UNL     1     -13.297 -28.155 -13.866  1.00  0.00     0.054 A 
ATOM     19  C   UNL     1     -14.094 -28.853 -11.659  1.00  0.00     0.008 A 
ATOM     20  C   UNL     1     -13.841 -26.901 -13.604  1.00  0.00     0.166 A 
ATOM     21  C   UNL     1     -14.630 -27.571 -11.437  1.00  0.00     0.051 A 
ATOM     22  C   UNL     1     -14.482 -26.622 -12.442  1.00  0.00     0.165 A 
ATOM     23  O   UNL     1     -13.835 -25.778 -14.408  1.00  0.00    -0.454 OA
ATOM     24  O   UNL     1     -14.913 -25.310 -12.457  1.00  0.00    -0.454 OA
ATOM     25  C   UNL     1     -14.518 -24.728 -13.707  1.00  0.00     0.468 C 
ENDBRANCH  16  17
ENDBRANCH   3  16
BRANCH   4  26
ATOM     26  O   UNL     1     -15.199 -32.439 -14.287  1.00  0.00    -0.368 OA
ATOM     27  H   UNL     1     -15.804 -33.226 -14.265  1.00  0.00     0.213 HD
ENDBRANCH   4  26
TORSDOF 5
ENDMDL
