MODEL 1
REMARK VINA RESULT:    -5.180      0.000      0.000
REMARK INTER + INTRA:          -7.458
REMARK INTER:                  -6.391
REMARK INTRA:                  -1.067
REMARK UNBOUND:                -1.067
REMARK SMILES CC(C)=CCC[C@@H](C)c1ccc(C)cc1
REMARK SMILES IDX 6 1 7 2 8 3 9 4 13 5 12 6 11 7 14 8 10 9 15 10 5 11 4 12
REMARK SMILES IDX 2 13 1 14 3 15
REMARK H PARENT
REMARK Flexibility Score: inf
ROOT
ATOM      1  C   UNL     1      26.469 -53.261 -10.873  1.00  0.00     0.012 C 
ENDROOT
BRANCH   1   2
ATOM      2  C   UNL     1      26.814 -51.804 -10.492  1.00  0.00     0.016 C 
ATOM      3  C   UNL     1      26.000 -51.298  -9.289  1.00  0.00     0.013 C 
BRANCH   2   4
ATOM      4  C   UNL     1      28.312 -51.587 -10.339  1.00  0.00    -0.045 A 
ATOM      5  C   UNL     1      32.543 -50.875  -9.809  1.00  0.00     0.044 C 
ATOM      6  C   UNL     1      31.070 -51.089  -9.995  1.00  0.00    -0.051 A 
ATOM      7  C   UNL     1      30.219 -51.162  -8.883  1.00  0.00     0.004 A 
ATOM      8  C   UNL     1      30.540 -51.280 -11.279  1.00  0.00     0.004 A 
ATOM      9  C   UNL     1      28.853 -51.396  -9.054  1.00  0.00     0.004 A 
ATOM     10  C   UNL     1      29.174 -51.515 -11.452  1.00  0.00     0.004 A 
ENDBRANCH   2   4
ENDBRANCH   1   2
BRANCH   1  11
ATOM     11  C   UNL     1      27.403 -54.320 -10.264  1.00  0.00     0.028 C 
BRANCH  11  12
ATOM     12  C   UNL     1      27.732 -55.386 -11.279  1.00  0.00    -0.028 C 
ATOM     13  C   UNL     1      28.990 -55.728 -11.642  1.00  0.00    -0.080 C 
ATOM     14  C   UNL     1      29.208 -56.829 -12.648  1.00  0.00     0.039 C 
ATOM     15  C   UNL     1      30.202 -55.008 -11.104  1.00  0.00     0.039 C 
ENDBRANCH  11  12
ENDBRANCH   1  11
TORSDOF 4
ENDMDL
MODEL 2
REMARK VINA RESULT:    -5.158      0.727      1.551
REMARK INTER + INTRA:          -7.431
REMARK INTER:                  -6.712
REMARK INTRA:                  -0.719
REMARK UNBOUND:                -1.067
REMARK SMILES CC(C)=CCC[C@@H](C)c1ccc(C)cc1
REMARK SMILES IDX 6 1 7 2 8 3 9 4 13 5 12 6 11 7 14 8 10 9 15 10 5 11 4 12
REMARK SMILES IDX 2 13 1 14 3 15
REMARK H PARENT
REMARK Flexibility Score: inf
ROOT
ATOM      1  C   UNL     1      26.320 -52.880 -10.998  1.00  0.00     0.012 C 
ENDROOT
BRANCH   1   2
ATOM      2  C   UNL     1      26.678 -51.502 -10.396  1.00  0.00     0.016 C 
ATOM      3  C   UNL     1      25.870 -51.184  -9.127  1.00  0.00     0.013 C 
BRANCH   2   4
ATOM      4  C   UNL     1      28.178 -51.323 -10.216  1.00  0.00    -0.045 A 
ATOM      5  C   UNL     1      32.460 -50.915  -9.796  1.00  0.00     0.044 C 
ATOM      6  C   UNL     1      30.977 -51.090  -9.938  1.00  0.00    -0.051 A 
ATOM      7  C   UNL     1      30.402 -51.245 -11.208  1.00  0.00     0.004 A 
ATOM      8  C   UNL     1      30.148 -51.038  -8.809  1.00  0.00     0.004 A 
ATOM      9  C   UNL     1      29.017 -51.372 -11.343  1.00  0.00     0.004 A 
ATOM     10  C   UNL     1      28.763 -51.165  -8.943  1.00  0.00     0.004 A 
ENDBRANCH   2   4
ENDBRANCH   1   2
BRANCH   1  11
ATOM     11  C   UNL     1      27.029 -54.072 -10.334  1.00  0.00     0.028 C 
BRANCH  11  12
ATOM     12  C   UNL     1      27.783 -54.881 -11.359  1.00  0.00    -0.028 C 
ATOM     13  C   UNL     1      28.167 -56.166 -11.181  1.00  0.00    -0.080 C 
ATOM     14  C   UNL     1      28.894 -56.892 -12.284  1.00  0.00     0.039 C 
ATOM     15  C   UNL     1      27.934 -56.899  -9.883  1.00  0.00     0.039 C 
ENDBRANCH  11  12
ENDBRANCH   1  11
TORSDOF 4
ENDMDL
MODEL 3
REMARK VINA RESULT:    -4.761      1.020      1.364
REMARK INTER + INTRA:          -6.942
REMARK INTER:                  -6.181
REMARK INTRA:                  -0.761
REMARK UNBOUND:                -1.067
REMARK SMILES CC(C)=CCC[C@@H](C)c1ccc(C)cc1
REMARK SMILES IDX 6 1 7 2 8 3 9 4 13 5 12 6 11 7 14 8 10 9 15 10 5 11 4 12
REMARK SMILES IDX 2 13 1 14 3 15
REMARK H PARENT
REMARK Flexibility Score: inf
ROOT
ATOM      1  C   UNL     1      26.924 -52.409 -10.508  1.00  0.00     0.012 C 
ENDROOT
BRANCH   1   2
ATOM      2  C   UNL     1      27.731 -51.422  -9.636  1.00  0.00     0.016 C 
ATOM      3  C   UNL     1      27.582 -51.704  -8.131  1.00  0.00     0.013 C 
BRANCH   2   4
ATOM      4  C   UNL     1      29.179 -51.304 -10.086  1.00  0.00    -0.045 A 
ATOM      5  C   UNL     1      33.315 -50.875 -11.267  1.00  0.00     0.044 C 
ATOM      6  C   UNL     1      31.877 -50.991 -10.857  1.00  0.00    -0.051 A 
ATOM      7  C   UNL     1      31.530 -51.046  -9.500  1.00  0.00     0.004 A 
ATOM      8  C   UNL     1      30.873 -51.106 -11.828  1.00  0.00     0.004 A 
ATOM      9  C   UNL     1      30.194 -51.190  -9.118  1.00  0.00     0.004 A 
ATOM     10  C   UNL     1      29.535 -51.249 -11.449  1.00  0.00     0.004 A 
ENDBRANCH   2   4
ENDBRANCH   1   2
BRANCH   1  11
ATOM     11  C   UNL     1      27.111 -53.890 -10.139  1.00  0.00     0.028 C 
BRANCH  11  12
ATOM     12  C   UNL     1      27.921 -54.604 -11.192  1.00  0.00    -0.028 C 
ATOM     13  C   UNL     1      28.285 -55.905 -11.119  1.00  0.00    -0.080 C 
ATOM     14  C   UNL     1      29.072 -56.528 -12.243  1.00  0.00     0.039 C 
ATOM     15  C   UNL     1      27.967 -56.759  -9.917  1.00  0.00     0.039 C 
ENDBRANCH  11  12
ENDBRANCH   1  11
TORSDOF 4
ENDMDL
MODEL 4
REMARK VINA RESULT:    -4.711      1.256      5.366
REMARK INTER + INTRA:          -6.880
REMARK INTER:                  -6.133
REMARK INTRA:                  -0.746
REMARK UNBOUND:                -1.067
REMARK SMILES CC(C)=CCC[C@@H](C)c1ccc(C)cc1
REMARK SMILES IDX 6 1 7 2 8 3 9 4 13 5 12 6 11 7 14 8 10 9 15 10 5 11 4 12
REMARK SMILES IDX 2 13 1 14 3 15
REMARK H PARENT
REMARK Flexibility Score: inf
ROOT
ATOM      1  C   UNL     1      30.864 -51.938  -9.551  1.00  0.00     0.012 C 
ENDROOT
BRANCH   1   2
ATOM      2  C   UNL     1      30.367 -52.108 -11.004  1.00  0.00     0.016 C 
ATOM      3  C   UNL     1      31.465 -51.821 -12.042  1.00  0.00     0.013 C 
BRANCH   2   4
ATOM      4  C   UNL     1      29.665 -53.440 -11.221  1.00  0.00    -0.045 A 
ATOM      5  C   UNL     1      27.742 -57.240 -11.957  1.00  0.00     0.044 C 
ATOM      6  C   UNL     1      28.402 -55.912 -11.733  1.00  0.00    -0.051 A 
ATOM      7  C   UNL     1      29.780 -55.762 -11.950  1.00  0.00     0.004 A 
ATOM      8  C   UNL     1      27.660 -54.827 -11.247  1.00  0.00     0.004 A 
ATOM      9  C   UNL     1      30.401 -54.535 -11.708  1.00  0.00     0.004 A 
ATOM     10  C   UNL     1      28.281 -53.599 -11.003  1.00  0.00     0.004 A 
ENDBRANCH   2   4
ENDBRANCH   1   2
BRANCH   1  11
ATOM     11  C   UNL     1      30.108 -50.875  -8.735  1.00  0.00     0.028 C 
BRANCH  11  12
ATOM     12  C   UNL     1      28.629 -50.933  -9.027  1.00  0.00    -0.028 C 
ATOM     13  C   UNL     1      27.684 -51.237  -8.108  1.00  0.00    -0.080 C 
ATOM     14  C   UNL     1      26.229 -51.239  -8.500  1.00  0.00     0.039 C 
ATOM     15  C   UNL     1      28.038 -51.624  -6.693  1.00  0.00     0.039 C 
ENDBRANCH  11  12
ENDBRANCH   1  11
TORSDOF 4
ENDMDL
MODEL 5
REMARK VINA RESULT:    -4.541      2.520      6.485
REMARK INTER + INTRA:          -6.671
REMARK INTER:                  -6.115
REMARK INTRA:                  -0.556
REMARK UNBOUND:                -1.067
REMARK SMILES CC(C)=CCC[C@@H](C)c1ccc(C)cc1
REMARK SMILES IDX 6 1 7 2 8 3 9 4 13 5 12 6 11 7 14 8 10 9 15 10 5 11 4 12
REMARK SMILES IDX 2 13 1 14 3 15
REMARK H PARENT
REMARK Flexibility Score: inf
ROOT
ATOM      1  C   UNL     1      28.765 -54.672 -11.038  1.00  0.00     0.012 C 
ENDROOT
BRANCH   1   2
ATOM      2  C   UNL     1      28.883 -56.210 -10.943  1.00  0.00     0.016 C 
ATOM      3  C   UNL     1      27.982 -56.806  -9.849  1.00  0.00     0.013 C 
BRANCH   2   4
ATOM      4  C   UNL     1      28.716 -56.886 -12.296  1.00  0.00    -0.045 A 
ATOM      5  C   UNL     1      28.161 -58.901 -16.079  1.00  0.00     0.044 C 
ATOM      6  C   UNL     1      28.360 -58.231 -14.752  1.00  0.00    -0.051 A 
ATOM      7  C   UNL     1      27.272 -58.028 -13.892  1.00  0.00     0.004 A 
ATOM      8  C   UNL     1      29.625 -57.749 -14.387  1.00  0.00     0.004 A 
ATOM      9  C   UNL     1      27.451 -57.372 -12.671  1.00  0.00     0.004 A 
ATOM     10  C   UNL     1      29.805 -57.092 -13.167  1.00  0.00     0.004 A 
ENDBRANCH   2   4
ENDBRANCH   1   2
BRANCH   1  11
ATOM     11  C   UNL     1      27.323 -54.137 -10.999  1.00  0.00     0.028 C 
BRANCH  11  12
ATOM     12  C   UNL     1      27.107 -53.277  -9.780  1.00  0.00    -0.028 C 
ATOM     13  C   UNL     1      26.888 -51.942  -9.820  1.00  0.00    -0.080 C 
ATOM     14  C   UNL     1      26.657 -51.181  -8.540  1.00  0.00     0.039 C 
ATOM     15  C   UNL     1      26.912 -51.166 -11.113  1.00  0.00     0.039 C 
ENDBRANCH  11  12
ENDBRANCH   1  11
TORSDOF 4
ENDMDL
MODEL 6
REMARK VINA RESULT:    -4.474      1.572      2.566
REMARK INTER + INTRA:          -6.587
REMARK INTER:                  -5.734
REMARK INTRA:                  -0.853
REMARK UNBOUND:                -1.067
REMARK SMILES CC(C)=CCC[C@@H](C)c1ccc(C)cc1
REMARK SMILES IDX 6 1 7 2 8 3 9 4 13 5 12 6 11 7 14 8 10 9 15 10 5 11 4 12
REMARK SMILES IDX 2 13 1 14 3 15
REMARK H PARENT
REMARK Flexibility Score: inf
ROOT
ATOM      1  C   UNL     1      28.485 -52.530 -11.196  1.00  0.00     0.012 C 
ENDROOT
BRANCH   1   2
ATOM      2  C   UNL     1      29.302 -51.544 -10.330  1.00  0.00     0.016 C 
ATOM      3  C   UNL     1      28.665 -51.301  -8.951  1.00  0.00     0.013 C 
BRANCH   2   4
ATOM      4  C   UNL     1      30.773 -51.924 -10.255  1.00  0.00    -0.045 A 
ATOM      5  C   UNL     1      34.918 -53.136 -10.058  1.00  0.00     0.044 C 
ATOM      6  C   UNL     1      33.472 -52.739 -10.104  1.00  0.00    -0.051 A 
ATOM      7  C   UNL     1      32.608 -53.319 -11.044  1.00  0.00     0.004 A 
ATOM      8  C   UNL     1      32.986 -51.740  -9.249  1.00  0.00     0.004 A 
ATOM      9  C   UNL     1      31.270 -52.924 -11.111  1.00  0.00     0.004 A 
ATOM     10  C   UNL     1      31.647 -51.344  -9.314  1.00  0.00     0.004 A 
ENDBRANCH   2   4
ENDBRANCH   1   2
BRANCH   1  11
ATOM     11  C   UNL     1      27.697 -53.582 -10.398  1.00  0.00     0.028 C 
BRANCH  11  12
ATOM     12  C   UNL     1      27.348 -54.761 -11.271  1.00  0.00    -0.028 C 
ATOM     13  C   UNL     1      28.100 -55.882 -11.370  1.00  0.00    -0.080 C 
ATOM     14  C   UNL     1      27.644 -57.015 -12.253  1.00  0.00     0.039 C 
ATOM     15  C   UNL     1      29.420 -56.027 -10.655  1.00  0.00     0.039 C 
ENDBRANCH  11  12
ENDBRANCH   1  11
TORSDOF 4
ENDMDL
MODEL 7
REMARK VINA RESULT:    -4.453      1.708      5.298
REMARK INTER + INTRA:          -6.562
REMARK INTER:                  -5.560
REMARK INTRA:                  -1.002
REMARK UNBOUND:                -1.067
REMARK SMILES CC(C)=CCC[C@@H](C)c1ccc(C)cc1
REMARK SMILES IDX 6 1 7 2 8 3 9 4 13 5 12 6 11 7 14 8 10 9 15 10 5 11 4 12
REMARK SMILES IDX 2 13 1 14 3 15
REMARK H PARENT
REMARK Flexibility Score: inf
ROOT
ATOM      1  C   UNL     1      31.091 -51.513  -9.482  1.00  0.00     0.012 C 
ENDROOT
BRANCH   1   2
ATOM      2  C   UNL     1      30.090 -51.523 -10.660  1.00  0.00     0.016 C 
ATOM      3  C   UNL     1      30.667 -50.875 -11.930  1.00  0.00     0.013 C 
BRANCH   2   4
ATOM      4  C   UNL     1      29.498 -52.903 -10.903  1.00  0.00    -0.045 A 
ATOM      5  C   UNL     1      27.891 -56.834 -11.707  1.00  0.00     0.044 C 
ATOM      6  C   UNL     1      28.442 -55.461 -11.460  1.00  0.00    -0.051 A 
ATOM      7  C   UNL     1      29.811 -55.208 -11.626  1.00  0.00     0.004 A 
ATOM      8  C   UNL     1      27.604 -54.435 -11.001  1.00  0.00     0.004 A 
ATOM      9  C   UNL     1      30.331 -53.939 -11.361  1.00  0.00     0.004 A 
ATOM     10  C   UNL     1      28.123 -53.165 -10.736  1.00  0.00     0.004 A 
ENDBRANCH   2   4
ENDBRANCH   1   2
BRANCH   1  11
ATOM     11  C   UNL     1      32.471 -50.925  -9.819  1.00  0.00     0.028 C 
BRANCH  11  12
ATOM     12  C   UNL     1      33.567 -51.894  -9.452  1.00  0.00    -0.028 C 
ATOM     13  C   UNL     1      34.244 -52.650 -10.347  1.00  0.00    -0.080 C 
ATOM     14  C   UNL     1      35.342 -53.568  -9.874  1.00  0.00     0.039 C 
ATOM     15  C   UNL     1      33.907 -52.645 -11.817  1.00  0.00     0.039 C 
ENDBRANCH  11  12
ENDBRANCH   1  11
TORSDOF 4
ENDMDL
MODEL 8
REMARK VINA RESULT:    -4.372      1.653      5.392
REMARK INTER + INTRA:          -6.462
REMARK INTER:                  -5.827
REMARK INTRA:                  -0.635
REMARK UNBOUND:                -1.067
REMARK SMILES CC(C)=CCC[C@@H](C)c1ccc(C)cc1
REMARK SMILES IDX 6 1 7 2 8 3 9 4 13 5 12 6 11 7 14 8 10 9 15 10 5 11 4 12
REMARK SMILES IDX 2 13 1 14 3 15
REMARK H PARENT
REMARK Flexibility Score: inf
ROOT
ATOM      1  C   UNL     1      27.357 -54.640 -10.721  1.00  0.00     0.012 C 
ENDROOT
BRANCH   1   2
ATOM      2  C   UNL     1      28.398 -55.706 -10.314  1.00  0.00     0.016 C 
ATOM      3  C   UNL     1      27.749 -56.989  -9.767  1.00  0.00     0.013 C 
BRANCH   2   4
ATOM      4  C   UNL     1      29.416 -55.968 -11.415  1.00  0.00    -0.045 A 
ATOM      5  C   UNL     1      32.271 -56.844 -14.540  1.00  0.00     0.044 C 
ATOM      6  C   UNL     1      31.292 -56.566 -13.438  1.00  0.00    -0.051 A 
ATOM      7  C   UNL     1      30.005 -57.121 -13.478  1.00  0.00     0.004 A 
ATOM      8  C   UNL     1      31.634 -55.701 -12.390  1.00  0.00     0.004 A 
ATOM      9  C   UNL     1      29.081 -56.834 -12.471  1.00  0.00     0.004 A 
ATOM     10  C   UNL     1      30.711 -55.412 -11.381  1.00  0.00     0.004 A 
ENDBRANCH   2   4
ENDBRANCH   1   2
BRANCH   1  11
ATOM     11  C   UNL     1      27.844 -53.187 -10.595  1.00  0.00     0.028 C 
BRANCH  11  12
ATOM     12  C   UNL     1      27.532 -52.638  -9.226  1.00  0.00    -0.028 C 
ATOM     13  C   UNL     1      28.282 -51.709  -8.590  1.00  0.00    -0.080 C 
ATOM     14  C   UNL     1      27.863 -51.207  -7.232  1.00  0.00     0.039 C 
ATOM     15  C   UNL     1      29.567 -51.179  -9.177  1.00  0.00     0.039 C 
ENDBRANCH  11  12
ENDBRANCH   1  11
TORSDOF 4
ENDMDL
MODEL 9
REMARK VINA RESULT:    -4.304     16.177     17.701
REMARK INTER + INTRA:          -6.377
REMARK INTER:                  -4.832
REMARK INTRA:                  -1.545
REMARK UNBOUND:                -1.067
REMARK SMILES CC(C)=CCC[C@@H](C)c1ccc(C)cc1
REMARK SMILES IDX 6 1 7 2 8 3 9 4 13 5 12 6 11 7 14 8 10 9 15 10 5 11 4 12
REMARK SMILES IDX 2 13 1 14 3 15
REMARK H PARENT
REMARK Flexibility Score: inf
ROOT
ATOM      1  C   UNL     1      31.965 -71.120  -6.728  1.00  0.00     0.012 C 
ENDROOT
BRANCH   1   2
ATOM      2  C   UNL     1      32.589 -70.048  -7.650  1.00  0.00     0.016 C 
ATOM      3  C   UNL     1      31.531 -69.148  -8.310  1.00  0.00     0.013 C 
BRANCH   2   4
ATOM      4  C   UNL     1      33.697 -69.268  -6.959  1.00  0.00    -0.045 A 
ATOM      5  C   UNL     1      36.816 -67.116  -4.878  1.00  0.00     0.044 C 
ATOM      6  C   UNL     1      35.712 -67.855  -5.576  1.00  0.00    -0.051 A 
ATOM      7  C   UNL     1      35.526 -69.226  -5.349  1.00  0.00     0.004 A 
ATOM      8  C   UNL     1      34.897 -67.195  -6.506  1.00  0.00     0.004 A 
ATOM      9  C   UNL     1      34.521 -69.922  -6.025  1.00  0.00     0.004 A 
ATOM     10  C   UNL     1      33.892 -67.890  -7.183  1.00  0.00     0.004 A 
ENDBRANCH   2   4
ENDBRANCH   1   2
BRANCH   1  11
ATOM     11  C   UNL     1      30.772 -70.629  -5.890  1.00  0.00     0.028 C 
BRANCH  11  12
ATOM     12  C   UNL     1      31.211 -70.289  -4.488  1.00  0.00    -0.028 C 
ATOM     13  C   UNL     1      31.291 -69.029  -4.001  1.00  0.00    -0.080 C 
ATOM     14  C   UNL     1      31.716 -68.802  -2.573  1.00  0.00     0.039 C 
ATOM     15  C   UNL     1      31.011 -67.820  -4.858  1.00  0.00     0.039 C 
ENDBRANCH  11  12
ENDBRANCH   1  11
TORSDOF 4
ENDMDL
