MODEL 1
REMARK VINA RESULT:    -2.770      0.000      0.000
REMARK INTER + INTRA:          -5.302
REMARK INTER:                  -4.065
REMARK INTRA:                  -1.237
REMARK UNBOUND:                -1.237
REMARK SMILES CCCCCC(=O)CCCCC
REMARK SMILES IDX 6 1 7 2 5 3 4 4 3 5 2 6 1 7 8 8 9 9 10 10 11 11 12 12
REMARK H PARENT
REMARK Flexibility Score: inf
ROOT
ATOM      1  C   UNL     1     138.088 148.920 137.995  1.00  0.00     0.132 C 
ATOM      2  O   UNL     1     137.896 150.074 137.641  1.00  0.00    -0.300 OA
ENDROOT
BRANCH   1   3
ATOM      3  C   UNL     1     139.473 148.335 137.887  1.00  0.00     0.075 C 
BRANCH   3   4
ATOM      4  C   UNL     1     139.487 147.158 136.904  1.00  0.00     0.008 C 
BRANCH   4   5
ATOM      5  C   UNL     1     139.758 145.807 137.589  1.00  0.00     0.000 C 
BRANCH   5   6
ATOM      6  C   UNL     1     140.250 145.906 139.045  1.00  0.00    -0.003 C 
ATOM      7  C   UNL     1     141.318 144.868 139.388  1.00  0.00     0.004 C 
ENDBRANCH   5   6
ENDBRANCH   4   5
ENDBRANCH   3   4
ENDBRANCH   1   3
BRANCH   1   8
ATOM      8  C   UNL     1     136.939 148.109 138.531  1.00  0.00     0.075 C 
BRANCH   8   9
ATOM      9  C   UNL     1     137.146 147.796 140.019  1.00  0.00     0.008 C 
BRANCH   9  10
ATOM     10  C   UNL     1     136.695 146.375 140.393  1.00  0.00     0.000 C 
BRANCH  10  11
ATOM     11  C   UNL     1     136.339 145.526 139.163  1.00  0.00    -0.003 C 
ATOM     12  C   UNL     1     136.882 144.106 139.301  1.00  0.00     0.004 C 
ENDBRANCH  10  11
ENDBRANCH   9  10
ENDBRANCH   8   9
ENDBRANCH   1   8
TORSDOF 8
ENDMDL
MODEL 2
REMARK VINA RESULT:    -2.750     11.416     13.938
REMARK INTER + INTRA:          -5.273
REMARK INTER:                  -3.909
REMARK INTRA:                  -1.364
REMARK UNBOUND:                -1.237
REMARK SMILES CCCCCC(=O)CCCCC
REMARK SMILES IDX 6 1 7 2 5 3 4 4 3 5 2 6 1 7 8 8 9 9 10 10 11 11 12 12
REMARK H PARENT
REMARK Flexibility Score: inf
ROOT
ATOM      1  C   UNL     1     143.459 132.606 138.077  1.00  0.00     0.132 C 
ATOM      2  O   UNL     1     143.683 131.496 137.618  1.00  0.00    -0.300 OA
ENDROOT
BRANCH   1   3
ATOM      3  C   UNL     1     142.082 133.199 137.936  1.00  0.00     0.075 C 
BRANCH   3   4
ATOM      4  C   UNL     1     142.085 134.333 136.902  1.00  0.00     0.008 C 
BRANCH   4   5
ATOM      5  C   UNL     1     141.866 135.720 137.532  1.00  0.00     0.000 C 
BRANCH   5   6
ATOM      6  C   UNL     1     140.992 135.725 138.800  1.00  0.00    -0.003 C 
ATOM      7  C   UNL     1     141.031 137.058 139.548  1.00  0.00     0.004 C 
ENDBRANCH   5   6
ENDBRANCH   4   5
ENDBRANCH   3   4
ENDBRANCH   1   3
BRANCH   1   8
ATOM      8  C   UNL     1     144.564 133.355 138.773  1.00  0.00     0.075 C 
BRANCH   8   9
ATOM      9  C   UNL     1     144.128 133.773 140.184  1.00  0.00     0.008 C 
BRANCH   9  10
ATOM     10  C   UNL     1     144.310 135.278 140.438  1.00  0.00     0.000 C 
BRANCH  10  11
ATOM     11  C   UNL     1     145.188 135.955 139.375  1.00  0.00    -0.003 C 
ATOM     12  C   UNL     1     144.699 137.369 139.078  1.00  0.00     0.004 C 
ENDBRANCH  10  11
ENDBRANCH   9  10
ENDBRANCH   8   9
ENDBRANCH   1   8
TORSDOF 8
ENDMDL
MODEL 3
REMARK VINA RESULT:    -2.744      0.200      3.569
REMARK INTER + INTRA:          -5.264
REMARK INTER:                  -4.084
REMARK INTRA:                  -1.180
REMARK UNBOUND:                -1.237
REMARK SMILES CCCCCC(=O)CCCCC
REMARK SMILES IDX 6 1 7 2 5 3 4 4 3 5 2 6 1 7 8 8 9 9 10 10 11 11 12 12
REMARK H PARENT
REMARK Flexibility Score: inf
ROOT
ATOM      1  C   UNL     1     138.115 148.937 138.043  1.00  0.00     0.132 C 
ATOM      2  O   UNL     1     137.976 150.053 137.567  1.00  0.00    -0.300 OA
ENDROOT
BRANCH   1   3
ATOM      3  C   UNL     1     136.910 148.205 138.573  1.00  0.00     0.075 C 
BRANCH   3   4
ATOM      4  C   UNL     1     137.102 147.848 140.053  1.00  0.00     0.008 C 
BRANCH   4   5
ATOM      5  C   UNL     1     136.921 146.346 140.337  1.00  0.00     0.000 C 
BRANCH   5   6
ATOM      6  C   UNL     1     136.305 145.538 139.180  1.00  0.00    -0.003 C 
ATOM      7  C   UNL     1     136.890 144.131 139.054  1.00  0.00     0.004 C 
ENDBRANCH   5   6
ENDBRANCH   4   5
ENDBRANCH   3   4
ENDBRANCH   1   3
BRANCH   1   8
ATOM      8  C   UNL     1     139.486 148.317 138.088  1.00  0.00     0.075 C 
BRANCH   8   9
ATOM      9  C   UNL     1     139.636 147.255 136.989  1.00  0.00     0.008 C 
BRANCH   9  10
ATOM     10  C   UNL     1     139.685 145.826 137.551  1.00  0.00     0.000 C 
BRANCH  10  11
ATOM     11  C   UNL     1     140.293 145.765 138.960  1.00  0.00    -0.003 C 
ATOM     12  C   UNL     1     141.537 144.881 138.983  1.00  0.00     0.004 C 
ENDBRANCH  10  11
ENDBRANCH   9  10
ENDBRANCH   8   9
ENDBRANCH   1   8
TORSDOF 8
ENDMDL
MODEL 4
REMARK VINA RESULT:    -2.718     11.614     13.988
REMARK INTER + INTRA:          -5.226
REMARK INTER:                  -4.107
REMARK INTRA:                  -1.119
REMARK UNBOUND:                -1.237
REMARK SMILES CCCCCC(=O)CCCCC
REMARK SMILES IDX 6 1 7 2 5 3 4 4 3 5 2 6 1 7 8 8 9 9 10 10 11 11 12 12
REMARK H PARENT
REMARK Flexibility Score: inf
ROOT
ATOM      1  C   UNL     1     143.732 132.411 138.107  1.00  0.00     0.132 C 
ATOM      2  O   UNL     1     143.729 131.300 137.597  1.00  0.00    -0.300 OA
ENDROOT
BRANCH   1   3
ATOM      3  C   UNL     1     144.783 132.751 139.131  1.00  0.00     0.075 C 
BRANCH   3   4
ATOM      4  C   UNL     1     145.780 133.771 138.563  1.00  0.00     0.008 C 
BRANCH   4   5
ATOM      5  C   UNL     1     146.010 134.970 139.499  1.00  0.00     0.000 C 
BRANCH   5   6
ATOM      6  C   UNL     1     145.224 136.242 139.127  1.00  0.00    -0.003 C 
ATOM      7  C   UNL     1     144.907 137.124 140.334  1.00  0.00     0.004 C 
ENDBRANCH   5   6
ENDBRANCH   4   5
ENDBRANCH   3   4
ENDBRANCH   1   3
BRANCH   1   8
ATOM      8  C   UNL     1     142.686 133.414 137.700  1.00  0.00     0.075 C 
BRANCH   8   9
ATOM      9  C   UNL     1     142.092 134.107 138.934  1.00  0.00     0.008 C 
BRANCH   9  10
ATOM     10  C   UNL     1     141.647 135.549 138.646  1.00  0.00     0.000 C 
BRANCH  10  11
ATOM     11  C   UNL     1     142.015 136.009 137.227  1.00  0.00    -0.003 C 
ATOM     12  C   UNL     1     142.247 137.516 137.181  1.00  0.00     0.004 C 
ENDBRANCH  10  11
ENDBRANCH   9  10
ENDBRANCH   8   9
ENDBRANCH   1   8
TORSDOF 8
ENDMDL
MODEL 5
REMARK VINA RESULT:    -2.704      7.193      9.806
REMARK INTER + INTRA:          -5.206
REMARK INTER:                  -4.120
REMARK INTRA:                  -1.086
REMARK UNBOUND:                -1.237
REMARK SMILES CCCCCC(=O)CCCCC
REMARK SMILES IDX 6 1 7 2 5 3 4 4 3 5 2 6 1 7 8 8 9 9 10 10 11 11 12 12
REMARK H PARENT
REMARK Flexibility Score: inf
ROOT
ATOM      1  C   UNL     1     149.065 143.640 138.070  1.00  0.00     0.132 C 
ATOM      2  O   UNL     1     150.271 143.687 137.878  1.00  0.00    -0.300 OA
ENDROOT
BRANCH   1   3
ATOM      3  C   UNL     1     148.396 142.302 138.249  1.00  0.00     0.075 C 
BRANCH   3   4
ATOM      4  C   UNL     1     147.395 142.043 137.114  1.00  0.00     0.008 C 
BRANCH   4   5
ATOM      5  C   UNL     1     145.959 141.824 137.620  1.00  0.00     0.000 C 
BRANCH   5   6
ATOM      6  C   UNL     1     145.854 141.211 139.029  1.00  0.00    -0.003 C 
ATOM      7  C   UNL     1     144.886 140.030 139.098  1.00  0.00     0.004 C 
ENDBRANCH   5   6
ENDBRANCH   4   5
ENDBRANCH   3   4
ENDBRANCH   1   3
BRANCH   1   8
ATOM      8  C   UNL     1     148.275 144.921 138.126  1.00  0.00     0.075 C 
BRANCH   8   9
ATOM      9  C   UNL     1     147.406 144.966 139.390  1.00  0.00     0.008 C 
BRANCH   9  10
ATOM     10  C   UNL     1     145.987 145.488 139.114  1.00  0.00     0.000 C 
BRANCH  10  11
ATOM     11  C   UNL     1     144.916 144.750 139.931  1.00  0.00    -0.003 C 
ATOM     12  C   UNL     1     143.691 144.440 139.077  1.00  0.00     0.004 C 
ENDBRANCH  10  11
ENDBRANCH   9  10
ENDBRANCH   8   9
ENDBRANCH   1   8
TORSDOF 8
ENDMDL
MODEL 6
REMARK VINA RESULT:    -2.693      7.082      9.883
REMARK INTER + INTRA:          -5.189
REMARK INTER:                  -3.993
REMARK INTRA:                  -1.196
REMARK UNBOUND:                -1.237
REMARK SMILES CCCCCC(=O)CCCCC
REMARK SMILES IDX 6 1 7 2 5 3 4 4 3 5 2 6 1 7 8 8 9 9 10 10 11 11 12 12
REMARK H PARENT
REMARK Flexibility Score: inf
ROOT
ATOM      1  C   UNL     1     149.021 143.818 138.114  1.00  0.00     0.132 C 
ATOM      2  O   UNL     1     150.232 143.970 138.065  1.00  0.00    -0.300 OA
ENDROOT
BRANCH   1   3
ATOM      3  C   UNL     1     148.125 145.029 138.132  1.00  0.00     0.075 C 
BRANCH   3   4
ATOM      4  C   UNL     1     147.251 145.036 139.393  1.00  0.00     0.008 C 
BRANCH   4   5
ATOM      5  C   UNL     1     145.800 145.464 139.115  1.00  0.00     0.000 C 
BRANCH   5   6
ATOM      6  C   UNL     1     144.731 144.676 139.896  1.00  0.00    -0.003 C 
ATOM      7  C   UNL     1     143.513 144.316 139.045  1.00  0.00     0.004 C 
ENDBRANCH   5   6
ENDBRANCH   4   5
ENDBRANCH   3   4
ENDBRANCH   1   3
BRANCH   1   8
ATOM      8  C   UNL     1     148.451 142.425 138.153  1.00  0.00     0.075 C 
BRANCH   8   9
ATOM      9  C   UNL     1     147.394 142.243 137.055  1.00  0.00     0.008 C 
BRANCH   9  10
ATOM     10  C   UNL     1     146.027 141.820 137.613  1.00  0.00     0.000 C 
BRANCH  10  11
ATOM     11  C   UNL     1     146.105 141.351 139.074  1.00  0.00    -0.003 C 
ATOM     12  C   UNL     1     144.834 140.612 139.482  1.00  0.00     0.004 C 
ENDBRANCH  10  11
ENDBRANCH   9  10
ENDBRANCH   8   9
ENDBRANCH   1   8
TORSDOF 8
ENDMDL
MODEL 7
REMARK VINA RESULT:    -2.648      7.561     10.065
REMARK INTER + INTRA:          -5.124
REMARK INTER:                  -3.969
REMARK INTRA:                  -1.155
REMARK UNBOUND:                -1.237
REMARK SMILES CCCCCC(=O)CCCCC
REMARK SMILES IDX 6 1 7 2 5 3 4 4 3 5 2 6 1 7 8 8 9 9 10 10 11 11 12 12
REMARK H PARENT
REMARK Flexibility Score: inf
ROOT
ATOM      1  C   UNL     1     132.559 137.807 138.028  1.00  0.00     0.132 C 
ATOM      2  O   UNL     1     131.361 137.721 137.801  1.00  0.00    -0.300 OA
ENDROOT
BRANCH   1   3
ATOM      3  C   UNL     1     133.197 139.167 138.128  1.00  0.00     0.075 C 
BRANCH   3   4
ATOM      4  C   UNL     1     134.102 139.430 136.917  1.00  0.00     0.008 C 
BRANCH   4   5
ATOM      5  C   UNL     1     135.588 139.556 137.295  1.00  0.00     0.000 C 
BRANCH   5   6
ATOM      6  C   UNL     1     135.860 140.286 138.623  1.00  0.00    -0.003 C 
ATOM      7  C   UNL     1     137.323 140.694 138.794  1.00  0.00     0.004 C 
ENDBRANCH   5   6
ENDBRANCH   4   5
ENDBRANCH   3   4
ENDBRANCH   1   3
BRANCH   1   8
ATOM      8  C   UNL     1     133.369 136.550 138.204  1.00  0.00     0.075 C 
BRANCH   8   9
ATOM      9  C   UNL     1     134.282 136.663 139.432  1.00  0.00     0.008 C 
BRANCH   9  10
ATOM     10  C   UNL     1     135.705 136.150 139.161  1.00  0.00     0.000 C 
BRANCH  10  11
ATOM     11  C   UNL     1     136.775 136.943 139.927  1.00  0.00    -0.003 C 
ATOM     12  C   UNL     1     138.088 136.983 139.151  1.00  0.00     0.004 C 
ENDBRANCH  10  11
ENDBRANCH   9  10
ENDBRANCH   8   9
ENDBRANCH   1   8
TORSDOF 8
ENDMDL
MODEL 8
REMARK VINA RESULT:    -2.632      8.302     10.361
REMARK INTER + INTRA:          -5.100
REMARK INTER:                  -3.966
REMARK INTRA:                  -1.134
REMARK UNBOUND:                -1.237
REMARK SMILES CCCCCC(=O)CCCCC
REMARK SMILES IDX 6 1 7 2 5 3 4 4 3 5 2 6 1 7 8 8 9 9 10 10 11 11 12 12
REMARK H PARENT
REMARK Flexibility Score: inf
ROOT
ATOM      1  C   UNL     1     132.908 137.424 138.842  1.00  0.00     0.132 C 
ATOM      2  O   UNL     1     132.763 137.630 140.038  1.00  0.00    -0.300 OA
ENDROOT
BRANCH   1   3
ATOM      3  C   UNL     1     133.607 136.170 138.387  1.00  0.00     0.075 C 
BRANCH   3   4
ATOM      4  C   UNL     1     134.615 135.700 139.443  1.00  0.00     0.008 C 
BRANCH   4   5
ATOM      5  C   UNL     1     136.059 136.125 139.125  1.00  0.00     0.000 C 
BRANCH   5   6
ATOM      6  C   UNL     1     136.861 136.649 140.332  1.00  0.00    -0.003 C 
ATOM      7  C   UNL     1     138.223 137.223 139.942  1.00  0.00     0.004 C 
ENDBRANCH   5   6
ENDBRANCH   4   5
ENDBRANCH   3   4
ENDBRANCH   1   3
BRANCH   1   8
ATOM      8  C   UNL     1     132.383 138.429 137.851  1.00  0.00     0.075 C 
BRANCH   8   9
ATOM      9  C   UNL     1     133.272 139.679 137.826  1.00  0.00     0.008 C 
BRANCH   9  10
ATOM     10  C   UNL     1     134.530 139.494 136.963  1.00  0.00     0.000 C 
BRANCH  10  11
ATOM     11  C   UNL     1     135.827 139.592 137.780  1.00  0.00    -0.003 C 
ATOM     12  C   UNL     1     135.537 139.995 139.223  1.00  0.00     0.004 C 
ENDBRANCH  10  11
ENDBRANCH   9  10
ENDBRANCH   8   9
ENDBRANCH   1   8
TORSDOF 8
ENDMDL
MODEL 9
REMARK VINA RESULT:    -2.571     11.502     14.144
REMARK INTER + INTRA:          -5.011
REMARK INTER:                  -3.836
REMARK INTRA:                  -1.175
REMARK UNBOUND:                -1.237
REMARK SMILES CCCCCC(=O)CCCCC
REMARK SMILES IDX 6 1 7 2 5 3 4 4 3 5 2 6 1 7 8 8 9 9 10 10 11 11 12 12
REMARK H PARENT
REMARK Flexibility Score: inf
ROOT
ATOM      1  C   UNL     1     145.564 133.302 138.466  1.00  0.00     0.132 C 
ATOM      2  O   UNL     1     146.311 132.812 137.631  1.00  0.00    -0.300 OA
ENDROOT
BRANCH   1   3
ATOM      3  C   UNL     1     144.378 132.511 138.951  1.00  0.00     0.075 C 
BRANCH   3   4
ATOM      4  C   UNL     1     143.199 132.656 137.980  1.00  0.00     0.008 C 
BRANCH   4   5
ATOM      5  C   UNL     1     142.060 133.523 138.545  1.00  0.00     0.000 C 
BRANCH   5   6
ATOM      6  C   UNL     1     142.017 134.966 138.009  1.00  0.00    -0.003 C 
ATOM      7  C   UNL     1     141.190 135.906 138.886  1.00  0.00     0.004 C 
ENDBRANCH   5   6
ENDBRANCH   4   5
ENDBRANCH   3   4
ENDBRANCH   1   3
BRANCH   1   8
ATOM      8  C   UNL     1     145.849 134.683 138.993  1.00  0.00     0.075 C 
BRANCH   8   9
ATOM      9  C   UNL     1     145.026 134.959 140.259  1.00  0.00     0.008 C 
BRANCH   9  10
ATOM     10  C   UNL     1     144.658 136.443 140.414  1.00  0.00     0.000 C 
BRANCH  10  11
ATOM     11  C   UNL     1     144.738 137.213 139.088  1.00  0.00    -0.003 C 
ATOM     12  C   UNL     1     143.906 138.490 139.144  1.00  0.00     0.004 C 
ENDBRANCH  10  11
ENDBRANCH   9  10
ENDBRANCH   8   9
ENDBRANCH   1   8
TORSDOF 8
ENDMDL
