MODEL 1
REMARK VINA RESULT:    -6.337      0.000      0.000
REMARK INTER + INTRA:         -11.279
REMARK INTER:                 -10.783
REMARK INTRA:                  -0.496
REMARK UNBOUND:                -0.496
REMARK SMILES CCCCCCCCCCCCCC(=O)[O-]
REMARK SMILES IDX 8 1 9 2 10 3 11 4 12 5 13 6 14 7 15 8 16 9 7 10 6 11 5 12
REMARK SMILES IDX 4 13 3 14 2 15 1 16
REMARK H PARENT
REMARK Flexibility Score: inf
ROOT
ATOM      1  C   UNL     1      -3.201   9.411 -39.536  1.00  0.00     0.000 C 
ENDROOT
BRANCH   1   2
ATOM      2  C   UNL     1      -4.461   8.689 -39.025  1.00  0.00     0.000 C 
BRANCH   2   3
ATOM      3  C   UNL     1      -5.788   9.169 -39.639  1.00  0.00     0.000 C 
BRANCH   3   4
ATOM      4  C   UNL     1      -6.980   8.269 -39.271  1.00  0.00     0.000 C 
BRANCH   4   5
ATOM      5  C   UNL     1      -7.379   7.322 -40.414  1.00  0.00     0.006 C 
BRANCH   5   6
ATOM      6  C   UNL     1      -7.810   5.936 -39.912  1.00  0.00     0.053 C 
BRANCH   6   7
ATOM      7  C   UNL     1      -8.107   5.033 -41.065  1.00  0.00     0.041 C 
ATOM      8  O   UNL     1      -8.702   3.938 -40.876  1.00  0.00    -0.550 OA
ATOM      9  O   UNL     1      -7.684   5.374 -42.344  1.00  0.00    -0.550 OA
ENDBRANCH   6   7
ENDBRANCH   5   6
ENDBRANCH   4   5
ENDBRANCH   3   4
ENDBRANCH   2   3
ENDBRANCH   1   2
BRANCH   1  10
ATOM     10  C   UNL     1      -1.988   8.476 -39.675  1.00  0.00     0.000 C 
BRANCH  10  11
ATOM     11  C   UNL     1      -0.883   8.789 -38.652  1.00  0.00    -0.000 C 
BRANCH  11  12
ATOM     12  C   UNL     1      -0.946  10.240 -38.144  1.00  0.00    -0.000 C 
BRANCH  12  13
ATOM     13  C   UNL     1       0.385  10.992 -38.322  1.00  0.00    -0.000 C 
BRANCH  13  14
ATOM     14  C   UNL     1       0.475  12.347 -37.591  1.00  0.00    -0.000 C 
BRANCH  14  15
ATOM     15  C   UNL     1      -0.847  13.130 -37.508  1.00  0.00    -0.003 C 
ATOM     16  C   UNL     1      -1.408  13.204 -36.089  1.00  0.00     0.004 C 
ENDBRANCH  14  15
ENDBRANCH  13  14
ENDBRANCH  12  13
ENDBRANCH  11  12
ENDBRANCH  10  11
ENDBRANCH   1  10
TORSDOF 12
ENDMDL
MODEL 2
REMARK VINA RESULT:    -6.167      2.316      4.249
REMARK INTER + INTRA:         -10.989
REMARK INTER:                 -10.549
REMARK INTRA:                  -0.440
REMARK UNBOUND:                -0.496
REMARK SMILES CCCCCCCCCCCCCC(=O)[O-]
REMARK SMILES IDX 8 1 9 2 10 3 11 4 12 5 13 6 14 7 15 8 16 9 7 10 6 11 5 12
REMARK SMILES IDX 4 13 3 14 2 15 1 16
REMARK H PARENT
REMARK Flexibility Score: inf
ROOT
ATOM      1  C   UNL     1      -3.270   9.508 -39.396  1.00  0.00     0.000 C 
ENDROOT
BRANCH   1   2
ATOM      2  C   UNL     1      -4.535   8.758 -38.939  1.00  0.00     0.000 C 
BRANCH   2   3
ATOM      3  C   UNL     1      -5.830   9.146 -39.674  1.00  0.00     0.000 C 
BRANCH   3   4
ATOM      4  C   UNL     1      -7.011   8.220 -39.336  1.00  0.00     0.000 C 
BRANCH   4   5
ATOM      5  C   UNL     1      -7.375   7.280 -40.497  1.00  0.00     0.006 C 
BRANCH   5   6
ATOM      6  C   UNL     1      -7.748   5.869 -40.021  1.00  0.00     0.053 C 
BRANCH   6   7
ATOM      7  C   UNL     1      -8.081   4.996 -41.189  1.00  0.00     0.041 C 
ATOM      8  O   UNL     1      -7.732   5.332 -42.351  1.00  0.00    -0.550 OA
ATOM      9  O   UNL     1      -8.822   3.836 -41.002  1.00  0.00    -0.550 OA
ENDBRANCH   6   7
ENDBRANCH   5   6
ENDBRANCH   4   5
ENDBRANCH   3   4
ENDBRANCH   2   3
ENDBRANCH   1   2
BRANCH   1  10
ATOM     10  C   UNL     1      -2.104   9.377 -38.402  1.00  0.00     0.000 C 
BRANCH  10  11
ATOM     11  C   UNL     1      -0.815   8.870 -39.071  1.00  0.00    -0.000 C 
BRANCH  11  12
ATOM     12  C   UNL     1      -1.044   7.593 -39.897  1.00  0.00    -0.000 C 
BRANCH  12  13
ATOM     13  C   UNL     1      -0.109   7.494 -41.116  1.00  0.00    -0.000 C 
BRANCH  13  14
ATOM     14  C   UNL     1       0.362   6.069 -41.467  1.00  0.00    -0.000 C 
BRANCH  14  15
ATOM     15  C   UNL     1       1.634   5.998 -42.331  1.00  0.00    -0.003 C 
ATOM     16  C   UNL     1       2.801   5.320 -41.618  1.00  0.00     0.004 C 
ENDBRANCH  14  15
ENDBRANCH  13  14
ENDBRANCH  12  13
ENDBRANCH  11  12
ENDBRANCH  10  11
ENDBRANCH   1  10
TORSDOF 12
ENDMDL
MODEL 3
REMARK VINA RESULT:    -5.834      4.259      8.588
REMARK INTER + INTRA:         -10.423
REMARK INTER:                  -9.884
REMARK INTRA:                  -0.539
REMARK UNBOUND:                -0.496
REMARK SMILES CCCCCCCCCCCCCC(=O)[O-]
REMARK SMILES IDX 8 1 9 2 10 3 11 4 12 5 13 6 14 7 15 8 16 9 7 10 6 11 5 12
REMARK SMILES IDX 4 13 3 14 2 15 1 16
REMARK H PARENT
REMARK Flexibility Score: inf
ROOT
ATOM      1  C   UNL     1      -3.155   9.267 -39.708  1.00  0.00     0.000 C 
ENDROOT
BRANCH   1   2
ATOM      2  C   UNL     1      -1.945   8.351 -39.449  1.00  0.00     0.000 C 
BRANCH   2   3
ATOM      3  C   UNL     1      -0.858   8.942 -38.534  1.00  0.00     0.000 C 
BRANCH   3   4
ATOM      4  C   UNL     1      -1.078  10.433 -38.227  1.00  0.00     0.000 C 
BRANCH   4   5
ATOM      5  C   UNL     1       0.204  11.266 -38.393  1.00  0.00     0.006 C 
BRANCH   5   6
ATOM      6  C   UNL     1       0.369  12.323 -37.292  1.00  0.00     0.053 C 
BRANCH   6   7
ATOM      7  C   UNL     1      -0.905  13.081 -37.102  1.00  0.00     0.041 C 
ATOM      8  O   UNL     1      -1.618  12.878 -36.084  1.00  0.00    -0.550 OA
ATOM      9  O   UNL     1      -1.334  13.978 -38.073  1.00  0.00    -0.550 OA
ENDBRANCH   6   7
ENDBRANCH   5   6
ENDBRANCH   4   5
ENDBRANCH   3   4
ENDBRANCH   2   3
ENDBRANCH   1   2
BRANCH   1  10
ATOM     10  C   UNL     1      -4.432   8.790 -38.996  1.00  0.00     0.000 C 
BRANCH  10  11
ATOM     11  C   UNL     1      -5.712   9.255 -39.710  1.00  0.00    -0.000 C 
BRANCH  11  12
ATOM     12  C   UNL     1      -6.989   8.792 -38.987  1.00  0.00    -0.000 C 
BRANCH  12  13
ATOM     13  C   UNL     1      -7.455   7.395 -39.434  1.00  0.00    -0.000 C 
BRANCH  13  14
ATOM     14  C   UNL     1      -7.345   7.120 -40.947  1.00  0.00    -0.000 C 
BRANCH  14  15
ATOM     15  C   UNL     1      -7.702   5.685 -41.376  1.00  0.00    -0.003 C 
ATOM     16  C   UNL     1      -8.276   4.849 -40.234  1.00  0.00     0.004 C 
ENDBRANCH  14  15
ENDBRANCH  13  14
ENDBRANCH  12  13
ENDBRANCH  11  12
ENDBRANCH  10  11
ENDBRANCH   1  10
TORSDOF 12
ENDMDL
MODEL 4
REMARK VINA RESULT:    -5.346      2.384      2.928
REMARK INTER + INTRA:          -9.594
REMARK INTER:                  -8.749
REMARK INTRA:                  -0.844
REMARK UNBOUND:                -0.496
REMARK SMILES CCCCCCCCCCCCCC(=O)[O-]
REMARK SMILES IDX 8 1 9 2 10 3 11 4 12 5 13 6 14 7 15 8 16 9 7 10 6 11 5 12
REMARK SMILES IDX 4 13 3 14 2 15 1 16
REMARK H PARENT
REMARK Flexibility Score: inf
ROOT
ATOM      1  C   UNL     1      -2.114   8.280 -39.426  1.00  0.00     0.000 C 
ENDROOT
BRANCH   1   2
ATOM      2  C   UNL     1      -2.865   9.427 -40.125  1.00  0.00     0.000 C 
BRANCH   2   3
ATOM      3  C   UNL     1      -4.399   9.375 -40.007  1.00  0.00     0.000 C 
BRANCH   3   4
ATOM      4  C   UNL     1      -4.880   9.037 -38.585  1.00  0.00     0.000 C 
BRANCH   4   5
ATOM      5  C   UNL     1      -5.929   7.913 -38.569  1.00  0.00     0.006 C 
BRANCH   5   6
ATOM      6  C   UNL     1      -7.201   8.280 -39.345  1.00  0.00     0.053 C 
BRANCH   6   7
ATOM      7  C   UNL     1      -8.091   9.143 -38.509  1.00  0.00     0.041 C 
ATOM      8  O   UNL     1      -8.958   8.621 -37.759  1.00  0.00    -0.550 OA
ATOM      9  O   UNL     1      -7.999  10.527 -38.594  1.00  0.00    -0.550 OA
ENDBRANCH   6   7
ENDBRANCH   5   6
ENDBRANCH   4   5
ENDBRANCH   3   4
ENDBRANCH   2   3
ENDBRANCH   1   2
BRANCH   1  10
ATOM     10  C   UNL     1      -0.990   8.775 -38.501  1.00  0.00     0.000 C 
BRANCH  10  11
ATOM     11  C   UNL     1      -0.981  10.305 -38.352  1.00  0.00    -0.000 C 
BRANCH  11  12
ATOM     12  C   UNL     1       0.444  10.879 -38.257  1.00  0.00    -0.000 C 
BRANCH  12  13
ATOM     13  C   UNL     1       0.486  12.263 -37.585  1.00  0.00    -0.000 C 
BRANCH  13  14
ATOM     14  C   UNL     1      -0.792  13.110 -37.746  1.00  0.00    -0.000 C 
BRANCH  14  15
ATOM     15  C   UNL     1      -1.511  13.458 -36.431  1.00  0.00    -0.003 C 
ATOM     16  C   UNL     1      -2.194  12.252 -35.788  1.00  0.00     0.004 C 
ENDBRANCH  14  15
ENDBRANCH  13  14
ENDBRANCH  12  13
ENDBRANCH  11  12
ENDBRANCH  10  11
ENDBRANCH   1  10
TORSDOF 12
ENDMDL
MODEL 5
REMARK VINA RESULT:    -5.275      4.235      8.479
REMARK INTER + INTRA:          -9.471
REMARK INTER:                  -9.075
REMARK INTRA:                  -0.396
REMARK UNBOUND:                -0.496
REMARK SMILES CCCCCCCCCCCCCC(=O)[O-]
REMARK SMILES IDX 8 1 9 2 10 3 11 4 12 5 13 6 14 7 15 8 16 9 7 10 6 11 5 12
REMARK SMILES IDX 4 13 3 14 2 15 1 16
REMARK H PARENT
REMARK Flexibility Score: inf
ROOT
ATOM      1  C   UNL     1      -1.913   8.431 -39.454  1.00  0.00     0.000 C 
ENDROOT
BRANCH   1   2
ATOM      2  C   UNL     1      -0.674   8.915 -38.678  1.00  0.00     0.000 C 
BRANCH   2   3
ATOM      3  C   UNL     1      -0.754  10.356 -38.145  1.00  0.00     0.000 C 
BRANCH   3   4
ATOM      4  C   UNL     1       0.610  11.069 -38.136  1.00  0.00     0.000 C 
BRANCH   4   5
ATOM      5  C   UNL     1       0.494  12.558 -37.773  1.00  0.00     0.006 C 
BRANCH   5   6
ATOM      6  C   UNL     1      -0.963  13.026 -37.652  1.00  0.00     0.053 C 
BRANCH   6   7
ATOM      7  C   UNL     1      -1.396  13.018 -36.221  1.00  0.00     0.041 C 
ATOM      8  O   UNL     1      -0.875  13.815 -35.396  1.00  0.00    -0.550 OA
ATOM      9  O   UNL     1      -2.339  12.096 -35.784  1.00  0.00    -0.550 OA
ENDBRANCH   6   7
ENDBRANCH   5   6
ENDBRANCH   4   5
ENDBRANCH   3   4
ENDBRANCH   2   3
ENDBRANCH   1   2
BRANCH   1  10
ATOM     10  C   UNL     1      -3.090   9.419 -39.379  1.00  0.00     0.000 C 
BRANCH  10  11
ATOM     11  C   UNL     1      -4.425   8.776 -39.791  1.00  0.00    -0.000 C 
BRANCH  11  12
ATOM     12  C   UNL     1      -5.466   8.808 -38.659  1.00  0.00    -0.000 C 
BRANCH  12  13
ATOM     13  C   UNL     1      -6.900   9.033 -39.173  1.00  0.00    -0.000 C 
BRANCH  13  14
ATOM     14  C   UNL     1      -7.773   7.766 -39.259  1.00  0.00    -0.000 C 
BRANCH  14  15
ATOM     15  C   UNL     1      -7.464   6.844 -40.453  1.00  0.00    -0.003 C 
ATOM     16  C   UNL     1      -7.943   5.409 -40.236  1.00  0.00     0.004 C 
ENDBRANCH  14  15
ENDBRANCH  13  14
ENDBRANCH  12  13
ENDBRANCH  11  12
ENDBRANCH  10  11
ENDBRANCH   1  10
TORSDOF 12
ENDMDL
MODEL 6
REMARK VINA RESULT:    -5.027      5.458      7.180
REMARK INTER + INTRA:          -9.049
REMARK INTER:                  -8.476
REMARK INTRA:                  -0.573
REMARK UNBOUND:                -0.496
REMARK SMILES CCCCCCCCCCCCCC(=O)[O-]
REMARK SMILES IDX 8 1 9 2 10 3 11 4 12 5 13 6 14 7 15 8 16 9 7 10 6 11 5 12
REMARK SMILES IDX 4 13 3 14 2 15 1 16
REMARK H PARENT
REMARK Flexibility Score: inf
ROOT
ATOM      1  C   UNL     1      -1.981   8.314 -39.345  1.00  0.00     0.000 C 
ENDROOT
BRANCH   1   2
ATOM      2  C   UNL     1      -0.865   8.200 -40.401  1.00  0.00     0.000 C 
BRANCH   2   3
ATOM      3  C   UNL     1      -0.475   6.763 -40.790  1.00  0.00     0.000 C 
BRANCH   3   4
ATOM      4  C   UNL     1       0.634   6.711 -41.856  1.00  0.00     0.000 C 
BRANCH   4   5
ATOM      5  C   UNL     1       1.670   5.610 -41.575  1.00  0.00     0.006 C 
BRANCH   5   6
ATOM      6  C   UNL     1       2.951   5.780 -42.403  1.00  0.00     0.053 C 
BRANCH   6   7
ATOM      7  C   UNL     1       4.123   5.206 -41.673  1.00  0.00     0.041 C 
ATOM      8  O   UNL     1       3.992   4.790 -40.491  1.00  0.00    -0.550 OA
ATOM      9  O   UNL     1       5.373   5.174 -42.279  1.00  0.00    -0.550 OA
ENDBRANCH   6   7
ENDBRANCH   5   6
ENDBRANCH   4   5
ENDBRANCH   3   4
ENDBRANCH   2   3
ENDBRANCH   1   2
BRANCH   1  10
ATOM     10  C   UNL     1      -1.909   9.620 -38.536  1.00  0.00     0.000 C 
BRANCH  10  11
ATOM     11  C   UNL     1      -0.550   9.808 -37.840  1.00  0.00    -0.000 C 
BRANCH  11  12
ATOM     12  C   UNL     1       0.319  10.876 -38.525  1.00  0.00    -0.000 C 
BRANCH  12  13
ATOM     13  C   UNL     1       0.507  12.136 -37.661  1.00  0.00    -0.000 C 
BRANCH  13  14
ATOM     14  C   UNL     1      -0.684  13.115 -37.662  1.00  0.00    -0.000 C 
BRANCH  14  15
ATOM     15  C   UNL     1      -1.354  13.325 -36.293  1.00  0.00    -0.003 C 
ATOM     16  C   UNL     1      -2.232  12.147 -35.873  1.00  0.00     0.004 C 
ENDBRANCH  14  15
ENDBRANCH  13  14
ENDBRANCH  12  13
ENDBRANCH  11  12
ENDBRANCH  10  11
ENDBRANCH   1  10
TORSDOF 12
ENDMDL
MODEL 7
REMARK VINA RESULT:    -4.879      5.213      8.354
REMARK INTER + INTRA:          -8.798
REMARK INTER:                  -8.203
REMARK INTRA:                  -0.596
REMARK UNBOUND:                -0.496
REMARK SMILES CCCCCCCCCCCCCC(=O)[O-]
REMARK SMILES IDX 8 1 9 2 10 3 11 4 12 5 13 6 14 7 15 8 16 9 7 10 6 11 5 12
REMARK SMILES IDX 4 13 3 14 2 15 1 16
REMARK H PARENT
REMARK Flexibility Score: inf
ROOT
ATOM      1  C   UNL     1      -1.903   8.500 -38.822  1.00  0.00     0.000 C 
ENDROOT
BRANCH   1   2
ATOM      2  C   UNL     1      -1.438   9.864 -38.280  1.00  0.00     0.000 C 
BRANCH   2   3
ATOM      3  C   UNL     1       0.083  10.013 -38.096  1.00  0.00     0.000 C 
BRANCH   3   4
ATOM      4  C   UNL     1       0.631  11.330 -38.673  1.00  0.00     0.000 C 
BRANCH   4   5
ATOM      5  C   UNL     1       0.577  12.485 -37.659  1.00  0.00     0.006 C 
BRANCH   5   6
ATOM      6  C   UNL     1      -0.810  13.139 -37.581  1.00  0.00     0.053 C 
BRANCH   6   7
ATOM      7  C   UNL     1      -1.356  13.039 -36.193  1.00  0.00     0.041 C 
ATOM      8  O   UNL     1      -0.976  13.845 -35.303  1.00  0.00    -0.550 OA
ATOM      9  O   UNL     1      -2.248  12.025 -35.867  1.00  0.00    -0.550 OA
ENDBRANCH   6   7
ENDBRANCH   5   6
ENDBRANCH   4   5
ENDBRANCH   3   4
ENDBRANCH   2   3
ENDBRANCH   1   2
BRANCH   1  10
ATOM     10  C   UNL     1      -1.565   8.299 -40.308  1.00  0.00     0.000 C 
BRANCH  10  11
ATOM     11  C   UNL     1      -0.561   7.156 -40.534  1.00  0.00    -0.000 C 
BRANCH  11  12
ATOM     12  C   UNL     1       0.489   7.498 -41.605  1.00  0.00    -0.000 C 
BRANCH  12  13
ATOM     13  C   UNL     1       0.701   6.358 -42.618  1.00  0.00    -0.000 C 
BRANCH  13  14
ATOM     14  C   UNL     1       2.149   5.838 -42.725  1.00  0.00    -0.000 C 
BRANCH  14  15
ATOM     15  C   UNL     1       2.712   5.210 -41.438  1.00  0.00    -0.003 C 
ATOM     16  C   UNL     1       4.239   5.179 -41.409  1.00  0.00     0.004 C 
ENDBRANCH  14  15
ENDBRANCH  13  14
ENDBRANCH  12  13
ENDBRANCH  11  12
ENDBRANCH  10  11
ENDBRANCH   1  10
TORSDOF 12
ENDMDL
MODEL 8
REMARK VINA RESULT:    -4.588      3.478      7.495
REMARK INTER + INTRA:          -8.304
REMARK INTER:                  -7.612
REMARK INTRA:                  -0.692
REMARK UNBOUND:                -0.496
REMARK SMILES CCCCCCCCCCCCCC(=O)[O-]
REMARK SMILES IDX 8 1 9 2 10 3 11 4 12 5 13 6 14 7 15 8 16 9 7 10 6 11 5 12
REMARK SMILES IDX 4 13 3 14 2 15 1 16
REMARK H PARENT
REMARK Flexibility Score: inf
ROOT
ATOM      1  C   UNL     1      -3.592   9.008 -38.566  1.00  0.00     0.000 C 
ENDROOT
BRANCH   1   2
ATOM      2  C   UNL     1      -2.363   9.835 -38.147  1.00  0.00     0.000 C 
BRANCH   2   3
ATOM      3  C   UNL     1      -1.070   9.530 -38.925  1.00  0.00     0.000 C 
BRANCH   3   4
ATOM      4  C   UNL     1      -0.715   8.033 -38.933  1.00  0.00     0.000 C 
BRANCH   4   5
ATOM      5  C   UNL     1      -1.034   7.359 -40.277  1.00  0.00     0.006 C 
BRANCH   5   6
ATOM      6  C   UNL     1       0.164   7.357 -41.237  1.00  0.00     0.053 C 
BRANCH   6   7
ATOM      7  C   UNL     1       0.700   5.971 -41.400  1.00  0.00     0.041 C 
ATOM      8  O   UNL     1      -0.014   4.976 -41.101  1.00  0.00    -0.550 OA
ATOM      9  O   UNL     1       2.005   5.775 -41.834  1.00  0.00    -0.550 OA
ENDBRANCH   6   7
ENDBRANCH   5   6
ENDBRANCH   4   5
ENDBRANCH   3   4
ENDBRANCH   2   3
ENDBRANCH   1   2
BRANCH   1  10
ATOM     10  C   UNL     1      -4.175   9.444 -39.921  1.00  0.00     0.000 C 
BRANCH  10  11
ATOM     11  C   UNL     1      -5.702   9.615 -39.877  1.00  0.00    -0.000 C 
BRANCH  11  12
ATOM     12  C   UNL     1      -6.363   8.732 -38.804  1.00  0.00    -0.000 C 
BRANCH  12  13
ATOM     13  C   UNL     1      -6.666   7.309 -39.306  1.00  0.00    -0.000 C 
BRANCH  13  14
ATOM     14  C   UNL     1      -7.404   7.233 -40.657  1.00  0.00    -0.000 C 
BRANCH  14  15
ATOM     15  C   UNL     1      -7.663   5.808 -41.178  1.00  0.00    -0.003 C 
ATOM     16  C   UNL     1      -8.315   4.902 -40.136  1.00  0.00     0.004 C 
ENDBRANCH  14  15
ENDBRANCH  13  14
ENDBRANCH  12  13
ENDBRANCH  11  12
ENDBRANCH  10  11
ENDBRANCH   1  10
TORSDOF 12
ENDMDL
MODEL 9
REMARK VINA RESULT:    -4.405      4.707      8.054
REMARK INTER + INTRA:          -7.992
REMARK INTER:                  -7.483
REMARK INTRA:                  -0.509
REMARK UNBOUND:                -0.496
REMARK SMILES CCCCCCCCCCCCCC(=O)[O-]
REMARK SMILES IDX 8 1 9 2 10 3 11 4 12 5 13 6 14 7 15 8 16 9 7 10 6 11 5 12
REMARK SMILES IDX 4 13 3 14 2 15 1 16
REMARK H PARENT
REMARK Flexibility Score: inf
ROOT
ATOM      1  C   UNL     1      -0.959   9.003 -38.623  1.00  0.00     0.000 C 
ENDROOT
BRANCH   1   2
ATOM      2  C   UNL     1      -0.894   8.786 -40.146  1.00  0.00     0.000 C 
BRANCH   2   3
ATOM      3  C   UNL     1      -0.370   7.408 -40.591  1.00  0.00     0.000 C 
BRANCH   3   4
ATOM      4  C   UNL     1       0.207   7.418 -42.017  1.00  0.00     0.000 C 
BRANCH   4   5
ATOM      5  C   UNL     1       0.658   6.023 -42.480  1.00  0.00     0.006 C 
BRANCH   5   6
ATOM      6  C   UNL     1       2.170   5.945 -42.737  1.00  0.00     0.053 C 
BRANCH   6   7
ATOM      7  C   UNL     1       2.861   5.285 -41.587  1.00  0.00     0.041 C 
ATOM      8  O   UNL     1       2.190   4.701 -40.695  1.00  0.00    -0.550 OA
ATOM      9  O   UNL     1       4.244   5.356 -41.472  1.00  0.00    -0.550 OA
ENDBRANCH   6   7
ENDBRANCH   5   6
ENDBRANCH   4   5
ENDBRANCH   3   4
ENDBRANCH   2   3
ENDBRANCH   1   2
BRANCH   1  10
ATOM     10  C   UNL     1      -2.379   9.319 -38.123  1.00  0.00     0.000 C 
BRANCH  10  11
ATOM     11  C   UNL     1      -3.459   8.977 -39.163  1.00  0.00    -0.000 C 
BRANCH  11  12
ATOM     12  C   UNL     1      -4.873   8.953 -38.557  1.00  0.00    -0.000 C 
BRANCH  12  13
ATOM     13  C   UNL     1      -5.979   8.877 -39.625  1.00  0.00    -0.000 C 
BRANCH  13  14
ATOM     14  C   UNL     1      -7.057   7.803 -39.376  1.00  0.00    -0.000 C 
BRANCH  14  15
ATOM     15  C   UNL     1      -7.447   6.974 -40.613  1.00  0.00    -0.003 C 
ATOM     16  C   UNL     1      -7.868   5.547 -40.265  1.00  0.00     0.004 C 
ENDBRANCH  14  15
ENDBRANCH  13  14
ENDBRANCH  12  13
ENDBRANCH  11  12
ENDBRANCH  10  11
ENDBRANCH   1  10
TORSDOF 12
ENDMDL
