MODEL 1
REMARK VINA RESULT:    -4.097      0.000      0.000
REMARK INTER + INTRA:          -4.872
REMARK INTER:                  -4.815
REMARK INTRA:                  -0.056
REMARK UNBOUND:                -0.056
REMARK SMILES O=C([O-])CCC(=O)[O-]
REMARK SMILES IDX 4 1 2 2 1 3 3 4 5 5 6 6 7 7 8 8
REMARK H PARENT
REMARK Flexibility Score: inf
ROOT
ATOM      1  C   UNL     1      18.849 -27.588   1.329  1.00  0.00     0.059 C 
ENDROOT
BRANCH   1   2
ATOM      2  C   UNL     1      19.331 -26.871   2.550  1.00  0.00     0.042 C 
ATOM      3  O   UNL     1      18.519 -26.544   3.456  1.00  0.00    -0.550 OA
ATOM      4  O   UNL     1      20.670 -26.518   2.666  1.00  0.00    -0.550 OA
ENDBRANCH   1   2
BRANCH   1   5
ATOM      5  C   UNL     1      18.687 -26.611   0.164  1.00  0.00     0.059 C 
BRANCH   5   6
ATOM      6  C   UNL     1      17.290 -26.657  -0.367  1.00  0.00     0.042 C 
ATOM      7  O   UNL     1      16.930 -27.596  -1.125  1.00  0.00    -0.550 OA
ATOM      8  O   UNL     1      16.370 -25.688   0.014  1.00  0.00    -0.550 OA
ENDBRANCH   5   6
ENDBRANCH   1   5
TORSDOF 3
ENDMDL
MODEL 2
REMARK VINA RESULT:    -3.970      0.175      3.972
REMARK INTER + INTRA:          -4.723
REMARK INTER:                  -4.658
REMARK INTRA:                  -0.065
REMARK UNBOUND:                -0.056
REMARK SMILES O=C([O-])CCC(=O)[O-]
REMARK SMILES IDX 4 1 2 2 1 3 3 4 5 5 6 6 7 7 8 8
REMARK H PARENT
REMARK Flexibility Score: inf
ROOT
ATOM      1  C   UNL     1      18.610 -26.481   0.059  1.00  0.00     0.059 C 
ENDROOT
BRANCH   1   2
ATOM      2  C   UNL     1      17.190 -26.651  -0.378  1.00  0.00     0.042 C 
ATOM      3  O   UNL     1      16.867 -27.612  -1.125  1.00  0.00    -0.550 OA
ATOM      4  O   UNL     1      16.230 -25.719  -0.001  1.00  0.00    -0.550 OA
ENDBRANCH   1   2
BRANCH   1   5
ATOM      5  C   UNL     1      18.979 -27.533   1.104  1.00  0.00     0.059 C 
BRANCH   5   6
ATOM      6  C   UNL     1      19.329 -26.880   2.403  1.00  0.00     0.042 C 
ATOM      7  O   UNL     1      20.506 -26.487   2.619  1.00  0.00    -0.550 OA
ATOM      8  O   UNL     1      18.344 -26.660   3.359  1.00  0.00    -0.550 OA
ENDBRANCH   5   6
ENDBRANCH   1   5
TORSDOF 3
ENDMDL
MODEL 3
REMARK VINA RESULT:    -3.775     12.405     13.177
REMARK INTER + INTRA:          -4.493
REMARK INTER:                  -4.386
REMARK INTRA:                  -0.108
REMARK UNBOUND:                -0.056
REMARK SMILES O=C([O-])CCC(=O)[O-]
REMARK SMILES IDX 4 1 2 2 1 3 3 4 5 5 6 6 7 7 8 8
REMARK H PARENT
REMARK Flexibility Score: inf
ROOT
ATOM      1  C   UNL     1      30.234 -19.346   2.820  1.00  0.00     0.059 C 
ENDROOT
BRANCH   1   2
ATOM      2  C   UNL     1      30.360 -20.519   3.739  1.00  0.00     0.042 C 
ATOM      3  O   UNL     1      29.782 -20.513   4.858  1.00  0.00    -0.550 OA
ATOM      4  O   UNL     1      31.157 -21.600   3.382  1.00  0.00    -0.550 OA
ENDBRANCH   1   2
BRANCH   1   5
ATOM      5  C   UNL     1      29.289 -19.672   1.662  1.00  0.00     0.059 C 
BRANCH   5   6
ATOM      6  C   UNL     1      28.016 -18.898   1.791  1.00  0.00     0.042 C 
ATOM      7  O   UNL     1      27.300 -19.022   2.820  1.00  0.00    -0.550 OA
ATOM      8  O   UNL     1      27.644 -18.002   0.797  1.00  0.00    -0.550 OA
ENDBRANCH   5   6
ENDBRANCH   1   5
TORSDOF 3
ENDMDL
MODEL 4
REMARK VINA RESULT:    -3.753     12.360     13.630
REMARK INTER + INTRA:          -4.468
REMARK INTER:                  -4.355
REMARK INTRA:                  -0.113
REMARK UNBOUND:                -0.056
REMARK SMILES O=C([O-])CCC(=O)[O-]
REMARK SMILES IDX 4 1 2 2 1 3 3 4 5 5 6 6 7 7 8 8
REMARK H PARENT
REMARK Flexibility Score: inf
ROOT
ATOM      1  C   UNL     1      29.291 -19.708   1.661  1.00  0.00     0.059 C 
ENDROOT
BRANCH   1   2
ATOM      2  C   UNL     1      28.015 -18.936   1.772  1.00  0.00     0.042 C 
ATOM      3  O   UNL     1      27.672 -18.143   0.856  1.00  0.00    -0.550 OA
ATOM      4  O   UNL     1      27.227 -19.055   2.910  1.00  0.00    -0.550 OA
ENDBRANCH   1   2
BRANCH   1   5
ATOM      5  C   UNL     1      30.235 -19.350   2.809  1.00  0.00     0.059 C 
BRANCH   5   6
ATOM      6  C   UNL     1      30.374 -20.503   3.752  1.00  0.00     0.042 C 
ATOM      7  O   UNL     1      29.774 -20.492   4.859  1.00  0.00    -0.550 OA
ATOM      8  O   UNL     1      31.127 -21.612   3.387  1.00  0.00    -0.550 OA
ENDBRANCH   5   6
ENDBRANCH   1   5
TORSDOF 3
ENDMDL
MODEL 5
REMARK VINA RESULT:    -3.622     12.507     13.333
REMARK INTER + INTRA:          -4.313
REMARK INTER:                  -4.282
REMARK INTRA:                  -0.031
REMARK UNBOUND:                -0.056
REMARK SMILES O=C([O-])CCC(=O)[O-]
REMARK SMILES IDX 4 1 2 2 1 3 3 4 5 5 6 6 7 7 8 8
REMARK H PARENT
REMARK Flexibility Score: inf
ROOT
ATOM      1  C   UNL     1      30.877 -21.181   2.908  1.00  0.00     0.059 C 
ENDROOT
BRANCH   1   2
ATOM      2  C   UNL     1      29.943 -20.324   3.701  1.00  0.00     0.042 C 
ATOM      3  O   UNL     1      29.394 -19.323   3.169  1.00  0.00    -0.550 OA
ATOM      4  O   UNL     1      29.717 -20.601   5.044  1.00  0.00    -0.550 OA
ENDBRANCH   1   2
BRANCH   1   5
ATOM      5  C   UNL     1      30.180 -21.716   1.656  1.00  0.00     0.059 C 
BRANCH   5   6
ATOM      6  C   UNL     1      30.669 -23.092   1.332  1.00  0.00     0.042 C 
ATOM      7  O   UNL     1      31.890 -23.377   1.456  1.00  0.00    -0.550 OA
ATOM      8  O   UNL     1      29.769 -24.075   0.941  1.00  0.00    -0.550 OA
ENDBRANCH   5   6
ENDBRANCH   1   5
TORSDOF 3
ENDMDL
MODEL 6
REMARK VINA RESULT:    -3.428     12.732     13.633
REMARK INTER + INTRA:          -4.085
REMARK INTER:                  -4.047
REMARK INTRA:                  -0.038
REMARK UNBOUND:                -0.056
REMARK SMILES O=C([O-])CCC(=O)[O-]
REMARK SMILES IDX 4 1 2 2 1 3 3 4 5 5 6 6 7 7 8 8
REMARK H PARENT
REMARK Flexibility Score: inf
ROOT
ATOM      1  C   UNL     1      31.097 -22.192   2.522  1.00  0.00     0.059 C 
ENDROOT
BRANCH   1   2
ATOM      2  C   UNL     1      31.061 -23.282   1.498  1.00  0.00     0.042 C 
ATOM      3  O   UNL     1      32.125 -23.665   0.943  1.00  0.00    -0.550 OA
ATOM      4  O   UNL     1      29.847 -23.841   1.120  1.00  0.00    -0.550 OA
ENDBRANCH   1   2
BRANCH   1   5
ATOM      5  C   UNL     1      30.206 -21.025   2.094  1.00  0.00     0.059 C 
BRANCH   5   6
ATOM      6  C   UNL     1      29.872 -20.163   3.269  1.00  0.00     0.042 C 
ATOM      7  O   UNL     1      29.321 -19.043   3.098  1.00  0.00    -0.550 OA
ATOM      8  O   UNL     1      30.122 -20.617   4.558  1.00  0.00    -0.550 OA
ENDBRANCH   5   6
ENDBRANCH   1   5
TORSDOF 3
ENDMDL
MODEL 7
REMARK VINA RESULT:    -3.358     10.715     11.454
REMARK INTER + INTRA:          -4.003
REMARK INTER:                  -3.962
REMARK INTRA:                  -0.041
REMARK UNBOUND:                -0.056
REMARK SMILES O=C([O-])CCC(=O)[O-]
REMARK SMILES IDX 4 1 2 2 1 3 3 4 5 5 6 6 7 7 8 8
REMARK H PARENT
REMARK Flexibility Score: inf
ROOT
ATOM      1  C   UNL     1      15.273 -37.723   2.466  1.00  0.00     0.059 C 
ENDROOT
BRANCH   1   2
ATOM      2  C   UNL     1      15.027 -37.701   3.940  1.00  0.00     0.042 C 
ATOM      3  O   UNL     1      15.996 -37.675   4.745  1.00  0.00    -0.550 OA
ATOM      4  O   UNL     1      13.728 -37.761   4.429  1.00  0.00    -0.550 OA
ENDBRANCH   1   2
BRANCH   1   5
ATOM      5  C   UNL     1      16.773 -37.689   2.172  1.00  0.00     0.059 C 
BRANCH   5   6
ATOM      6  C   UNL     1      17.018 -37.412   0.723  1.00  0.00     0.042 C 
ATOM      7  O   UNL     1      16.291 -36.591   0.103  1.00  0.00    -0.550 OA
ATOM      8  O   UNL     1      18.080 -38.023   0.068  1.00  0.00    -0.550 OA
ENDBRANCH   5   6
ENDBRANCH   1   5
TORSDOF 3
ENDMDL
MODEL 8
REMARK VINA RESULT:    -3.332     10.704     11.625
REMARK INTER + INTRA:          -3.973
REMARK INTER:                  -3.929
REMARK INTRA:                  -0.044
REMARK UNBOUND:                -0.056
REMARK SMILES O=C([O-])CCC(=O)[O-]
REMARK SMILES IDX 4 1 2 2 1 3 3 4 5 5 6 6 7 7 8 8
REMARK H PARENT
REMARK Flexibility Score: inf
ROOT
ATOM      1  C   UNL     1      16.754 -37.751   2.246  1.00  0.00     0.059 C 
ENDROOT
BRANCH   1   2
ATOM      2  C   UNL     1      17.034 -37.329   0.839  1.00  0.00     0.042 C 
ATOM      3  O   UNL     1      16.368 -36.399   0.311  1.00  0.00    -0.550 OA
ATOM      4  O   UNL     1      17.997 -37.995   0.092  1.00  0.00    -0.550 OA
ENDBRANCH   1   2
BRANCH   1   5
ATOM      5  C   UNL     1      15.250 -37.737   2.520  1.00  0.00     0.059 C 
BRANCH   5   6
ATOM      6  C   UNL     1      14.985 -37.727   3.992  1.00  0.00     0.042 C 
ATOM      7  O   UNL     1      15.942 -37.657   4.808  1.00  0.00    -0.550 OA
ATOM      8  O   UNL     1      13.678 -37.746   4.464  1.00  0.00    -0.550 OA
ENDBRANCH   5   6
ENDBRANCH   1   5
TORSDOF 3
ENDMDL
MODEL 9
REMARK VINA RESULT:    -3.268     12.450     13.583
REMARK INTER + INTRA:          -3.897
REMARK INTER:                  -3.827
REMARK INTRA:                  -0.070
REMARK UNBOUND:                -0.056
REMARK SMILES O=C([O-])CCC(=O)[O-]
REMARK SMILES IDX 4 1 2 2 1 3 3 4 5 5 6 6 7 7 8 8
REMARK H PARENT
REMARK Flexibility Score: inf
ROOT
ATOM      1  C   UNL     1      29.107 -20.713   1.710  1.00  0.00     0.059 C 
ENDROOT
BRANCH   1   2
ATOM      2  C   UNL     1      28.812 -19.592   2.654  1.00  0.00     0.042 C 
ATOM      3  O   UNL     1      27.680 -19.038   2.647  1.00  0.00    -0.550 OA
ATOM      4  O   UNL     1      29.802 -19.124   3.509  1.00  0.00    -0.550 OA
ENDBRANCH   1   2
BRANCH   1   5
ATOM      5  C   UNL     1      30.610 -20.814   1.451  1.00  0.00     0.059 C 
BRANCH   5   6
ATOM      6  C   UNL     1      31.207 -21.925   2.254  1.00  0.00     0.042 C 
ATOM      7  O   UNL     1      30.932 -23.123   1.982  1.00  0.00    -0.550 OA
ATOM      8  O   UNL     1      32.108 -21.640   3.273  1.00  0.00    -0.550 OA
ENDBRANCH   5   6
ENDBRANCH   1   5
TORSDOF 3
ENDMDL
