MODEL 1
REMARK VINA RESULT:    -6.520      0.000      0.000
REMARK INTER + INTRA:          -7.981
REMARK INTER:                  -7.663
REMARK INTRA:                  -0.318
REMARK UNBOUND:                -0.318
REMARK SMILES O=c1c(O)c(-c2ccc(O)c(O)c2)oc2cc(O)ccc12
REMARK SMILES IDX 5 1 3 2 2 3 1 4 21 5 15 6 14 7 16 8 17 9 19 10 20 11 6 12
REMARK SMILES IDX 7 13 8 14 9 15 13 16 11 17 10 18 12 20 4 22 18 24
REMARK H PARENT 10 19 12 21 4 23 18 25
REMARK Flexibility Score: inf
ROOT
ATOM      1  C   UNL     1      -6.374  53.473  31.368  1.00  0.00     0.180 A 
ATOM      2  C   UNL     1      -7.573  53.446  30.626  1.00  0.00     0.208 A 
ATOM      3  C   UNL     1      -8.626  54.292  31.009  1.00  0.00     0.235 A 
ATOM      4  O   UNL     1      -9.712  54.278  30.367  1.00  0.00    -0.285 OA
ATOM      5  C   UNL     1      -8.455  55.154  32.103  1.00  0.00     0.069 A 
ATOM      6  C   UNL     1      -7.216  55.139  32.780  1.00  0.00     0.142 A 
ATOM      7  O   UNL     1      -6.249  54.317  32.391  1.00  0.00    -0.452 OA
ATOM      8  C   UNL     1      -7.004  55.990  33.869  1.00  0.00     0.094 A 
ATOM      9  C   UNL     1      -8.015  56.859  34.294  1.00  0.00     0.119 A 
ATOM     10  C   UNL     1      -9.246  56.876  33.626  1.00  0.00     0.047 A 
ATOM     11  C   UNL     1      -9.468  56.030  32.535  1.00  0.00     0.020 A 
ENDROOT
BRANCH   1  12
ATOM     12  C   UNL     1      -5.225  52.599  31.039  1.00  0.00     0.025 A 
ATOM     13  C   UNL     1      -4.231  53.010  30.137  1.00  0.00     0.016 A 
ATOM     14  C   UNL     1      -3.170  52.158  29.823  1.00  0.00     0.051 A 
ATOM     15  C   UNL     1      -3.086  50.882  30.390  1.00  0.00     0.157 A 
ATOM     16  C   UNL     1      -5.157  51.312  31.591  1.00  0.00     0.062 A 
ATOM     17  C   UNL     1      -4.095  50.451  31.283  1.00  0.00     0.158 A 
BRANCH  15  18
ATOM     18  O   UNL     1      -1.996  50.081  30.039  1.00  0.00    -0.504 OA
ATOM     19  H   UNL     1      -1.090  50.138  30.479  1.00  0.00     0.293 HD
ENDBRANCH  15  18
BRANCH  17  20
ATOM     20  O   UNL     1      -4.085  49.189  31.881  1.00  0.00    -0.504 OA
ATOM     21  H   UNL     1      -4.404  48.346  31.424  1.00  0.00     0.293 HD
ENDBRANCH  17  20
ENDBRANCH   1  12
BRANCH   2  22
ATOM     22  O   UNL     1      -7.698  52.613  29.511  1.00  0.00    -0.502 OA
ATOM     23  H   UNL     1      -7.168  52.761  28.662  1.00  0.00     0.293 HD
ENDBRANCH   2  22
BRANCH   9  24
ATOM     24  O   UNL     1      -7.785  57.700  35.382  1.00  0.00    -0.508 OA
ATOM     25  H   UNL     1      -7.371  57.354  36.240  1.00  0.00     0.293 HD
ENDBRANCH   9  24
TORSDOF 5
ENDMDL
MODEL 2
REMARK VINA RESULT:    -6.417      2.498      4.296
REMARK INTER + INTRA:          -7.860
REMARK INTER:                  -7.547
REMARK INTRA:                  -0.313
REMARK UNBOUND:                -0.318
REMARK SMILES O=c1c(O)c(-c2ccc(O)c(O)c2)oc2cc(O)ccc12
REMARK SMILES IDX 5 1 3 2 2 3 1 4 21 5 15 6 14 7 16 8 17 9 19 10 20 11 6 12
REMARK SMILES IDX 7 13 8 14 9 15 13 16 11 17 10 18 12 20 4 22 18 24
REMARK H PARENT 10 19 12 21 4 23 18 25
REMARK Flexibility Score: inf
ROOT
ATOM      1  C   UNL     1      -7.901  53.120  30.568  1.00  0.00     0.180 A 
ATOM      2  C   UNL     1      -6.769  52.892  31.378  1.00  0.00     0.208 A 
ATOM      3  C   UNL     1      -6.557  53.716  32.494  1.00  0.00     0.235 A 
ATOM      4  O   UNL     1      -5.547  53.538  33.227  1.00  0.00    -0.285 OA
ATOM      5  C   UNL     1      -7.482  54.731  32.787  1.00  0.00     0.069 A 
ATOM      6  C   UNL     1      -8.602  54.880  31.941  1.00  0.00     0.142 A 
ATOM      7  O   UNL     1      -8.761  54.084  30.890  1.00  0.00    -0.452 OA
ATOM      8  C   UNL     1      -9.552  55.873  32.206  1.00  0.00     0.094 A 
ATOM      9  C   UNL     1      -9.397  56.722  33.307  1.00  0.00     0.119 A 
ATOM     10  C   UNL     1      -8.286  56.578  34.149  1.00  0.00     0.047 A 
ATOM     11  C   UNL     1      -7.332  55.588  33.893  1.00  0.00     0.020 A 
ENDROOT
BRANCH   1  12
ATOM     12  C   UNL     1      -8.184  52.306  29.364  1.00  0.00     0.025 A 
ATOM     13  C   UNL     1      -8.877  51.088  29.453  1.00  0.00     0.016 A 
ATOM     14  C   UNL     1      -9.110  50.326  28.306  1.00  0.00     0.051 A 
ATOM     15  C   UNL     1      -8.649  50.753  27.057  1.00  0.00     0.157 A 
ATOM     16  C   UNL     1      -7.700  52.726  28.117  1.00  0.00     0.062 A 
ATOM     17  C   UNL     1      -7.930  51.968  26.961  1.00  0.00     0.158 A 
BRANCH  15  18
ATOM     18  O   UNL     1      -8.920  49.947  25.949  1.00  0.00    -0.504 OA
ATOM     19  H   UNL     1      -8.852  48.940  25.954  1.00  0.00     0.293 HD
ENDBRANCH  15  18
BRANCH  17  20
ATOM     20  O   UNL     1      -7.430  52.456  25.751  1.00  0.00    -0.504 OA
ATOM     21  H   UNL     1      -7.021  53.372  25.639  1.00  0.00     0.293 HD
ENDBRANCH  17  20
ENDBRANCH   1  12
BRANCH   2  22
ATOM     22  O   UNL     1      -5.892  51.843  31.090  1.00  0.00    -0.502 OA
ATOM     23  H   UNL     1      -5.561  51.655  30.152  1.00  0.00     0.293 HD
ENDBRANCH   2  22
BRANCH   9  24
ATOM     24  O   UNL     1     -10.352  57.706  33.555  1.00  0.00    -0.508 OA
ATOM     25  H   UNL     1     -10.117  58.692  33.523  1.00  0.00     0.293 HD
ENDBRANCH   9  24
TORSDOF 5
ENDMDL
MODEL 3
REMARK VINA RESULT:    -6.373      1.689      6.754
REMARK INTER + INTRA:          -7.809
REMARK INTER:                  -7.610
REMARK INTRA:                  -0.198
REMARK UNBOUND:                -0.318
REMARK SMILES O=c1c(O)c(-c2ccc(O)c(O)c2)oc2cc(O)ccc12
REMARK SMILES IDX 5 1 3 2 2 3 1 4 21 5 15 6 14 7 16 8 17 9 19 10 20 11 6 12
REMARK SMILES IDX 7 13 8 14 9 15 13 16 11 17 10 18 12 20 4 22 18 24
REMARK H PARENT 10 19 12 21 4 23 18 25
REMARK Flexibility Score: inf
ROOT
ATOM      1  C   UNL     1      -6.077  53.308  32.067  1.00  0.00     0.180 A 
ATOM      2  C   UNL     1      -5.360  53.401  30.856  1.00  0.00     0.208 A 
ATOM      3  C   UNL     1      -4.384  52.433  30.571  1.00  0.00     0.235 A 
ATOM      4  O   UNL     1      -3.722  52.500  29.499  1.00  0.00    -0.285 OA
ATOM      5  C   UNL     1      -4.159  51.390  31.484  1.00  0.00     0.069 A 
ATOM      6  C   UNL     1      -4.934  51.355  32.663  1.00  0.00     0.142 A 
ATOM      7  O   UNL     1      -5.842  52.295  32.899  1.00  0.00    -0.452 OA
ATOM      8  C   UNL     1      -4.748  50.326  33.593  1.00  0.00     0.094 A 
ATOM      9  C   UNL     1      -3.792  49.331  33.361  1.00  0.00     0.119 A 
ATOM     10  C   UNL     1      -3.020  49.363  32.192  1.00  0.00     0.047 A 
ATOM     11  C   UNL     1      -3.200  50.387  31.256  1.00  0.00     0.020 A 
ENDROOT
BRANCH   1  12
ATOM     12  C   UNL     1      -7.108  54.300  32.448  1.00  0.00     0.025 A 
ATOM     13  C   UNL     1      -8.321  54.397  31.747  1.00  0.00     0.016 A 
ATOM     14  C   UNL     1      -9.268  55.357  32.110  1.00  0.00     0.051 A 
ATOM     15  C   UNL     1      -9.022  56.243  33.164  1.00  0.00     0.157 A 
ATOM     16  C   UNL     1      -6.849  55.201  33.491  1.00  0.00     0.062 A 
ATOM     17  C   UNL     1      -7.794  56.166  33.862  1.00  0.00     0.158 A 
BRANCH  15  18
ATOM     18  O   UNL     1     -10.013  57.175  33.480  1.00  0.00    -0.504 OA
ATOM     19  H   UNL     1     -10.455  57.779  32.802  1.00  0.00     0.293 HD
ENDBRANCH  15  18
BRANCH  17  20
ATOM     20  O   UNL     1      -7.471  57.021  34.919  1.00  0.00    -0.504 OA
ATOM     21  H   UNL     1      -7.195  56.704  35.837  1.00  0.00     0.293 HD
ENDBRANCH  17  20
ENDBRANCH   1  12
BRANCH   2  22
ATOM     22  O   UNL     1      -5.639  54.422  29.943  1.00  0.00    -0.502 OA
ATOM     23  H   UNL     1      -4.962  55.134  29.703  1.00  0.00     0.293 HD
ENDBRANCH   2  22
BRANCH   9  24
ATOM     24  O   UNL     1      -3.619  48.314  34.298  1.00  0.00    -0.508 OA
ATOM     25  H   UNL     1      -4.388  47.714  34.576  1.00  0.00     0.293 HD
ENDBRANCH   9  24
TORSDOF 5
ENDMDL
MODEL 4
REMARK VINA RESULT:    -6.234      2.659      3.743
REMARK INTER + INTRA:          -7.646
REMARK INTER:                  -7.349
REMARK INTRA:                  -0.296
REMARK UNBOUND:                -0.318
REMARK SMILES O=c1c(O)c(-c2ccc(O)c(O)c2)oc2cc(O)ccc12
REMARK SMILES IDX 5 1 3 2 2 3 1 4 21 5 15 6 14 7 16 8 17 9 19 10 20 11 6 12
REMARK SMILES IDX 7 13 8 14 9 15 13 16 11 17 10 18 12 20 4 22 18 24
REMARK H PARENT 10 19 12 21 4 23 18 25
REMARK Flexibility Score: inf
ROOT
ATOM      1  C   UNL     1      -6.332  53.237  30.332  1.00  0.00     0.180 A 
ATOM      2  C   UNL     1      -5.141  53.690  30.935  1.00  0.00     0.208 A 
ATOM      3  C   UNL     1      -5.218  54.686  31.922  1.00  0.00     0.235 A 
ATOM      4  O   UNL     1      -4.166  55.115  32.469  1.00  0.00    -0.285 OA
ATOM      5  C   UNL     1      -6.473  55.190  32.297  1.00  0.00     0.069 A 
ATOM      6  C   UNL     1      -7.621  54.667  31.662  1.00  0.00     0.142 A 
ATOM      7  O   UNL     1      -7.504  53.732  30.727  1.00  0.00    -0.452 OA
ATOM      8  C   UNL     1      -8.891  55.136  32.016  1.00  0.00     0.094 A 
ATOM      9  C   UNL     1      -9.031  56.125  32.996  1.00  0.00     0.119 A 
ATOM     10  C   UNL     1      -7.894  56.647  33.628  1.00  0.00     0.047 A 
ATOM     11  C   UNL     1      -6.620  56.184  33.282  1.00  0.00     0.020 A 
ENDROOT
BRANCH   1  12
ATOM     12  C   UNL     1      -6.333  52.204  29.271  1.00  0.00     0.025 A 
ATOM     13  C   UNL     1      -6.245  50.838  29.583  1.00  0.00     0.016 A 
ATOM     14  C   UNL     1      -6.222  49.884  28.564  1.00  0.00     0.051 A 
ATOM     15  C   UNL     1      -6.274  50.270  27.220  1.00  0.00     0.157 A 
ATOM     16  C   UNL     1      -6.362  52.596  27.925  1.00  0.00     0.062 A 
ATOM     17  C   UNL     1      -6.342  51.645  26.896  1.00  0.00     0.158 A 
BRANCH  15  18
ATOM     18  O   UNL     1      -6.254  49.266  26.250  1.00  0.00    -0.504 OA
ATOM     19  H   UNL     1      -5.416  48.948  25.784  1.00  0.00     0.293 HD
ENDBRANCH  15  18
BRANCH  17  20
ATOM     20  O   UNL     1      -6.387  52.109  25.579  1.00  0.00    -0.504 OA
ATOM     21  H   UNL     1      -5.597  52.511  25.096  1.00  0.00     0.293 HD
ENDBRANCH  17  20
ENDBRANCH   1  12
BRANCH   2  22
ATOM     22  O   UNL     1      -3.910  53.136  30.577  1.00  0.00    -0.502 OA
ATOM     23  H   UNL     1      -3.036  53.630  30.701  1.00  0.00     0.293 HD
ENDBRANCH   2  22
BRANCH   9  24
ATOM     24  O   UNL     1     -10.303  56.580  33.335  1.00  0.00    -0.508 OA
ATOM     25  H   UNL     1     -10.956  55.996  33.844  1.00  0.00     0.293 HD
ENDBRANCH   9  24
TORSDOF 5
ENDMDL
MODEL 5
REMARK VINA RESULT:    -6.097      3.124      7.505
REMARK INTER + INTRA:          -7.485
REMARK INTER:                  -7.168
REMARK INTRA:                  -0.316
REMARK UNBOUND:                -0.318
REMARK SMILES O=c1c(O)c(-c2ccc(O)c(O)c2)oc2cc(O)ccc12
REMARK SMILES IDX 5 1 3 2 2 3 1 4 21 5 15 6 14 7 16 8 17 9 19 10 20 11 6 12
REMARK SMILES IDX 7 13 8 14 9 15 13 16 11 17 10 18 12 20 4 22 18 24
REMARK H PARENT 10 19 12 21 4 23 18 25
REMARK Flexibility Score: inf
ROOT
ATOM      1  C   UNL     1      -5.126  52.241  28.737  1.00  0.00     0.180 A 
ATOM      2  C   UNL     1      -5.889  52.362  27.558  1.00  0.00     0.208 A 
ATOM      3  C   UNL     1      -5.652  51.467  26.503  1.00  0.00     0.235 A 
ATOM      4  O   UNL     1      -6.315  51.562  25.434  1.00  0.00    -0.285 OA
ATOM      5  C   UNL     1      -4.679  50.466  26.653  1.00  0.00     0.069 A 
ATOM      6  C   UNL     1      -3.974  50.397  27.874  1.00  0.00     0.142 A 
ATOM      7  O   UNL     1      -4.223  51.268  28.844  1.00  0.00    -0.452 OA
ATOM      8  C   UNL     1      -3.004  49.407  28.066  1.00  0.00     0.094 A 
ATOM      9  C   UNL     1      -2.727  48.484  27.052  1.00  0.00     0.119 A 
ATOM     10  C   UNL     1      -3.424  48.550  25.838  1.00  0.00     0.047 A 
ATOM     11  C   UNL     1      -4.396  49.535  25.637  1.00  0.00     0.020 A 
ENDROOT
BRANCH   1  12
ATOM     12  C   UNL     1      -5.304  53.158  29.887  1.00  0.00     0.025 A 
ATOM     13  C   UNL     1      -6.254  52.898  30.887  1.00  0.00     0.016 A 
ATOM     14  C   UNL     1      -6.421  53.790  31.949  1.00  0.00     0.051 A 
ATOM     15  C   UNL     1      -5.657  54.959  32.027  1.00  0.00     0.157 A 
ATOM     16  C   UNL     1      -4.553  54.340  29.950  1.00  0.00     0.062 A 
ATOM     17  C   UNL     1      -4.712  55.241  31.012  1.00  0.00     0.158 A 
BRANCH  15  18
ATOM     18  O   UNL     1      -5.868  55.806  33.117  1.00  0.00    -0.504 OA
ATOM     19  H   UNL     1      -6.713  56.340  33.261  1.00  0.00     0.293 HD
ENDBRANCH  15  18
BRANCH  17  20
ATOM     20  O   UNL     1      -3.920  56.391  31.016  1.00  0.00    -0.504 OA
ATOM     21  H   UNL     1      -4.246  57.299  31.313  1.00  0.00     0.293 HD
ENDBRANCH  17  20
ENDBRANCH   1  12
BRANCH   2  22
ATOM     22  O   UNL     1      -6.885  53.338  27.455  1.00  0.00    -0.502 OA
ATOM     23  H   UNL     1      -7.865  53.128  27.591  1.00  0.00     0.293 HD
ENDBRANCH   2  22
BRANCH   9  24
ATOM     24  O   UNL     1      -1.757  47.505  27.261  1.00  0.00    -0.508 OA
ATOM     25  H   UNL     1      -1.854  46.573  26.873  1.00  0.00     0.293 HD
ENDBRANCH   9  24
TORSDOF 5
ENDMDL
MODEL 6
REMARK VINA RESULT:    -6.050      3.495      5.013
REMARK INTER + INTRA:          -7.429
REMARK INTER:                  -7.144
REMARK INTRA:                  -0.285
REMARK UNBOUND:                -0.318
REMARK SMILES O=c1c(O)c(-c2ccc(O)c(O)c2)oc2cc(O)ccc12
REMARK SMILES IDX 5 1 3 2 2 3 1 4 21 5 15 6 14 7 16 8 17 9 19 10 20 11 6 12
REMARK SMILES IDX 7 13 8 14 9 15 13 16 11 17 10 18 12 20 4 22 18 24
REMARK H PARENT 10 19 12 21 4 23 18 25
REMARK Flexibility Score: inf
ROOT
ATOM      1  C   UNL     1      -6.645  52.607  29.047  1.00  0.00     0.180 A 
ATOM      2  C   UNL     1      -7.527  52.537  30.145  1.00  0.00     0.208 A 
ATOM      3  C   UNL     1      -7.204  53.234  31.319  1.00  0.00     0.235 A 
ATOM      4  O   UNL     1      -7.971  53.178  32.318  1.00  0.00    -0.285 OA
ATOM      5  C   UNL     1      -6.027  53.998  31.366  1.00  0.00     0.069 A 
ATOM      6  C   UNL     1      -5.208  54.036  30.216  1.00  0.00     0.142 A 
ATOM      7  O   UNL     1      -5.546  53.355  29.128  1.00  0.00    -0.452 OA
ATOM      8  C   UNL     1      -4.032  54.794  30.220  1.00  0.00     0.094 A 
ATOM      9  C   UNL     1      -3.660  55.514  31.360  1.00  0.00     0.119 A 
ATOM     10  C   UNL     1      -4.469  55.478  32.504  1.00  0.00     0.047 A 
ATOM     11  C   UNL     1      -5.647  54.724  32.510  1.00  0.00     0.020 A 
ENDROOT
BRANCH   1  12
ATOM     12  C   UNL     1      -6.906  51.885  27.781  1.00  0.00     0.025 A 
ATOM     13  C   UNL     1      -6.236  50.692  27.469  1.00  0.00     0.016 A 
ATOM     14  C   UNL     1      -6.482  50.042  26.257  1.00  0.00     0.051 A 
ATOM     15  C   UNL     1      -7.386  50.574  25.331  1.00  0.00     0.157 A 
ATOM     16  C   UNL     1      -7.796  52.433  26.845  1.00  0.00     0.062 A 
ATOM     17  C   UNL     1      -8.050  51.787  25.627  1.00  0.00     0.158 A 
BRANCH  15  18
ATOM     18  O   UNL     1      -7.590  49.872  24.141  1.00  0.00    -0.504 OA
ATOM     19  H   UNL     1      -7.025  49.990  23.312  1.00  0.00     0.293 HD
ENDBRANCH  15  18
BRANCH  17  20
ATOM     20  O   UNL     1      -8.958  52.385  24.750  1.00  0.00    -0.504 OA
ATOM     21  H   UNL     1      -9.710  52.991  25.043  1.00  0.00     0.293 HD
ENDBRANCH  17  20
ENDBRANCH   1  12
BRANCH   2  22
ATOM     22  O   UNL     1      -8.716  51.808  30.053  1.00  0.00    -0.502 OA
ATOM     23  H   UNL     1      -8.749  50.869  29.678  1.00  0.00     0.293 HD
ENDBRANCH   2  22
BRANCH   9  24
ATOM     24  O   UNL     1      -2.485  56.263  31.346  1.00  0.00    -0.508 OA
ATOM     25  H   UNL     1      -2.057  56.592  32.204  1.00  0.00     0.293 HD
ENDBRANCH   9  24
TORSDOF 5
ENDMDL
MODEL 7
REMARK VINA RESULT:    -6.048      3.033      6.740
REMARK INTER + INTRA:          -7.427
REMARK INTER:                  -7.119
REMARK INTRA:                  -0.308
REMARK UNBOUND:                -0.318
REMARK SMILES O=c1c(O)c(-c2ccc(O)c(O)c2)oc2cc(O)ccc12
REMARK SMILES IDX 5 1 3 2 2 3 1 4 21 5 15 6 14 7 16 8 17 9 19 10 20 11 6 12
REMARK SMILES IDX 7 13 8 14 9 15 13 16 11 17 10 18 12 20 4 22 18 24
REMARK H PARENT 10 19 12 21 4 23 18 25
REMARK Flexibility Score: inf
ROOT
ATOM      1  C   UNL     1      -7.989  52.955  30.806  1.00  0.00     0.180 A 
ATOM      2  C   UNL     1      -8.705  51.766  31.049  1.00  0.00     0.208 A 
ATOM      3  C   UNL     1      -8.791  50.805  30.029  1.00  0.00     0.235 A 
ATOM      4  O   UNL     1      -9.435  49.738  30.218  1.00  0.00    -0.285 OA
ATOM      5  C   UNL     1      -8.147  51.042  28.804  1.00  0.00     0.069 A 
ATOM      6  C   UNL     1      -7.429  52.248  28.647  1.00  0.00     0.142 A 
ATOM      7  O   UNL     1      -7.380  53.134  29.635  1.00  0.00    -0.452 OA
ATOM      8  C   UNL     1      -6.765  52.516  27.445  1.00  0.00     0.094 A 
ATOM      9  C   UNL     1      -6.810  51.594  26.393  1.00  0.00     0.119 A 
ATOM     10  C   UNL     1      -7.523  50.397  26.545  1.00  0.00     0.047 A 
ATOM     11  C   UNL     1      -8.189  50.119  27.743  1.00  0.00     0.020 A 
ENDROOT
BRANCH   1  12
ATOM     12  C   UNL     1      -7.869  54.023  31.825  1.00  0.00     0.025 A 
ATOM     13  C   UNL     1      -6.770  54.080  32.697  1.00  0.00     0.016 A 
ATOM     14  C   UNL     1      -6.691  55.083  33.665  1.00  0.00     0.051 A 
ATOM     15  C   UNL     1      -7.707  56.036  33.793  1.00  0.00     0.157 A 
ATOM     16  C   UNL     1      -8.900  54.963  31.965  1.00  0.00     0.062 A 
ATOM     17  C   UNL     1      -8.829  55.974  32.933  1.00  0.00     0.158 A 
BRANCH  15  18
ATOM     18  O   UNL     1      -7.565  57.016  34.778  1.00  0.00    -0.504 OA
ATOM     19  H   UNL     1      -7.377  56.815  35.750  1.00  0.00     0.293 HD
ENDBRANCH  15  18
BRANCH  17  20
ATOM     20  O   UNL     1      -9.887  56.882  33.005  1.00  0.00    -0.504 OA
ATOM     21  H   UNL     1      -9.954  57.716  32.439  1.00  0.00     0.293 HD
ENDBRANCH  17  20
ENDBRANCH   1  12
BRANCH   2  22
ATOM     22  O   UNL     1      -9.295  51.535  32.295  1.00  0.00    -0.502 OA
ATOM     23  H   UNL     1      -9.857  52.232  32.766  1.00  0.00     0.293 HD
ENDBRANCH   2  22
BRANCH   9  24
ATOM     24  O   UNL     1      -6.144  51.878  25.203  1.00  0.00    -0.508 OA
ATOM     25  H   UNL     1      -6.599  51.770  24.303  1.00  0.00     0.293 HD
ENDBRANCH   9  24
TORSDOF 5
ENDMDL
MODEL 8
REMARK VINA RESULT:    -5.851      4.278      7.177
REMARK INTER + INTRA:          -7.194
REMARK INTER:                  -7.145
REMARK INTRA:                  -0.049
REMARK UNBOUND:                -0.318
REMARK SMILES O=c1c(O)c(-c2ccc(O)c(O)c2)oc2cc(O)ccc12
REMARK SMILES IDX 5 1 3 2 2 3 1 4 21 5 15 6 14 7 16 8 17 9 19 10 20 11 6 12
REMARK SMILES IDX 7 13 8 14 9 15 13 16 11 17 10 18 12 20 4 22 18 24
REMARK H PARENT 10 19 12 21 4 23 18 25
REMARK Flexibility Score: inf
ROOT
ATOM      1  C   UNL     1      -6.712  52.442  28.060  1.00  0.00     0.180 A 
ATOM      2  C   UNL     1      -8.106  52.471  27.853  1.00  0.00     0.208 A 
ATOM      3  C   UNL     1      -8.619  52.008  26.631  1.00  0.00     0.235 A 
ATOM      4  O   UNL     1      -9.861  52.033  26.418  1.00  0.00    -0.285 OA
ATOM      5  C   UNL     1      -7.738  51.511  25.657  1.00  0.00     0.069 A 
ATOM      6  C   UNL     1      -6.357  51.494  25.950  1.00  0.00     0.142 A 
ATOM      7  O   UNL     1      -5.912  51.949  27.116  1.00  0.00    -0.452 OA
ATOM      8  C   UNL     1      -5.448  50.997  25.010  1.00  0.00     0.094 A 
ATOM      9  C   UNL     1      -5.900  50.517  23.777  1.00  0.00     0.119 A 
ATOM     10  C   UNL     1      -7.270  50.533  23.481  1.00  0.00     0.047 A 
ATOM     11  C   UNL     1      -8.187  51.027  24.415  1.00  0.00     0.020 A 
ENDROOT
BRANCH   1  12
ATOM     12  C   UNL     1      -6.093  52.930  29.314  1.00  0.00     0.025 A 
ATOM     13  C   UNL     1      -6.484  52.428  30.565  1.00  0.00     0.016 A 
ATOM     14  C   UNL     1      -5.904  52.921  31.735  1.00  0.00     0.051 A 
ATOM     15  C   UNL     1      -4.935  53.929  31.683  1.00  0.00     0.157 A 
ATOM     16  C   UNL     1      -5.139  53.957  29.259  1.00  0.00     0.062 A 
ATOM     17  C   UNL     1      -4.550  54.457  30.428  1.00  0.00     0.158 A 
BRANCH  15  18
ATOM     18  O   UNL     1      -4.390  54.375  32.889  1.00  0.00    -0.504 OA
ATOM     19  H   UNL     1      -3.408  54.570  33.026  1.00  0.00     0.293 HD
ENDBRANCH  15  18
BRANCH  17  20
ATOM     20  O   UNL     1      -3.598  55.470  30.295  1.00  0.00    -0.504 OA
ATOM     21  H   UNL     1      -3.700  56.263  29.678  1.00  0.00     0.293 HD
ENDBRANCH  17  20
ENDBRANCH   1  12
BRANCH   2  22
ATOM     22  O   UNL     1      -8.963  52.925  28.858  1.00  0.00    -0.502 OA
ATOM     23  H   UNL     1      -8.998  52.498  29.775  1.00  0.00     0.293 HD
ENDBRANCH   2  22
BRANCH   9  24
ATOM     24  O   UNL     1      -4.981  50.027  22.852  1.00  0.00    -0.508 OA
ATOM     25  H   UNL     1      -4.643  49.071  22.896  1.00  0.00     0.293 HD
ENDBRANCH   9  24
TORSDOF 5
ENDMDL
MODEL 9
REMARK VINA RESULT:    -5.782      3.468      6.157
REMARK INTER + INTRA:          -7.114
REMARK INTER:                  -7.035
REMARK INTRA:                  -0.079
REMARK UNBOUND:                -0.318
REMARK SMILES O=c1c(O)c(-c2ccc(O)c(O)c2)oc2cc(O)ccc12
REMARK SMILES IDX 5 1 3 2 2 3 1 4 21 5 15 6 14 7 16 8 17 9 19 10 20 11 6 12
REMARK SMILES IDX 7 13 8 14 9 15 13 16 11 17 10 18 12 20 4 22 18 24
REMARK H PARENT 10 19 12 21 4 23 18 25
REMARK Flexibility Score: inf
ROOT
ATOM      1  C   UNL     1      -8.140  52.830  29.780  1.00  0.00     0.180 A 
ATOM      2  C   UNL     1      -9.188  52.156  30.441  1.00  0.00     0.208 A 
ATOM      3  C   UNL     1     -10.141  51.467  29.673  1.00  0.00     0.235 A 
ATOM      4  O   UNL     1     -11.093  50.866  30.240  1.00  0.00    -0.285 OA
ATOM      5  C   UNL     1     -10.017  51.448  28.275  1.00  0.00     0.069 A 
ATOM      6  C   UNL     1      -8.926  52.128  27.691  1.00  0.00     0.142 A 
ATOM      7  O   UNL     1      -8.051  52.775  28.452  1.00  0.00    -0.452 OA
ATOM      8  C   UNL     1      -8.762  52.124  26.302  1.00  0.00     0.094 A 
ATOM      9  C   UNL     1      -9.677  51.450  25.485  1.00  0.00     0.119 A 
ATOM     10  C   UNL     1     -10.762  50.776  26.061  1.00  0.00     0.047 A 
ATOM     11  C   UNL     1     -10.934  50.773  27.449  1.00  0.00     0.020 A 
ENDROOT
BRANCH   1  12
ATOM     12  C   UNL     1      -7.108  53.593  30.518  1.00  0.00     0.025 A 
ATOM     13  C   UNL     1      -7.458  54.612  31.418  1.00  0.00     0.016 A 
ATOM     14  C   UNL     1      -6.465  55.335  32.083  1.00  0.00     0.051 A 
ATOM     15  C   UNL     1      -5.111  55.066  31.857  1.00  0.00     0.157 A 
ATOM     16  C   UNL     1      -5.751  53.336  30.271  1.00  0.00     0.062 A 
ATOM     17  C   UNL     1      -4.749  54.055  30.936  1.00  0.00     0.158 A 
BRANCH  15  18
ATOM     18  O   UNL     1      -4.169  55.821  32.559  1.00  0.00    -0.504 OA
ATOM     19  H   UNL     1      -3.320  55.440  32.953  1.00  0.00     0.293 HD
ENDBRANCH  15  18
BRANCH  17  20
ATOM     20  O   UNL     1      -3.420  53.736  30.649  1.00  0.00    -0.504 OA
ATOM     21  H   UNL     1      -2.733  54.407  30.335  1.00  0.00     0.293 HD
ENDBRANCH  17  20
ENDBRANCH   1  12
BRANCH   2  22
ATOM     22  O   UNL     1      -9.259  52.150  31.836  1.00  0.00    -0.502 OA
ATOM     23  H   UNL     1      -9.349  51.296  32.371  1.00  0.00     0.293 HD
ENDBRANCH   2  22
BRANCH   9  24
ATOM     24  O   UNL     1      -9.498  51.458  24.103  1.00  0.00    -0.508 OA
ATOM     25  H   UNL     1      -9.357  50.599  23.583  1.00  0.00     0.293 HD
ENDBRANCH   9  24
TORSDOF 5
ENDMDL
