MODEL 1
REMARK VINA RESULT:    -4.711      0.000      0.000
REMARK INTER + INTRA:          -6.114
REMARK INTER:                  -5.675
REMARK INTRA:                  -0.438
REMARK UNBOUND:                -0.438
REMARK SMILES CCCCc1oc(O)c2ccccc12
REMARK SMILES IDX 4 1 5 2 7 3 6 4 9 5 14 6 10 7 13 8 11 9 12 10 8 11 3 13 2 14
REMARK SMILES IDX 1 15
REMARK H PARENT 8 12
REMARK Flexibility Score: inf
ROOT
ATOM      1  C   UNL     1      45.871  43.746  46.301  1.00  0.00     0.076 C 
ENDROOT
BRANCH   1   2
ATOM      2  C   UNL     1      45.120  43.132  45.161  1.00  0.00     0.116 A 
ATOM      3  C   UNL     1      43.470  42.504  43.943  1.00  0.00     0.290 A 
ATOM      4  O   UNL     1      43.800  43.085  45.081  1.00  0.00    -0.430 OA
ATOM      5  C   UNL     1      44.606  42.160  43.248  1.00  0.00     0.066 A 
ATOM      6  C   UNL     1      45.661  42.562  44.022  1.00  0.00     0.027 A 
ATOM      7  C   UNL     1      44.787  41.542  42.013  1.00  0.00     0.016 A 
ATOM      8  C   UNL     1      46.982  42.377  43.611  1.00  0.00     0.012 A 
ATOM      9  C   UNL     1      46.108  41.339  41.572  1.00  0.00     0.001 A 
ATOM     10  C   UNL     1      47.200  41.755  42.367  1.00  0.00     0.001 A 
BRANCH   3  11
ATOM     11  O   UNL     1      42.163  42.283  43.525  1.00  0.00    -0.480 OA
ATOM     12  H   UNL     1      41.825  41.341  43.374  1.00  0.00     0.297 HD
ENDBRANCH   3  11
ENDBRANCH   1   2
BRANCH   1  13
ATOM     13  C   UNL     1      46.361  45.147  45.927  1.00  0.00     0.008 C 
BRANCH  13  14
ATOM     14  C   UNL     1      47.779  45.392  46.455  1.00  0.00    -0.003 C 
ATOM     15  C   UNL     1      48.829  44.942  45.444  1.00  0.00     0.004 C 
ENDBRANCH  13  14
ENDBRANCH   1  13
TORSDOF 4
ENDMDL
MODEL 2
REMARK VINA RESULT:    -4.701      2.412      3.895
REMARK INTER + INTRA:          -6.102
REMARK INTER:                  -5.852
REMARK INTRA:                  -0.249
REMARK UNBOUND:                -0.438
REMARK SMILES CCCCc1oc(O)c2ccccc12
REMARK SMILES IDX 4 1 5 2 7 3 6 4 9 5 14 6 10 7 13 8 11 9 12 10 8 11 3 13 2 14
REMARK SMILES IDX 1 15
REMARK H PARENT 8 12
REMARK Flexibility Score: inf
ROOT
ATOM      1  C   UNL     1      42.268  44.368  44.751  1.00  0.00     0.076 C 
ENDROOT
BRANCH   1   2
ATOM      2  C   UNL     1      43.234  43.300  44.338  1.00  0.00     0.116 A 
ATOM      3  C   UNL     1      43.966  41.440  43.560  1.00  0.00     0.290 A 
ATOM      4  O   UNL     1      42.875  42.127  43.842  1.00  0.00    -0.430 OA
ATOM      5  C   UNL     1      45.079  42.183  43.876  1.00  0.00     0.066 A 
ATOM      6  C   UNL     1      44.615  43.372  44.370  1.00  0.00     0.027 A 
ATOM      7  C   UNL     1      46.440  41.910  43.760  1.00  0.00     0.016 A 
ATOM      8  C   UNL     1      45.485  44.382  44.784  1.00  0.00     0.012 A 
ATOM      9  C   UNL     1      47.343  42.908  44.171  1.00  0.00     0.001 A 
ATOM     10  C   UNL     1      46.868  44.139  44.680  1.00  0.00     0.001 A 
BRANCH   3  11
ATOM     11  O   UNL     1      43.969  40.158  43.023  1.00  0.00    -0.480 OA
ATOM     12  H   UNL     1      44.687  39.879  42.366  1.00  0.00     0.297 HD
ENDBRANCH   3  11
ENDBRANCH   1   2
BRANCH   1  13
ATOM     13  C   UNL     1      42.246  45.498  43.719  1.00  0.00     0.008 C 
BRANCH  13  14
ATOM     14  C   UNL     1      41.498  46.722  44.262  1.00  0.00    -0.003 C 
ATOM     15  C   UNL     1      40.361  46.306  45.189  1.00  0.00     0.004 C 
ENDBRANCH  13  14
ENDBRANCH   1  13
TORSDOF 4
ENDMDL
MODEL 3
REMARK VINA RESULT:    -4.602      2.339      3.292
REMARK INTER + INTRA:          -5.982
REMARK INTER:                  -5.533
REMARK INTRA:                  -0.449
REMARK UNBOUND:                -0.438
REMARK SMILES CCCCc1oc(O)c2ccccc12
REMARK SMILES IDX 4 1 5 2 7 3 6 4 9 5 14 6 10 7 13 8 11 9 12 10 8 11 3 13 2 14
REMARK SMILES IDX 1 15
REMARK H PARENT 8 12
REMARK Flexibility Score: inf
ROOT
ATOM      1  C   UNL     1      43.592  44.108  44.781  1.00  0.00     0.076 C 
ENDROOT
BRANCH   1   2
ATOM      2  C   UNL     1      44.050  42.967  43.926  1.00  0.00     0.116 A 
ATOM      3  C   UNL     1      44.147  40.999  43.079  1.00  0.00     0.290 A 
ATOM      4  O   UNL     1      43.538  41.748  43.978  1.00  0.00    -0.430 OA
ATOM      5  C   UNL     1      45.086  41.747  42.408  1.00  0.00     0.066 A 
ATOM      6  C   UNL     1      45.025  43.005  42.945  1.00  0.00     0.027 A 
ATOM      7  C   UNL     1      45.969  41.423  41.380  1.00  0.00     0.016 A 
ATOM      8  C   UNL     1      45.845  44.037  42.486  1.00  0.00     0.012 A 
ATOM      9  C   UNL     1      46.811  42.442  40.897  1.00  0.00     0.001 A 
ATOM     10  C   UNL     1      46.748  43.744  41.447  1.00  0.00     0.001 A 
BRANCH   3  11
ATOM     11  O   UNL     1      43.866  39.657  42.855  1.00  0.00    -0.480 OA
ATOM     12  H   UNL     1      44.369  38.937  43.358  1.00  0.00     0.297 HD
ENDBRANCH   3  11
ENDBRANCH   1   2
BRANCH   1  13
ATOM     13  C   UNL     1      42.192  44.564  44.362  1.00  0.00     0.008 C 
BRANCH  13  14
ATOM     14  C   UNL     1      42.190  46.049  43.980  1.00  0.00    -0.003 C 
ATOM     15  C   UNL     1      42.567  46.241  42.515  1.00  0.00     0.004 C 
ENDBRANCH  13  14
ENDBRANCH   1  13
TORSDOF 4
ENDMDL
MODEL 4
REMARK VINA RESULT:    -4.507      2.243      3.388
REMARK INTER + INTRA:          -5.868
REMARK INTER:                  -5.342
REMARK INTRA:                  -0.525
REMARK UNBOUND:                -0.438
REMARK SMILES CCCCc1oc(O)c2ccccc12
REMARK SMILES IDX 4 1 5 2 7 3 6 4 9 5 14 6 10 7 13 8 11 9 12 10 8 11 3 13 2 14
REMARK SMILES IDX 1 15
REMARK H PARENT 8 12
REMARK Flexibility Score: inf
ROOT
ATOM      1  C   UNL     1      42.658  44.701  44.913  1.00  0.00     0.076 C 
ENDROOT
BRANCH   1   2
ATOM      2  C   UNL     1      43.488  43.543  44.451  1.00  0.00     0.116 A 
ATOM      3  C   UNL     1      43.988  41.619  43.645  1.00  0.00     0.290 A 
ATOM      4  O   UNL     1      42.988  42.410  43.986  1.00  0.00    -0.430 OA
ATOM      5  C   UNL     1      45.185  42.250  43.889  1.00  0.00     0.066 A 
ATOM      6  C   UNL     1      44.870  43.480  44.402  1.00  0.00     0.027 A 
ATOM      7  C   UNL     1      46.504  41.845  43.695  1.00  0.00     0.016 A 
ATOM      8  C   UNL     1      45.857  44.400  44.755  1.00  0.00     0.012 A 
ATOM      9  C   UNL     1      47.523  42.750  44.045  1.00  0.00     0.001 A 
ATOM     10  C   UNL     1      47.201  44.023  44.572  1.00  0.00     0.001 A 
BRANCH   3  11
ATOM     11  O   UNL     1      43.834  40.342  43.118  1.00  0.00    -0.480 OA
ATOM     12  H   UNL     1      44.559  39.647  43.238  1.00  0.00     0.297 HD
ENDBRANCH   3  11
ENDBRANCH   1   2
BRANCH   1  13
ATOM     13  C   UNL     1      42.121  45.487  43.714  1.00  0.00     0.008 C 
BRANCH  13  14
ATOM     14  C   UNL     1      43.149  46.512  43.224  1.00  0.00    -0.003 C 
ATOM     15  C   UNL     1      43.559  46.236  41.781  1.00  0.00     0.004 C 
ENDBRANCH  13  14
ENDBRANCH   1  13
TORSDOF 4
ENDMDL
MODEL 5
REMARK VINA RESULT:    -4.486      2.310      2.923
REMARK INTER + INTRA:          -5.842
REMARK INTER:                  -5.315
REMARK INTRA:                  -0.527
REMARK UNBOUND:                -0.438
REMARK SMILES CCCCc1oc(O)c2ccccc12
REMARK SMILES IDX 4 1 5 2 7 3 6 4 9 5 14 6 10 7 13 8 11 9 12 10 8 11 3 13 2 14
REMARK SMILES IDX 1 15
REMARK H PARENT 8 12
REMARK Flexibility Score: inf
ROOT
ATOM      1  C   UNL     1      44.354  42.873  44.778  1.00  0.00     0.076 C 
ENDROOT
BRANCH   1   2
ATOM      2  C   UNL     1      44.537  42.389  43.373  1.00  0.00     0.116 A 
ATOM      3  C   UNL     1      44.753  41.037  41.723  1.00  0.00     0.290 A 
ATOM      4  O   UNL     1      44.622  41.114  43.034  1.00  0.00    -0.430 OA
ATOM      5  C   UNL     1      44.750  42.300  41.180  1.00  0.00     0.066 A 
ATOM      6  C   UNL     1      44.611  43.166  42.230  1.00  0.00     0.027 A 
ATOM      7  C   UNL     1      44.851  42.745  39.863  1.00  0.00     0.016 A 
ATOM      8  C   UNL     1      44.557  44.548  42.039  1.00  0.00     0.012 A 
ATOM      9  C   UNL     1      44.803  44.133  39.637  1.00  0.00     0.001 A 
ATOM     10  C   UNL     1      44.656  45.030  40.721  1.00  0.00     0.001 A 
BRANCH   3  11
ATOM     11  O   UNL     1      44.872  39.847  41.014  1.00  0.00    -0.480 OA
ATOM     12  H   UNL     1      45.548  39.149  41.295  1.00  0.00     0.297 HD
ENDBRANCH   3  11
ENDBRANCH   1   2
BRANCH   1  13
ATOM     13  C   UNL     1      45.710  43.056  45.464  1.00  0.00     0.008 C 
BRANCH  13  14
ATOM     14  C   UNL     1      46.146  44.526  45.436  1.00  0.00    -0.003 C 
ATOM     15  C   UNL     1      47.488  44.689  44.730  1.00  0.00     0.004 C 
ENDBRANCH  13  14
ENDBRANCH   1  13
TORSDOF 4
ENDMDL
MODEL 6
REMARK VINA RESULT:    -4.453      1.842      3.234
REMARK INTER + INTRA:          -5.803
REMARK INTER:                  -5.244
REMARK INTRA:                  -0.558
REMARK UNBOUND:                -0.438
REMARK SMILES CCCCc1oc(O)c2ccccc12
REMARK SMILES IDX 4 1 5 2 7 3 6 4 9 5 14 6 10 7 13 8 11 9 12 10 8 11 3 13 2 14
REMARK SMILES IDX 1 15
REMARK H PARENT 8 12
REMARK Flexibility Score: inf
ROOT
ATOM      1  C   UNL     1      46.993  44.084  43.392  1.00  0.00     0.076 C 
ENDROOT
BRANCH   1   2
ATOM      2  C   UNL     1      45.722  43.296  43.453  1.00  0.00     0.116 A 
ATOM      3  C   UNL     1      44.387  41.619  43.368  1.00  0.00     0.290 A 
ATOM      4  O   UNL     1      45.639  42.001  43.198  1.00  0.00    -0.430 OA
ATOM      5  C   UNL     1      43.621  42.694  43.752  1.00  0.00     0.066 A 
ATOM      6  C   UNL     1      44.470  43.766  43.810  1.00  0.00     0.027 A 
ATOM      7  C   UNL     1      42.266  42.806  44.058  1.00  0.00     0.016 A 
ATOM      8  C   UNL     1      44.023  45.035  44.183  1.00  0.00     0.012 A 
ATOM      9  C   UNL     1      41.784  44.073  44.435  1.00  0.00     0.001 A 
ATOM     10  C   UNL     1      42.659  45.183  44.498  1.00  0.00     0.001 A 
BRANCH   3  11
ATOM     11  O   UNL     1      43.932  40.319  43.185  1.00  0.00    -0.480 OA
ATOM     12  H   UNL     1      44.502  39.640  42.697  1.00  0.00     0.297 HD
ENDBRANCH   3  11
ENDBRANCH   1   2
BRANCH   1  13
ATOM     13  C   UNL     1      47.730  44.018  44.732  1.00  0.00     0.008 C 
BRANCH  13  14
ATOM     14  C   UNL     1      47.453  45.268  45.574  1.00  0.00    -0.003 C 
ATOM     15  C   UNL     1      46.652  44.923  46.826  1.00  0.00     0.004 C 
ENDBRANCH  13  14
ENDBRANCH   1  13
TORSDOF 4
ENDMDL
MODEL 7
REMARK VINA RESULT:    -4.439      4.212      5.958
REMARK INTER + INTRA:          -5.785
REMARK INTER:                  -5.480
REMARK INTRA:                  -0.305
REMARK UNBOUND:                -0.438
REMARK SMILES CCCCc1oc(O)c2ccccc12
REMARK SMILES IDX 4 1 5 2 7 3 6 4 9 5 14 6 10 7 13 8 11 9 12 10 8 11 3 13 2 14
REMARK SMILES IDX 1 15
REMARK H PARENT 8 12
REMARK Flexibility Score: inf
ROOT
ATOM      1  C   UNL     1      42.703  43.610  44.447  1.00  0.00     0.076 C 
ENDROOT
BRANCH   1   2
ATOM      2  C   UNL     1      42.483  44.911  43.738  1.00  0.00     0.116 A 
ATOM      3  C   UNL     1      42.536  46.393  42.189  1.00  0.00     0.290 A 
ATOM      4  O   UNL     1      42.925  45.176  42.520  1.00  0.00    -0.430 OA
ATOM      5  C   UNL     1      41.811  46.946  43.218  1.00  0.00     0.066 A 
ATOM      6  C   UNL     1      41.773  46.002  44.208  1.00  0.00     0.027 A 
ATOM      7  C   UNL     1      41.187  48.185  43.352  1.00  0.00     0.016 A 
ATOM      8  C   UNL     1      41.101  46.228  45.410  1.00  0.00     0.012 A 
ATOM      9  C   UNL     1      40.503  48.444  44.554  1.00  0.00     0.001 A 
ATOM     10  C   UNL     1      40.459  47.470  45.578  1.00  0.00     0.001 A 
BRANCH   3  11
ATOM     11  O   UNL     1      42.824  47.005  40.975  1.00  0.00    -0.480 OA
ATOM     12  H   UNL     1      43.769  47.292  40.757  1.00  0.00     0.297 HD
ENDBRANCH   3  11
ENDBRANCH   1   2
BRANCH   1  13
ATOM     13  C   UNL     1      44.057  43.611  45.160  1.00  0.00     0.008 C 
BRANCH  13  14
ATOM     14  C   UNL     1      45.002  42.572  44.545  1.00  0.00    -0.003 C 
ATOM     15  C   UNL     1      44.245  41.607  43.639  1.00  0.00     0.004 C 
ENDBRANCH  13  14
ENDBRANCH   1  13
TORSDOF 4
ENDMDL
MODEL 8
REMARK VINA RESULT:    -4.357      2.955      4.428
REMARK INTER + INTRA:          -5.687
REMARK INTER:                  -5.134
REMARK INTRA:                  -0.554
REMARK UNBOUND:                -0.438
REMARK SMILES CCCCc1oc(O)c2ccccc12
REMARK SMILES IDX 4 1 5 2 7 3 6 4 9 5 14 6 10 7 13 8 11 9 12 10 8 11 3 13 2 14
REMARK SMILES IDX 1 15
REMARK H PARENT 8 12
REMARK Flexibility Score: inf
ROOT
ATOM      1  C   UNL     1      45.050  44.929  40.374  1.00  0.00     0.076 C 
ENDROOT
BRANCH   1   2
ATOM      2  C   UNL     1      45.042  43.652  41.156  1.00  0.00     0.116 A 
ATOM      3  C   UNL     1      44.897  41.556  41.585  1.00  0.00     0.290 A 
ATOM      4  O   UNL     1      44.800  42.463  40.631  1.00  0.00    -0.430 OA
ATOM      5  C   UNL     1      45.217  42.165  42.775  1.00  0.00     0.066 A 
ATOM      6  C   UNL     1      45.312  43.503  42.505  1.00  0.00     0.027 A 
ATOM      7  C   UNL     1      45.434  41.651  44.052  1.00  0.00     0.016 A 
ATOM      8  C   UNL     1      45.638  44.430  43.496  1.00  0.00     0.012 A 
ATOM      9  C   UNL     1      45.762  42.560  45.075  1.00  0.00     0.001 A 
ATOM     10  C   UNL     1      45.865  43.943  44.798  1.00  0.00     0.001 A 
BRANCH   3  11
ATOM     11  O   UNL     1      44.704  40.193  41.395  1.00  0.00    -0.480 OA
ATOM     12  H   UNL     1      44.066  39.678  41.988  1.00  0.00     0.297 HD
ENDBRANCH   3  11
ENDBRANCH   1   2
BRANCH   1  13
ATOM     13  C   UNL     1      43.648  45.543  40.335  1.00  0.00     0.008 C 
BRANCH  13  14
ATOM     14  C   UNL     1      43.515  46.673  41.362  1.00  0.00    -0.003 C 
ATOM     15  C   UNL     1      42.527  46.303  42.464  1.00  0.00     0.004 C 
ENDBRANCH  13  14
ENDBRANCH   1  13
TORSDOF 4
ENDMDL
MODEL 9
REMARK VINA RESULT:    -4.318      2.885      4.592
REMARK INTER + INTRA:          -5.640
REMARK INTER:                  -5.138
REMARK INTRA:                  -0.502
REMARK UNBOUND:                -0.438
REMARK SMILES CCCCc1oc(O)c2ccccc12
REMARK SMILES IDX 4 1 5 2 7 3 6 4 9 5 14 6 10 7 13 8 11 9 12 10 8 11 3 13 2 14
REMARK SMILES IDX 1 15
REMARK H PARENT 8 12
REMARK Flexibility Score: inf
ROOT
ATOM      1  C   UNL     1      46.685  43.945  41.620  1.00  0.00     0.076 C 
ENDROOT
BRANCH   1   2
ATOM      2  C   UNL     1      45.587  43.140  42.242  1.00  0.00     0.116 A 
ATOM      3  C   UNL     1      44.469  41.433  42.904  1.00  0.00     0.290 A 
ATOM      4  O   UNL     1      45.553  41.818  42.257  1.00  0.00    -0.430 OA
ATOM      5  C   UNL     1      43.767  42.536  43.333  1.00  0.00     0.066 A 
ATOM      6  C   UNL     1      44.479  43.627  42.915  1.00  0.00     0.027 A 
ATOM      7  C   UNL     1      42.581  42.658  44.054  1.00  0.00     0.016 A 
ATOM      8  C   UNL     1      44.056  44.928  43.192  1.00  0.00     0.012 A 
ATOM      9  C   UNL     1      42.127  43.957  44.347  1.00  0.00     0.001 A 
ATOM     10  C   UNL     1      42.861  45.087  43.918  1.00  0.00     0.001 A 
BRANCH   3  11
ATOM     11  O   UNL     1      44.108  40.108  43.113  1.00  0.00    -0.480 OA
ATOM     12  H   UNL     1      43.477  39.860  43.864  1.00  0.00     0.297 HD
ENDBRANCH   3  11
ENDBRANCH   1   2
BRANCH   1  13
ATOM     13  C   UNL     1      46.585  43.899  40.094  1.00  0.00     0.008 C 
BRANCH  13  14
ATOM     14  C   UNL     1      45.783  45.091  39.560  1.00  0.00    -0.003 C 
ATOM     15  C   UNL     1      44.364  44.676  39.184  1.00  0.00     0.004 C 
ENDBRANCH  13  14
ENDBRANCH   1  13
TORSDOF 4
ENDMDL
