MODEL 1
REMARK VINA RESULT:    -5.403      0.000      0.000
REMARK INTER + INTRA:          -5.403
REMARK INTER:                  -5.403
REMARK INTRA:                   0.000
REMARK UNBOUND:                 0.000
REMARK SMILES Cc1cc2cc3c(C)cc(=O)oc3c(C)c2o1
REMARK SMILES IDX 8 1 7 2 9 3 10 4 11 5 12 6 13 7 6 8 5 9 4 10 3 11 2 12 17 13
REMARK SMILES IDX 16 14 14 15 15 16 1 17
REMARK H PARENT
REMARK Flexibility Score: inf
ROOT
ATOM      1  C   UNL     1     -10.118  22.039  -5.143  1.00  0.00     0.045 C 
ATOM      2  C   UNL     1      -9.484  21.807  -6.490  1.00  0.00    -0.033 A 
ATOM      3  C   UNL     1     -10.285  21.832  -7.638  1.00  0.00     0.098 A 
ATOM      4  C   UNL     1      -9.705  21.617  -8.889  1.00  0.00     0.336 A 
ATOM      5  O   UNL     1     -10.422  21.638  -9.925  1.00  0.00    -0.246 OA
ATOM      6  O   UNL     1      -8.402  21.390  -8.999  1.00  0.00    -0.422 OA
ATOM      7  C   UNL     1      -7.583  21.353  -7.951  1.00  0.00     0.145 A 
ATOM      8  C   UNL     1      -8.100  21.562  -6.633  1.00  0.00     0.022 A 
ATOM      9  C   UNL     1      -7.222  21.511  -5.522  1.00  0.00     0.024 A 
ATOM     10  C   UNL     1      -5.877  21.252  -5.762  1.00  0.00     0.022 A 
ATOM     11  C   UNL     1      -4.820  21.139  -4.889  1.00  0.00     0.054 A 
ATOM     12  C   UNL     1      -3.729  20.868  -5.707  1.00  0.00     0.102 A 
ATOM     13  O   UNL     1      -4.093  20.827  -6.976  1.00  0.00    -0.461 OA
ATOM     14  C   UNL     1      -5.384  21.056  -7.023  1.00  0.00     0.140 A 
ATOM     15  C   UNL     1      -6.204  21.107  -8.153  1.00  0.00     0.036 A 
ATOM     16  C   UNL     1      -5.649  20.859  -9.527  1.00  0.00     0.052 C 
ATOM     17  C   UNL     1      -2.328  20.670  -5.236  1.00  0.00     0.087 C 
ENDROOT
TORSDOF 0
ENDMDL
MODEL 2
REMARK VINA RESULT:    -5.156      3.820      5.414
REMARK INTER + INTRA:          -5.156
REMARK INTER:                  -5.156
REMARK INTRA:                   0.000
REMARK UNBOUND:                 0.000
REMARK SMILES Cc1cc2cc3c(C)cc(=O)oc3c(C)c2o1
REMARK SMILES IDX 8 1 7 2 9 3 10 4 11 5 12 6 13 7 6 8 5 9 4 10 3 11 2 12 17 13
REMARK SMILES IDX 16 14 14 15 15 16 1 17
REMARK H PARENT
REMARK Flexibility Score: inf
ROOT
ATOM      1  C   UNL     1      -6.224  27.097 -10.915  1.00  0.00     0.045 C 
ATOM      2  C   UNL     1      -7.503  26.507 -10.377  1.00  0.00    -0.033 A 
ATOM      3  C   UNL     1      -8.593  27.349 -10.124  1.00  0.00     0.098 A 
ATOM      4  C   UNL     1      -9.779  26.811  -9.624  1.00  0.00     0.336 A 
ATOM      5  O   UNL     1     -10.762  27.564  -9.394  1.00  0.00    -0.246 OA
ATOM      6  O   UNL     1      -9.883  25.509  -9.389  1.00  0.00    -0.422 OA
ATOM      7  C   UNL     1      -8.889  24.652  -9.608  1.00  0.00     0.145 A 
ATOM      8  C   UNL     1      -7.638  25.125 -10.117  1.00  0.00     0.022 A 
ATOM      9  C   UNL     1      -6.582  24.207 -10.338  1.00  0.00     0.024 A 
ATOM     10  C   UNL     1      -6.806  22.867 -10.042  1.00  0.00     0.022 A 
ATOM     11  C   UNL     1      -5.973  21.778 -10.148  1.00  0.00     0.054 A 
ATOM     12  C   UNL     1      -6.746  20.712  -9.701  1.00  0.00     0.102 A 
ATOM     13  O   UNL     1      -7.954  21.121  -9.358  1.00  0.00    -0.461 OA
ATOM     14  C   UNL     1      -8.004  22.417  -9.558  1.00  0.00     0.140 A 
ATOM     15  C   UNL     1      -9.081  23.277  -9.334  1.00  0.00     0.036 A 
ATOM     16  C   UNL     1     -10.378  22.768  -8.773  1.00  0.00     0.052 C 
ATOM     17  C   UNL     1      -6.297  19.292  -9.632  1.00  0.00     0.087 C 
ENDROOT
TORSDOF 0
ENDMDL
MODEL 3
REMARK VINA RESULT:    -5.095      3.745      6.232
REMARK INTER + INTRA:          -5.095
REMARK INTER:                  -5.095
REMARK INTRA:                   0.000
REMARK UNBOUND:                 0.000
REMARK SMILES Cc1cc2cc3c(C)cc(=O)oc3c(C)c2o1
REMARK SMILES IDX 8 1 7 2 9 3 10 4 11 5 12 6 13 7 6 8 5 9 4 10 3 11 2 12 17 13
REMARK SMILES IDX 16 14 14 15 15 16 1 17
REMARK H PARENT
REMARK Flexibility Score: inf
ROOT
ATOM      1  C   UNL     1      -3.394  22.893  -8.740  1.00  0.00     0.045 C 
ATOM      2  C   UNL     1      -4.713  22.327  -9.201  1.00  0.00    -0.033 A 
ATOM      3  C   UNL     1      -4.916  20.942  -9.158  1.00  0.00     0.098 A 
ATOM      4  C   UNL     1      -6.134  20.410  -9.585  1.00  0.00     0.336 A 
ATOM      5  O   UNL     1      -6.322  19.165  -9.548  1.00  0.00    -0.246 OA
ATOM      6  O   UNL     1      -7.099  21.205 -10.029  1.00  0.00    -0.422 OA
ATOM      7  C   UNL     1      -6.974  22.528 -10.096  1.00  0.00     0.145 A 
ATOM      8  C   UNL     1      -5.755  23.152  -9.680  1.00  0.00     0.022 A 
ATOM      9  C   UNL     1      -5.627  24.560  -9.764  1.00  0.00     0.024 A 
ATOM     10  C   UNL     1      -6.704  25.287 -10.259  1.00  0.00     0.022 A 
ATOM     11  C   UNL     1      -6.852  26.640 -10.456  1.00  0.00     0.054 A 
ATOM     12  C   UNL     1      -8.134  26.770 -10.978  1.00  0.00     0.102 A 
ATOM     13  O   UNL     1      -8.719  25.591 -11.084  1.00  0.00    -0.461 OA
ATOM     14  C   UNL     1      -7.869  24.689 -10.654  1.00  0.00     0.140 A 
ATOM     15  C   UNL     1      -8.052  23.306 -10.581  1.00  0.00     0.036 A 
ATOM     16  C   UNL     1      -9.328  22.665 -11.047  1.00  0.00     0.052 C 
ATOM     17  C   UNL     1      -8.784  28.059 -11.355  1.00  0.00     0.087 C 
ENDROOT
TORSDOF 0
ENDMDL
MODEL 4
REMARK VINA RESULT:    -5.033      3.968      5.229
REMARK INTER + INTRA:          -5.033
REMARK INTER:                  -5.033
REMARK INTRA:                   0.000
REMARK UNBOUND:                 0.000
REMARK SMILES Cc1cc2cc3c(C)cc(=O)oc3c(C)c2o1
REMARK SMILES IDX 8 1 7 2 9 3 10 4 11 5 12 6 13 7 6 8 5 9 4 10 3 11 2 12 17 13
REMARK SMILES IDX 16 14 14 15 15 16 1 17
REMARK H PARENT
REMARK Flexibility Score: inf
ROOT
ATOM      1  C   UNL     1      -4.760  27.082 -10.355  1.00  0.00     0.045 C 
ATOM      2  C   UNL     1      -6.095  26.405 -10.524  1.00  0.00    -0.033 A 
ATOM      3  C   UNL     1      -7.203  27.165 -10.920  1.00  0.00     0.098 A 
ATOM      4  C   UNL     1      -8.444  26.546 -11.077  1.00  0.00     0.336 A 
ATOM      5  O   UNL     1      -9.444  27.225 -11.432  1.00  0.00    -0.246 OA
ATOM      6  O   UNL     1      -8.582  25.245 -10.858  1.00  0.00    -0.422 OA
ATOM      7  C   UNL     1      -7.573  24.463 -10.481  1.00  0.00     0.145 A 
ATOM      8  C   UNL     1      -6.268  25.022 -10.295  1.00  0.00     0.022 A 
ATOM      9  C   UNL     1      -5.202  24.184  -9.884  1.00  0.00     0.024 A 
ATOM     10  C   UNL     1      -5.472  22.837  -9.673  1.00  0.00     0.022 A 
ATOM     11  C   UNL     1      -4.645  21.813  -9.270  1.00  0.00     0.054 A 
ATOM     12  C   UNL     1      -5.477  20.700  -9.229  1.00  0.00     0.102 A 
ATOM     13  O   UNL     1      -6.708  21.020  -9.584  1.00  0.00    -0.461 OA
ATOM     14  C   UNL     1      -6.719  22.304  -9.854  1.00  0.00     0.140 A 
ATOM     15  C   UNL     1      -7.802  23.083 -10.269  1.00  0.00     0.036 A 
ATOM     16  C   UNL     1      -9.170  22.485 -10.433  1.00  0.00     0.052 C 
ATOM     17  C   UNL     1      -5.050  19.320  -8.857  1.00  0.00     0.087 C 
ENDROOT
TORSDOF 0
ENDMDL
MODEL 5
REMARK VINA RESULT:    -4.970      3.254      6.073
REMARK INTER + INTRA:          -4.970
REMARK INTER:                  -4.970
REMARK INTRA:                   0.000
REMARK UNBOUND:                 0.000
REMARK SMILES Cc1cc2cc3c(C)cc(=O)oc3c(C)c2o1
REMARK SMILES IDX 8 1 7 2 9 3 10 4 11 5 12 6 13 7 6 8 5 9 4 10 3 11 2 12 17 13
REMARK SMILES IDX 16 14 14 15 15 16 1 17
REMARK H PARENT
REMARK Flexibility Score: inf
ROOT
ATOM      1  C   UNL     1      -4.244  23.306  -9.777  1.00  0.00     0.045 C 
ATOM      2  C   UNL     1      -5.548  22.560  -9.657  1.00  0.00    -0.033 A 
ATOM      3  C   UNL     1      -5.544  21.161  -9.707  1.00  0.00     0.098 A 
ATOM      4  C   UNL     1      -6.748  20.463  -9.599  1.00  0.00     0.336 A 
ATOM      5  O   UNL     1      -6.750  19.204  -9.644  1.00  0.00    -0.246 OA
ATOM      6  O   UNL     1      -7.894  21.114  -9.448  1.00  0.00    -0.422 OA
ATOM      7  C   UNL     1      -7.971  22.441  -9.392  1.00  0.00     0.145 A 
ATOM      8  C   UNL     1      -6.782  23.231  -9.498  1.00  0.00     0.022 A 
ATOM      9  C   UNL     1      -6.874  24.643  -9.448  1.00  0.00     0.024 A 
ATOM     10  C   UNL     1      -8.134  25.212  -9.299  1.00  0.00     0.022 A 
ATOM     11  C   UNL     1      -8.515  26.532  -9.230  1.00  0.00     0.054 A 
ATOM     12  C   UNL     1      -9.897  26.481  -9.090  1.00  0.00     0.102 A 
ATOM     13  O   UNL     1     -10.321  25.231  -9.070  1.00  0.00    -0.461 OA
ATOM     14  C   UNL     1      -9.269  24.456  -9.196  1.00  0.00     0.140 A 
ATOM     15  C   UNL     1      -9.233  23.060  -9.228  1.00  0.00     0.036 A 
ATOM     16  C   UNL     1     -10.494  22.248  -9.142  1.00  0.00     0.052 C 
ATOM     17  C   UNL     1     -10.793  27.666  -8.959  1.00  0.00     0.087 C 
ENDROOT
TORSDOF 0
ENDMDL
MODEL 6
REMARK VINA RESULT:    -4.937      1.894      4.730
REMARK INTER + INTRA:          -4.937
REMARK INTER:                  -4.937
REMARK INTRA:                   0.000
REMARK UNBOUND:                 0.000
REMARK SMILES Cc1cc2cc3c(C)cc(=O)oc3c(C)c2o1
REMARK SMILES IDX 8 1 7 2 9 3 10 4 11 5 12 6 13 7 6 8 5 9 4 10 3 11 2 12 17 13
REMARK SMILES IDX 16 14 14 15 15 16 1 17
REMARK H PARENT
REMARK Flexibility Score: inf
ROOT
ATOM      1  C   UNL     1      -4.201  21.334  -7.253  1.00  0.00     0.045 C 
ATOM      2  C   UNL     1      -5.361  21.611  -8.174  1.00  0.00    -0.033 A 
ATOM      3  C   UNL     1      -5.138  21.678  -9.555  1.00  0.00     0.098 A 
ATOM      4  C   UNL     1      -6.207  21.936 -10.414  1.00  0.00     0.336 A 
ATOM      5  O   UNL     1      -6.012  21.998 -11.658  1.00  0.00    -0.246 OA
ATOM      6  O   UNL     1      -7.431  22.116  -9.935  1.00  0.00    -0.422 OA
ATOM      7  C   UNL     1      -7.714  22.065  -8.636  1.00  0.00     0.145 A 
ATOM      8  C   UNL     1      -6.673  21.808  -7.688  1.00  0.00     0.022 A 
ATOM      9  C   UNL     1      -6.981  21.765  -6.306  1.00  0.00     0.024 A 
ATOM     10  C   UNL     1      -8.300  21.981  -5.922  1.00  0.00     0.022 A 
ATOM     11  C   UNL     1      -8.874  22.006  -4.672  1.00  0.00     0.054 A 
ATOM     12  C   UNL     1     -10.215  22.276  -4.918  1.00  0.00     0.102 A 
ATOM     13  O   UNL     1     -10.439  22.399  -6.214  1.00  0.00    -0.461 OA
ATOM     14  C   UNL     1      -9.294  22.224  -6.830  1.00  0.00     0.140 A 
ATOM     15  C   UNL     1      -9.046  22.265  -8.204  1.00  0.00     0.036 A 
ATOM     16  C   UNL     1     -10.146  22.563  -9.183  1.00  0.00     0.052 C 
ATOM     17  C   UNL     1     -11.275  22.393  -3.875  1.00  0.00     0.087 C 
ENDROOT
TORSDOF 0
ENDMDL
MODEL 7
REMARK VINA RESULT:    -4.873      4.110      5.843
REMARK INTER + INTRA:          -4.873
REMARK INTER:                  -4.873
REMARK INTRA:                   0.000
REMARK UNBOUND:                 0.000
REMARK SMILES Cc1cc2cc3c(C)cc(=O)oc3c(C)c2o1
REMARK SMILES IDX 8 1 7 2 9 3 10 4 11 5 12 6 13 7 6 8 5 9 4 10 3 11 2 12 17 13
REMARK SMILES IDX 16 14 14 15 15 16 1 17
REMARK H PARENT
REMARK Flexibility Score: inf
ROOT
ATOM      1  C   UNL     1     -10.081  21.681  -9.856  1.00  0.00     0.045 C 
ATOM      2  C   UNL     1      -8.586  21.816  -9.721  1.00  0.00    -0.033 A 
ATOM      3  C   UNL     1      -7.829  20.700  -9.343  1.00  0.00     0.098 A 
ATOM      4  C   UNL     1      -6.445  20.818  -9.214  1.00  0.00     0.336 A 
ATOM      5  O   UNL     1      -5.759  19.817  -8.873  1.00  0.00    -0.246 OA
ATOM      6  O   UNL     1      -5.840  21.975  -9.449  1.00  0.00    -0.422 OA
ATOM      7  C   UNL     1      -6.497  23.074  -9.812  1.00  0.00     0.145 A 
ATOM      8  C   UNL     1      -7.920  23.038  -9.964  1.00  0.00     0.022 A 
ATOM      9  C   UNL     1      -8.613  24.215 -10.342  1.00  0.00     0.024 A 
ATOM     10  C   UNL     1      -7.871  25.372 -10.548  1.00  0.00     0.022 A 
ATOM     11  C   UNL     1      -8.274  26.638 -10.906  1.00  0.00     0.054 A 
ATOM     12  C   UNL     1      -7.094  27.372 -10.951  1.00  0.00     0.102 A 
ATOM     13  O   UNL     1      -6.057  26.611 -10.650  1.00  0.00    -0.461 OA
ATOM     14  C   UNL     1      -6.511  25.404 -10.405  1.00  0.00     0.140 A 
ATOM     15  C   UNL     1      -5.779  24.270 -10.046  1.00  0.00     0.036 A 
ATOM     16  C   UNL     1      -4.289  24.333  -9.865  1.00  0.00     0.052 C 
ATOM     17  C   UNL     1      -6.991  28.816 -11.307  1.00  0.00     0.087 C 
ENDROOT
TORSDOF 0
ENDMDL
MODEL 8
REMARK VINA RESULT:    -4.791      1.365      2.936
REMARK INTER + INTRA:          -4.791
REMARK INTER:                  -4.791
REMARK INTRA:                   0.000
REMARK UNBOUND:                 0.000
REMARK SMILES Cc1cc2cc3c(C)cc(=O)oc3c(C)c2o1
REMARK SMILES IDX 8 1 7 2 9 3 10 4 11 5 12 6 13 7 6 8 5 9 4 10 3 11 2 12 17 13
REMARK SMILES IDX 16 14 14 15 15 16 1 17
REMARK H PARENT
REMARK Flexibility Score: inf
ROOT
ATOM      1  C   UNL     1      -6.399  21.960 -11.057  1.00  0.00     0.045 C 
ATOM      2  C   UNL     1      -7.356  22.000  -9.893  1.00  0.00    -0.033 A 
ATOM      3  C   UNL     1      -8.710  22.271 -10.129  1.00  0.00     0.098 A 
ATOM      4  C   UNL     1      -9.601  22.312  -9.056  1.00  0.00     0.336 A 
ATOM      5  O   UNL     1     -10.820  22.556  -9.263  1.00  0.00    -0.246 OA
ATOM      6  O   UNL     1      -9.179  22.093  -7.818  1.00  0.00    -0.422 OA
ATOM      7  C   UNL     1      -7.908  21.829  -7.523  1.00  0.00     0.145 A 
ATOM      8  C   UNL     1      -6.930  21.773  -8.566  1.00  0.00     0.022 A 
ATOM      9  C   UNL     1      -5.578  21.501  -8.241  1.00  0.00     0.024 A 
ATOM     10  C   UNL     1      -5.253  21.301  -6.904  1.00  0.00     0.022 A 
ATOM     11  C   UNL     1      -4.041  21.033  -6.311  1.00  0.00     0.054 A 
ATOM     12  C   UNL     1      -4.338  20.945  -4.955  1.00  0.00     0.102 A 
ATOM     13  O   UNL     1      -5.627  21.137  -4.744  1.00  0.00    -0.461 OA
ATOM     14  C   UNL     1      -6.190  21.353  -5.909  1.00  0.00     0.140 A 
ATOM     15  C   UNL     1      -7.538  21.606  -6.175  1.00  0.00     0.036 A 
ATOM     16  C   UNL     1      -8.547  21.688  -5.065  1.00  0.00     0.052 C 
ATOM     17  C   UNL     1      -3.351  20.653  -3.875  1.00  0.00     0.087 C 
ENDROOT
TORSDOF 0
ENDMDL
MODEL 9
REMARK VINA RESULT:    -4.728      3.045      3.788
REMARK INTER + INTRA:          -4.728
REMARK INTER:                  -4.728
REMARK INTRA:                   0.000
REMARK UNBOUND:                 0.000
REMARK SMILES Cc1cc2cc3c(C)cc(=O)oc3c(C)c2o1
REMARK SMILES IDX 8 1 7 2 9 3 10 4 11 5 12 6 13 7 6 8 5 9 4 10 3 11 2 12 17 13
REMARK SMILES IDX 16 14 14 15 15 16 1 17
REMARK H PARENT
REMARK Flexibility Score: inf
ROOT
ATOM      1  C   UNL     1      -8.480  25.713 -10.491  1.00  0.00     0.045 C 
ATOM      2  C   UNL     1      -8.289  24.248 -10.193  1.00  0.00    -0.033 A 
ATOM      3  C   UNL     1      -9.402  23.398 -10.193  1.00  0.00     0.098 A 
ATOM      4  C   UNL     1      -9.232  22.041  -9.915  1.00  0.00     0.336 A 
ATOM      5  O   UNL     1     -10.230  21.272  -9.913  1.00  0.00    -0.246 OA
ATOM      6  O   UNL     1      -8.028  21.550  -9.654  1.00  0.00    -0.422 OA
ATOM      7  C   UNL     1      -6.928  22.300  -9.639  1.00  0.00     0.145 A 
ATOM      8  C   UNL     1      -7.017  23.703  -9.910  1.00  0.00     0.022 A 
ATOM      9  C   UNL     1      -5.843  24.495  -9.881  1.00  0.00     0.024 A 
ATOM     10  C   UNL     1      -4.638  23.869  -9.583  1.00  0.00     0.022 A 
ATOM     11  C   UNL     1      -3.367  24.384  -9.479  1.00  0.00     0.054 A 
ATOM     12  C   UNL     1      -2.580  23.286  -9.151  1.00  0.00     0.102 A 
ATOM     13  O   UNL     1      -3.313  22.190  -9.069  1.00  0.00    -0.461 OA
ATOM     14  C   UNL     1      -4.555  22.528  -9.326  1.00  0.00     0.140 A 
ATOM     15  C   UNL     1      -5.680  21.699  -9.353  1.00  0.00     0.036 A 
ATOM     16  C   UNL     1      -5.572  20.234  -9.039  1.00  0.00     0.052 C 
ATOM     17  C   UNL     1      -1.104  23.316  -8.938  1.00  0.00     0.087 C 
ENDROOT
TORSDOF 0
ENDMDL
