MODEL 1
REMARK VINA RESULT:    -5.694      0.000      0.000
REMARK INTER + INTRA:          -5.694
REMARK INTER:                  -5.694
REMARK INTRA:                   0.000
REMARK UNBOUND:                 0.000
REMARK SMILES O=c1ccc2ccc3occc3c2o1
REMARK SMILES IDX 6 1 7 2 8 3 12 4 11 5 10 6 9 7 13 8 5 9 4 10 3 11 2 12 1 13
REMARK SMILES IDX 14 14
REMARK H PARENT
REMARK Flexibility Score: inf
ROOT
ATOM      1  C   UNL     1       8.793   5.002  11.937  1.00  0.00     0.016 A 
ATOM      2  C   UNL     1       8.416   6.340  11.712  1.00  0.00     0.048 A 
ATOM      3  C   UNL     1       7.415   6.592  10.775  1.00  0.00     0.137 A 
ATOM      4  C   UNL     1       6.802   5.582  10.082  1.00  0.00     0.064 A 
ATOM      5  C   UNL     1       5.876   6.171   9.252  1.00  0.00     0.054 A 
ATOM      6  C   UNL     1       5.996   7.534   9.506  1.00  0.00     0.196 A 
ATOM      7  O   UNL     1       6.924   7.754  10.421  1.00  0.00    -0.464 OA
ATOM      8  C   UNL     1       7.146   4.246  10.276  1.00  0.00     0.149 A 
ATOM      9  C   UNL     1       8.161   3.954  11.223  1.00  0.00     0.018 A 
ATOM     10  C   UNL     1       8.511   2.615  11.421  1.00  0.00     0.019 A 
ATOM     11  C   UNL     1       7.857   1.621  10.692  1.00  0.00     0.094 A 
ATOM     12  C   UNL     1       6.864   1.989   9.775  1.00  0.00     0.336 A 
ATOM     13  O   UNL     1       6.265   1.104   9.109  1.00  0.00    -0.246 OA
ATOM     14  O   UNL     1       6.547   3.269   9.600  1.00  0.00    -0.422 OA
ENDROOT
TORSDOF 0
ENDMDL
MODEL 2
REMARK VINA RESULT:    -5.095      1.510      2.573
REMARK INTER + INTRA:          -5.095
REMARK INTER:                  -5.095
REMARK INTRA:                   0.000
REMARK UNBOUND:                 0.000
REMARK SMILES O=c1ccc2ccc3occc3c2o1
REMARK SMILES IDX 6 1 7 2 8 3 12 4 11 5 10 6 9 7 13 8 5 9 4 10 3 11 2 12 1 13
REMARK SMILES IDX 14 14
REMARK H PARENT
REMARK Flexibility Score: inf
ROOT
ATOM      1  C   UNL     1       5.875   4.565   9.182  1.00  0.00     0.016 A 
ATOM      2  C   UNL     1       5.954   5.947   9.442  1.00  0.00     0.048 A 
ATOM      3  C   UNL     1       6.889   6.386  10.379  1.00  0.00     0.137 A 
ATOM      4  C   UNL     1       7.717   5.516  11.037  1.00  0.00     0.064 A 
ATOM      5  C   UNL     1       8.503   6.271  11.877  1.00  0.00     0.054 A 
ATOM      6  C   UNL     1       8.086   7.581  11.663  1.00  0.00     0.196 A 
ATOM      7  O   UNL     1       7.120   7.617  10.762  1.00  0.00    -0.464 OA
ATOM      8  C   UNL     1       7.670   4.142  10.808  1.00  0.00     0.149 A 
ATOM      9  C   UNL     1       6.729   3.661   9.861  1.00  0.00     0.018 A 
ATOM     10  C   UNL     1       6.677   2.284   9.627  1.00  0.00     0.019 A 
ATOM     11  C   UNL     1       7.541   1.438  10.322  1.00  0.00     0.094 A 
ATOM     12  C   UNL     1       8.442   1.989  11.242  1.00  0.00     0.336 A 
ATOM     13  O   UNL     1       9.229   1.238  11.878  1.00  0.00    -0.246 OA
ATOM     14  O   UNL     1       8.476   3.303  11.451  1.00  0.00    -0.422 OA
ENDROOT
TORSDOF 0
ENDMDL
MODEL 3
REMARK VINA RESULT:    -5.054     10.767     13.174
REMARK INTER + INTRA:          -5.054
REMARK INTER:                  -5.054
REMARK INTRA:                   0.000
REMARK UNBOUND:                 0.000
REMARK SMILES O=c1ccc2ccc3occc3c2o1
REMARK SMILES IDX 6 1 7 2 8 3 12 4 11 5 10 6 9 7 13 8 5 9 4 10 3 11 2 12 1 13
REMARK SMILES IDX 14 14
REMARK H PARENT
REMARK Flexibility Score: inf
ROOT
ATOM      1  C   UNL     1      11.277  -3.429  19.270  1.00  0.00     0.016 A 
ATOM      2  C   UNL     1      11.636  -4.705  19.748  1.00  0.00     0.048 A 
ATOM      3  C   UNL     1      10.668  -5.709  19.730  1.00  0.00     0.137 A 
ATOM      4  C   UNL     1       9.400  -5.483  19.265  1.00  0.00     0.064 A 
ATOM      5  C   UNL     1       8.712  -6.669  19.388  1.00  0.00     0.054 A 
ATOM      6  C   UNL     1       9.637  -7.554  19.932  1.00  0.00     0.196 A 
ATOM      7  O   UNL     1      10.797  -6.951  20.125  1.00  0.00    -0.464 OA
ATOM      8  C   UNL     1       9.006  -4.236  18.785  1.00  0.00     0.149 A 
ATOM      9  C   UNL     1       9.966  -3.191  18.789  1.00  0.00     0.018 A 
ATOM     10  C   UNL     1       9.576  -1.938  18.309  1.00  0.00     0.019 A 
ATOM     11  C   UNL     1       8.273  -1.757  17.846  1.00  0.00     0.094 A 
ATOM     12  C   UNL     1       7.382  -2.837  17.874  1.00  0.00     0.336 A 
ATOM     13  O   UNL     1       6.202  -2.690  17.459  1.00  0.00    -0.246 OA
ATOM     14  O   UNL     1       7.772  -4.023  18.336  1.00  0.00    -0.422 OA
ENDROOT
TORSDOF 0
ENDMDL
MODEL 4
REMARK VINA RESULT:    -4.995     11.641     13.489
REMARK INTER + INTRA:          -4.995
REMARK INTER:                  -4.995
REMARK INTRA:                   0.000
REMARK UNBOUND:                 0.000
REMARK SMILES O=c1ccc2ccc3occc3c2o1
REMARK SMILES IDX 6 1 7 2 8 3 12 4 11 5 10 6 9 7 13 8 5 9 4 10 3 11 2 12 1 13
REMARK SMILES IDX 14 14
REMARK H PARENT
REMARK Flexibility Score: inf
ROOT
ATOM      1  C   UNL     1       9.323  -3.001  18.617  1.00  0.00     0.016 A 
ATOM      2  C   UNL     1      10.447  -2.152  18.622  1.00  0.00     0.048 A 
ATOM      3  C   UNL     1      11.673  -2.689  19.013  1.00  0.00     0.137 A 
ATOM      4  C   UNL     1      11.803  -4.001  19.385  1.00  0.00     0.064 A 
ATOM      5  C   UNL     1      13.127  -4.197  19.706  1.00  0.00     0.054 A 
ATOM      6  C   UNL     1      13.723  -2.957  19.501  1.00  0.00     0.196 A 
ATOM      7  O   UNL     1      12.828  -2.076  19.086  1.00  0.00    -0.464 OA
ATOM      8  C   UNL     1      10.715  -4.872  19.393  1.00  0.00     0.149 A 
ATOM      9  C   UNL     1       9.452  -4.358  19.001  1.00  0.00     0.018 A 
ATOM     10  C   UNL     1       8.358  -5.227  19.008  1.00  0.00     0.019 A 
ATOM     11  C   UNL     1       8.540  -6.555  19.395  1.00  0.00     0.094 A 
ATOM     12  C   UNL     1       9.818  -6.988  19.769  1.00  0.00     0.336 A 
ATOM     13  O   UNL     1       9.999  -8.184  20.120  1.00  0.00    -0.246 OA
ATOM     14  O   UNL     1      10.848  -6.145  19.756  1.00  0.00    -0.422 OA
ENDROOT
TORSDOF 0
ENDMDL
MODEL 5
REMARK VINA RESULT:    -4.921     12.299     13.739
REMARK INTER + INTRA:          -4.921
REMARK INTER:                  -4.921
REMARK INTRA:                   0.000
REMARK UNBOUND:                 0.000
REMARK SMILES O=c1ccc2ccc3occc3c2o1
REMARK SMILES IDX 6 1 7 2 8 3 12 4 11 5 10 6 9 7 13 8 5 9 4 10 3 11 2 12 1 13
REMARK SMILES IDX 14 14
REMARK H PARENT
REMARK Flexibility Score: inf
ROOT
ATOM      1  C   UNL     1      11.816  -6.507  20.125  1.00  0.00     0.016 A 
ATOM      2  C   UNL     1      13.058  -5.842  20.121  1.00  0.00     0.048 A 
ATOM      3  C   UNL     1      13.083  -4.501  19.740  1.00  0.00     0.137 A 
ATOM      4  C   UNL     1      11.946  -3.830  19.376  1.00  0.00     0.064 A 
ATOM      5  C   UNL     1      12.322  -2.544  19.063  1.00  0.00     0.054 A 
ATOM      6  C   UNL     1      13.699  -2.524  19.264  1.00  0.00     0.196 A 
ATOM      7  O   UNL     1      14.124  -3.709  19.669  1.00  0.00    -0.464 OA
ATOM      8  C   UNL     1      10.699  -4.453  19.367  1.00  0.00     0.149 A 
ATOM      9  C   UNL     1      10.637  -5.817  19.750  1.00  0.00     0.018 A 
ATOM     10  C   UNL     1       9.389  -6.447  19.742  1.00  0.00     0.019 A 
ATOM     11  C   UNL     1       8.259  -5.722  19.364  1.00  0.00     0.094 A 
ATOM     12  C   UNL     1       8.401  -4.377  18.999  1.00  0.00     0.336 A 
ATOM     13  O   UNL     1       7.389  -3.709  18.656  1.00  0.00    -0.246 OA
ATOM     14  O   UNL     1       9.598  -3.796  19.013  1.00  0.00    -0.422 OA
ENDROOT
TORSDOF 0
ENDMDL
MODEL 6
REMARK VINA RESULT:    -4.921     11.558     13.569
REMARK INTER + INTRA:          -4.921
REMARK INTER:                  -4.921
REMARK INTRA:                   0.000
REMARK UNBOUND:                 0.000
REMARK SMILES O=c1ccc2ccc3occc3c2o1
REMARK SMILES IDX 6 1 7 2 8 3 12 4 11 5 10 6 9 7 13 8 5 9 4 10 3 11 2 12 1 13
REMARK SMILES IDX 14 14
REMARK H PARENT
REMARK Flexibility Score: inf
ROOT
ATOM      1  C   UNL     1       9.341  -6.539  19.771  1.00  0.00     0.016 A 
ATOM      2  C   UNL     1       8.198  -5.806  19.396  1.00  0.00     0.048 A 
ATOM      3  C   UNL     1       8.368  -4.475  19.016  1.00  0.00     0.137 A 
ATOM      4  C   UNL     1       9.601  -3.878  19.001  1.00  0.00     0.064 A 
ATOM      5  C   UNL     1       9.412  -2.581  18.584  1.00  0.00     0.054 A 
ATOM      6  C   UNL     1       8.041  -2.479  18.369  1.00  0.00     0.196 A 
ATOM      7  O   UNL     1       7.445  -3.627  18.636  1.00  0.00    -0.464 OA
ATOM      8  C   UNL     1      10.755  -4.570  19.365  1.00  0.00     0.149 A 
ATOM      9  C   UNL     1      10.618  -5.926  19.757  1.00  0.00     0.018 A 
ATOM     10  C   UNL     1      11.772  -6.625  20.123  1.00  0.00     0.019 A 
ATOM     11  C   UNL     1      13.006  -5.974  20.092  1.00  0.00     0.094 A 
ATOM     12  C   UNL     1      13.059  -4.632  19.693  1.00  0.00     0.336 A 
ATOM     13  O   UNL     1      14.165  -4.031  19.659  1.00  0.00    -0.246 OA
ATOM     14  O   UNL     1      11.949  -3.985  19.349  1.00  0.00    -0.422 OA
ENDROOT
TORSDOF 0
ENDMDL
MODEL 7
REMARK VINA RESULT:    -4.896     10.656     12.418
REMARK INTER + INTRA:          -4.896
REMARK INTER:                  -4.896
REMARK INTRA:                   0.000
REMARK UNBOUND:                 0.000
REMARK SMILES O=c1ccc2ccc3occc3c2o1
REMARK SMILES IDX 6 1 7 2 8 3 12 4 11 5 10 6 9 7 13 8 5 9 4 10 3 11 2 12 1 13
REMARK SMILES IDX 14 14
REMARK H PARENT
REMARK Flexibility Score: inf
ROOT
ATOM      1  C   UNL     1      11.918  -3.921  19.323  1.00  0.00     0.016 A 
ATOM      2  C   UNL     1      11.789  -2.650  18.729  1.00  0.00     0.048 A 
ATOM      3  C   UNL     1      10.533  -2.271  18.259  1.00  0.00     0.137 A 
ATOM      4  C   UNL     1       9.442  -3.093  18.362  1.00  0.00     0.064 A 
ATOM      5  C   UNL     1       8.378  -2.418  17.808  1.00  0.00     0.054 A 
ATOM      6  C   UNL     1       8.912  -1.201  17.396  1.00  0.00     0.196 A 
ATOM      7  O   UNL     1      10.202  -1.143  17.680  1.00  0.00    -0.464 OA
ATOM      8  C   UNL     1       9.529  -4.356  18.943  1.00  0.00     0.149 A 
ATOM      9  C   UNL     1      10.793  -4.775  19.432  1.00  0.00     0.018 A 
ATOM     10  C   UNL     1      10.887  -6.042  20.015  1.00  0.00     0.019 A 
ATOM     11  C   UNL     1       9.748  -6.843  20.098  1.00  0.00     0.094 A 
ATOM     12  C   UNL     1       8.534  -6.359  19.592  1.00  0.00     0.336 A 
ATOM     13  O   UNL     1       7.497  -7.071  19.660  1.00  0.00    -0.246 OA
ATOM     14  O   UNL     1       8.467  -5.150  19.040  1.00  0.00    -0.422 OA
ENDROOT
TORSDOF 0
ENDMDL
MODEL 8
REMARK VINA RESULT:    -4.845     11.562     13.363
REMARK INTER + INTRA:          -4.845
REMARK INTER:                  -4.845
REMARK INTRA:                   0.000
REMARK UNBOUND:                 0.000
REMARK SMILES O=c1ccc2ccc3occc3c2o1
REMARK SMILES IDX 6 1 7 2 8 3 12 4 11 5 10 6 9 7 13 8 5 9 4 10 3 11 2 12 1 13
REMARK SMILES IDX 14 14
REMARK H PARENT
REMARK Flexibility Score: inf
ROOT
ATOM      1  C   UNL     1       9.211  -2.868  17.881  1.00  0.00     0.016 A 
ATOM      2  C   UNL     1       8.348  -3.914  18.264  1.00  0.00     0.048 A 
ATOM      3  C   UNL     1       8.882  -4.966  19.007  1.00  0.00     0.137 A 
ATOM      4  C   UNL     1      10.203  -5.002  19.365  1.00  0.00     0.064 A 
ATOM      5  C   UNL     1      10.392  -6.162  20.082  1.00  0.00     0.054 A 
ATOM      6  C   UNL     1       9.138  -6.764  20.109  1.00  0.00     0.196 A 
ATOM      7  O   UNL     1       8.256  -6.025  19.458  1.00  0.00    -0.464 OA
ATOM      8  C   UNL     1      11.088  -3.988  19.006  1.00  0.00     0.149 A 
ATOM      9  C   UNL     1      10.578  -2.901  18.249  1.00  0.00     0.018 A 
ATOM     10  C   UNL     1      11.461  -1.881  17.885  1.00  0.00     0.019 A 
ATOM     11  C   UNL     1      12.799  -1.962  18.274  1.00  0.00     0.094 A 
ATOM     12  C   UNL     1      13.227  -3.067  19.021  1.00  0.00     0.336 A 
ATOM     13  O   UNL     1      14.431  -3.155  19.379  1.00  0.00    -0.246 OA
ATOM     14  O   UNL     1      12.370  -4.028  19.356  1.00  0.00    -0.422 OA
ENDROOT
TORSDOF 0
ENDMDL
