MODEL 1
REMARK VINA RESULT:    -3.194      0.000      0.000
REMARK INTER + INTRA:          -5.590
REMARK INTER:                  -4.501
REMARK INTRA:                  -1.089
REMARK UNBOUND:                -1.089
REMARK SMILES C=CC(=C)CCC=C(C)CCC=C(C)C
REMARK SMILES IDX 8 1 7 2 9 3 10 4 11 5 12 6 14 7 13 8 15 9 6 10 5 11 3 12
REMARK SMILES IDX 4 13 2 14 1 15
REMARK H PARENT
REMARK Flexibility Score: inf
ROOT
ATOM      1  C   UNL     1     137.816 136.231 121.869  1.00  0.00    -0.077 C 
ATOM      2  C   UNL     1     136.903 135.763 122.749  1.00  0.00    -0.028 C 
ATOM      3  C   UNL     1     137.699 137.606 121.253  1.00  0.00     0.039 C 
ENDROOT
BRANCH   1   4
ATOM      4  C   UNL     1     138.987 135.353 121.488  1.00  0.00     0.034 C 
BRANCH   4   5
ATOM      5  C   UNL     1     139.738 134.875 122.735  1.00  0.00     0.032 C 
BRANCH   5   6
ATOM      6  C   UNL     1     140.506 136.010 123.366  1.00  0.00    -0.028 C 
ATOM      7  C   UNL     1     139.310 135.813 125.558  1.00  0.00     0.039 C 
ATOM      8  C   UNL     1     140.346 136.420 124.645  1.00  0.00    -0.080 C 
ATOM      9  C   UNL     1     141.189 137.548 125.181  1.00  0.00     0.039 C 
ENDBRANCH   5   6
ENDBRANCH   4   5
ENDBRANCH   1   4
BRANCH   2  10
ATOM     10  C   UNL     1     135.719 136.550 123.257  1.00  0.00     0.032 C 
BRANCH  10  11
ATOM     11  C   UNL     1     136.137 137.662 124.231  1.00  0.00     0.039 C 
BRANCH  11  12
ATOM     12  C   UNL     1     135.514 138.997 123.870  1.00  0.00    -0.055 C 
ATOM     13  C   UNL     1     134.999 139.157 122.646  1.00  0.00     0.012 C 
BRANCH  12  14
ATOM     14  C   UNL     1     135.415 140.127 124.833  1.00  0.00    -0.005 C 
ATOM     15  C   UNL     1     134.933 141.334 124.537  1.00  0.00     0.009 C 
ENDBRANCH  12  14
ENDBRANCH  11  12
ENDBRANCH  10  11
ENDBRANCH   2  10
TORSDOF 7
ENDMDL
MODEL 2
REMARK VINA RESULT:    -3.131      1.228      4.846
REMARK INTER + INTRA:          -5.501
REMARK INTER:                  -4.731
REMARK INTRA:                  -0.770
REMARK UNBOUND:                -1.089
REMARK SMILES C=CC(=C)CCC=C(C)CCC=C(C)C
REMARK SMILES IDX 8 1 7 2 9 3 10 4 11 5 12 6 14 7 13 8 15 9 6 10 5 11 3 12
REMARK SMILES IDX 4 13 2 14 1 15
REMARK H PARENT
REMARK Flexibility Score: inf
ROOT
ATOM      1  C   UNL     1     138.759 135.411 125.349  1.00  0.00    -0.077 C 
ATOM      2  C   UNL     1     138.846 134.937 124.086  1.00  0.00    -0.028 C 
ATOM      3  C   UNL     1     139.975 135.900 126.103  1.00  0.00     0.039 C 
ENDROOT
BRANCH   1   4
ATOM      4  C   UNL     1     137.408 135.453 126.028  1.00  0.00     0.034 C 
BRANCH   4   5
ATOM      5  C   UNL     1     136.369 136.135 125.132  1.00  0.00     0.032 C 
BRANCH   5   6
ATOM      6  C   UNL     1     136.449 137.636 125.265  1.00  0.00    -0.028 C 
ATOM      7  C   UNL     1     135.141 138.051 123.169  1.00  0.00     0.039 C 
ATOM      8  C   UNL     1     135.874 138.508 124.407  1.00  0.00    -0.080 C 
ATOM      9  C   UNL     1     135.993 139.990 124.652  1.00  0.00     0.039 C 
ENDBRANCH   5   6
ENDBRANCH   4   5
ENDBRANCH   1   4
BRANCH   2  10
ATOM     10  C   UNL     1     140.117 134.889 123.274  1.00  0.00     0.032 C 
BRANCH  10  11
ATOM     11  C   UNL     1     139.980 135.636 121.939  1.00  0.00     0.039 C 
BRANCH  11  12
ATOM     12  C   UNL     1     138.560 136.112 121.695  1.00  0.00    -0.055 C 
ATOM     13  C   UNL     1     137.580 135.204 121.631  1.00  0.00     0.012 C 
BRANCH  12  14
ATOM     14  C   UNL     1     138.202 137.550 121.566  1.00  0.00    -0.005 C 
ATOM     15  C   UNL     1     137.549 138.077 120.530  1.00  0.00     0.009 C 
ENDBRANCH  12  14
ENDBRANCH  11  12
ENDBRANCH  10  11
ENDBRANCH   2  10
TORSDOF 7
ENDMDL
MODEL 3
REMARK VINA RESULT:    -2.930      1.356      4.374
REMARK INTER + INTRA:          -5.219
REMARK INTER:                  -4.027
REMARK INTRA:                  -1.192
REMARK UNBOUND:                -1.089
REMARK SMILES C=CC(=C)CCC=C(C)CCC=C(C)C
REMARK SMILES IDX 8 1 7 2 9 3 10 4 11 5 12 6 14 7 13 8 15 9 6 10 5 11 3 12
REMARK SMILES IDX 4 13 2 14 1 15
REMARK H PARENT
REMARK Flexibility Score: inf
ROOT
ATOM      1  C   UNL     1     139.440 135.552 124.386  1.00  0.00    -0.077 C 
ATOM      2  C   UNL     1     138.973 135.014 123.237  1.00  0.00    -0.028 C 
ATOM      3  C   UNL     1     140.420 136.703 124.388  1.00  0.00     0.039 C 
ENDROOT
BRANCH   1   4
ATOM      4  C   UNL     1     138.969 134.985 125.707  1.00  0.00     0.034 C 
BRANCH   4   5
ATOM      5  C   UNL     1     137.458 135.175 125.874  1.00  0.00     0.032 C 
BRANCH   5   6
ATOM      6  C   UNL     1     137.079 136.626 125.706  1.00  0.00    -0.028 C 
ATOM      7  C   UNL     1     135.733 136.198 123.637  1.00  0.00     0.039 C 
ATOM      8  C   UNL     1     136.277 137.094 124.723  1.00  0.00    -0.080 C 
ATOM      9  C   UNL     1     135.939 138.561 124.666  1.00  0.00     0.039 C 
ENDBRANCH   5   6
ENDBRANCH   4   5
ENDBRANCH   1   4
BRANCH   2  10
ATOM     10  C   UNL     1     139.315 135.515 121.855  1.00  0.00     0.032 C 
BRANCH  10  11
ATOM     11  C   UNL     1     138.074 135.993 121.087  1.00  0.00     0.039 C 
BRANCH  11  12
ATOM     12  C   UNL     1     138.069 137.497 120.891  1.00  0.00    -0.055 C 
ATOM     13  C   UNL     1     137.994 138.286 121.968  1.00  0.00     0.012 C 
BRANCH  12  14
ATOM     14  C   UNL     1     138.186 138.136 119.552  1.00  0.00    -0.005 C 
ATOM     15  C   UNL     1     137.288 138.973 119.032  1.00  0.00     0.009 C 
ENDBRANCH  12  14
ENDBRANCH  11  12
ENDBRANCH  10  11
ENDBRANCH   2  10
TORSDOF 7
ENDMDL
MODEL 4
REMARK VINA RESULT:    -2.576     13.303     16.086
REMARK INTER + INTRA:          -4.720
REMARK INTER:                  -3.974
REMARK INTRA:                  -0.746
REMARK UNBOUND:                -1.089
REMARK SMILES C=CC(=C)CCC=C(C)CCC=C(C)C
REMARK SMILES IDX 8 1 7 2 9 3 10 4 11 5 12 6 14 7 13 8 15 9 6 10 5 11 3 12
REMARK SMILES IDX 4 13 2 14 1 15
REMARK H PARENT
REMARK Flexibility Score: inf
ROOT
ATOM      1  C   UNL     1     136.214 154.093 124.925  1.00  0.00    -0.077 C 
ATOM      2  C   UNL     1     137.526 153.882 124.678  1.00  0.00    -0.028 C 
ATOM      3  C   UNL     1     135.311 154.775 123.922  1.00  0.00     0.039 C 
ENDROOT
BRANCH   1   4
ATOM      4  C   UNL     1     135.632 153.635 126.244  1.00  0.00     0.034 C 
BRANCH   4   5
ATOM      5  C   UNL     1     135.538 152.107 126.298  1.00  0.00     0.032 C 
BRANCH   5   6
ATOM      6  C   UNL     1     134.945 151.562 125.021  1.00  0.00    -0.028 C 
ATOM      7  C   UNL     1     136.987 150.226 124.455  1.00  0.00     0.039 C 
ATOM      8  C   UNL     1     135.574 150.690 124.201  1.00  0.00    -0.080 C 
ATOM      9  C   UNL     1     134.875 150.187 122.965  1.00  0.00     0.039 C 
ENDBRANCH   5   6
ENDBRANCH   4   5
ENDBRANCH   1   4
BRANCH   2  10
ATOM     10  C   UNL     1     138.222 154.238 123.387  1.00  0.00     0.032 C 
BRANCH  10  11
ATOM     11  C   UNL     1     138.565 152.996 122.551  1.00  0.00     0.039 C 
BRANCH  11  12
ATOM     12  C   UNL     1     137.694 152.885 121.313  1.00  0.00    -0.055 C 
ATOM     13  C   UNL     1     138.219 153.213 120.127  1.00  0.00     0.012 C 
BRANCH  12  14
ATOM     14  C   UNL     1     136.293 152.387 121.355  1.00  0.00    -0.005 C 
ATOM     15  C   UNL     1     135.215 153.167 121.443  1.00  0.00     0.009 C 
ENDBRANCH  12  14
ENDBRANCH  11  12
ENDBRANCH  10  11
ENDBRANCH   2  10
TORSDOF 7
ENDMDL
MODEL 5
REMARK VINA RESULT:    -2.290     12.560     16.136
REMARK INTER + INTRA:          -4.317
REMARK INTER:                  -3.642
REMARK INTRA:                  -0.675
REMARK UNBOUND:                -1.089
REMARK SMILES C=CC(=C)CCC=C(C)CCC=C(C)C
REMARK SMILES IDX 8 1 7 2 9 3 10 4 11 5 12 6 14 7 13 8 15 9 6 10 5 11 3 12
REMARK SMILES IDX 4 13 2 14 1 15
REMARK H PARENT
REMARK Flexibility Score: inf
ROOT
ATOM      1  C   UNL     1     136.736 154.537 124.486  1.00  0.00    -0.077 C 
ATOM      2  C   UNL     1     136.491 153.660 125.485  1.00  0.00    -0.028 C 
ATOM      3  C   UNL     1     135.629 155.089 123.617  1.00  0.00     0.039 C 
ENDROOT
BRANCH   1   4
ATOM      4  C   UNL     1     138.160 154.980 124.230  1.00  0.00     0.034 C 
BRANCH   4   5
ATOM      5  C   UNL     1     138.727 154.298 122.981  1.00  0.00     0.032 C 
BRANCH   5   6
ATOM      6  C   UNL     1     137.743 153.298 122.424  1.00  0.00    -0.028 C 
ATOM      7  C   UNL     1     138.583 153.540 120.076  1.00  0.00     0.039 C 
ATOM      8  C   UNL     1     137.690 152.924 121.125  1.00  0.00    -0.080 C 
ATOM      9  C   UNL     1     136.685 151.893 120.683  1.00  0.00     0.039 C 
ENDBRANCH   5   6
ENDBRANCH   4   5
ENDBRANCH   1   4
BRANCH   2  10
ATOM     10  C   UNL     1     135.117 153.177 125.883  1.00  0.00     0.032 C 
BRANCH  10  11
ATOM     11  C   UNL     1     134.990 151.650 125.790  1.00  0.00     0.039 C 
BRANCH  11  12
ATOM     12  C   UNL     1     135.609 151.103 124.517  1.00  0.00    -0.055 C 
ATOM     13  C   UNL     1     134.876 151.093 123.399  1.00  0.00     0.012 C 
BRANCH  12  14
ATOM     14  C   UNL     1     137.012 150.613 124.449  1.00  0.00    -0.005 C 
ATOM     15  C   UNL     1     137.408 149.396 124.821  1.00  0.00     0.009 C 
ENDBRANCH  12  14
ENDBRANCH  11  12
ENDBRANCH  10  11
ENDBRANCH   2  10
TORSDOF 7
ENDMDL
MODEL 6
REMARK VINA RESULT:    -2.187      1.163      3.490
REMARK INTER + INTRA:          -4.171
REMARK INTER:                  -3.574
REMARK INTRA:                  -0.597
REMARK UNBOUND:                -1.089
REMARK SMILES C=CC(=C)CCC=C(C)CCC=C(C)C
REMARK SMILES IDX 8 1 7 2 9 3 10 4 11 5 12 6 14 7 13 8 15 9 6 10 5 11 3 12
REMARK SMILES IDX 4 13 2 14 1 15
REMARK H PARENT
REMARK Flexibility Score: inf
ROOT
ATOM      1  C   UNL     1     139.734 135.546 123.956  1.00  0.00    -0.077 C 
ATOM      2  C   UNL     1     138.669 135.045 124.620  1.00  0.00    -0.028 C 
ATOM      3  C   UNL     1     140.542 136.702 124.498  1.00  0.00     0.039 C 
ENDROOT
BRANCH   1   4
ATOM      4  C   UNL     1     140.129 134.931 122.631  1.00  0.00     0.034 C 
BRANCH   4   5
ATOM      5  C   UNL     1     139.070 135.218 121.561  1.00  0.00     0.032 C 
BRANCH   5   6
ATOM      6  C   UNL     1     138.263 136.441 121.920  1.00  0.00    -0.028 C 
ATOM      7  C   UNL     1     138.545 137.486 119.661  1.00  0.00     0.039 C 
ATOM      8  C   UNL     1     137.992 137.452 121.064  1.00  0.00    -0.080 C 
ATOM      9  C   UNL     1     137.149 138.615 121.521  1.00  0.00     0.039 C 
ENDBRANCH   5   6
ENDBRANCH   4   5
ENDBRANCH   1   4
BRANCH   2  10
ATOM     10  C   UNL     1     138.200 135.525 125.972  1.00  0.00     0.032 C 
BRANCH  10  11
ATOM     11  C   UNL     1     136.699 135.855 125.982  1.00  0.00     0.039 C 
BRANCH  11  12
ATOM     12  C   UNL     1     136.321 136.817 124.872  1.00  0.00    -0.055 C 
ATOM     13  C   UNL     1     135.698 136.338 123.790  1.00  0.00     0.012 C 
BRANCH  12  14
ATOM     14  C   UNL     1     136.576 138.281 124.952  1.00  0.00    -0.005 C 
ATOM     15  C   UNL     1     135.693 139.222 124.621  1.00  0.00     0.009 C 
ENDBRANCH  12  14
ENDBRANCH  11  12
ENDBRANCH  10  11
ENDBRANCH   2  10
TORSDOF 7
ENDMDL
MODEL 7
REMARK VINA RESULT:    -2.043     12.530     15.751
REMARK INTER + INTRA:          -3.969
REMARK INTER:                  -2.892
REMARK INTRA:                  -1.076
REMARK UNBOUND:                -1.089
REMARK SMILES C=CC(=C)CCC=C(C)CCC=C(C)C
REMARK SMILES IDX 8 1 7 2 9 3 10 4 11 5 12 6 14 7 13 8 15 9 6 10 5 11 3 12
REMARK SMILES IDX 4 13 2 14 1 15
REMARK H PARENT
REMARK Flexibility Score: inf
ROOT
ATOM      1  C   UNL     1     135.758 152.900 121.840  1.00  0.00    -0.077 C 
ATOM      2  C   UNL     1     137.083 152.876 122.111  1.00  0.00    -0.028 C 
ATOM      3  C   UNL     1     135.023 154.191 121.562  1.00  0.00     0.039 C 
ENDROOT
BRANCH   1   4
ATOM      4  C   UNL     1     134.990 151.597 121.815  1.00  0.00     0.034 C 
BRANCH   4   5
ATOM      5  C   UNL     1     134.875 151.005 123.224  1.00  0.00     0.032 C 
BRANCH   5   6
ATOM      6  C   UNL     1     136.144 150.283 123.607  1.00  0.00    -0.028 C 
ATOM      7  C   UNL     1     135.800 150.650 126.060  1.00  0.00     0.039 C 
ATOM      8  C   UNL     1     136.554 150.088 124.880  1.00  0.00    -0.080 C 
ATOM      9  C   UNL     1     137.826 149.326 125.149  1.00  0.00     0.039 C 
ENDBRANCH   5   6
ENDBRANCH   4   5
ENDBRANCH   1   4
BRANCH   2  10
ATOM     10  C   UNL     1     137.978 154.091 122.114  1.00  0.00     0.032 C 
BRANCH  10  11
ATOM     11  C   UNL     1     137.589 155.095 123.210  1.00  0.00     0.039 C 
BRANCH  11  12
ATOM     12  C   UNL     1     137.871 154.559 124.600  1.00  0.00    -0.055 C 
ATOM     13  C   UNL     1     139.120 154.629 125.075  1.00  0.00     0.012 C 
BRANCH  12  14
ATOM     14  C   UNL     1     136.811 153.994 125.478  1.00  0.00    -0.005 C 
ATOM     15  C   UNL     1     135.505 154.205 125.318  1.00  0.00     0.009 C 
ENDBRANCH  12  14
ENDBRANCH  11  12
ENDBRANCH  10  11
ENDBRANCH   2  10
TORSDOF 7
ENDMDL
MODEL 8
REMARK VINA RESULT:    -2.003      1.358      5.199
REMARK INTER + INTRA:          -3.912
REMARK INTER:                  -3.356
REMARK INTRA:                  -0.556
REMARK UNBOUND:                -1.089
REMARK SMILES C=CC(=C)CCC=C(C)CCC=C(C)C
REMARK SMILES IDX 8 1 7 2 9 3 10 4 11 5 12 6 14 7 13 8 15 9 6 10 5 11 3 12
REMARK SMILES IDX 4 13 2 14 1 15
REMARK H PARENT
REMARK Flexibility Score: inf
ROOT
ATOM      1  C   UNL     1     137.269 135.358 125.377  1.00  0.00    -0.077 C 
ATOM      2  C   UNL     1     138.518 134.875 125.192  1.00  0.00    -0.028 C 
ATOM      3  C   UNL     1     136.954 136.363 126.461  1.00  0.00     0.039 C 
ENDROOT
BRANCH   1   4
ATOM      4  C   UNL     1     136.155 134.878 124.474  1.00  0.00     0.034 C 
BRANCH   4   5
ATOM      5  C   UNL     1     135.845 135.916 123.391  1.00  0.00     0.032 C 
BRANCH   5   6
ATOM      6  C   UNL     1     135.613 137.276 124.003  1.00  0.00    -0.028 C 
ATOM      7  C   UNL     1     136.758 138.489 122.135  1.00  0.00     0.039 C 
ATOM      8  C   UNL     1     135.990 138.442 123.432  1.00  0.00    -0.080 C 
ATOM      9  C   UNL     1     135.680 139.747 124.120  1.00  0.00     0.039 C 
ENDBRANCH   5   6
ENDBRANCH   4   5
ENDBRANCH   1   4
BRANCH   2  10
ATOM     10  C   UNL     1     139.730 135.306 125.983  1.00  0.00     0.032 C 
BRANCH  10  11
ATOM     11  C   UNL     1     140.708 136.136 125.138  1.00  0.00     0.039 C 
BRANCH  11  12
ATOM     12  C   UNL     1     140.110 136.537 123.803  1.00  0.00    -0.055 C 
ATOM     13  C   UNL     1     139.580 137.758 123.676  1.00  0.00     0.012 C 
BRANCH  12  14
ATOM     14  C   UNL     1     140.122 135.643 122.613  1.00  0.00    -0.005 C 
ATOM     15  C   UNL     1     139.046 135.329 121.892  1.00  0.00     0.009 C 
ENDBRANCH  12  14
ENDBRANCH  11  12
ENDBRANCH  10  11
ENDBRANCH   2  10
TORSDOF 7
ENDMDL
