MODEL 1
REMARK VINA RESULT:    -7.182      0.000      0.000
REMARK INTER + INTRA:         -11.759
REMARK INTER:                 -11.170
REMARK INTRA:                  -0.589
REMARK UNBOUND:                -0.589
REMARK SMILES C[C@@]12C[C@@]3(O)O[C@@H](O1)[C@]1(COC(=O)c4ccccc4)[C@H]3C[C@@]12O[C@H]1O[C@H](CO)[C@@H](O)[C@@H](O)[C@H]1O
REMARK SMILES IDX 1 1 2 2 3 3 4 4 20 5 21 6 22 7 9 8 7 9 8 10 6 11 23 12 24 13
REMARK SMILES IDX 33 14 25 15 31 16 26 17 29 18 34 19 32 21 27 23 28 24 30 26
REMARK SMILES IDX 5 28 10 30 11 31 12 32 13 33 14 34 15 35 19 36 16 37 18 38
REMARK SMILES IDX 17 39
REMARK H PARENT 34 20 32 22 28 25 30 27 5 29
REMARK Flexibility Score: inf
ROOT
ATOM      1  C   UNL     1     128.782 126.150 110.755  1.00  0.00     0.046 C 
ATOM      2  C   UNL     1     128.801 127.475 111.514  1.00  0.00     0.104 C 
ATOM      3  C   UNL     1     127.940 128.570 110.783  1.00  0.00     0.104 C 
ATOM      4  C   UNL     1     128.146 129.852 111.666  1.00  0.00     0.175 C 
ATOM      5  C   UNL     1     129.666 130.085 111.956  1.00  0.00     0.070 C 
ATOM      6  C   UNL     1     130.584 129.325 110.988  1.00  0.00     0.050 C 
ATOM      7  C   UNL     1     130.239 128.053 111.802  1.00  0.00     0.115 C 
ATOM      8  C   UNL     1     129.863 128.969 112.968  1.00  0.00     0.096 C 
ATOM      9  C   UNL     1     128.480 128.556 113.435  1.00  0.00     0.267 C 
ATOM     10  O   UNL     1     128.215 127.319 112.794  1.00  0.00    -0.342 OA
ATOM     11  O   UNL     1     127.594 129.541 112.928  1.00  0.00    -0.320 OA
ENDROOT
BRANCH   7  12
ATOM     12  O   UNL     1     131.258 127.118 112.135  1.00  0.00    -0.339 OA
BRANCH  12  13
ATOM     13  C   UNL     1     131.690 126.363 111.010  1.00  0.00     0.282 C 
ATOM     14  C   UNL     1     132.137 124.945 111.429  1.00  0.00     0.202 C 
ATOM     15  O   UNL     1     132.743 127.024 110.322  1.00  0.00    -0.341 OA
ATOM     16  C   UNL     1     133.427 124.992 112.269  1.00  0.00     0.179 C 
ATOM     17  C   UNL     1     133.887 127.200 111.146  1.00  0.00     0.178 C 
ATOM     18  C   UNL     1     134.489 125.832 111.545  1.00  0.00     0.177 C 
BRANCH  14  19
ATOM     19  O   UNL     1     131.109 124.304 112.137  1.00  0.00    -0.385 OA
ATOM     20  H   UNL     1     130.465 125.009 112.409  1.00  0.00     0.211 HD
ENDBRANCH  14  19
BRANCH  16  21
ATOM     21  O   UNL     1     133.172 125.540 113.539  1.00  0.00    -0.387 OA
ATOM     22  H   UNL     1     133.603 126.434 113.560  1.00  0.00     0.211 HD
ENDBRANCH  16  21
BRANCH  17  23
ATOM     23  C   UNL     1     134.897 128.070 110.389  1.00  0.00     0.191 C 
BRANCH  23  24
ATOM     24  O   UNL     1     135.847 127.269 109.742  1.00  0.00    -0.394 OA
ATOM     25  H   UNL     1     136.659 127.289 110.313  1.00  0.00     0.210 HD
ENDBRANCH  23  24
ENDBRANCH  17  23
BRANCH  18  26
ATOM     26  O   UNL     1     135.595 126.008 112.394  1.00  0.00    -0.387 OA
ATOM     27  H   UNL     1     136.039 125.124 112.484  1.00  0.00     0.211 HD
ENDBRANCH  18  26
ENDBRANCH  12  13
ENDBRANCH   7  12
BRANCH   4  28
ATOM     28  O   UNL     1     127.523 130.982 111.120  1.00  0.00    -0.365 OA
ATOM     29  H   UNL     1     126.737 130.654 110.611  1.00  0.00     0.214 HD
ENDBRANCH   4  28
BRANCH   8  30
ATOM     30  C   UNL     1     130.915 129.245 114.056  1.00  0.00     0.249 C 
BRANCH  30  31
ATOM     31  O   UNL     1     130.268 129.491 115.300  1.00  0.00    -0.461 OA
BRANCH  31  32
ATOM     32  C   UNL     1     130.857 129.199 116.534  1.00  0.00     0.338 C 
ATOM     33  O   UNL     1     132.077 128.880 116.593  1.00  0.00    -0.246 OA
BRANCH  32  34
ATOM     34  C   UNL     1     130.040 129.250 117.764  1.00  0.00     0.060 A 
ATOM     35  C   UNL     1     130.593 128.864 118.999  1.00  0.00     0.015 A 
ATOM     36  C   UNL     1     128.704 129.693 117.724  1.00  0.00     0.015 A 
ATOM     37  C   UNL     1     129.828 128.926 120.167  1.00  0.00     0.001 A 
ATOM     38  C   UNL     1     127.943 129.753 118.894  1.00  0.00     0.001 A 
ATOM     39  C   UNL     1     128.505 129.370 120.116  1.00  0.00     0.000 A 
ENDBRANCH  32  34
ENDBRANCH  31  32
ENDBRANCH  30  31
ENDBRANCH   8  30
TORSDOF 12
ENDMDL
MODEL 2
REMARK VINA RESULT:    -7.069      2.295      5.862
REMARK INTER + INTRA:         -11.583
REMARK INTER:                 -11.391
REMARK INTRA:                  -0.193
REMARK UNBOUND:                -0.589
REMARK SMILES C[C@@]12C[C@@]3(O)O[C@@H](O1)[C@]1(COC(=O)c4ccccc4)[C@H]3C[C@@]12O[C@H]1O[C@H](CO)[C@@H](O)[C@@H](O)[C@H]1O
REMARK SMILES IDX 1 1 2 2 3 3 4 4 20 5 21 6 22 7 9 8 7 9 8 10 6 11 23 12 24 13
REMARK SMILES IDX 33 14 25 15 31 16 26 17 29 18 34 19 32 21 27 23 28 24 30 26
REMARK SMILES IDX 5 28 10 30 11 31 12 32 13 33 14 34 15 35 19 36 16 37 18 38
REMARK SMILES IDX 17 39
REMARK H PARENT 34 20 32 22 28 25 30 27 5 29
REMARK Flexibility Score: inf
ROOT
ATOM      1  C   UNL     1     130.268 129.263 108.881  1.00  0.00     0.046 C 
ATOM      2  C   UNL     1     130.119 128.671 110.281  1.00  0.00     0.104 C 
ATOM      3  C   UNL     1     129.455 127.246 110.236  1.00  0.00     0.104 C 
ATOM      4  C   UNL     1     129.326 126.850 111.751  1.00  0.00     0.175 C 
ATOM      5  C   UNL     1     128.679 128.014 112.573  1.00  0.00     0.070 C 
ATOM      6  C   UNL     1     127.938 129.030 111.691  1.00  0.00     0.050 C 
ATOM      7  C   UNL     1     129.334 129.577 111.304  1.00  0.00     0.115 C 
ATOM      8  C   UNL     1     129.875 128.952 112.591  1.00  0.00     0.096 C 
ATOM      9  C   UNL     1     131.085 128.120 112.211  1.00  0.00     0.267 C 
ATOM     10  O   UNL     1     131.392 128.481 110.875  1.00  0.00    -0.342 OA
ATOM     11  O   UNL     1     130.649 126.771 112.241  1.00  0.00    -0.320 OA
ENDROOT
BRANCH   7  12
ATOM     12  O   UNL     1     129.558 130.980 111.230  1.00  0.00    -0.339 OA
BRANCH  12  13
ATOM     13  C   UNL     1     128.963 131.564 110.078  1.00  0.00     0.282 C 
ATOM     14  C   UNL     1     129.698 132.858 109.667  1.00  0.00     0.202 C 
ATOM     15  O   UNL     1     127.584 131.832 110.292  1.00  0.00    -0.341 OA
ATOM     16  C   UNL     1     129.488 133.975 110.708  1.00  0.00     0.179 C 
ATOM     17  C   UNL     1     127.382 132.753 111.354  1.00  0.00     0.178 C 
ATOM     18  C   UNL     1     127.991 134.132 111.006  1.00  0.00     0.177 C 
BRANCH  14  19
ATOM     19  O   UNL     1     131.066 132.602 109.488  1.00  0.00    -0.385 OA
ATOM     20  H   UNL     1     131.495 132.702 110.378  1.00  0.00     0.211 HD
ENDBRANCH  14  19
BRANCH  16  21
ATOM     21  O   UNL     1     130.182 133.680 111.896  1.00  0.00    -0.387 OA
ATOM     22  H   UNL     1     129.997 132.728 112.111  1.00  0.00     0.211 HD
ENDBRANCH  16  21
BRANCH  17  23
ATOM     23  C   UNL     1     125.876 132.847 111.631  1.00  0.00     0.191 C 
BRANCH  23  24
ATOM     24  O   UNL     1     125.645 133.309 112.934  1.00  0.00    -0.394 OA
ATOM     25  H   UNL     1     125.683 132.509 113.520  1.00  0.00     0.210 HD
ENDBRANCH  23  24
ENDBRANCH  17  23
BRANCH  18  26
ATOM     26  O   UNL     1     127.826 135.029 112.076  1.00  0.00    -0.387 OA
ATOM     27  H   UNL     1     127.494 135.883 111.694  1.00  0.00     0.211 HD
ENDBRANCH  18  26
ENDBRANCH  12  13
ENDBRANCH   7  12
BRANCH   4  28
ATOM     28  O   UNL     1     128.660 125.631 111.929  1.00  0.00    -0.365 OA
ATOM     29  H   UNL     1     129.092 124.980 111.318  1.00  0.00     0.214 HD
ENDBRANCH   4  28
BRANCH   8  30
ATOM     30  C   UNL     1     129.999 129.837 113.844  1.00  0.00     0.249 C 
BRANCH  30  31
ATOM     31  O   UNL     1     129.838 129.040 115.012  1.00  0.00    -0.461 OA
BRANCH  31  32
ATOM     32  C   UNL     1     128.783 129.216 115.912  1.00  0.00     0.338 C 
ATOM     33  O   UNL     1     127.607 129.378 115.483  1.00  0.00    -0.246 OA
BRANCH  32  34
ATOM     34  C   UNL     1     129.054 129.227 117.365  1.00  0.00     0.060 A 
ATOM     35  C   UNL     1     130.268 128.718 117.863  1.00  0.00     0.015 A 
ATOM     36  C   UNL     1     128.113 129.754 118.269  1.00  0.00     0.015 A 
ATOM     37  C   UNL     1     130.535 128.742 119.235  1.00  0.00     0.001 A 
ATOM     38  C   UNL     1     128.384 129.775 119.640  1.00  0.00     0.001 A 
ATOM     39  C   UNL     1     129.594 129.269 120.123  1.00  0.00     0.000 A 
ENDBRANCH  32  34
ENDBRANCH  31  32
ENDBRANCH  30  31
ENDBRANCH   8  30
TORSDOF 12
ENDMDL
MODEL 3
REMARK VINA RESULT:    -6.668      2.902      7.075
REMARK INTER + INTRA:         -10.960
REMARK INTER:                 -10.502
REMARK INTRA:                  -0.459
REMARK UNBOUND:                -0.589
REMARK SMILES C[C@@]12C[C@@]3(O)O[C@@H](O1)[C@]1(COC(=O)c4ccccc4)[C@H]3C[C@@]12O[C@H]1O[C@H](CO)[C@@H](O)[C@@H](O)[C@H]1O
REMARK SMILES IDX 1 1 2 2 3 3 4 4 20 5 21 6 22 7 9 8 7 9 8 10 6 11 23 12 24 13
REMARK SMILES IDX 33 14 25 15 31 16 26 17 29 18 34 19 32 21 27 23 28 24 30 26
REMARK SMILES IDX 5 28 10 30 11 31 12 32 13 33 14 34 15 35 19 36 16 37 18 38
REMARK SMILES IDX 17 39
REMARK H PARENT 34 20 32 22 28 25 30 27 5 29
REMARK Flexibility Score: inf
ROOT
ATOM      1  C   UNL     1     129.497 131.993 110.093  1.00  0.00     0.046 C 
ATOM      2  C   UNL     1     129.382 130.767 110.996  1.00  0.00     0.104 C 
ATOM      3  C   UNL     1     130.013 129.494 110.321  1.00  0.00     0.104 C 
ATOM      4  C   UNL     1     129.732 128.348 111.358  1.00  0.00     0.175 C 
ATOM      5  C   UNL     1     128.233 128.362 111.805  1.00  0.00     0.070 C 
ATOM      6  C   UNL     1     127.328 129.144 110.842  1.00  0.00     0.050 C 
ATOM      7  C   UNL     1     127.918 130.429 111.473  1.00  0.00     0.115 C 
ATOM      8  C   UNL     1     128.289 129.591 112.698  1.00  0.00     0.096 C 
ATOM      9  C   UNL     1     129.754 129.849 112.991  1.00  0.00     0.267 C 
ATOM     10  O   UNL     1     130.112 130.966 112.194  1.00  0.00    -0.342 OA
ATOM     11  O   UNL     1     130.447 128.702 112.524  1.00  0.00    -0.320 OA
ENDROOT
BRANCH   7  12
ATOM     12  O   UNL     1     127.070 131.527 111.787  1.00  0.00    -0.339 OA
BRANCH  12  13
ATOM     13  C   UNL     1     126.896 132.410 110.684  1.00  0.00     0.282 C 
ATOM     14  C   UNL     1     126.600 133.848 111.164  1.00  0.00     0.202 C 
ATOM     15  O   UNL     1     125.860 131.958 109.824  1.00  0.00    -0.341 OA
ATOM     16  C   UNL     1     125.218 133.938 111.839  1.00  0.00     0.179 C 
ATOM     17  C   UNL     1     124.606 131.900 110.489  1.00  0.00     0.178 C 
ATOM     18  C   UNL     1     124.153 133.313 110.926  1.00  0.00     0.177 C 
BRANCH  14  19
ATOM     19  O   UNL     1     127.606 134.283 112.041  1.00  0.00    -0.385 OA
ATOM     20  H   UNL     1     128.086 133.470 112.351  1.00  0.00     0.211 HD
ENDBRANCH  14  19
BRANCH  16  21
ATOM     21  O   UNL     1     125.228 133.276 113.080  1.00  0.00    -0.387 OA
ATOM     22  H   UNL     1     126.134 132.885 113.191  1.00  0.00     0.211 HD
ENDBRANCH  16  21
BRANCH  17  23
ATOM     23  C   UNL     1     123.591 131.240 109.548  1.00  0.00     0.191 C 
BRANCH  23  24
ATOM     24  O   UNL     1     122.616 132.165 109.153  1.00  0.00    -0.394 OA
ATOM     25  H   UNL     1     121.740 131.747 109.360  1.00  0.00     0.210 HD
ENDBRANCH  23  24
ENDBRANCH  17  23
BRANCH  18  26
ATOM     26  O   UNL     1     122.932 133.247 111.621  1.00  0.00    -0.387 OA
ATOM     27  H   UNL     1     122.250 132.911 110.982  1.00  0.00     0.211 HD
ENDBRANCH  18  26
ENDBRANCH  12  13
ENDBRANCH   7  12
BRANCH   4  28
ATOM     28  O   UNL     1     130.142 127.092 110.891  1.00  0.00    -0.365 OA
ATOM     29  H   UNL     1     129.387 126.469 111.052  1.00  0.00     0.214 HD
ENDBRANCH   4  28
BRANCH   8  30
ATOM     30  C   UNL     1     127.326 129.576 113.898  1.00  0.00     0.249 C 
BRANCH  30  31
ATOM     31  O   UNL     1     128.061 129.381 115.102  1.00  0.00    -0.461 OA
BRANCH  31  32
ATOM     32  C   UNL     1     127.463 129.381 116.365  1.00  0.00     0.338 C 
ATOM     33  O   UNL     1     126.207 129.445 116.470  1.00  0.00    -0.246 OA
BRANCH  32  34
ATOM     34  C   UNL     1     128.310 129.323 117.575  1.00  0.00     0.060 A 
ATOM     35  C   UNL     1     129.646 128.891 117.485  1.00  0.00     0.015 A 
ATOM     36  C   UNL     1     127.800 129.708 118.829  1.00  0.00     0.015 A 
ATOM     37  C   UNL     1     130.454 128.850 118.625  1.00  0.00     0.001 A 
ATOM     38  C   UNL     1     128.612 129.665 119.966  1.00  0.00     0.001 A 
ATOM     39  C   UNL     1     129.939 129.237 119.864  1.00  0.00     0.000 A 
ENDBRANCH  32  34
ENDBRANCH  31  32
ENDBRANCH  30  31
ENDBRANCH   8  30
TORSDOF 12
ENDMDL
MODEL 4
REMARK VINA RESULT:    -6.452      4.397      8.708
REMARK INTER + INTRA:         -10.624
REMARK INTER:                 -10.400
REMARK INTRA:                  -0.224
REMARK UNBOUND:                -0.589
REMARK SMILES C[C@@]12C[C@@]3(O)O[C@@H](O1)[C@]1(COC(=O)c4ccccc4)[C@H]3C[C@@]12O[C@H]1O[C@H](CO)[C@@H](O)[C@@H](O)[C@H]1O
REMARK SMILES IDX 1 1 2 2 3 3 4 4 20 5 21 6 22 7 9 8 7 9 8 10 6 11 23 12 24 13
REMARK SMILES IDX 33 14 25 15 31 16 26 17 29 18 34 19 32 21 27 23 28 24 30 26
REMARK SMILES IDX 5 28 10 30 11 31 12 32 13 33 14 34 15 35 19 36 16 37 18 38
REMARK SMILES IDX 17 39
REMARK H PARENT 34 20 32 22 28 25 30 27 5 29
REMARK Flexibility Score: inf
ROOT
ATOM      1  C   UNL     1     125.453 134.828 110.281  1.00  0.00     0.046 C 
ATOM      2  C   UNL     1     126.413 133.641 110.320  1.00  0.00     0.104 C 
ATOM      3  C   UNL     1     127.525 133.763 109.214  1.00  0.00     0.104 C 
ATOM      4  C   UNL     1     128.348 132.434 109.371  1.00  0.00     0.175 C 
ATOM      5  C   UNL     1     127.394 131.195 109.418  1.00  0.00     0.070 C 
ATOM      6  C   UNL     1     125.992 131.497 108.869  1.00  0.00     0.050 C 
ATOM      7  C   UNL     1     125.723 132.228 110.207  1.00  0.00     0.115 C 
ATOM      8  C   UNL     1     126.852 131.399 110.824  1.00  0.00     0.096 C 
ATOM      9  C   UNL     1     127.792 132.366 111.517  1.00  0.00     0.267 C 
ATOM     10  O   UNL     1     127.104 133.605 111.556  1.00  0.00    -0.342 OA
ATOM     11  O   UNL     1     128.918 132.485 110.662  1.00  0.00    -0.320 OA
ENDROOT
BRANCH   7  12
ATOM     12  O   UNL     1     124.479 132.059 110.878  1.00  0.00    -0.339 OA
BRANCH  12  13
ATOM     13  C   UNL     1     123.981 133.281 111.410  1.00  0.00     0.282 C 
ATOM     14  C   UNL     1     123.805 133.189 112.942  1.00  0.00     0.202 C 
ATOM     15  O   UNL     1     122.752 133.644 110.797  1.00  0.00    -0.341 OA
ATOM     16  C   UNL     1     122.670 132.216 113.317  1.00  0.00     0.179 C 
ATOM     17  C   UNL     1     121.741 132.671 111.019  1.00  0.00     0.178 C 
ATOM     18  C   UNL     1     121.403 132.568 112.525  1.00  0.00     0.177 C 
BRANCH  14  19
ATOM     19  O   UNL     1     125.010 132.797 113.546  1.00  0.00    -0.385 OA
ATOM     20  H   UNL     1     124.880 132.885 114.526  1.00  0.00     0.211 HD
ENDBRANCH  14  19
BRANCH  16  21
ATOM     21  O   UNL     1     123.047 130.889 113.046  1.00  0.00    -0.387 OA
ATOM     22  H   UNL     1     123.066 130.789 112.058  1.00  0.00     0.211 HD
ENDBRANCH  16  21
BRANCH  17  23
ATOM     23  C   UNL     1     120.513 133.052 110.183  1.00  0.00     0.191 C 
BRANCH  23  24
ATOM     24  O   UNL     1     119.592 133.766 110.961  1.00  0.00    -0.394 OA
ATOM     25  H   UNL     1     120.050 134.604 111.230  1.00  0.00     0.210 HD
ENDBRANCH  23  24
ENDBRANCH  17  23
BRANCH  18  26
ATOM     26  O   UNL     1     120.432 131.575 112.746  1.00  0.00    -0.387 OA
ATOM     27  H   UNL     1     119.823 131.913 113.454  1.00  0.00     0.211 HD
ENDBRANCH  18  26
ENDBRANCH  12  13
ENDBRANCH   7  12
BRANCH   4  28
ATOM     28  O   UNL     1     129.347 132.307 108.396  1.00  0.00    -0.365 OA
ATOM     29  H   UNL     1     129.715 133.216 108.247  1.00  0.00     0.214 HD
ENDBRANCH   4  28
BRANCH   8  30
ATOM     30  C   UNL     1     126.488 130.110 111.582  1.00  0.00     0.249 C 
BRANCH  30  31
ATOM     31  O   UNL     1     126.896 130.221 112.941  1.00  0.00    -0.461 OA
BRANCH  31  32
ATOM     32  C   UNL     1     127.766 129.312 113.550  1.00  0.00     0.338 C 
ATOM     33  O   UNL     1     128.359 128.441 112.855  1.00  0.00    -0.246 OA
BRANCH  32  34
ATOM     34  C   UNL     1     127.973 129.365 115.012  1.00  0.00     0.060 A 
ATOM     35  C   UNL     1     129.271 129.272 115.548  1.00  0.00     0.015 A 
ATOM     36  C   UNL     1     126.883 129.520 115.889  1.00  0.00     0.015 A 
ATOM     37  C   UNL     1     129.472 129.339 116.929  1.00  0.00     0.001 A 
ATOM     38  C   UNL     1     127.089 129.585 117.269  1.00  0.00     0.001 A 
ATOM     39  C   UNL     1     128.383 129.495 117.790  1.00  0.00     0.000 A 
ENDBRANCH  32  34
ENDBRANCH  31  32
ENDBRANCH  30  31
ENDBRANCH   8  30
TORSDOF 12
ENDMDL
MODEL 5
REMARK VINA RESULT:    -6.447      1.674      2.853
REMARK INTER + INTRA:         -10.616
REMARK INTER:                 -10.408
REMARK INTRA:                  -0.208
REMARK UNBOUND:                -0.589
REMARK SMILES C[C@@]12C[C@@]3(O)O[C@@H](O1)[C@]1(COC(=O)c4ccccc4)[C@H]3C[C@@]12O[C@H]1O[C@H](CO)[C@@H](O)[C@@H](O)[C@H]1O
REMARK SMILES IDX 1 1 2 2 3 3 4 4 20 5 21 6 22 7 9 8 7 9 8 10 6 11 23 12 24 13
REMARK SMILES IDX 33 14 25 15 31 16 26 17 29 18 34 19 32 21 27 23 28 24 30 26
REMARK SMILES IDX 5 28 10 30 11 31 12 32 13 33 14 34 15 35 19 36 16 37 18 38
REMARK SMILES IDX 17 39
REMARK H PARENT 34 20 32 22 28 25 30 27 5 29
REMARK Flexibility Score: inf
ROOT
ATOM      1  C   UNL     1     126.816 129.211 109.018  1.00  0.00     0.046 C 
ATOM      2  C   UNL     1     127.316 129.817 110.328  1.00  0.00     0.104 C 
ATOM      3  C   UNL     1     127.647 131.346 110.165  1.00  0.00     0.104 C 
ATOM      4  C   UNL     1     128.204 131.755 111.575  1.00  0.00     0.175 C 
ATOM      5  C   UNL     1     129.297 130.743 112.053  1.00  0.00     0.070 C 
ATOM      6  C   UNL     1     129.872 129.898 110.906  1.00  0.00     0.050 C 
ATOM      7  C   UNL     1     128.556 129.084 110.966  1.00  0.00     0.115 C 
ATOM      8  C   UNL     1     128.376 129.585 112.400  1.00  0.00     0.096 C 
ATOM      9  C   UNL     1     126.976 130.158 112.502  1.00  0.00     0.267 C 
ATOM     10  O   UNL     1     126.308 129.747 111.321  1.00  0.00    -0.342 OA
ATOM     11  O   UNL     1     127.136 131.568 112.480  1.00  0.00    -0.320 OA
ENDROOT
BRANCH   7  12
ATOM     12  O   UNL     1     128.588 127.664 110.873  1.00  0.00    -0.339 OA
BRANCH  12  13
ATOM     13  C   UNL     1     129.466 127.208 109.852  1.00  0.00     0.282 C 
ATOM     14  C   UNL     1     129.193 125.727 109.504  1.00  0.00     0.202 C 
ATOM     15  O   UNL     1     130.825 127.379 110.229  1.00  0.00    -0.341 OA
ATOM     16  C   UNL     1     129.584 124.799 110.670  1.00  0.00     0.179 C 
ATOM     17  C   UNL     1     131.150 126.635 111.395  1.00  0.00     0.178 C 
ATOM     18  C   UNL     1     131.014 125.117 111.131  1.00  0.00     0.177 C 
BRANCH  14  19
ATOM     19  O   UNL     1     127.844 125.550 109.164  1.00  0.00    -0.385 OA
ATOM     20  H   UNL     1     127.313 126.089 109.808  1.00  0.00     0.211 HD
ENDBRANCH  14  19
BRANCH  16  21
ATOM     21  O   UNL     1     128.692 124.953 111.746  1.00  0.00    -0.387 OA
ATOM     22  H   UNL     1     127.811 124.610 111.443  1.00  0.00     0.211 HD
ENDBRANCH  16  21
BRANCH  17  23
ATOM     23  C   UNL     1     132.571 127.015 111.829  1.00  0.00     0.191 C 
BRANCH  23  24
ATOM     24  O   UNL     1     132.830 126.544 113.122  1.00  0.00    -0.394 OA
ATOM     25  H   UNL     1     131.953 126.510 113.584  1.00  0.00     0.210 HD
ENDBRANCH  23  24
ENDBRANCH  17  23
BRANCH  18  26
ATOM     26  O   UNL     1     131.295 124.386 112.298  1.00  0.00    -0.387 OA
ATOM     27  H   UNL     1     130.838 123.508 112.211  1.00  0.00     0.211 HD
ENDBRANCH  18  26
ENDBRANCH  12  13
ENDBRANCH   7  12
BRANCH   4  28
ATOM     28  O   UNL     1     128.651 133.083 111.608  1.00  0.00    -0.365 OA
ATOM     29  H   UNL     1     128.182 133.522 112.364  1.00  0.00     0.214 HD
ENDBRANCH   4  28
BRANCH   8  30
ATOM     30  C   UNL     1     128.852 128.690 113.558  1.00  0.00     0.249 C 
BRANCH  30  31
ATOM     31  O   UNL     1     128.787 129.413 114.783  1.00  0.00    -0.461 OA
BRANCH  31  32
ATOM     32  C   UNL     1     129.805 129.378 115.740  1.00  0.00     0.338 C 
ATOM     33  O   UNL     1     131.013 129.321 115.378  1.00  0.00    -0.246 OA
BRANCH  32  34
ATOM     34  C   UNL     1     129.458 129.392 117.177  1.00  0.00     0.060 A 
ATOM     35  C   UNL     1     128.206 129.875 117.599  1.00  0.00     0.015 A 
ATOM     36  C   UNL     1     130.366 128.914 118.141  1.00  0.00     0.015 A 
ATOM     37  C   UNL     1     127.869 129.874 118.956  1.00  0.00     0.001 A 
ATOM     38  C   UNL     1     130.025 128.916 119.496  1.00  0.00     0.001 A 
ATOM     39  C   UNL     1     128.776 129.395 119.904  1.00  0.00     0.000 A 
ENDBRANCH  32  34
ENDBRANCH  31  32
ENDBRANCH  30  31
ENDBRANCH   8  30
TORSDOF 12
ENDMDL
MODEL 6
REMARK VINA RESULT:    -6.273      3.529      5.823
REMARK INTER + INTRA:         -10.345
REMARK INTER:                  -9.558
REMARK INTRA:                  -0.788
REMARK UNBOUND:                -0.589
REMARK SMILES C[C@@]12C[C@@]3(O)O[C@@H](O1)[C@]1(COC(=O)c4ccccc4)[C@H]3C[C@@]12O[C@H]1O[C@H](CO)[C@@H](O)[C@@H](O)[C@H]1O
REMARK SMILES IDX 1 1 2 2 3 3 4 4 20 5 21 6 22 7 9 8 7 9 8 10 6 11 23 12 24 13
REMARK SMILES IDX 33 14 25 15 31 16 26 17 29 18 34 19 32 21 27 23 28 24 30 26
REMARK SMILES IDX 5 28 10 30 11 31 12 32 13 33 14 34 15 35 19 36 16 37 18 38
REMARK SMILES IDX 17 39
REMARK H PARENT 34 20 32 22 28 25 30 27 5 29
REMARK Flexibility Score: inf
ROOT
ATOM      1  C   UNL     1     123.748 131.421 109.345  1.00  0.00     0.046 C 
ATOM      2  C   UNL     1     124.911 131.627 110.313  1.00  0.00     0.104 C 
ATOM      3  C   UNL     1     125.300 133.147 110.430  1.00  0.00     0.104 C 
ATOM      4  C   UNL     1     126.539 133.137 111.396  1.00  0.00     0.175 C 
ATOM      5  C   UNL     1     127.589 132.071 110.938  1.00  0.00     0.070 C 
ATOM      6  C   UNL     1     127.397 131.631 109.480  1.00  0.00     0.050 C 
ATOM      7  C   UNL     1     126.203 130.785 109.986  1.00  0.00     0.115 C 
ATOM      8  C   UNL     1     126.834 130.827 111.378  1.00  0.00     0.096 C 
ATOM      9  C   UNL     1     125.760 131.289 112.344  1.00  0.00     0.267 C 
ATOM     10  O   UNL     1     124.543 131.224 111.620  1.00  0.00    -0.342 OA
ATOM     11  O   UNL     1     126.059 132.646 112.631  1.00  0.00    -0.320 OA
ENDROOT
BRANCH   7  12
ATOM     12  O   UNL     1     126.008 129.461 109.503  1.00  0.00    -0.339 OA
BRANCH  12  13
ATOM     13  C   UNL     1     126.794 129.182 108.351  1.00  0.00     0.282 C 
ATOM     14  C   UNL     1     125.930 128.586 107.218  1.00  0.00     0.202 C 
ATOM     15  O   UNL     1     127.866 128.304 108.662  1.00  0.00    -0.341 OA
ATOM     16  C   UNL     1     125.426 127.176 107.583  1.00  0.00     0.179 C 
ATOM     17  C   UNL     1     127.402 127.049 109.141  1.00  0.00     0.178 C 
ATOM     18  C   UNL     1     126.605 126.306 108.043  1.00  0.00     0.177 C 
BRANCH  14  19
ATOM     19  O   UNL     1     124.851 129.437 106.933  1.00  0.00    -0.385 OA
ATOM     20  H   UNL     1     124.422 129.656 107.802  1.00  0.00     0.211 HD
ENDBRANCH  14  19
BRANCH  16  21
ATOM     21  O   UNL     1     124.459 127.245 108.602  1.00  0.00    -0.387 OA
ATOM     22  H   UNL     1     123.829 127.971 108.355  1.00  0.00     0.211 HD
ENDBRANCH  16  21
BRANCH  17  23
ATOM     23  C   UNL     1     128.613 126.236 109.616  1.00  0.00     0.191 C 
BRANCH  23  24
ATOM     24  O   UNL     1     128.311 125.556 110.802  1.00  0.00    -0.394 OA
ATOM     25  H   UNL     1     129.073 124.942 110.968  1.00  0.00     0.210 HD
ENDBRANCH  23  24
ENDBRANCH  17  23
BRANCH  18  26
ATOM     26  O   UNL     1     126.111 125.085 108.533  1.00  0.00    -0.387 OA
ATOM     27  H   UNL     1     126.288 124.398 107.837  1.00  0.00     0.211 HD
ENDBRANCH  18  26
ENDBRANCH  12  13
ENDBRANCH   7  12
BRANCH   4  28
ATOM     28  O   UNL     1     127.101 134.411 111.556  1.00  0.00    -0.365 OA
ATOM     29  H   UNL     1     126.474 135.052 111.133  1.00  0.00     0.214 HD
ENDBRANCH   4  28
BRANCH   8  30
ATOM     30  C   UNL     1     127.715 129.647 111.823  1.00  0.00     0.249 C 
BRANCH  30  31
ATOM     31  O   UNL     1     127.495 129.376 113.203  1.00  0.00    -0.461 OA
BRANCH  31  32
ATOM     32  C   UNL     1     128.530 129.065 114.090  1.00  0.00     0.338 C 
ATOM     33  O   UNL     1     129.623 128.609 113.652  1.00  0.00    -0.246 OA
BRANCH  32  34
ATOM     34  C   UNL     1     128.332 129.257 115.542  1.00  0.00     0.060 A 
ATOM     35  C   UNL     1     129.440 129.321 116.406  1.00  0.00     0.015 A 
ATOM     36  C   UNL     1     127.038 129.390 116.080  1.00  0.00     0.015 A 
ATOM     37  C   UNL     1     129.257 129.520 117.778  1.00  0.00     0.001 A 
ATOM     38  C   UNL     1     126.860 129.587 117.452  1.00  0.00     0.001 A 
ATOM     39  C   UNL     1     127.968 129.653 118.301  1.00  0.00     0.000 A 
ENDBRANCH  32  34
ENDBRANCH  31  32
ENDBRANCH  30  31
ENDBRANCH   8  30
TORSDOF 12
ENDMDL
MODEL 7
REMARK VINA RESULT:    -6.229      2.149      5.536
REMARK INTER + INTRA:         -10.277
REMARK INTER:                  -9.245
REMARK INTRA:                  -1.033
REMARK UNBOUND:                -0.589
REMARK SMILES C[C@@]12C[C@@]3(O)O[C@@H](O1)[C@]1(COC(=O)c4ccccc4)[C@H]3C[C@@]12O[C@H]1O[C@H](CO)[C@@H](O)[C@@H](O)[C@H]1O
REMARK SMILES IDX 1 1 2 2 3 3 4 4 20 5 21 6 22 7 9 8 7 9 8 10 6 11 23 12 24 13
REMARK SMILES IDX 33 14 25 15 31 16 26 17 29 18 34 19 32 21 27 23 28 24 30 26
REMARK SMILES IDX 5 28 10 30 11 31 12 32 13 33 14 34 15 35 19 36 16 37 18 38
REMARK SMILES IDX 17 39
REMARK H PARENT 34 20 32 22 28 25 30 27 5 29
REMARK Flexibility Score: inf
ROOT
ATOM      1  C   UNL     1     135.540 128.244 109.784  1.00  0.00     0.046 C 
ATOM      2  C   UNL     1     134.689 127.498 110.810  1.00  0.00     0.104 C 
ATOM      3  C   UNL     1     135.103 125.984 110.911  1.00  0.00     0.104 C 
ATOM      4  C   UNL     1     134.080 125.389 111.944  1.00  0.00     0.175 C 
ATOM      5  C   UNL     1     132.617 125.799 111.572  1.00  0.00     0.070 C 
ATOM      6  C   UNL     1     132.479 126.269 110.116  1.00  0.00     0.050 C 
ATOM      7  C   UNL     1     133.133 127.595 110.576  1.00  0.00     0.115 C 
ATOM      8  C   UNL     1     132.689 127.256 112.001  1.00  0.00     0.096 C 
ATOM      9  C   UNL     1     133.908 127.387 112.893  1.00  0.00     0.267 C 
ATOM     10  O   UNL     1     134.891 128.037 112.104  1.00  0.00    -0.342 OA
ATOM     11  O   UNL     1     134.332 126.059 113.162  1.00  0.00    -0.320 OA
ENDROOT
BRANCH   7  12
ATOM     12  O   UNL     1     132.623 128.842 110.118  1.00  0.00    -0.339 OA
BRANCH  12  13
ATOM     13  C   UNL     1     131.688 128.688 109.057  1.00  0.00     0.282 C 
ATOM     14  C   UNL     1     132.149 129.448 107.794  1.00  0.00     0.202 C 
ATOM     15  O   UNL     1     130.394 129.127 109.446  1.00  0.00    -0.341 OA
ATOM     16  C   UNL     1     132.105 130.973 108.011  1.00  0.00     0.179 C 
ATOM     17  C   UNL     1     130.383 130.505 109.790  1.00  0.00     0.178 C 
ATOM     18  C   UNL     1     130.730 131.378 108.562  1.00  0.00     0.177 C 
BRANCH  14  19
ATOM     19  O   UNL     1     133.441 129.039 107.428  1.00  0.00    -0.385 OA
ATOM     20  H   UNL     1     133.887 129.829 107.024  1.00  0.00     0.211 HD
ENDBRANCH  14  19
BRANCH  16  21
ATOM     21  O   UNL     1     133.113 131.374 108.905  1.00  0.00    -0.387 OA
ATOM     22  H   UNL     1     133.002 132.351 109.047  1.00  0.00     0.211 HD
ENDBRANCH  16  21
BRANCH  17  23
ATOM     23  C   UNL     1     129.002 130.848 110.363  1.00  0.00     0.191 C 
BRANCH  23  24
ATOM     24  O   UNL     1     129.119 131.788 111.395  1.00  0.00    -0.394 OA
ATOM     25  H   UNL     1     128.575 131.439 112.148  1.00  0.00     0.210 HD
ENDBRANCH  23  24
ENDBRANCH  17  23
BRANCH  18  26
ATOM     26  O   UNL     1     130.759 132.739 108.915  1.00  0.00    -0.387 OA
ATOM     27  H   UNL     1     131.505 133.157 108.409  1.00  0.00     0.211 HD
ENDBRANCH  18  26
ENDBRANCH  12  13
ENDBRANCH   7  12
BRANCH   4  28
ATOM     28  O   UNL     1     134.227 124.005 112.103  1.00  0.00    -0.365 OA
ATOM     29  H   UNL     1     133.311 123.626 112.142  1.00  0.00     0.214 HD
ENDBRANCH   4  28
BRANCH   8  30
ATOM     30  C   UNL     1     131.371 127.854 112.523  1.00  0.00     0.249 C 
BRANCH  30  31
ATOM     31  O   UNL     1     131.620 128.605 113.707  1.00  0.00    -0.461 OA
BRANCH  31  32
ATOM     32  C   UNL     1     130.629 129.342 114.361  1.00  0.00     0.338 C 
ATOM     33  O   UNL     1     129.881 130.119 113.704  1.00  0.00    -0.246 OA
BRANCH  32  34
ATOM     34  C   UNL     1     130.473 129.221 115.825  1.00  0.00     0.060 A 
ATOM     35  C   UNL     1     131.597 129.002 116.642  1.00  0.00     0.015 A 
ATOM     36  C   UNL     1     129.204 129.332 116.425  1.00  0.00     0.015 A 
ATOM     37  C   UNL     1     131.455 128.903 118.029  1.00  0.00     0.001 A 
ATOM     38  C   UNL     1     129.067 129.230 117.813  1.00  0.00     0.001 A 
ATOM     39  C   UNL     1     130.192 129.017 118.615  1.00  0.00     0.000 A 
ENDBRANCH  32  34
ENDBRANCH  31  32
ENDBRANCH  30  31
ENDBRANCH   8  30
TORSDOF 12
ENDMDL
MODEL 8
REMARK VINA RESULT:    -6.062      2.182      5.728
REMARK INTER + INTRA:         -10.017
REMARK INTER:                  -9.218
REMARK INTRA:                  -0.799
REMARK UNBOUND:                -0.589
REMARK SMILES C[C@@]12C[C@@]3(O)O[C@@H](O1)[C@]1(COC(=O)c4ccccc4)[C@H]3C[C@@]12O[C@H]1O[C@H](CO)[C@@H](O)[C@@H](O)[C@H]1O
REMARK SMILES IDX 1 1 2 2 3 3 4 4 20 5 21 6 22 7 9 8 7 9 8 10 6 11 23 12 24 13
REMARK SMILES IDX 33 14 25 15 31 16 26 17 29 18 34 19 32 21 27 23 28 24 30 26
REMARK SMILES IDX 5 28 10 30 11 31 12 32 13 33 14 34 15 35 19 36 16 37 18 38
REMARK SMILES IDX 17 39
REMARK H PARENT 34 20 32 22 28 25 30 27 5 29
REMARK Flexibility Score: inf
ROOT
ATOM      1  C   UNL     1     135.028 125.425 109.080  1.00  0.00     0.046 C 
ATOM      2  C   UNL     1     134.669 126.014 110.442  1.00  0.00     0.104 C 
ATOM      3  C   UNL     1     135.858 125.872 111.463  1.00  0.00     0.104 C 
ATOM      4  C   UNL     1     135.272 126.460 112.796  1.00  0.00     0.175 C 
ATOM      5  C   UNL     1     133.869 125.841 113.105  1.00  0.00     0.070 C 
ATOM      6  C   UNL     1     133.606 124.540 112.332  1.00  0.00     0.050 C 
ATOM      7  C   UNL     1     133.356 125.432 111.092  1.00  0.00     0.115 C 
ATOM      8  C   UNL     1     133.070 126.589 112.050  1.00  0.00     0.096 C 
ATOM      9  C   UNL     1     133.925 127.761 111.607  1.00  0.00     0.267 C 
ATOM     10  O   UNL     1     134.426 127.405 110.330  1.00  0.00    -0.342 OA
ATOM     11  O   UNL     1     135.002 127.820 112.530  1.00  0.00    -0.320 OA
ENDROOT
BRANCH   7  12
ATOM     12  O   UNL     1     132.269 125.154 110.216  1.00  0.00    -0.339 OA
BRANCH  12  13
ATOM     13  C   UNL     1     132.293 123.817 109.732  1.00  0.00     0.282 C 
ATOM     14  C   UNL     1     131.607 123.713 108.351  1.00  0.00     0.202 C 
ATOM     15  O   UNL     1     131.676 122.927 110.652  1.00  0.00    -0.341 OA
ATOM     16  C   UNL     1     130.091 123.964 108.460  1.00  0.00     0.179 C 
ATOM     17  C   UNL     1     130.310 123.249 110.866  1.00  0.00     0.178 C 
ATOM     18  C   UNL     1     129.496 123.076 109.563  1.00  0.00     0.177 C 
BRANCH  14  19
ATOM     19  O   UNL     1     132.193 124.616 107.451  1.00  0.00    -0.385 OA
ATOM     20  H   UNL     1     131.967 125.528 107.772  1.00  0.00     0.211 HD
ENDBRANCH  14  19
BRANCH  16  21
ATOM     21  O   UNL     1     129.833 125.316 108.747  1.00  0.00    -0.387 OA
ATOM     22  H   UNL     1     130.649 125.682 109.178  1.00  0.00     0.211 HD
ENDBRANCH  16  21
BRANCH  17  23
ATOM     23  C   UNL     1     129.776 122.358 111.995  1.00  0.00     0.191 C 
BRANCH  23  24
ATOM     24  O   UNL     1     128.772 123.023 112.711  1.00  0.00    -0.394 OA
ATOM     25  H   UNL     1     128.209 123.480 112.034  1.00  0.00     0.210 HD
ENDBRANCH  23  24
ENDBRANCH  17  23
BRANCH  18  26
ATOM     26  O   UNL     1     128.152 123.435 109.768  1.00  0.00    -0.387 OA
ATOM     27  H   UNL     1     127.724 122.694 110.272  1.00  0.00     0.211 HD
ENDBRANCH  18  26
ENDBRANCH  12  13
ENDBRANCH   7  12
BRANCH   4  28
ATOM     28  O   UNL     1     136.163 126.335 113.871  1.00  0.00    -0.365 OA
ATOM     29  H   UNL     1     136.002 125.441 114.270  1.00  0.00     0.214 HD
ENDBRANCH   4  28
BRANCH   8  30
ATOM     30  C   UNL     1     131.608 126.891 112.424  1.00  0.00     0.249 C 
BRANCH  30  31
ATOM     31  O   UNL     1     131.420 128.298 112.529  1.00  0.00    -0.461 OA
BRANCH  31  32
ATOM     32  C   UNL     1     130.178 128.880 112.803  1.00  0.00     0.338 C 
ATOM     33  O   UNL     1     129.439 129.269 111.857  1.00  0.00    -0.246 OA
BRANCH  32  34
ATOM     34  C   UNL     1     129.745 129.051 114.206  1.00  0.00     0.060 A 
ATOM     35  C   UNL     1     128.392 128.890 114.555  1.00  0.00     0.015 A 
ATOM     36  C   UNL     1     130.677 129.365 115.213  1.00  0.00     0.015 A 
ATOM     37  C   UNL     1     127.982 129.035 115.883  1.00  0.00     0.001 A 
ATOM     38  C   UNL     1     130.262 129.510 116.540  1.00  0.00     0.001 A 
ATOM     39  C   UNL     1     128.915 129.345 116.876  1.00  0.00     0.000 A 
ENDBRANCH  32  34
ENDBRANCH  31  32
ENDBRANCH  30  31
ENDBRANCH   8  30
TORSDOF 12
ENDMDL
MODEL 9
REMARK VINA RESULT:    -6.000      5.226      8.529
REMARK INTER + INTRA:          -9.922
REMARK INTER:                  -8.828
REMARK INTRA:                  -1.093
REMARK UNBOUND:                -0.589
REMARK SMILES C[C@@]12C[C@@]3(O)O[C@@H](O1)[C@]1(COC(=O)c4ccccc4)[C@H]3C[C@@]12O[C@H]1O[C@H](CO)[C@@H](O)[C@@H](O)[C@H]1O
REMARK SMILES IDX 1 1 2 2 3 3 4 4 20 5 21 6 22 7 9 8 7 9 8 10 6 11 23 12 24 13
REMARK SMILES IDX 33 14 25 15 31 16 26 17 29 18 34 19 32 21 27 23 28 24 30 26
REMARK SMILES IDX 5 28 10 30 11 31 12 32 13 33 14 34 15 35 19 36 16 37 18 38
REMARK SMILES IDX 17 39
REMARK H PARENT 34 20 32 22 28 25 30 27 5 29
REMARK Flexibility Score: inf
ROOT
ATOM      1  C   UNL     1     125.415 133.810 107.440  1.00  0.00     0.046 C 
ATOM      2  C   UNL     1     124.469 133.457 108.586  1.00  0.00     0.104 C 
ATOM      3  C   UNL     1     123.008 133.968 108.304  1.00  0.00     0.104 C 
ATOM      4  C   UNL     1     122.223 133.578 109.608  1.00  0.00     0.175 C 
ATOM      5  C   UNL     1     123.005 134.039 110.883  1.00  0.00     0.070 C 
ATOM      6  C   UNL     1     124.064 135.110 110.581  1.00  0.00     0.050 C 
ATOM      7  C   UNL     1     124.930 133.963 110.006  1.00  0.00     0.115 C 
ATOM      8  C   UNL     1     124.104 132.990 110.849  1.00  0.00     0.096 C 
ATOM      9  C   UNL     1     123.625 131.888 109.923  1.00  0.00     0.267 C 
ATOM     10  O   UNL     1     124.363 132.051 108.723  1.00  0.00    -0.342 OA
ATOM     11  O   UNL     1     122.257 132.167 109.669  1.00  0.00    -0.320 OA
ENDROOT
BRANCH   7  12
ATOM     12  O   UNL     1     126.323 133.903 110.293  1.00  0.00    -0.339 OA
BRANCH  12  13
ATOM     13  C   UNL     1     127.103 134.613 109.338  1.00  0.00     0.282 C 
ATOM     14  C   UNL     1     128.542 134.055 109.271  1.00  0.00     0.202 C 
ATOM     15  O   UNL     1     127.131 136.003 109.630  1.00  0.00    -0.341 OA
ATOM     16  C   UNL     1     129.317 134.352 110.570  1.00  0.00     0.179 C 
ATOM     17  C   UNL     1     127.714 136.268 110.898  1.00  0.00     0.178 C 
ATOM     18  C   UNL     1     129.202 135.844 110.914  1.00  0.00     0.177 C 
BRANCH  14  19
ATOM     19  O   UNL     1     128.516 132.676 109.017  1.00  0.00    -0.385 OA
ATOM     20  H   UNL     1     128.429 132.567 108.034  1.00  0.00     0.211 HD
ENDBRANCH  14  19
BRANCH  16  21
ATOM     21  O   UNL     1     128.817 133.578 111.632  1.00  0.00    -0.387 OA
ATOM     22  H   UNL     1     129.601 133.213 112.120  1.00  0.00     0.211 HD
ENDBRANCH  16  21
BRANCH  17  23
ATOM     23  C   UNL     1     127.543 137.761 111.205  1.00  0.00     0.191 C 
BRANCH  23  24
ATOM     24  O   UNL     1     126.254 138.187 110.860  1.00  0.00    -0.394 OA
ATOM     25  H   UNL     1     125.696 138.062 111.671  1.00  0.00     0.210 HD
ENDBRANCH  23  24
ENDBRANCH  17  23
BRANCH  18  26
ATOM     26  O   UNL     1     129.765 136.068 112.183  1.00  0.00    -0.387 OA
ATOM     27  H   UNL     1     129.637 137.030 112.394  1.00  0.00     0.211 HD
ENDBRANCH  18  26
ENDBRANCH  12  13
ENDBRANCH   7  12
BRANCH   4  28
ATOM     28  O   UNL     1     120.900 134.039 109.593  1.00  0.00    -0.365 OA
ATOM     29  H   UNL     1     120.323 133.252 109.769  1.00  0.00     0.214 HD
ENDBRANCH   4  28
BRANCH   8  30
ATOM     30  C   UNL     1     124.648 132.562 112.223  1.00  0.00     0.249 C 
BRANCH  30  31
ATOM     31  O   UNL     1     125.061 131.200 112.174  1.00  0.00    -0.461 OA
BRANCH  31  32
ATOM     32  C   UNL     1     126.403 130.812 112.216  1.00  0.00     0.338 C 
ATOM     33  O   UNL     1     127.155 131.026 111.224  1.00  0.00    -0.246 OA
BRANCH  32  34
ATOM     34  C   UNL     1     126.932 130.136 113.419  1.00  0.00     0.060 A 
ATOM     35  C   UNL     1     126.182 130.118 114.609  1.00  0.00     0.015 A 
ATOM     36  C   UNL     1     128.183 129.492 113.390  1.00  0.00     0.015 A 
ATOM     37  C   UNL     1     126.672 129.466 115.744  1.00  0.00     0.001 A 
ATOM     38  C   UNL     1     128.669 128.841 114.528  1.00  0.00     0.001 A 
ATOM     39  C   UNL     1     127.914 128.827 115.704  1.00  0.00     0.000 A 
ENDBRANCH  32  34
ENDBRANCH  31  32
ENDBRANCH  30  31
ENDBRANCH   8  30
TORSDOF 12
ENDMDL
