MODEL 1
REMARK VINA RESULT:    -3.964      0.000      0.000
REMARK INTER + INTRA:          -5.909
REMARK INTER:                  -5.587
REMARK INTRA:                  -0.323
REMARK UNBOUND:                -0.323
REMARK SMILES CCCCCCCCC(=O)[O-]
REMARK SMILES IDX 6 1 7 2 8 3 9 4 10 5 11 6 5 7 4 8 3 9 2 10 1 11
REMARK H PARENT
REMARK Flexibility Score: inf
ROOT
ATOM      1  C   UNL     1      46.246  27.762   5.332  1.00  0.00     0.000 C 
ENDROOT
BRANCH   1   2
ATOM      2  C   UNL     1      46.549  27.813   6.838  1.00  0.00     0.006 C 
BRANCH   2   3
ATOM      3  C   UNL     1      46.059  26.564   7.584  1.00  0.00     0.053 C 
BRANCH   3   4
ATOM      4  C   UNL     1      45.562  26.931   8.946  1.00  0.00     0.041 C 
ATOM      5  O   UNL     1      45.575  26.081   9.875  1.00  0.00    -0.550 OA
ATOM      6  O   UNL     1      45.039  28.196   9.178  1.00  0.00    -0.550 OA
ENDBRANCH   3   4
ENDBRANCH   2   3
ENDBRANCH   1   2
BRANCH   1   7
ATOM      7  C   UNL     1      46.193  26.324   4.788  1.00  0.00     0.000 C 
BRANCH   7   8
ATOM      8  C   UNL     1      45.044  26.111   3.789  1.00  0.00    -0.000 C 
BRANCH   8   9
ATOM      9  C   UNL     1      44.658  27.403   3.048  1.00  0.00    -0.000 C 
BRANCH   9  10
ATOM     10  C   UNL     1      43.512  27.187   2.047  1.00  0.00    -0.003 C 
ATOM     11  C   UNL     1      42.268  28.011   2.383  1.00  0.00     0.004 C 
ENDBRANCH   9  10
ENDBRANCH   8   9
ENDBRANCH   7   8
ENDBRANCH   1   7
TORSDOF 7
ENDMDL
MODEL 2
REMARK VINA RESULT:    -3.935      3.340      5.833
REMARK INTER + INTRA:          -5.868
REMARK INTER:                  -5.504
REMARK INTRA:                  -0.364
REMARK UNBOUND:                -0.323
REMARK SMILES CCCCCCCCC(=O)[O-]
REMARK SMILES IDX 6 1 7 2 8 3 9 4 10 5 11 6 5 7 4 8 3 9 2 10 1 11
REMARK H PARENT
REMARK Flexibility Score: inf
ROOT
ATOM      1  C   UNL     1      46.077  26.245   4.961  1.00  0.00     0.000 C 
ENDROOT
BRANCH   1   2
ATOM      2  C   UNL     1      45.089  26.079   3.796  1.00  0.00     0.006 C 
BRANCH   2   3
ATOM      3  C   UNL     1      44.770  27.407   3.095  1.00  0.00     0.053 C 
BRANCH   3   4
ATOM      4  C   UNL     1      43.584  27.251   2.196  1.00  0.00     0.041 C 
ATOM      5  O   UNL     1      43.687  26.609   1.118  1.00  0.00    -0.550 OA
ATOM      6  O   UNL     1      42.379  27.856   2.525  1.00  0.00    -0.550 OA
ENDBRANCH   3   4
ENDBRANCH   2   3
ENDBRANCH   1   2
BRANCH   1   7
ATOM      7  C   UNL     1      46.241  27.713   5.392  1.00  0.00     0.000 C 
BRANCH   7   8
ATOM      8  C   UNL     1      46.228  27.886   6.920  1.00  0.00    -0.000 C 
BRANCH   8   9
ATOM      9  C   UNL     1      46.276  26.542   7.668  1.00  0.00    -0.000 C 
BRANCH   9  10
ATOM     10  C   UNL     1      45.549  26.595   9.021  1.00  0.00    -0.003 C 
ATOM     11  C   UNL     1      45.226  28.022   9.465  1.00  0.00     0.004 C 
ENDBRANCH   9  10
ENDBRANCH   8   9
ENDBRANCH   7   8
ENDBRANCH   1   7
TORSDOF 7
ENDMDL
MODEL 3
REMARK VINA RESULT:    -3.805      3.556      5.946
REMARK INTER + INTRA:          -5.684
REMARK INTER:                  -5.407
REMARK INTRA:                  -0.277
REMARK UNBOUND:                -0.323
REMARK SMILES CCCCCCCCC(=O)[O-]
REMARK SMILES IDX 6 1 7 2 8 3 9 4 10 5 11 6 5 7 4 8 3 9 2 10 1 11
REMARK H PARENT
REMARK Flexibility Score: inf
ROOT
ATOM      1  C   UNL     1      45.963  27.273   4.637  1.00  0.00     0.000 C 
ENDROOT
BRANCH   1   2
ATOM      2  C   UNL     1      45.241  26.244   3.753  1.00  0.00     0.006 C 
BRANCH   2   3
ATOM      3  C   UNL     1      44.096  26.861   2.938  1.00  0.00     0.053 C 
BRANCH   3   4
ATOM      4  C   UNL     1      44.640  27.769   1.880  1.00  0.00     0.041 C 
ATOM      5  O   UNL     1      45.421  27.319   1.001  1.00  0.00    -0.550 OA
ATOM      6  O   UNL     1      44.322  29.120   1.893  1.00  0.00    -0.550 OA
ENDBRANCH   3   4
ENDBRANCH   2   3
ENDBRANCH   1   2
BRANCH   1   7
ATOM      7  C   UNL     1      46.604  26.636   5.883  1.00  0.00     0.000 C 
BRANCH   7   8
ATOM      8  C   UNL     1      46.233  27.372   7.181  1.00  0.00    -0.000 C 
BRANCH   8   9
ATOM      9  C   UNL     1      45.864  26.409   8.322  1.00  0.00    -0.000 C 
BRANCH   9  10
ATOM     10  C   UNL     1      45.299  27.141   9.550  1.00  0.00    -0.003 C 
ATOM     11  C   UNL     1      45.150  28.646   9.327  1.00  0.00     0.004 C 
ENDBRANCH   9  10
ENDBRANCH   8   9
ENDBRANCH   7   8
ENDBRANCH   1   7
TORSDOF 7
ENDMDL
MODEL 4
REMARK VINA RESULT:    -3.763      3.400      5.726
REMARK INTER + INTRA:          -5.625
REMARK INTER:                  -5.285
REMARK INTRA:                  -0.341
REMARK UNBOUND:                -0.323
REMARK SMILES CCCCCCCCC(=O)[O-]
REMARK SMILES IDX 6 1 7 2 8 3 9 4 10 5 11 6 5 7 4 8 3 9 2 10 1 11
REMARK H PARENT
REMARK Flexibility Score: inf
ROOT
ATOM      1  C   UNL     1      45.090  26.005   3.779  1.00  0.00     0.000 C 
ENDROOT
BRANCH   1   2
ATOM      2  C   UNL     1      44.779  27.302   3.016  1.00  0.00     0.006 C 
BRANCH   2   3
ATOM      3  C   UNL     1      43.543  27.178   2.114  1.00  0.00     0.053 C 
BRANCH   3   4
ATOM      4  C   UNL     1      42.581  28.289   2.392  1.00  0.00     0.041 C 
ATOM      5  O   UNL     1      41.360  28.039   2.573  1.00  0.00    -0.550 OA
ATOM      6  O   UNL     1      43.023  29.605   2.404  1.00  0.00    -0.550 OA
ENDBRANCH   3   4
ENDBRANCH   2   3
ENDBRANCH   1   2
BRANCH   1   7
ATOM      7  C   UNL     1      46.115  26.214   4.907  1.00  0.00     0.000 C 
BRANCH   7   8
ATOM      8  C   UNL     1      46.250  27.690   5.317  1.00  0.00    -0.000 C 
BRANCH   8   9
ATOM      9  C   UNL     1      46.212  27.885   6.843  1.00  0.00    -0.000 C 
BRANCH   9  10
ATOM     10  C   UNL     1      46.148  26.553   7.606  1.00  0.00    -0.003 C 
ATOM     11  C   UNL     1      45.615  26.709   9.030  1.00  0.00     0.004 C 
ENDBRANCH   9  10
ENDBRANCH   8   9
ENDBRANCH   7   8
ENDBRANCH   1   7
TORSDOF 7
ENDMDL
MODEL 5
REMARK VINA RESULT:    -3.760      3.479      5.967
REMARK INTER + INTRA:          -5.621
REMARK INTER:                  -5.289
REMARK INTRA:                  -0.332
REMARK UNBOUND:                -0.323
REMARK SMILES CCCCCCCCC(=O)[O-]
REMARK SMILES IDX 6 1 7 2 8 3 9 4 10 5 11 6 5 7 4 8 3 9 2 10 1 11
REMARK H PARENT
REMARK Flexibility Score: inf
ROOT
ATOM      1  C   UNL     1      46.131  26.341   5.217  1.00  0.00     0.000 C 
ENDROOT
BRANCH   1   2
ATOM      2  C   UNL     1      45.378  26.230   3.882  1.00  0.00     0.006 C 
BRANCH   2   3
ATOM      3  C   UNL     1      45.036  27.600   3.279  1.00  0.00     0.053 C 
BRANCH   3   4
ATOM      4  C   UNL     1      44.236  27.433   2.025  1.00  0.00     0.041 C 
ATOM      5  O   UNL     1      42.978  27.454   2.069  1.00  0.00    -0.550 OA
ATOM      6  O   UNL     1      44.879  27.205   0.816  1.00  0.00    -0.550 OA
ENDBRANCH   3   4
ENDBRANCH   2   3
ENDBRANCH   1   2
BRANCH   1   7
ATOM      7  C   UNL     1      46.267  27.795   5.700  1.00  0.00     0.000 C 
BRANCH   7   8
ATOM      8  C   UNL     1      46.636  27.893   7.189  1.00  0.00    -0.000 C 
BRANCH   8   9
ATOM      9  C   UNL     1      45.675  28.797   7.979  1.00  0.00    -0.000 C 
BRANCH   9  10
ATOM     10  C   UNL     1      45.222  28.162   9.303  1.00  0.00    -0.003 C 
ATOM     11  C   UNL     1      45.567  26.675   9.396  1.00  0.00     0.004 C 
ENDBRANCH   9  10
ENDBRANCH   8   9
ENDBRANCH   7   8
ENDBRANCH   1   7
TORSDOF 7
ENDMDL
MODEL 6
REMARK VINA RESULT:    -3.484      1.364      2.151
REMARK INTER + INTRA:          -5.233
REMARK INTER:                  -4.962
REMARK INTRA:                  -0.271
REMARK UNBOUND:                -0.323
REMARK SMILES CCCCCCCCC(=O)[O-]
REMARK SMILES IDX 6 1 7 2 8 3 9 4 10 5 11 6 5 7 4 8 3 9 2 10 1 11
REMARK H PARENT
REMARK Flexibility Score: inf
ROOT
ATOM      1  C   UNL     1      45.621  26.246   4.387  1.00  0.00     0.000 C 
ENDROOT
BRANCH   1   2
ATOM      2  C   UNL     1      46.736  26.715   5.336  1.00  0.00     0.006 C 
BRANCH   2   3
ATOM      3  C   UNL     1      46.281  26.773   6.801  1.00  0.00     0.053 C 
BRANCH   3   4
ATOM      4  C   UNL     1      46.050  28.190   7.220  1.00  0.00     0.041 C 
ATOM      5  O   UNL     1      45.527  28.443   8.337  1.00  0.00    -0.550 OA
ATOM      6  O   UNL     1      46.367  29.231   6.357  1.00  0.00    -0.550 OA
ENDBRANCH   3   4
ENDBRANCH   2   3
ENDBRANCH   1   2
BRANCH   1   7
ATOM      7  C   UNL     1      45.203  27.335   3.383  1.00  0.00     0.000 C 
BRANCH   7   8
ATOM      8  C   UNL     1      43.966  26.937   2.561  1.00  0.00    -0.000 C 
BRANCH   8   9
ATOM      9  C   UNL     1      43.162  28.155   2.075  1.00  0.00    -0.000 C 
BRANCH   9  10
ATOM     10  C   UNL     1      41.748  28.204   2.676  1.00  0.00    -0.003 C 
ATOM     11  C   UNL     1      41.244  29.631   2.892  1.00  0.00     0.004 C 
ENDBRANCH   9  10
ENDBRANCH   8   9
ENDBRANCH   7   8
ENDBRANCH   1   7
TORSDOF 7
ENDMDL
MODEL 7
REMARK VINA RESULT:    -3.480      3.075      5.804
REMARK INTER + INTRA:          -5.227
REMARK INTER:                  -4.922
REMARK INTRA:                  -0.305
REMARK UNBOUND:                -0.323
REMARK SMILES CCCCCCCCC(=O)[O-]
REMARK SMILES IDX 6 1 7 2 8 3 9 4 10 5 11 6 5 7 4 8 3 9 2 10 1 11
REMARK H PARENT
REMARK Flexibility Score: inf
ROOT
ATOM      1  C   UNL     1      46.037  28.871   5.859  1.00  0.00     0.000 C 
ENDROOT
BRANCH   1   2
ATOM      2  C   UNL     1      46.331  27.737   4.864  1.00  0.00     0.006 C 
BRANCH   2   3
ATOM      3  C   UNL     1      45.590  27.911   3.531  1.00  0.00     0.053 C 
BRANCH   3   4
ATOM      4  C   UNL     1      44.850  26.660   3.178  1.00  0.00     0.041 C 
ATOM      5  O   UNL     1      45.139  25.573   3.743  1.00  0.00    -0.550 OA
ATOM      6  O   UNL     1      43.875  26.684   2.190  1.00  0.00    -0.550 OA
ENDBRANCH   3   4
ENDBRANCH   2   3
ENDBRANCH   1   2
BRANCH   1   7
ATOM      7  C   UNL     1      46.369  28.483   7.311  1.00  0.00     0.000 C 
BRANCH   7   8
ATOM      8  C   UNL     1      45.430  29.149   8.330  1.00  0.00    -0.000 C 
BRANCH   8   9
ATOM      9  C   UNL     1      45.071  28.217   9.500  1.00  0.00    -0.000 C 
BRANCH   9  10
ATOM     10  C   UNL     1      45.465  26.756   9.232  1.00  0.00    -0.003 C 
ATOM     11  C   UNL     1      46.375  26.178  10.315  1.00  0.00     0.004 C 
ENDBRANCH   9  10
ENDBRANCH   8   9
ENDBRANCH   7   8
ENDBRANCH   1   7
TORSDOF 7
ENDMDL
MODEL 8
REMARK VINA RESULT:    -3.440      3.152      3.847
REMARK INTER + INTRA:          -5.171
REMARK INTER:                  -4.760
REMARK INTRA:                  -0.410
REMARK UNBOUND:                -0.323
REMARK SMILES CCCCCCCCC(=O)[O-]
REMARK SMILES IDX 6 1 7 2 8 3 9 4 10 5 11 6 5 7 4 8 3 9 2 10 1 11
REMARK H PARENT
REMARK Flexibility Score: inf
ROOT
ATOM      1  C   UNL     1      46.679  28.829   4.418  1.00  0.00     0.000 C 
ENDROOT
BRANCH   1   2
ATOM      2  C   UNL     1      46.280  27.791   5.479  1.00  0.00     0.006 C 
BRANCH   2   3
ATOM      3  C   UNL     1      46.752  26.373   5.129  1.00  0.00     0.053 C 
BRANCH   3   4
ATOM      4  C   UNL     1      46.261  25.980   3.771  1.00  0.00     0.041 C 
ATOM      5  O   UNL     1      45.088  25.545   3.624  1.00  0.00    -0.550 OA
ATOM      6  O   UNL     1      47.112  26.049   2.677  1.00  0.00    -0.550 OA
ENDBRANCH   3   4
ENDBRANCH   2   3
ENDBRANCH   1   2
BRANCH   1   7
ATOM      7  C   UNL     1      45.490  29.692   3.960  1.00  0.00     0.000 C 
BRANCH   7   8
ATOM      8  C   UNL     1      45.168  29.512   2.468  1.00  0.00    -0.000 C 
BRANCH   8   9
ATOM      9  C   UNL     1      43.656  29.460   2.191  1.00  0.00    -0.000 C 
BRANCH   9  10
ATOM     10  C   UNL     1      43.095  28.030   2.250  1.00  0.00    -0.003 C 
ATOM     11  C   UNL     1      41.612  27.988   2.616  1.00  0.00     0.004 C 
ENDBRANCH   9  10
ENDBRANCH   8   9
ENDBRANCH   7   8
ENDBRANCH   1   7
TORSDOF 7
ENDMDL
MODEL 9
REMARK VINA RESULT:    -3.274      6.322      8.010
REMARK INTER + INTRA:          -4.937
REMARK INTER:                  -4.612
REMARK INTRA:                  -0.325
REMARK UNBOUND:                -0.323
REMARK SMILES CCCCCCCCC(=O)[O-]
REMARK SMILES IDX 6 1 7 2 8 3 9 4 10 5 11 6 5 7 4 8 3 9 2 10 1 11
REMARK H PARENT
REMARK Flexibility Score: inf
ROOT
ATOM      1  C   UNL     1      45.641  29.211   0.528  1.00  0.00     0.000 C 
ENDROOT
BRANCH   1   2
ATOM      2  C   UNL     1      46.634  28.990  -0.624  1.00  0.00     0.006 C 
BRANCH   2   3
ATOM      3  C   UNL     1      46.089  29.470  -1.977  1.00  0.00     0.053 C 
BRANCH   3   4
ATOM      4  C   UNL     1      46.012  28.329  -2.942  1.00  0.00     0.041 C 
ATOM      5  O   UNL     1      45.994  28.549  -4.181  1.00  0.00    -0.550 OA
ATOM      6  O   UNL     1      45.912  27.027  -2.472  1.00  0.00    -0.550 OA
ENDBRANCH   3   4
ENDBRANCH   2   3
ENDBRANCH   1   2
BRANCH   1   7
ATOM      7  C   UNL     1      45.077  27.891   1.081  1.00  0.00     0.000 C 
BRANCH   7   8
ATOM      8  C   UNL     1      44.101  28.108   2.250  1.00  0.00    -0.000 C 
BRANCH   8   9
ATOM      9  C   UNL     1      42.729  27.458   2.004  1.00  0.00    -0.000 C 
BRANCH   9  10
ATOM     10  C   UNL     1      41.578  28.255   2.639  1.00  0.00    -0.003 C 
ATOM     11  C   UNL     1      41.858  29.756   2.699  1.00  0.00     0.004 C 
ENDBRANCH   9  10
ENDBRANCH   8   9
ENDBRANCH   7   8
ENDBRANCH   1   7
TORSDOF 7
ENDMDL
