MODEL 1
REMARK VINA RESULT:     7.358      0.000      0.000
REMARK INTER + INTRA:          12.031
REMARK INTER:                  11.229
REMARK INTRA:                   0.801
REMARK UNBOUND:                 0.801
REMARK SMILES CC(=O)CCC=C(C)CCC=C(C)CCC=C(C)C
REMARK SMILES IDX 10 1 11 2 12 3 13 4 14 5 15 6 16 7 18 8 17 9 19 10 9 11 7 12
REMARK SMILES IDX 6 13 8 14 5 15 4 16 2 17 3 18 1 19
REMARK H PARENT
REMARK Flexibility Score: inf
ROOT
ATOM      1  C   UNL     1      10.794  13.336  -1.210  1.00  0.00     0.032 C 
ENDROOT
BRANCH   1   2
ATOM      2  C   UNL     1      10.702  14.455  -2.216  1.00  0.00    -0.028 C 
ATOM      3  C   UNL     1      10.870  14.304  -3.551  1.00  0.00    -0.077 C 
ATOM      4  C   UNL     1      11.219  12.969  -4.165  1.00  0.00     0.039 C 
BRANCH   3   5
ATOM      5  C   UNL     1      10.727  15.513  -4.449  1.00  0.00     0.034 C 
BRANCH   5   6
ATOM      6  C   UNL     1      11.859  15.561  -5.481  1.00  0.00     0.032 C 
BRANCH   6   7
ATOM      7  C   UNL     1      12.495  16.930  -5.534  1.00  0.00    -0.028 C 
ATOM      8  C   UNL     1      14.239  16.155  -7.145  1.00  0.00     0.039 C 
ATOM      9  C   UNL     1      13.578  17.210  -6.288  1.00  0.00    -0.080 C 
ATOM     10  C   UNL     1      14.133  18.610  -6.268  1.00  0.00     0.039 C 
ENDBRANCH   6   7
ENDBRANCH   5   6
ENDBRANCH   3   5
ENDBRANCH   1   2
BRANCH   1  11
ATOM     11  C   UNL     1      12.168  13.320  -0.531  1.00  0.00     0.034 C 
BRANCH  11  12
ATOM     12  C   UNL     1      12.035  13.306   0.982  1.00  0.00    -0.077 C 
ATOM     13  C   UNL     1      10.889  13.620   1.632  1.00  0.00    -0.028 C 
ATOM     14  C   UNL     1      13.239  12.936   1.813  1.00  0.00     0.039 C 
BRANCH  13  15
ATOM     15  C   UNL     1       9.578  14.001   0.981  1.00  0.00     0.035 C 
BRANCH  15  16
ATOM     16  C   UNL     1       8.734  14.890   1.903  1.00  0.00     0.079 C 
BRANCH  16  17
ATOM     17  C   UNL     1       9.263  16.300   1.961  1.00  0.00     0.130 C 
ATOM     18  O   UNL     1       8.488  17.230   2.125  1.00  0.00    -0.300 OA
ATOM     19  C   UNL     1      10.732  16.578   1.855  1.00  0.00     0.087 C 
ENDBRANCH  16  17
ENDBRANCH  15  16
ENDBRANCH  13  15
ENDBRANCH  11  12
ENDBRANCH   1  11
TORSDOF 9
ENDMDL
MODEL 2
REMARK VINA RESULT:     9.391      7.355     12.436
REMARK INTER + INTRA:          15.133
REMARK INTER:                  16.048
REMARK INTRA:                  -0.915
REMARK UNBOUND:                 0.801
REMARK SMILES CC(=O)CCC=C(C)CCC=C(C)CCC=C(C)C
REMARK SMILES IDX 10 1 11 2 12 3 13 4 14 5 15 6 16 7 18 8 17 9 19 10 9 11 7 12
REMARK SMILES IDX 6 13 8 14 5 15 4 16 2 17 3 18 1 19
REMARK H PARENT
REMARK Flexibility Score: inf
ROOT
ATOM      1  C   UNL     1      15.959  14.247 -12.869  1.00  0.00     0.032 C 
ENDROOT
BRANCH   1   2
ATOM      2  C   UNL     1      15.304  15.031 -11.760  1.00  0.00    -0.028 C 
ATOM      3  C   UNL     1      14.667  14.479 -10.701  1.00  0.00    -0.077 C 
ATOM      4  C   UNL     1      14.511  12.983 -10.555  1.00  0.00     0.039 C 
BRANCH   3   5
ATOM      5  C   UNL     1      14.073  15.388  -9.647  1.00  0.00     0.034 C 
BRANCH   5   6
ATOM      6  C   UNL     1      14.800  15.217  -8.309  1.00  0.00     0.032 C 
BRANCH   6   7
ATOM      7  C   UNL     1      14.918  16.532  -7.577  1.00  0.00    -0.028 C 
ATOM      8  C   UNL     1      12.675  16.243  -6.516  1.00  0.00     0.039 C 
ATOM      9  C   UNL     1      13.955  17.008  -6.759  1.00  0.00    -0.080 C 
ATOM     10  C   UNL     1      14.174  18.333  -6.076  1.00  0.00     0.039 C 
ENDBRANCH   6   7
ENDBRANCH   5   6
ENDBRANCH   3   5
ENDBRANCH   1   2
BRANCH   1  11
ATOM     11  C   UNL     1      16.902  15.137 -13.687  1.00  0.00     0.034 C 
BRANCH  11  12
ATOM     12  C   UNL     1      18.267  15.242 -13.031  1.00  0.00    -0.077 C 
ATOM     13  C   UNL     1      18.764  16.394 -12.521  1.00  0.00    -0.028 C 
ATOM     14  C   UNL     1      19.129  14.005 -12.949  1.00  0.00     0.039 C 
BRANCH  13  15
ATOM     15  C   UNL     1      18.053  17.728 -12.494  1.00  0.00     0.035 C 
BRANCH  15  16
ATOM     16  C   UNL     1      18.870  18.782 -11.738  1.00  0.00     0.079 C 
BRANCH  16  17
ATOM     17  C   UNL     1      18.803  20.131 -12.406  1.00  0.00     0.130 C 
ATOM     18  O   UNL     1      17.864  20.395 -13.142  1.00  0.00    -0.300 OA
ATOM     19  C   UNL     1      19.855  21.169 -12.156  1.00  0.00     0.087 C 
ENDBRANCH  16  17
ENDBRANCH  15  16
ENDBRANCH  13  15
ENDBRANCH  11  12
ENDBRANCH   1  11
TORSDOF 9
ENDMDL
MODEL 3
REMARK VINA RESULT:     9.644      2.575      7.303
REMARK INTER + INTRA:          15.520
REMARK INTER:                  15.097
REMARK INTRA:                   0.422
REMARK UNBOUND:                 0.801
REMARK SMILES CC(=O)CCC=C(C)CCC=C(C)CCC=C(C)C
REMARK SMILES IDX 10 1 11 2 12 3 13 4 14 5 15 6 16 7 18 8 17 9 19 10 9 11 7 12
REMARK SMILES IDX 6 13 8 14 5 15 4 16 2 17 3 18 1 19
REMARK H PARENT
REMARK Flexibility Score: inf
ROOT
ATOM      1  C   UNL     1      10.206  13.897  -1.991  1.00  0.00     0.032 C 
ENDROOT
BRANCH   1   2
ATOM      2  C   UNL     1      10.565  13.552  -0.568  1.00  0.00    -0.028 C 
ATOM      3  C   UNL     1      11.803  13.197  -0.152  1.00  0.00    -0.077 C 
ATOM      4  C   UNL     1      12.961  13.068  -1.114  1.00  0.00     0.039 C 
BRANCH   3   5
ATOM      5  C   UNL     1      12.026  12.899   1.314  1.00  0.00     0.034 C 
BRANCH   5   6
ATOM      6  C   UNL     1      12.120  14.197   2.125  1.00  0.00     0.032 C 
BRANCH   6   7
ATOM      7  C   UNL     1      10.826  14.973   2.068  1.00  0.00    -0.028 C 
ATOM      8  C   UNL     1      12.036  17.146   1.838  1.00  0.00     0.039 C 
ATOM      9  C   UNL     1      10.778  16.315   1.938  1.00  0.00    -0.080 C 
ATOM     10  C   UNL     1       9.432  16.991   1.891  1.00  0.00     0.039 C 
ENDBRANCH   6   7
ENDBRANCH   5   6
ENDBRANCH   3   5
ENDBRANCH   1   2
BRANCH   1  11
ATOM     11  C   UNL     1      11.446  14.334  -2.780  1.00  0.00     0.034 C 
BRANCH  11  12
ATOM     12  C   UNL     1      11.164  14.375  -4.271  1.00  0.00    -0.077 C 
ATOM     13  C   UNL     1      11.569  15.382  -5.080  1.00  0.00    -0.028 C 
ATOM     14  C   UNL     1      10.381  13.243  -4.892  1.00  0.00     0.039 C 
BRANCH  13  15
ATOM     15  C   UNL     1      12.372  16.590  -4.653  1.00  0.00     0.035 C 
BRANCH  15  16
ATOM     16  C   UNL     1      12.543  17.585  -5.808  1.00  0.00     0.079 C 
BRANCH  16  17
ATOM     17  C   UNL     1      13.944  17.566  -6.362  1.00  0.00     0.130 C 
ATOM     18  O   UNL     1      14.746  18.417  -6.009  1.00  0.00    -0.300 OA
ATOM     19  C   UNL     1      14.382  16.496  -7.317  1.00  0.00     0.087 C 
ENDBRANCH  16  17
ENDBRANCH  15  16
ENDBRANCH  13  15
ENDBRANCH  11  12
ENDBRANCH   1  11
TORSDOF 9
ENDMDL
MODEL 4
REMARK VINA RESULT:     9.919      6.233     10.708
REMARK INTER + INTRA:          15.939
REMARK INTER:                  16.911
REMARK INTRA:                  -0.972
REMARK UNBOUND:                 0.801
REMARK SMILES CC(=O)CCC=C(C)CCC=C(C)CCC=C(C)C
REMARK SMILES IDX 10 1 11 2 12 3 13 4 14 5 15 6 16 7 18 8 17 9 19 10 9 11 7 12
REMARK SMILES IDX 6 13 8 14 5 15 4 16 2 17 3 18 1 19
REMARK H PARENT
REMARK Flexibility Score: inf
ROOT
ATOM      1  C   UNL     1      15.551  15.136 -12.543  1.00  0.00     0.032 C 
ENDROOT
BRANCH   1   2
ATOM      2  C   UNL     1      16.640  16.178 -12.508  1.00  0.00    -0.028 C 
ATOM      3  C   UNL     1      17.916  15.971 -12.910  1.00  0.00    -0.077 C 
ATOM      4  C   UNL     1      18.388  14.622 -13.402  1.00  0.00     0.039 C 
BRANCH   3   5
ATOM      5  C   UNL     1      18.901  17.117 -12.842  1.00  0.00     0.034 C 
BRANCH   5   6
ATOM      6  C   UNL     1      18.596  18.027 -11.647  1.00  0.00     0.032 C 
BRANCH   6   7
ATOM      7  C   UNL     1      19.418  19.293 -11.698  1.00  0.00    -0.028 C 
ATOM      8  C   UNL     1      17.770  20.406 -13.210  1.00  0.00     0.039 C 
ATOM      9  C   UNL     1      19.051  20.381 -12.407  1.00  0.00    -0.080 C 
ATOM     10  C   UNL     1      19.944  21.593 -12.390  1.00  0.00     0.039 C 
ENDBRANCH   6   7
ENDBRANCH   5   6
ENDBRANCH   3   5
ENDBRANCH   1   2
BRANCH   1  11
ATOM     11  C   UNL     1      14.539  15.363 -11.413  1.00  0.00     0.034 C 
BRANCH  11  12
ATOM     12  C   UNL     1      14.716  14.341 -10.303  1.00  0.00    -0.077 C 
ATOM     13  C   UNL     1      14.881  14.676  -9.002  1.00  0.00    -0.028 C 
ATOM     14  C   UNL     1      14.721  12.875 -10.661  1.00  0.00     0.039 C 
BRANCH  13  15
ATOM     15  C   UNL     1      14.890  16.081  -8.444  1.00  0.00     0.035 C 
BRANCH  15  16
ATOM     16  C   UNL     1      14.675  16.081  -6.925  1.00  0.00     0.079 C 
BRANCH  16  17
ATOM     17  C   UNL     1      13.855  17.263  -6.475  1.00  0.00     0.130 C 
ATOM     18  O   UNL     1      14.223  18.395  -6.752  1.00  0.00    -0.300 OA
ATOM     19  C   UNL     1      12.576  17.071  -5.718  1.00  0.00     0.087 C 
ENDBRANCH  16  17
ENDBRANCH  15  16
ENDBRANCH  13  15
ENDBRANCH  11  12
ENDBRANCH   1  11
TORSDOF 9
ENDMDL
