MODEL 1
REMARK VINA RESULT:    -2.932      0.000      0.000
REMARK INTER + INTRA:          -5.134
REMARK INTER:                  -3.618
REMARK INTRA:                  -1.516
REMARK UNBOUND:                -1.516
REMARK SMILES CC(C)=CCC[C@H](C)c1ccc(C)cc1
REMARK SMILES IDX 6 1 7 2 8 3 9 4 13 5 12 6 11 7 14 8 10 9 15 10 5 11 4 12
REMARK SMILES IDX 2 13 1 14 3 15
REMARK H PARENT
REMARK Flexibility Score: inf
ROOT
ATOM      1  C   UNL     1       5.521  -5.897   6.575  1.00  0.00     0.012 C 
ENDROOT
BRANCH   1   2
ATOM      2  C   UNL     1       6.437  -4.702   6.224  1.00  0.00     0.016 C 
ATOM      3  C   UNL     1       7.604  -4.553   7.214  1.00  0.00     0.013 C 
BRANCH   2   4
ATOM      4  C   UNL     1       5.631  -3.416   6.166  1.00  0.00    -0.045 A 
ATOM      5  C   UNL     1       3.329   0.233   5.961  1.00  0.00     0.044 C 
ATOM      6  C   UNL     1       4.112  -1.043   6.056  1.00  0.00    -0.051 A 
ATOM      7  C   UNL     1       3.717  -2.171   5.322  1.00  0.00     0.004 A 
ATOM      8  C   UNL     1       5.283  -1.097   6.825  1.00  0.00     0.004 A 
ATOM      9  C   UNL     1       4.465  -3.350   5.381  1.00  0.00     0.004 A 
ATOM     10  C   UNL     1       6.033  -2.276   6.885  1.00  0.00     0.004 A 
ENDBRANCH   2   4
ENDBRANCH   1   2
BRANCH   1  11
ATOM     11  C   UNL     1       5.263  -6.022   8.083  1.00  0.00     0.028 C 
BRANCH  11  12
ATOM     12  C   UNL     1       4.082  -5.176   8.492  1.00  0.00    -0.028 C 
ATOM     13  C   UNL     1       4.132  -4.186   9.411  1.00  0.00    -0.080 C 
ATOM     14  C   UNL     1       5.395  -3.862  10.173  1.00  0.00     0.039 C 
ATOM     15  C   UNL     1       2.876  -3.400   9.688  1.00  0.00     0.039 C 
ENDBRANCH  11  12
ENDBRANCH   1  11
TORSDOF 4
ENDMDL
MODEL 2
REMARK VINA RESULT:    -2.647      0.973      4.181
REMARK INTER + INTRA:          -4.782
REMARK INTER:                  -3.259
REMARK INTRA:                  -1.523
REMARK UNBOUND:                -1.516
REMARK SMILES CC(C)=CCC[C@H](C)c1ccc(C)cc1
REMARK SMILES IDX 6 1 7 2 8 3 9 4 13 5 12 6 11 7 14 8 10 9 15 10 5 11 4 12
REMARK SMILES IDX 2 13 1 14 3 15
REMARK H PARENT
REMARK Flexibility Score: inf
ROOT
ATOM      1  C   UNL     1       7.442  -4.661   6.977  1.00  0.00     0.012 C 
ENDROOT
BRANCH   1   2
ATOM      2  C   UNL     1       6.283  -5.563   7.463  1.00  0.00     0.016 C 
ATOM      3  C   UNL     1       5.452  -6.120   6.296  1.00  0.00     0.013 C 
BRANCH   2   4
ATOM      4  C   UNL     1       5.391  -4.804   8.429  1.00  0.00    -0.045 A 
ATOM      5  C   UNL     1       2.876  -2.657  11.208  1.00  0.00     0.044 C 
ATOM      6  C   UNL     1       3.753  -3.378  10.226  1.00  0.00    -0.051 A 
ATOM      7  C   UNL     1       5.136  -3.455  10.440  1.00  0.00     0.004 A 
ATOM      8  C   UNL     1       3.187  -4.036   9.126  1.00  0.00     0.004 A 
ATOM      9  C   UNL     1       5.950  -4.157   9.545  1.00  0.00     0.004 A 
ATOM     10  C   UNL     1       4.000  -4.738   8.230  1.00  0.00     0.004 A 
ENDBRANCH   2   4
ENDBRANCH   1   2
BRANCH   1  11
ATOM     11  C   UNL     1       7.061  -3.817   5.752  1.00  0.00     0.028 C 
BRANCH  11  12
ATOM     12  C   UNL     1       6.541  -2.466   6.178  1.00  0.00    -0.028 C 
ATOM     13  C   UNL     1       5.290  -2.017   5.934  1.00  0.00    -0.080 C 
ATOM     14  C   UNL     1       4.287  -2.826   5.144  1.00  0.00     0.039 C 
ATOM     15  C   UNL     1       4.900  -0.658   6.456  1.00  0.00     0.039 C 
ENDBRANCH  11  12
ENDBRANCH   1  11
TORSDOF 4
ENDMDL
MODEL 3
REMARK VINA RESULT:    -2.614      1.414      3.574
REMARK INTER + INTRA:          -4.741
REMARK INTER:                  -3.187
REMARK INTRA:                  -1.553
REMARK UNBOUND:                -1.516
REMARK SMILES CC(C)=CCC[C@H](C)c1ccc(C)cc1
REMARK SMILES IDX 6 1 7 2 8 3 9 4 13 5 12 6 11 7 14 8 10 9 15 10 5 11 4 12
REMARK SMILES IDX 2 13 1 14 3 15
REMARK H PARENT
REMARK Flexibility Score: inf
ROOT
ATOM      1  C   UNL     1       5.383  -3.544   9.384  1.00  0.00     0.012 C 
ENDROOT
BRANCH   1   2
ATOM      2  C   UNL     1       4.128  -2.921   8.730  1.00  0.00     0.016 C 
ATOM      3  C   UNL     1       2.887  -3.816   8.883  1.00  0.00     0.013 C 
BRANCH   2   4
ATOM      4  C   UNL     1       4.386  -2.628   7.263  1.00  0.00    -0.045 A 
ATOM      5  C   UNL     1       5.144  -1.762   3.099  1.00  0.00     0.044 C 
ATOM      6  C   UNL     1       4.890  -2.091   4.541  1.00  0.00    -0.051 A 
ATOM      7  C   UNL     1       5.891  -1.881   5.501  1.00  0.00     0.004 A 
ATOM      8  C   UNL     1       3.629  -2.547   4.949  1.00  0.00     0.004 A 
ATOM      9  C   UNL     1       5.644  -2.153   6.849  1.00  0.00     0.004 A 
ATOM     10  C   UNL     1       3.380  -2.819   6.298  1.00  0.00     0.004 A 
ENDBRANCH   2   4
ENDBRANCH   1   2
BRANCH   1  11
ATOM     11  C   UNL     1       5.494  -5.055   9.131  1.00  0.00     0.028 C 
BRANCH  11  12
ATOM     12  C   UNL     1       6.761  -5.376   8.377  1.00  0.00    -0.028 C 
ATOM     13  C   UNL     1       6.804  -5.747   7.078  1.00  0.00    -0.080 C 
ATOM     14  C   UNL     1       5.551  -5.932   6.255  1.00  0.00     0.039 C 
ATOM     15  C   UNL     1       8.150  -5.998   6.448  1.00  0.00     0.039 C 
ENDBRANCH  11  12
ENDBRANCH   1  11
TORSDOF 4
ENDMDL
MODEL 4
REMARK VINA RESULT:    -2.561      1.760      2.769
REMARK INTER + INTRA:          -4.676
REMARK INTER:                  -3.888
REMARK INTRA:                  -0.788
REMARK UNBOUND:                -1.516
REMARK SMILES CC(C)=CCC[C@H](C)c1ccc(C)cc1
REMARK SMILES IDX 6 1 7 2 8 3 9 4 13 5 12 6 11 7 14 8 10 9 15 10 5 11 4 12
REMARK SMILES IDX 2 13 1 14 3 15
REMARK H PARENT
REMARK Flexibility Score: inf
ROOT
ATOM      1  C   UNL     1       6.005  -4.448   9.251  1.00  0.00     0.012 C 
ENDROOT
BRANCH   1   2
ATOM      2  C   UNL     1       4.555  -4.676   8.766  1.00  0.00     0.016 C 
ATOM      3  C   UNL     1       4.316  -6.125   8.310  1.00  0.00     0.013 C 
BRANCH   2   4
ATOM      4  C   UNL     1       4.212  -3.710   7.647  1.00  0.00    -0.045 A 
ATOM      5  C   UNL     1       3.275  -0.957   4.453  1.00  0.00     0.044 C 
ATOM      6  C   UNL     1       3.580  -1.932   5.551  1.00  0.00    -0.051 A 
ATOM      7  C   UNL     1       4.618  -2.863   5.401  1.00  0.00     0.004 A 
ATOM      8  C   UNL     1       2.875  -1.876   6.761  1.00  0.00     0.004 A 
ATOM      9  C   UNL     1       4.928  -3.749   6.437  1.00  0.00     0.004 A 
ATOM     10  C   UNL     1       3.183  -2.761   7.799  1.00  0.00     0.004 A 
ENDBRANCH   2   4
ENDBRANCH   1   2
BRANCH   1  11
ATOM     11  C   UNL     1       6.079  -4.056  10.734  1.00  0.00     0.028 C 
BRANCH  11  12
ATOM     12  C   UNL     1       4.780  -3.434  11.184  1.00  0.00    -0.028 C 
ATOM     13  C   UNL     1       4.284  -3.524  12.439  1.00  0.00    -0.080 C 
ATOM     14  C   UNL     1       4.976  -4.320  13.520  1.00  0.00     0.039 C 
ATOM     15  C   UNL     1       2.990  -2.816  12.751  1.00  0.00     0.039 C 
ENDBRANCH  11  12
ENDBRANCH   1  11
TORSDOF 4
ENDMDL
MODEL 5
REMARK VINA RESULT:    -2.559      1.741      4.942
REMARK INTER + INTRA:          -4.674
REMARK INTER:                  -3.151
REMARK INTRA:                  -1.522
REMARK UNBOUND:                -1.516
REMARK SMILES CC(C)=CCC[C@H](C)c1ccc(C)cc1
REMARK SMILES IDX 6 1 7 2 8 3 9 4 13 5 12 6 11 7 14 8 10 9 15 10 5 11 4 12
REMARK SMILES IDX 2 13 1 14 3 15
REMARK H PARENT
REMARK Flexibility Score: inf
ROOT
ATOM      1  C   UNL     1       5.427  -1.433   3.516  1.00  0.00     0.012 C 
ENDROOT
BRANCH   1   2
ATOM      2  C   UNL     1       4.079  -2.144   3.776  1.00  0.00     0.016 C 
ATOM      3  C   UNL     1       2.875  -1.238   3.469  1.00  0.00     0.013 C 
BRANCH   2   4
ATOM      4  C   UNL     1       4.010  -2.640   5.210  1.00  0.00    -0.045 A 
ATOM      5  C   UNL     1       3.832  -4.088   9.276  1.00  0.00     0.044 C 
ATOM      6  C   UNL     1       3.908  -3.561   7.873  1.00  0.00    -0.051 A 
ATOM      7  C   UNL     1       4.980  -3.917   7.042  1.00  0.00     0.004 A 
ATOM      8  C   UNL     1       2.875  -2.764   7.361  1.00  0.00     0.004 A 
ATOM      9  C   UNL     1       5.035  -3.456   5.723  1.00  0.00     0.004 A 
ATOM     10  C   UNL     1       2.928  -2.301   6.043  1.00  0.00     0.004 A 
ENDBRANCH   2   4
ENDBRANCH   1   2
BRANCH   1  11
ATOM     11  C   UNL     1       5.424   0.030   3.980  1.00  0.00     0.028 C 
BRANCH  11  12
ATOM     12  C   UNL     1       5.847   0.131   5.425  1.00  0.00    -0.028 C 
ATOM     13  C   UNL     1       5.087   0.661   6.409  1.00  0.00    -0.080 C 
ATOM     14  C   UNL     1       3.730   1.267   6.136  1.00  0.00     0.039 C 
ATOM     15  C   UNL     1       5.629   0.657   7.815  1.00  0.00     0.039 C 
ENDBRANCH  11  12
ENDBRANCH   1  11
TORSDOF 4
ENDMDL
MODEL 6
REMARK VINA RESULT:    -2.519      2.504      4.624
REMARK INTER + INTRA:          -4.624
REMARK INTER:                  -3.789
REMARK INTRA:                  -0.835
REMARK UNBOUND:                -1.516
REMARK SMILES CC(C)=CCC[C@H](C)c1ccc(C)cc1
REMARK SMILES IDX 6 1 7 2 8 3 9 4 13 5 12 6 11 7 14 8 10 9 15 10 5 11 4 12
REMARK SMILES IDX 2 13 1 14 3 15
REMARK H PARENT
REMARK Flexibility Score: inf
ROOT
ATOM      1  C   UNL     1       5.837  -5.577   6.277  1.00  0.00     0.012 C 
ENDROOT
BRANCH   1   2
ATOM      2  C   UNL     1       6.751  -4.329   6.265  1.00  0.00     0.016 C 
ATOM      3  C   UNL     1       6.069  -3.116   5.612  1.00  0.00     0.013 C 
BRANCH   2   4
ATOM      4  C   UNL     1       8.060  -4.638   5.561  1.00  0.00    -0.045 A 
ATOM      5  C   UNL     1      11.801  -5.528   3.594  1.00  0.00     0.044 C 
ATOM      6  C   UNL     1      10.488  -5.238   4.259  1.00  0.00    -0.051 A 
ATOM      7  C   UNL     1      10.071  -5.996   5.362  1.00  0.00     0.004 A 
ATOM      8  C   UNL     1       9.699  -4.163   3.824  1.00  0.00     0.004 A 
ATOM      9  C   UNL     1       8.865  -5.704   6.005  1.00  0.00     0.004 A 
ATOM     10  C   UNL     1       8.492  -3.870   4.465  1.00  0.00     0.004 A 
ENDBRANCH   2   4
ENDBRANCH   1   2
BRANCH   1  11
ATOM     11  C   UNL     1       5.473  -6.030   7.699  1.00  0.00     0.028 C 
BRANCH  11  12
ATOM     12  C   UNL     1       4.330  -5.207   8.242  1.00  0.00    -0.028 C 
ATOM     13  C   UNL     1       4.445  -4.305   9.242  1.00  0.00    -0.080 C 
ATOM     14  C   UNL     1       5.752  -4.069   9.962  1.00  0.00     0.039 C 
ATOM     15  C   UNL     1       3.220  -3.529   9.652  1.00  0.00     0.039 C 
ENDBRANCH  11  12
ENDBRANCH   1  11
TORSDOF 4
ENDMDL
MODEL 7
REMARK VINA RESULT:    -2.495      1.555      3.134
REMARK INTER + INTRA:          -4.594
REMARK INTER:                  -3.091
REMARK INTRA:                  -1.503
REMARK UNBOUND:                -1.516
REMARK SMILES CC(C)=CCC[C@H](C)c1ccc(C)cc1
REMARK SMILES IDX 6 1 7 2 8 3 9 4 13 5 12 6 11 7 14 8 10 9 15 10 5 11 4 12
REMARK SMILES IDX 2 13 1 14 3 15
REMARK H PARENT
REMARK Flexibility Score: inf
ROOT
ATOM      1  C   UNL     1       3.931  -3.696   9.962  1.00  0.00     0.012 C 
ENDROOT
BRANCH   1   2
ATOM      2  C   UNL     1       3.761  -4.461   8.629  1.00  0.00     0.016 C 
ATOM      3  C   UNL     1       4.826  -5.554   8.447  1.00  0.00     0.013 C 
BRANCH   2   4
ATOM      4  C   UNL     1       3.792  -3.496   7.457  1.00  0.00    -0.045 A 
ATOM      5  C   UNL     1       3.841  -0.748   4.124  1.00  0.00     0.044 C 
ATOM      6  C   UNL     1       3.843  -1.685   5.297  1.00  0.00    -0.051 A 
ATOM      7  C   UNL     1       2.897  -1.537   6.321  1.00  0.00     0.004 A 
ATOM      8  C   UNL     1       4.747  -2.755   5.343  1.00  0.00     0.004 A 
ATOM      9  C   UNL     1       2.875  -2.431   7.396  1.00  0.00     0.004 A 
ATOM     10  C   UNL     1       4.727  -3.650   6.417  1.00  0.00     0.004 A 
ENDBRANCH   2   4
ENDBRANCH   1   2
BRANCH   1  11
ATOM     11  C   UNL     1       5.404  -3.451  10.320  1.00  0.00     0.028 C 
BRANCH  11  12
ATOM     12  C   UNL     1       5.873  -2.129   9.765  1.00  0.00    -0.028 C 
ATOM     13  C   UNL     1       6.905  -1.984   8.904  1.00  0.00    -0.080 C 
ATOM     14  C   UNL     1       7.740  -3.158   8.449  1.00  0.00     0.039 C 
ATOM     15  C   UNL     1       7.235  -0.601   8.404  1.00  0.00     0.039 C 
ENDBRANCH  11  12
ENDBRANCH   1  11
TORSDOF 4
ENDMDL
MODEL 8
REMARK VINA RESULT:    -2.478      1.657      2.668
REMARK INTER + INTRA:          -4.573
REMARK INTER:                  -3.061
REMARK INTRA:                  -1.513
REMARK UNBOUND:                -1.516
REMARK SMILES CC(C)=CCC[C@H](C)c1ccc(C)cc1
REMARK SMILES IDX 6 1 7 2 8 3 9 4 13 5 12 6 11 7 14 8 10 9 15 10 5 11 4 12
REMARK SMILES IDX 2 13 1 14 3 15
REMARK H PARENT
REMARK Flexibility Score: inf
ROOT
ATOM      1  C   UNL     1       3.945  -5.047   8.584  1.00  0.00     0.012 C 
ENDROOT
BRANCH   1   2
ATOM      2  C   UNL     1       5.085  -5.614   7.707  1.00  0.00     0.016 C 
ATOM      3  C   UNL     1       6.267  -6.123   8.548  1.00  0.00     0.013 C 
BRANCH   2   4
ATOM      4  C   UNL     1       5.560  -4.568   6.714  1.00  0.00    -0.045 A 
ATOM      5  C   UNL     1       6.875  -1.596   3.869  1.00  0.00     0.044 C 
ATOM      6  C   UNL     1       6.424  -2.609   4.879  1.00  0.00    -0.051 A 
ATOM      7  C   UNL     1       5.077  -2.673   5.263  1.00  0.00     0.004 A 
ATOM      8  C   UNL     1       7.333  -3.542   5.396  1.00  0.00     0.004 A 
ATOM      9  C   UNL     1       4.649  -3.640   6.177  1.00  0.00     0.004 A 
ATOM     10  C   UNL     1       6.907  -4.510   6.311  1.00  0.00     0.004 A 
ENDBRANCH   2   4
ENDBRANCH   1   2
BRANCH   1  11
ATOM     11  C   UNL     1       4.465  -4.240   9.783  1.00  0.00     0.028 C 
BRANCH  11  12
ATOM     12  C   UNL     1       3.965  -2.818   9.723  1.00  0.00    -0.028 C 
ATOM     13  C   UNL     1       4.730  -1.751   9.403  1.00  0.00    -0.080 C 
ATOM     14  C   UNL     1       6.208  -1.880   9.119  1.00  0.00     0.039 C 
ATOM     15  C   UNL     1       4.080  -0.392   9.347  1.00  0.00     0.039 C 
ENDBRANCH  11  12
ENDBRANCH   1  11
TORSDOF 4
ENDMDL
MODEL 9
REMARK VINA RESULT:    -2.464      1.368      3.518
REMARK INTER + INTRA:          -4.556
REMARK INTER:                  -3.018
REMARK INTRA:                  -1.538
REMARK UNBOUND:                -1.516
REMARK SMILES CC(C)=CCC[C@H](C)c1ccc(C)cc1
REMARK SMILES IDX 6 1 7 2 8 3 9 4 13 5 12 6 11 7 14 8 10 9 15 10 5 11 4 12
REMARK SMILES IDX 2 13 1 14 3 15
REMARK H PARENT
REMARK Flexibility Score: inf
ROOT
ATOM      1  C   UNL     1       5.429  -2.005   9.883  1.00  0.00     0.012 C 
ENDROOT
BRANCH   1   2
ATOM      2  C   UNL     1       4.058  -1.530   9.349  1.00  0.00     0.016 C 
ATOM      3  C   UNL     1       2.890  -2.317   9.966  1.00  0.00     0.013 C 
BRANCH   2   4
ATOM      4  C   UNL     1       4.017  -1.629   7.835  1.00  0.00    -0.045 A 
ATOM      5  C   UNL     1       3.918  -1.875   3.523  1.00  0.00     0.044 C 
ATOM      6  C   UNL     1       3.965  -1.817   5.022  1.00  0.00    -0.051 A 
ATOM      7  C   UNL     1       5.070  -1.250   5.672  1.00  0.00     0.004 A 
ATOM      8  C   UNL     1       2.875  -2.267   5.780  1.00  0.00     0.004 A 
ATOM      9  C   UNL     1       5.099  -1.162   7.067  1.00  0.00     0.004 A 
ATOM     10  C   UNL     1       2.903  -2.181   7.175  1.00  0.00     0.004 A 
ENDBRANCH   2   4
ENDBRANCH   1   2
BRANCH   1  11
ATOM     11  C   UNL     1       5.480  -3.522  10.118  1.00  0.00     0.028 C 
BRANCH  11  12
ATOM     12  C   UNL     1       6.020  -4.230   8.900  1.00  0.00    -0.028 C 
ATOM     13  C   UNL     1       5.314  -5.104   8.148  1.00  0.00    -0.080 C 
ATOM     14  C   UNL     1       3.899  -5.504   8.499  1.00  0.00     0.039 C 
ATOM     15  C   UNL     1       5.975  -5.705   6.935  1.00  0.00     0.039 C 
ENDBRANCH  11  12
ENDBRANCH   1  11
TORSDOF 4
ENDMDL
