MODEL 1
REMARK VINA RESULT:    -3.677      0.000      0.000
REMARK INTER + INTRA:          -3.916
REMARK INTER:                  -3.892
REMARK INTRA:                  -0.024
REMARK UNBOUND:                -0.024
REMARK SMILES O=C([O-])c1cccnc1
REMARK SMILES IDX 4 1 5 2 9 3 6 4 8 5 7 6 2 7 1 8 3 9
REMARK H PARENT
REMARK Flexibility Score: inf
ROOT
ATOM      1  C   UNL     1       9.747  31.760   2.527  1.00  0.00     0.016 A 
ATOM      2  C   UNL     1       8.541  31.201   2.979  1.00  0.00     0.013 A 
ATOM      3  C   UNL     1      10.526  32.494   3.438  1.00  0.00     0.120 A 
ATOM      4  C   UNL     1       8.138  31.380   4.304  1.00  0.00     0.021 A 
ATOM      5  N   UNL     1      10.111  32.654   4.723  1.00  0.00    -0.264 NA
ATOM      6  C   UNL     1       8.945  32.117   5.170  1.00  0.00     0.111 A 
ENDROOT
BRANCH   1   7
ATOM      7  C   UNL     1      10.183  31.577   1.126  1.00  0.00     0.073 C 
ATOM      8  O   UNL     1      11.298  32.020   0.739  1.00  0.00    -0.545 OA
ATOM      9  O   UNL     1       9.370  30.913   0.216  1.00  0.00    -0.545 OA
ENDBRANCH   1   7
TORSDOF 1
ENDMDL
MODEL 2
REMARK VINA RESULT:    -3.618     18.394     19.188
REMARK INTER + INTRA:          -3.853
REMARK INTER:                  -3.836
REMARK INTRA:                  -0.017
REMARK UNBOUND:                -0.024
REMARK SMILES O=C([O-])c1cccnc1
REMARK SMILES IDX 4 1 5 2 9 3 6 4 8 5 7 6 2 7 1 8 3 9
REMARK H PARENT
REMARK Flexibility Score: inf
ROOT
ATOM      1  C   UNL     1      27.479  37.111  -0.296  1.00  0.00     0.016 A 
ATOM      2  C   UNL     1      27.948  37.048  -1.618  1.00  0.00     0.013 A 
ATOM      3  C   UNL     1      27.197  35.906   0.370  1.00  0.00     0.120 A 
ATOM      4  C   UNL     1      28.125  35.811  -2.242  1.00  0.00     0.021 A 
ATOM      5  N   UNL     1      27.377  34.714  -0.260  1.00  0.00    -0.264 NA
ATOM      6  C   UNL     1      27.831  34.643  -1.539  1.00  0.00     0.111 A 
ENDROOT
BRANCH   1   7
ATOM      7  C   UNL     1      27.288  38.415   0.374  1.00  0.00     0.073 C 
ATOM      8  O   UNL     1      26.371  39.197   0.005  1.00  0.00    -0.545 OA
ATOM      9  O   UNL     1      28.118  38.797   1.421  1.00  0.00    -0.545 OA
ENDBRANCH   1   7
TORSDOF 1
ENDMDL
MODEL 3
REMARK VINA RESULT:    -3.608      0.353      1.116
REMARK INTER + INTRA:          -3.842
REMARK INTER:                  -3.818
REMARK INTRA:                  -0.024
REMARK UNBOUND:                -0.024
REMARK SMILES O=C([O-])c1cccnc1
REMARK SMILES IDX 4 1 5 2 9 3 6 4 8 5 7 6 2 7 1 8 3 9
REMARK H PARENT
REMARK Flexibility Score: inf
ROOT
ATOM      1  C   UNL     1       9.762  31.700   2.461  1.00  0.00     0.016 A 
ATOM      2  C   UNL     1       8.609  31.252   3.124  1.00  0.00     0.013 A 
ATOM      3  C   UNL     1      10.697  32.458   3.187  1.00  0.00     0.120 A 
ATOM      4  C   UNL     1       8.409  31.559   4.471  1.00  0.00     0.021 A 
ATOM      5  N   UNL     1      10.480  32.744   4.498  1.00  0.00    -0.264 NA
ATOM      6  C   UNL     1       9.366  32.314   5.149  1.00  0.00     0.111 A 
ENDROOT
BRANCH   1   7
ATOM      7  C   UNL     1       9.983  31.381   1.034  1.00  0.00     0.073 C 
ATOM      8  O   UNL     1       9.060  30.875   0.341  1.00  0.00    -0.545 OA
ATOM      9  O   UNL     1      11.213  31.634   0.438  1.00  0.00    -0.545 OA
ENDBRANCH   1   7
TORSDOF 1
ENDMDL
MODEL 4
REMARK VINA RESULT:    -3.584     18.581     19.193
REMARK INTER + INTRA:          -3.817
REMARK INTER:                  -3.801
REMARK INTRA:                  -0.017
REMARK UNBOUND:                -0.024
REMARK SMILES O=C([O-])c1cccnc1
REMARK SMILES IDX 4 1 5 2 9 3 6 4 8 5 7 6 2 7 1 8 3 9
REMARK H PARENT
REMARK Flexibility Score: inf
ROOT
ATOM      1  C   UNL     1      27.475  37.222  -0.300  1.00  0.00     0.016 A 
ATOM      2  C   UNL     1      27.197  36.025   0.380  1.00  0.00     0.013 A 
ATOM      3  C   UNL     1      27.946  37.145  -1.622  1.00  0.00     0.120 A 
ATOM      4  C   UNL     1      27.390  34.796  -0.255  1.00  0.00     0.021 A 
ATOM      5  N   UNL     1      28.125  35.935  -2.218  1.00  0.00    -0.264 NA
ATOM      6  C   UNL     1      27.859  34.771  -1.568  1.00  0.00     0.111 A 
ENDROOT
BRANCH   1   7
ATOM      7  C   UNL     1      27.274  38.528   0.362  1.00  0.00     0.073 C 
ATOM      8  O   UNL     1      26.348  39.299  -0.009  1.00  0.00    -0.545 OA
ATOM      9  O   UNL     1      28.105  38.925   1.403  1.00  0.00    -0.545 OA
ENDBRANCH   1   7
TORSDOF 1
ENDMDL
MODEL 5
REMARK VINA RESULT:    -3.580      3.003      4.043
REMARK INTER + INTRA:          -3.813
REMARK INTER:                  -3.795
REMARK INTRA:                  -0.017
REMARK UNBOUND:                -0.024
REMARK SMILES O=C([O-])c1cccnc1
REMARK SMILES IDX 4 1 5 2 9 3 6 4 8 5 7 6 2 7 1 8 3 9
REMARK H PARENT
REMARK Flexibility Score: inf
ROOT
ATOM      1  C   UNL     1       9.334  31.590   3.644  1.00  0.00     0.016 A 
ATOM      2  C   UNL     1      10.464  32.303   3.212  1.00  0.00     0.013 A 
ATOM      3  C   UNL     1       8.571  30.902   2.685  1.00  0.00     0.120 A 
ATOM      4  C   UNL     1      10.808  32.319   1.859  1.00  0.00     0.021 A 
ATOM      5  N   UNL     1       8.928  30.934   1.373  1.00  0.00    -0.264 NA
ATOM      6  C   UNL     1      10.020  31.621   0.944  1.00  0.00     0.111 A 
ENDROOT
BRANCH   1   7
ATOM      7  C   UNL     1       8.961  31.566   5.075  1.00  0.00     0.073 C 
ATOM      8  O   UNL     1       7.875  32.077   5.462  1.00  0.00    -0.545 OA
ATOM      9  O   UNL     1       9.801  30.979   6.013  1.00  0.00    -0.545 OA
ENDBRANCH   1   7
TORSDOF 1
ENDMDL
MODEL 6
REMARK VINA RESULT:    -3.346     16.338     17.000
REMARK INTER + INTRA:          -3.565
REMARK INTER:                  -3.542
REMARK INTRA:                  -0.023
REMARK UNBOUND:                -0.024
REMARK SMILES O=C([O-])c1cccnc1
REMARK SMILES IDX 4 1 5 2 9 3 6 4 8 5 7 6 2 7 1 8 3 9
REMARK H PARENT
REMARK Flexibility Score: inf
ROOT
ATOM      1  C   UNL     1      24.136  32.830  11.548  1.00  0.00     0.016 A 
ATOM      2  C   UNL     1      23.531  33.882  10.842  1.00  0.00     0.013 A 
ATOM      3  C   UNL     1      23.993  32.795  12.946  1.00  0.00     0.120 A 
ATOM      4  C   UNL     1      22.808  34.862  11.525  1.00  0.00     0.021 A 
ATOM      5  N   UNL     1      23.284  33.761  13.588  1.00  0.00    -0.264 NA
ATOM      6  C   UNL     1      22.694  34.783  12.914  1.00  0.00     0.111 A 
ENDROOT
BRANCH   1   7
ATOM      7  C   UNL     1      24.904  31.788  10.834  1.00  0.00     0.073 C 
ATOM      8  O   UNL     1      25.730  31.064  11.453  1.00  0.00    -0.545 OA
ATOM      9  O   UNL     1      24.726  31.591   9.470  1.00  0.00    -0.545 OA
ENDBRANCH   1   7
TORSDOF 1
ENDMDL
MODEL 7
REMARK VINA RESULT:    -3.311     16.621     17.376
REMARK INTER + INTRA:          -3.528
REMARK INTER:                  -3.504
REMARK INTRA:                  -0.024
REMARK UNBOUND:                -0.024
REMARK SMILES O=C([O-])c1cccnc1
REMARK SMILES IDX 4 1 5 2 9 3 6 4 8 5 7 6 2 7 1 8 3 9
REMARK H PARENT
REMARK Flexibility Score: inf
ROOT
ATOM      1  C   UNL     1      23.994  33.201  11.740  1.00  0.00     0.016 A 
ATOM      2  C   UNL     1      24.460  32.754  10.493  1.00  0.00     0.013 A 
ATOM      3  C   UNL     1      24.322  32.452  12.883  1.00  0.00     0.120 A 
ATOM      4  C   UNL     1      25.229  31.592  10.407  1.00  0.00     0.021 A 
ATOM      5  N   UNL     1      25.072  31.323  12.772  1.00  0.00    -0.264 NA
ATOM      6  C   UNL     1      25.528  30.882  11.570  1.00  0.00     0.111 A 
ENDROOT
BRANCH   1   7
ATOM      7  C   UNL     1      23.179  34.431  11.843  1.00  0.00     0.073 C 
ATOM      8  O   UNL     1      22.709  34.976  10.808  1.00  0.00    -0.545 OA
ATOM      9  O   UNL     1      22.921  35.003  13.082  1.00  0.00    -0.545 OA
ENDBRANCH   1   7
TORSDOF 1
ENDMDL
MODEL 8
REMARK VINA RESULT:    -3.302     16.843     17.775
REMARK INTER + INTRA:          -3.518
REMARK INTER:                  -3.500
REMARK INTRA:                  -0.018
REMARK UNBOUND:                -0.024
REMARK SMILES O=C([O-])c1cccnc1
REMARK SMILES IDX 4 1 5 2 9 3 6 4 8 5 7 6 2 7 1 8 3 9
REMARK H PARENT
REMARK Flexibility Score: inf
ROOT
ATOM      1  C   UNL     1      23.402  34.951  13.123  1.00  0.00     0.016 A 
ATOM      2  C   UNL     1      22.783  34.731  11.882  1.00  0.00     0.013 A 
ATOM      3  C   UNL     1      24.672  34.390  13.345  1.00  0.00     0.120 A 
ATOM      4  C   UNL     1      23.426  33.971  10.902  1.00  0.00     0.021 A 
ATOM      5  N   UNL     1      25.276  33.654  12.375  1.00  0.00    -0.264 NA
ATOM      6  C   UNL     1      24.686  33.436  11.170  1.00  0.00     0.111 A 
ENDROOT
BRANCH   1   7
ATOM      7  C   UNL     1      22.730  35.754  14.167  1.00  0.00     0.073 C 
ATOM      8  O   UNL     1      23.292  36.773  14.651  1.00  0.00    -0.545 OA
ATOM      9  O   UNL     1      21.470  35.395  14.630  1.00  0.00    -0.545 OA
ENDBRANCH   1   7
TORSDOF 1
ENDMDL
