MODEL 1
REMARK VINA RESULT:    -4.989      0.000      0.000
REMARK INTER + INTRA:          -5.741
REMARK INTER:                  -5.573
REMARK INTRA:                  -0.168
REMARK UNBOUND:                -0.168
REMARK SMILES C=CCc1ccc2c(c1)OCO2
REMARK SMILES IDX 3 1 2 2 1 3 4 4 9 5 5 6 8 7 6 8 7 9 10 10 12 11 11 12
REMARK H PARENT
REMARK Flexibility Score: inf
ROOT
ATOM      1  C   UNL     1      28.985   2.567  12.623  1.00  0.00     0.062 C 
ENDROOT
BRANCH   1   2
ATOM      2  C   UNL     1      29.952   1.762  13.446  1.00  0.00    -0.030 C 
ATOM      3  C   UNL     1      31.146   2.247  13.800  1.00  0.00     0.004 C 
ENDBRANCH   1   2
BRANCH   1   4
ATOM      4  C   UNL     1      27.610   1.960  12.671  1.00  0.00    -0.040 A 
ATOM      5  C   UNL     1      26.466   2.778  12.540  1.00  0.00     0.054 A 
ATOM      6  C   UNL     1      27.457   0.555  12.806  1.00  0.00     0.008 A 
ATOM      7  C   UNL     1      25.216   2.163  12.564  1.00  0.00     0.166 A 
ATOM      8  C   UNL     1      26.175  -0.026  12.824  1.00  0.00     0.051 A 
ATOM      9  C   UNL     1      25.078   0.821  12.700  1.00  0.00     0.165 A 
ATOM     10  O   UNL     1      23.968   2.746  12.458  1.00  0.00    -0.454 OA
ATOM     11  O   UNL     1      23.736   0.493  12.688  1.00  0.00    -0.454 OA
ATOM     12  C   UNL     1      22.984   1.705  12.534  1.00  0.00     0.468 C 
ENDBRANCH   1   4
TORSDOF 2
ENDMDL
MODEL 2
REMARK VINA RESULT:    -4.944      0.691      1.852
REMARK INTER + INTRA:          -5.690
REMARK INTER:                  -5.508
REMARK INTRA:                  -0.182
REMARK UNBOUND:                -0.168
REMARK SMILES C=CCc1ccc2c(c1)OCO2
REMARK SMILES IDX 3 1 2 2 1 3 4 4 9 5 5 6 8 7 6 8 7 9 10 10 12 11 11 12
REMARK H PARENT
REMARK Flexibility Score: inf
ROOT
ATOM      1  C   UNL     1      28.624   0.773  13.270  1.00  0.00     0.062 C 
ENDROOT
BRANCH   1   2
ATOM      2  C   UNL     1      29.683   1.679  12.706  1.00  0.00    -0.030 C 
ATOM      3  C   UNL     1      30.648   2.195  13.472  1.00  0.00     0.004 C 
ENDBRANCH   1   2
BRANCH   1   4
ATOM      4  C   UNL     1      27.251   1.316  12.983  1.00  0.00    -0.040 A 
ATOM      5  C   UNL     1      26.115   0.486  13.117  1.00  0.00     0.054 A 
ATOM      6  C   UNL     1      27.086   2.677  12.617  1.00  0.00     0.008 A 
ATOM      7  C   UNL     1      24.864   1.044  12.867  1.00  0.00     0.166 A 
ATOM      8  C   UNL     1      25.803   3.201  12.374  1.00  0.00     0.051 A 
ATOM      9  C   UNL     1      24.715   2.344  12.510  1.00  0.00     0.165 A 
ATOM     10  O   UNL     1      23.624   0.439  12.929  1.00  0.00    -0.454 OA
ATOM     11  O   UNL     1      23.374   2.621  12.329  1.00  0.00    -0.454 OA
ATOM     12  C   UNL     1      22.634   1.420  12.588  1.00  0.00     0.468 C 
ENDBRANCH   1   4
TORSDOF 2
ENDMDL
MODEL 3
REMARK VINA RESULT:    -4.856      2.380      4.065
REMARK INTER + INTRA:          -5.592
REMARK INTER:                  -5.430
REMARK INTRA:                  -0.162
REMARK UNBOUND:                -0.168
REMARK SMILES C=CCc1ccc2c(c1)OCO2
REMARK SMILES IDX 3 1 2 2 1 3 4 4 9 5 5 6 8 7 6 8 7 9 10 10 12 11 11 12
REMARK H PARENT
REMARK Flexibility Score: inf
ROOT
ATOM      1  C   UNL     1      26.030  -1.520  15.417  1.00  0.00     0.062 C 
ENDROOT
BRANCH   1   2
ATOM      2  C   UNL     1      24.749  -1.855  16.128  1.00  0.00    -0.030 C 
ATOM      3  C   UNL     1      24.742  -2.337  17.374  1.00  0.00     0.004 C 
ENDBRANCH   1   2
BRANCH   1   4
ATOM      4  C   UNL     1      25.818  -0.397  14.438  1.00  0.00    -0.040 A 
ATOM      5  C   UNL     1      24.527   0.137  14.236  1.00  0.00     0.054 A 
ATOM      6  C   UNL     1      26.924   0.159  13.744  1.00  0.00     0.008 A 
ATOM      7  C   UNL     1      24.389   1.195  13.340  1.00  0.00     0.166 A 
ATOM      8  C   UNL     1      26.741   1.228  12.847  1.00  0.00     0.051 A 
ATOM      9  C   UNL     1      25.449   1.716  12.674  1.00  0.00     0.165 A 
ATOM     10  O   UNL     1      23.241   1.873  12.979  1.00  0.00    -0.454 OA
ATOM     11  O   UNL     1      25.022   2.747  11.862  1.00  0.00    -0.454 OA
ATOM     12  C   UNL     1      23.603   2.882  12.026  1.00  0.00     0.468 C 
ENDBRANCH   1   4
TORSDOF 2
ENDMDL
MODEL 4
REMARK VINA RESULT:    -4.766      2.896      4.471
REMARK INTER + INTRA:          -5.491
REMARK INTER:                  -5.366
REMARK INTRA:                  -0.126
REMARK UNBOUND:                -0.168
REMARK SMILES C=CCc1ccc2c(c1)OCO2
REMARK SMILES IDX 3 1 2 2 1 3 4 4 9 5 5 6 8 7 6 8 7 9 10 10 12 11 11 12
REMARK H PARENT
REMARK Flexibility Score: inf
ROOT
ATOM      1  C   UNL     1      24.358   1.918  11.811  1.00  0.00     0.062 C 
ENDROOT
BRANCH   1   2
ATOM      2  C   UNL     1      23.634   3.062  12.463  1.00  0.00    -0.030 C 
ATOM      3  C   UNL     1      24.174   3.752  13.471  1.00  0.00     0.004 C 
ENDBRANCH   1   2
BRANCH   1   4
ATOM      4  C   UNL     1      24.910   0.976  12.847  1.00  0.00    -0.040 A 
ATOM      5  C   UNL     1      24.039   0.297  13.727  1.00  0.00     0.054 A 
ATOM      6  C   UNL     1      26.306   0.733  12.915  1.00  0.00     0.008 A 
ATOM      7  C   UNL     1      24.598  -0.585  14.649  1.00  0.00     0.166 A 
ATOM      8  C   UNL     1      26.830  -0.167  13.861  1.00  0.00     0.051 A 
ATOM      9  C   UNL     1      25.934  -0.806  14.713  1.00  0.00     0.165 A 
ATOM     10  O   UNL     1      23.958  -1.352  15.603  1.00  0.00    -0.454 OA
ATOM     11  O   UNL     1      26.202  -1.723  15.711  1.00  0.00    -0.454 OA
ATOM     12  C   UNL     1      24.955  -2.101  16.312  1.00  0.00     0.468 C 
ENDBRANCH   1   4
TORSDOF 2
ENDMDL
MODEL 5
REMARK VINA RESULT:    -4.577      2.683      5.019
REMARK INTER + INTRA:          -5.280
REMARK INTER:                  -5.097
REMARK INTRA:                  -0.183
REMARK UNBOUND:                -0.168
REMARK SMILES C=CCc1ccc2c(c1)OCO2
REMARK SMILES IDX 3 1 2 2 1 3 4 4 9 5 5 6 8 7 6 8 7 9 10 10 12 11 11 12
REMARK H PARENT
REMARK Flexibility Score: inf
ROOT
ATOM      1  C   UNL     1      24.943   2.532  12.353  1.00  0.00     0.062 C 
ENDROOT
BRANCH   1   2
ATOM      2  C   UNL     1      23.925   1.748  13.134  1.00  0.00    -0.030 C 
ATOM      3  C   UNL     1      22.747   1.405  12.606  1.00  0.00     0.004 C 
ENDBRANCH   1   2
BRANCH   1   4
ATOM      4  C   UNL     1      26.334   2.039  12.646  1.00  0.00    -0.040 A 
ATOM      5  C   UNL     1      27.446   2.889  12.452  1.00  0.00     0.054 A 
ATOM      6  C   UNL     1      26.532   0.732  13.161  1.00  0.00     0.008 A 
ATOM      7  C   UNL     1      28.709   2.395  12.766  1.00  0.00     0.166 A 
ATOM      8  C   UNL     1      27.826   0.271  13.464  1.00  0.00     0.051 A 
ATOM      9  C   UNL     1      28.891   1.141  13.249  1.00  0.00     0.165 A 
ATOM     10  O   UNL     1      29.932   3.029  12.659  1.00  0.00    -0.454 OA
ATOM     11  O   UNL     1      30.237   0.924  13.470  1.00  0.00    -0.454 OA
ATOM     12  C   UNL     1      30.945   2.115  13.102  1.00  0.00     0.468 C 
ENDBRANCH   1   4
TORSDOF 2
ENDMDL
MODEL 6
REMARK VINA RESULT:    -4.427      1.943      2.799
REMARK INTER + INTRA:          -5.112
REMARK INTER:                  -4.956
REMARK INTRA:                  -0.156
REMARK UNBOUND:                -0.168
REMARK SMILES C=CCc1ccc2c(c1)OCO2
REMARK SMILES IDX 3 1 2 2 1 3 4 4 9 5 5 6 8 7 6 8 7 9 10 10 12 11 11 12
REMARK H PARENT
REMARK Flexibility Score: inf
ROOT
ATOM      1  C   UNL     1      29.063   1.549  12.443  1.00  0.00     0.062 C 
ENDROOT
BRANCH   1   2
ATOM      2  C   UNL     1      30.063   1.852  13.525  1.00  0.00    -0.030 C 
ATOM      3  C   UNL     1      31.378   1.807  13.299  1.00  0.00     0.004 C 
ENDBRANCH   1   2
BRANCH   1   4
ATOM      4  C   UNL     1      27.768   1.064  13.035  1.00  0.00    -0.040 A 
ATOM      5  C   UNL     1      27.754  -0.058  13.894  1.00  0.00     0.054 A 
ATOM      6  C   UNL     1      26.560   1.757  12.766  1.00  0.00     0.008 A 
ATOM      7  C   UNL     1      26.533  -0.449  14.437  1.00  0.00     0.166 A 
ATOM      8  C   UNL     1      25.347   1.327  13.336  1.00  0.00     0.051 A 
ATOM      9  C   UNL     1      25.381   0.213  14.169  1.00  0.00     0.165 A 
ATOM     10  O   UNL     1      26.270  -1.503  15.291  1.00  0.00    -0.454 OA
ATOM     11  O   UNL     1      24.336  -0.391  14.840  1.00  0.00    -0.454 OA
ATOM     12  C   UNL     1      24.864  -1.503  15.576  1.00  0.00     0.468 C 
ENDBRANCH   1   4
TORSDOF 2
ENDMDL
MODEL 7
REMARK VINA RESULT:    -4.373      3.192      5.141
REMARK INTER + INTRA:          -5.052
REMARK INTER:                  -4.892
REMARK INTRA:                  -0.159
REMARK UNBOUND:                -0.168
REMARK SMILES C=CCc1ccc2c(c1)OCO2
REMARK SMILES IDX 3 1 2 2 1 3 4 4 9 5 5 6 8 7 6 8 7 9 10 10 12 11 11 12
REMARK H PARENT
REMARK Flexibility Score: inf
ROOT
ATOM      1  C   UNL     1      24.275  -1.483  15.622  1.00  0.00     0.062 C 
ENDROOT
BRANCH   1   2
ATOM      2  C   UNL     1      25.108  -2.114  16.703  1.00  0.00    -0.030 C 
ATOM      3  C   UNL     1      24.617  -2.345  17.923  1.00  0.00     0.004 C 
ENDBRANCH   1   2
BRANCH   1   4
ATOM      4  C   UNL     1      25.100  -0.527  14.803  1.00  0.00    -0.040 A 
ATOM      5  C   UNL     1      26.482  -0.757  14.618  1.00  0.00     0.054 A 
ATOM      6  C   UNL     1      24.484   0.586  14.176  1.00  0.00     0.008 A 
ATOM      7  C   UNL     1      27.194   0.141  13.828  1.00  0.00     0.166 A 
ATOM      8  C   UNL     1      25.241   1.471  13.385  1.00  0.00     0.051 A 
ATOM      9  C   UNL     1      26.600   1.208  13.239  1.00  0.00     0.165 A 
ATOM     10  O   UNL     1      28.538   0.128  13.508  1.00  0.00    -0.454 OA
ATOM     11  O   UNL     1      27.540   1.920  12.519  1.00  0.00    -0.454 OA
ATOM     12  C   UNL     1      28.804   1.259  12.666  1.00  0.00     0.468 C 
ENDBRANCH   1   4
TORSDOF 2
ENDMDL
MODEL 8
REMARK VINA RESULT:    -4.358      7.921      9.117
REMARK INTER + INTRA:          -5.035
REMARK INTER:                  -4.861
REMARK INTRA:                  -0.174
REMARK UNBOUND:                -0.168
REMARK SMILES C=CCc1ccc2c(c1)OCO2
REMARK SMILES IDX 3 1 2 2 1 3 4 4 9 5 5 6 8 7 6 8 7 9 10 10 12 11 11 12
REMARK H PARENT
REMARK Flexibility Score: inf
ROOT
ATOM      1  C   UNL     1      26.288  -0.747   4.122  1.00  0.00     0.062 C 
ENDROOT
BRANCH   1   2
ATOM      2  C   UNL     1      25.320  -1.869   4.374  1.00  0.00    -0.030 C 
ATOM      3  C   UNL     1      24.042  -1.792   3.994  1.00  0.00     0.004 C 
ENDBRANCH   1   2
BRANCH   1   4
ATOM      4  C   UNL     1      27.397  -0.761   5.138  1.00  0.00    -0.040 A 
ATOM      5  C   UNL     1      28.697  -0.342   4.779  1.00  0.00     0.054 A 
ATOM      6  C   UNL     1      27.131  -1.154   6.475  1.00  0.00     0.008 A 
ATOM      7  C   UNL     1      29.681  -0.347   5.764  1.00  0.00     0.166 A 
ATOM      8  C   UNL     1      28.155  -1.144   7.441  1.00  0.00     0.051 A 
ATOM      9  C   UNL     1      29.422  -0.732   7.038  1.00  0.00     0.165 A 
ATOM     10  O   UNL     1      31.011   0.012   5.654  1.00  0.00    -0.454 OA
ATOM     11  O   UNL     1      30.574  -0.635   7.793  1.00  0.00    -0.454 OA
ATOM     12  C   UNL     1      31.624  -0.159   6.940  1.00  0.00     0.468 C 
ENDBRANCH   1   4
TORSDOF 2
ENDMDL
MODEL 9
REMARK VINA RESULT:    -4.299      7.431      7.695
REMARK INTER + INTRA:          -4.970
REMARK INTER:                  -4.782
REMARK INTRA:                  -0.188
REMARK UNBOUND:                -0.168
REMARK SMILES C=CCc1ccc2c(c1)OCO2
REMARK SMILES IDX 3 1 2 2 1 3 4 4 9 5 5 6 8 7 6 8 7 9 10 10 12 11 11 12
REMARK H PARENT
REMARK Flexibility Score: inf
ROOT
ATOM      1  C   UNL     1      31.297   0.372   7.957  1.00  0.00     0.062 C 
ENDROOT
BRANCH   1   2
ATOM      2  C   UNL     1      32.357  -0.671   7.736  1.00  0.00    -0.030 C 
ATOM      3  C   UNL     1      33.405  -0.449   6.938  1.00  0.00     0.004 C 
ENDBRANCH   1   2
BRANCH   1   4
ATOM      4  C   UNL     1      30.061   0.055   7.160  1.00  0.00    -0.040 A 
ATOM      5  C   UNL     1      29.926   0.532   5.837  1.00  0.00     0.054 A 
ATOM      6  C   UNL     1      29.045  -0.763   7.719  1.00  0.00     0.008 A 
ATOM      7  C   UNL     1      28.776   0.186   5.132  1.00  0.00     0.166 A 
ATOM      8  C   UNL     1      27.898  -1.089   6.971  1.00  0.00     0.051 A 
ATOM      9  C   UNL     1      27.805  -0.589   5.676  1.00  0.00     0.165 A 
ATOM     10  O   UNL     1      28.421   0.532   3.842  1.00  0.00    -0.454 OA
ATOM     11  O   UNL     1      26.791  -0.770   4.756  1.00  0.00    -0.454 OA
ATOM     12  C   UNL     1      27.147  -0.063   3.559  1.00  0.00     0.468 C 
ENDBRANCH   1   4
TORSDOF 2
ENDMDL
