MODEL 1
REMARK VINA RESULT:    -5.104      0.000      0.000
REMARK INTER + INTRA:         -10.365
REMARK INTER:                  -8.684
REMARK INTRA:                  -1.681
REMARK UNBOUND:                -1.681
REMARK SMILES CCCCCCCCCCCCCC(=O)[O-]
REMARK SMILES IDX 8 1 9 2 10 3 11 4 12 5 13 6 14 7 15 8 16 9 7 10 6 11 5 12
REMARK SMILES IDX 4 13 3 14 2 15 1 16
REMARK H PARENT
REMARK Flexibility Score: inf
ROOT
ATOM      1  C   UNL     1      14.925  -6.738  15.268  1.00  0.00     0.000 C 
ENDROOT
BRANCH   1   2
ATOM      2  C   UNL     1      16.184  -6.034  15.803  1.00  0.00     0.000 C 
BRANCH   2   3
ATOM      3  C   UNL     1      16.110  -4.504  15.661  1.00  0.00     0.000 C 
BRANCH   3   4
ATOM      4  C   UNL     1      15.122  -3.868  16.656  1.00  0.00     0.000 C 
BRANCH   4   5
ATOM      5  C   UNL     1      13.812  -3.417  15.985  1.00  0.00     0.006 C 
BRANCH   5   6
ATOM      6  C   UNL     1      13.930  -3.145  14.477  1.00  0.00     0.053 C 
BRANCH   6   7
ATOM      7  C   UNL     1      12.631  -2.690  13.886  1.00  0.00     0.041 C 
ATOM      8  O   UNL     1      12.392  -1.460  13.751  1.00  0.00    -0.550 OA
ATOM      9  O   UNL     1      11.672  -3.622  13.515  1.00  0.00    -0.550 OA
ENDBRANCH   6   7
ENDBRANCH   5   6
ENDBRANCH   4   5
ENDBRANCH   3   4
ENDBRANCH   2   3
ENDBRANCH   1   2
BRANCH   1  10
ATOM     10  C   UNL     1      15.011  -7.040  13.764  1.00  0.00     0.000 C 
BRANCH  10  11
ATOM     11  C   UNL     1      13.808  -6.496  12.979  1.00  0.00    -0.000 C 
BRANCH  11  12
ATOM     12  C   UNL     1      14.249  -5.921  11.628  1.00  0.00    -0.000 C 
BRANCH  12  13
ATOM     13  C   UNL     1      15.517  -5.072  11.777  1.00  0.00    -0.000 C 
BRANCH  13  14
ATOM     14  C   UNL     1      16.651  -5.615  10.900  1.00  0.00    -0.000 C 
BRANCH  14  15
ATOM     15  C   UNL     1      17.857  -6.027  11.753  1.00  0.00    -0.003 C 
ATOM     16  C   UNL     1      18.517  -4.811  12.397  1.00  0.00     0.004 C 
ENDBRANCH  14  15
ENDBRANCH  13  14
ENDBRANCH  12  13
ENDBRANCH  11  12
ENDBRANCH  10  11
ENDBRANCH   1  10
TORSDOF 12
ENDMDL
MODEL 2
REMARK VINA RESULT:    -5.027      2.974      4.068
REMARK INTER + INTRA:         -10.235
REMARK INTER:                  -8.309
REMARK INTRA:                  -1.925
REMARK UNBOUND:                -1.681
REMARK SMILES CCCCCCCCCCCCCC(=O)[O-]
REMARK SMILES IDX 8 1 9 2 10 3 11 4 12 5 13 6 14 7 15 8 16 9 7 10 6 11 5 12
REMARK SMILES IDX 4 13 3 14 2 15 1 16
REMARK H PARENT
REMARK Flexibility Score: inf
ROOT
ATOM      1  C   UNL     1      14.222  -2.831  13.859  1.00  0.00     0.000 C 
ENDROOT
BRANCH   1   2
ATOM      2  C   UNL     1      13.241  -3.080  15.017  1.00  0.00     0.000 C 
BRANCH   2   3
ATOM      3  C   UNL     1      13.946  -3.569  16.294  1.00  0.00     0.000 C 
BRANCH   3   4
ATOM      4  C   UNL     1      14.813  -4.816  16.045  1.00  0.00     0.000 C 
BRANCH   4   5
ATOM      5  C   UNL     1      16.304  -4.572  16.345  1.00  0.00     0.006 C 
BRANCH   5   6
ATOM      6  C   UNL     1      16.660  -3.107  16.644  1.00  0.00     0.053 C 
BRANCH   6   7
ATOM      7  C   UNL     1      17.822  -2.994  17.583  1.00  0.00     0.041 C 
ATOM      8  O   UNL     1      19.001  -3.043  17.142  1.00  0.00    -0.550 OA
ATOM      9  O   UNL     1      17.602  -2.866  18.948  1.00  0.00    -0.550 OA
ENDBRANCH   6   7
ENDBRANCH   5   6
ENDBRANCH   4   5
ENDBRANCH   3   4
ENDBRANCH   2   3
ENDBRANCH   1   2
BRANCH   1  10
ATOM     10  C   UNL     1      13.664  -3.291  12.502  1.00  0.00     0.000 C 
BRANCH  10  11
ATOM     11  C   UNL     1      12.959  -4.653  12.580  1.00  0.00    -0.000 C 
BRANCH  11  12
ATOM     12  C   UNL     1      13.847  -5.765  12.012  1.00  0.00    -0.000 C 
BRANCH  12  13
ATOM     13  C   UNL     1      14.362  -6.684  13.127  1.00  0.00    -0.000 C 
BRANCH  13  14
ATOM     14  C   UNL     1      15.890  -6.787  13.095  1.00  0.00    -0.000 C 
BRANCH  14  15
ATOM     15  C   UNL     1      16.489  -5.781  12.105  1.00  0.00    -0.003 C 
ATOM     16  C   UNL     1      17.359  -4.752  12.822  1.00  0.00     0.004 C 
ENDBRANCH  14  15
ENDBRANCH  13  14
ENDBRANCH  12  13
ENDBRANCH  11  12
ENDBRANCH  10  11
ENDBRANCH   1  10
TORSDOF 12
ENDMDL
MODEL 3
REMARK VINA RESULT:    -5.002      2.614      4.939
REMARK INTER + INTRA:         -10.193
REMARK INTER:                  -8.186
REMARK INTRA:                  -2.006
REMARK UNBOUND:                -1.681
REMARK SMILES CCCCCCCCCCCCCC(=O)[O-]
REMARK SMILES IDX 8 1 9 2 10 3 11 4 12 5 13 6 14 7 15 8 16 9 7 10 6 11 5 12
REMARK SMILES IDX 4 13 3 14 2 15 1 16
REMARK H PARENT
REMARK Flexibility Score: inf
ROOT
ATOM      1  C   UNL     1      14.132  -3.330  15.935  1.00  0.00     0.000 C 
ENDROOT
BRANCH   1   2
ATOM      2  C   UNL     1      14.510  -4.547  15.071  1.00  0.00     0.000 C 
BRANCH   2   3
ATOM      3  C   UNL     1      14.856  -5.785  15.915  1.00  0.00     0.000 C 
BRANCH   3   4
ATOM      4  C   UNL     1      15.266  -6.990  15.051  1.00  0.00     0.000 C 
BRANCH   4   5
ATOM      5  C   UNL     1      15.142  -6.709  13.542  1.00  0.00     0.006 C 
BRANCH   5   6
ATOM      6  C   UNL     1      16.484  -6.647  12.794  1.00  0.00     0.053 C 
BRANCH   6   7
ATOM      7  C   UNL     1      16.446  -5.675  11.655  1.00  0.00     0.041 C 
ATOM      8  O   UNL     1      17.059  -5.930  10.584  1.00  0.00    -0.550 OA
ATOM      9  O   UNL     1      15.762  -4.474  11.788  1.00  0.00    -0.550 OA
ENDBRANCH   6   7
ENDBRANCH   5   6
ENDBRANCH   4   5
ENDBRANCH   3   4
ENDBRANCH   2   3
ENDBRANCH   1   2
BRANCH   1  10
ATOM     10  C   UNL     1      14.806  -3.355  17.317  1.00  0.00     0.000 C 
BRANCH  10  11
ATOM     11  C   UNL     1      15.942  -2.329  17.443  1.00  0.00    -0.000 C 
BRANCH  11  12
ATOM     12  C   UNL     1      17.217  -2.987  17.983  1.00  0.00    -0.000 C 
BRANCH  12  13
ATOM     13  C   UNL     1      18.303  -3.057  16.901  1.00  0.00    -0.000 C 
BRANCH  13  14
ATOM     14  C   UNL     1      18.178  -4.344  16.079  1.00  0.00    -0.000 C 
BRANCH  14  15
ATOM     15  C   UNL     1      18.265  -4.048  14.577  1.00  0.00    -0.003 C 
ATOM     16  C   UNL     1      17.702  -2.667  14.254  1.00  0.00     0.004 C 
ENDBRANCH  14  15
ENDBRANCH  13  14
ENDBRANCH  12  13
ENDBRANCH  11  12
ENDBRANCH  10  11
ENDBRANCH   1  10
TORSDOF 12
ENDMDL
MODEL 4
REMARK VINA RESULT:    -5.002      2.866      5.575
REMARK INTER + INTRA:         -10.192
REMARK INTER:                  -8.616
REMARK INTRA:                  -1.577
REMARK UNBOUND:                -1.681
REMARK SMILES CCCCCCCCCCCCCC(=O)[O-]
REMARK SMILES IDX 8 1 9 2 10 3 11 4 12 5 13 6 14 7 15 8 16 9 7 10 6 11 5 12
REMARK SMILES IDX 4 13 3 14 2 15 1 16
REMARK H PARENT
REMARK Flexibility Score: inf
ROOT
ATOM      1  C   UNL     1      13.792  -5.974  12.929  1.00  0.00     0.000 C 
ENDROOT
BRANCH   1   2
ATOM      2  C   UNL     1      14.083  -5.813  11.426  1.00  0.00     0.000 C 
BRANCH   2   3
ATOM      3  C   UNL     1      15.304  -4.918  11.155  1.00  0.00     0.000 C 
BRANCH   3   4
ATOM      4  C   UNL     1      16.478  -5.696  10.535  1.00  0.00     0.000 C 
BRANCH   4   5
ATOM      5  C   UNL     1      17.704  -5.763  11.464  1.00  0.00     0.006 C 
BRANCH   5   6
ATOM      6  C   UNL     1      17.744  -4.670  12.543  1.00  0.00     0.053 C 
BRANCH   6   7
ATOM      7  C   UNL     1      19.104  -4.537  13.156  1.00  0.00     0.041 C 
ATOM      8  O   UNL     1      20.109  -5.037  12.584  1.00  0.00    -0.550 OA
ATOM      9  O   UNL     1      19.257  -3.889  14.374  1.00  0.00    -0.550 OA
ENDBRANCH   6   7
ENDBRANCH   5   6
ENDBRANCH   4   5
ENDBRANCH   3   4
ENDBRANCH   2   3
ENDBRANCH   1   2
BRANCH   1  10
ATOM     10  C   UNL     1      14.881  -6.776  13.659  1.00  0.00     0.000 C 
BRANCH  10  11
ATOM     11  C   UNL     1      14.838  -6.587  15.182  1.00  0.00    -0.000 C 
BRANCH  11  12
ATOM     12  C   UNL     1      16.005  -5.717  15.661  1.00  0.00    -0.000 C 
BRANCH  12  13
ATOM     13  C   UNL     1      15.688  -4.226  15.489  1.00  0.00    -0.000 C 
BRANCH  13  14
ATOM     14  C   UNL     1      14.835  -3.706  16.651  1.00  0.00    -0.000 C 
BRANCH  14  15
ATOM     15  C   UNL     1      13.375  -3.522  16.222  1.00  0.00    -0.003 C 
ATOM     16  C   UNL     1      13.282  -2.958  14.808  1.00  0.00     0.004 C 
ENDBRANCH  14  15
ENDBRANCH  13  14
ENDBRANCH  12  13
ENDBRANCH  11  12
ENDBRANCH  10  11
ENDBRANCH   1  10
TORSDOF 12
ENDMDL
MODEL 5
REMARK VINA RESULT:    -4.963      1.275      2.876
REMARK INTER + INTRA:         -10.126
REMARK INTER:                  -8.523
REMARK INTRA:                  -1.603
REMARK UNBOUND:                -1.681
REMARK SMILES CCCCCCCCCCCCCC(=O)[O-]
REMARK SMILES IDX 8 1 9 2 10 3 11 4 12 5 13 6 14 7 15 8 16 9 7 10 6 11 5 12
REMARK SMILES IDX 4 13 3 14 2 15 1 16
REMARK H PARENT
REMARK Flexibility Score: inf
ROOT
ATOM      1  C   UNL     1      17.655  -4.711  15.791  1.00  0.00     0.000 C 
ENDROOT
BRANCH   1   2
ATOM      2  C   UNL     1      17.464  -3.616  16.855  1.00  0.00     0.000 C 
BRANCH   2   3
ATOM      3  C   UNL     1      16.282  -2.684  16.538  1.00  0.00     0.000 C 
BRANCH   3   4
ATOM      4  C   UNL     1      15.033  -3.012  17.374  1.00  0.00     0.000 C 
BRANCH   4   5
ATOM      5  C   UNL     1      13.889  -3.599  16.528  1.00  0.00     0.006 C 
BRANCH   5   6
ATOM      6  C   UNL     1      14.034  -3.368  15.015  1.00  0.00     0.053 C 
BRANCH   6   7
ATOM      7  C   UNL     1      12.861  -2.629  14.446  1.00  0.00     0.041 C 
ATOM      8  O   UNL     1      13.043  -1.658  13.664  1.00  0.00    -0.550 OA
ATOM      9  O   UNL     1      11.570  -2.992  14.805  1.00  0.00    -0.550 OA
ENDBRANCH   6   7
ENDBRANCH   5   6
ENDBRANCH   4   5
ENDBRANCH   3   4
ENDBRANCH   2   3
ENDBRANCH   1   2
BRANCH   1  10
ATOM     10  C   UNL     1      18.387  -4.198  14.541  1.00  0.00     0.000 C 
BRANCH  10  11
ATOM     11  C   UNL     1      17.466  -4.086  13.316  1.00  0.00    -0.000 C 
BRANCH  11  12
ATOM     12  C   UNL     1      17.782  -5.182  12.291  1.00  0.00    -0.000 C 
BRANCH  12  13
ATOM     13  C   UNL     1      16.560  -6.075  12.044  1.00  0.00    -0.000 C 
BRANCH  13  14
ATOM     14  C   UNL     1      16.290  -6.984  13.249  1.00  0.00    -0.000 C 
BRANCH  14  15
ATOM     15  C   UNL     1      14.935  -6.661  13.890  1.00  0.00    -0.003 C 
ATOM     16  C   UNL     1      14.905  -7.081  15.357  1.00  0.00     0.004 C 
ENDBRANCH  14  15
ENDBRANCH  13  14
ENDBRANCH  12  13
ENDBRANCH  11  12
ENDBRANCH  10  11
ENDBRANCH   1  10
TORSDOF 12
ENDMDL
MODEL 6
REMARK VINA RESULT:    -4.936      1.735      2.986
REMARK INTER + INTRA:         -10.081
REMARK INTER:                  -8.190
REMARK INTRA:                  -1.891
REMARK UNBOUND:                -1.681
REMARK SMILES CCCCCCCCCCCCCC(=O)[O-]
REMARK SMILES IDX 8 1 9 2 10 3 11 4 12 5 13 6 14 7 15 8 16 9 7 10 6 11 5 12
REMARK SMILES IDX 4 13 3 14 2 15 1 16
REMARK H PARENT
REMARK Flexibility Score: inf
ROOT
ATOM      1  C   UNL     1      15.648  -3.873  15.920  1.00  0.00     0.000 C 
ENDROOT
BRANCH   1   2
ATOM      2  C   UNL     1      14.175  -3.656  16.310  1.00  0.00     0.000 C 
BRANCH   2   3
ATOM      3  C   UNL     1      13.297  -3.272  15.107  1.00  0.00     0.000 C 
BRANCH   3   4
ATOM      4  C   UNL     1      14.119  -2.710  13.934  1.00  0.00     0.000 C 
BRANCH   4   5
ATOM      5  C   UNL     1      13.257  -2.409  12.694  1.00  0.00     0.006 C 
BRANCH   5   6
ATOM      6  C   UNL     1      12.264  -3.522  12.325  1.00  0.00     0.053 C 
BRANCH   6   7
ATOM      7  C   UNL     1      12.058  -3.623  10.845  1.00  0.00     0.041 C 
ATOM      8  O   UNL     1      11.334  -2.783  10.247  1.00  0.00    -0.550 OA
ATOM      9  O   UNL     1      12.640  -4.662  10.131  1.00  0.00    -0.550 OA
ENDBRANCH   6   7
ENDBRANCH   5   6
ENDBRANCH   4   5
ENDBRANCH   3   4
ENDBRANCH   2   3
ENDBRANCH   1   2
BRANCH   1  10
ATOM     10  C   UNL     1      16.129  -5.305  16.205  1.00  0.00     0.000 C 
BRANCH  10  11
ATOM     11  C   UNL     1      15.087  -6.369  15.828  1.00  0.00    -0.000 C 
BRANCH  11  12
ATOM     12  C   UNL     1      15.390  -6.969  14.450  1.00  0.00    -0.000 C 
BRANCH  12  13
ATOM     13  C   UNL     1      14.414  -6.439  13.391  1.00  0.00    -0.000 C 
BRANCH  13  14
ATOM     14  C   UNL     1      15.167  -5.877  12.180  1.00  0.00    -0.000 C 
BRANCH  14  15
ATOM     15  C   UNL     1      16.591  -5.456  12.564  1.00  0.00    -0.003 C 
ATOM     16  C   UNL     1      17.600  -5.902  11.511  1.00  0.00     0.004 C 
ENDBRANCH  14  15
ENDBRANCH  13  14
ENDBRANCH  12  13
ENDBRANCH  11  12
ENDBRANCH  10  11
ENDBRANCH   1  10
TORSDOF 12
ENDMDL
MODEL 7
REMARK VINA RESULT:    -4.925      2.841      4.236
REMARK INTER + INTRA:         -10.062
REMARK INTER:                  -8.623
REMARK INTRA:                  -1.439
REMARK UNBOUND:                -1.681
REMARK SMILES CCCCCCCCCCCCCC(=O)[O-]
REMARK SMILES IDX 8 1 9 2 10 3 11 4 12 5 13 6 14 7 15 8 16 9 7 10 6 11 5 12
REMARK SMILES IDX 4 13 3 14 2 15 1 16
REMARK H PARENT
REMARK Flexibility Score: inf
ROOT
ATOM      1  C   UNL     1      12.820  -3.176  14.729  1.00  0.00     0.000 C 
ENDROOT
BRANCH   1   2
ATOM      2  C   UNL     1      13.780  -3.361  15.917  1.00  0.00     0.000 C 
BRANCH   2   3
ATOM      3  C   UNL     1      14.535  -4.700  15.861  1.00  0.00     0.000 C 
BRANCH   3   4
ATOM      4  C   UNL     1      15.784  -4.634  14.964  1.00  0.00     0.000 C 
BRANCH   4   5
ATOM      5  C   UNL     1      16.830  -3.627  15.475  1.00  0.00     0.006 C 
BRANCH   5   6
ATOM      6  C   UNL     1      17.622  -4.102  16.704  1.00  0.00     0.053 C 
BRANCH   6   7
ATOM      7  C   UNL     1      17.518  -3.137  17.846  1.00  0.00     0.041 C 
ATOM      8  O   UNL     1      18.391  -3.133  18.754  1.00  0.00    -0.550 OA
ATOM      9  O   UNL     1      16.439  -2.266  17.923  1.00  0.00    -0.550 OA
ENDBRANCH   6   7
ENDBRANCH   5   6
ENDBRANCH   4   5
ENDBRANCH   3   4
ENDBRANCH   2   3
ENDBRANCH   1   2
BRANCH   1  10
ATOM     10  C   UNL     1      13.323  -2.132  13.719  1.00  0.00     0.000 C 
BRANCH  10  11
ATOM     11  C   UNL     1      13.656  -2.743  12.350  1.00  0.00    -0.000 C 
BRANCH  11  12
ATOM     12  C   UNL     1      12.991  -4.114  12.183  1.00  0.00    -0.000 C 
BRANCH  12  13
ATOM     13  C   UNL     1      14.014  -5.177  11.764  1.00  0.00    -0.000 C 
BRANCH  13  14
ATOM     14  C   UNL     1      14.020  -5.367  10.243  1.00  0.00    -0.000 C 
BRANCH  14  15
ATOM     15  C   UNL     1      15.452  -5.471   9.707  1.00  0.00    -0.003 C 
ATOM     16  C   UNL     1      16.462  -5.573  10.846  1.00  0.00     0.004 C 
ENDBRANCH  14  15
ENDBRANCH  13  14
ENDBRANCH  12  13
ENDBRANCH  11  12
ENDBRANCH  10  11
ENDBRANCH   1  10
TORSDOF 12
ENDMDL
MODEL 8
REMARK VINA RESULT:    -4.924      2.124      5.282
REMARK INTER + INTRA:         -10.059
REMARK INTER:                  -8.510
REMARK INTRA:                  -1.549
REMARK UNBOUND:                -1.681
REMARK SMILES CCCCCCCCCCCCCC(=O)[O-]
REMARK SMILES IDX 8 1 9 2 10 3 11 4 12 5 13 6 14 7 15 8 16 9 7 10 6 11 5 12
REMARK SMILES IDX 4 13 3 14 2 15 1 16
REMARK H PARENT
REMARK Flexibility Score: inf
ROOT
ATOM      1  C   UNL     1      19.304  -3.692  12.545  1.00  0.00     0.000 C 
ENDROOT
BRANCH   1   2
ATOM      2  C   UNL     1      19.115  -5.219  12.531  1.00  0.00     0.000 C 
BRANCH   2   3
ATOM      3  C   UNL     1      17.956  -5.662  11.622  1.00  0.00     0.000 C 
BRANCH   3   4
ATOM      4  C   UNL     1      16.700  -6.056  12.419  1.00  0.00     0.000 C 
BRANCH   4   5
ATOM      5  C   UNL     1      15.440  -5.305  11.953  1.00  0.00     0.006 C 
BRANCH   5   6
ATOM      6  C   UNL     1      15.285  -5.210  10.427  1.00  0.00     0.053 C 
BRANCH   6   7
ATOM      7  C   UNL     1      13.855  -5.337   9.999  1.00  0.00     0.041 C 
ATOM      8  O   UNL     1      13.544  -6.096   9.043  1.00  0.00    -0.550 OA
ATOM      9  O   UNL     1      12.870  -4.594  10.636  1.00  0.00    -0.550 OA
ENDBRANCH   6   7
ENDBRANCH   5   6
ENDBRANCH   4   5
ENDBRANCH   3   4
ENDBRANCH   2   3
ENDBRANCH   1   2
BRANCH   1  10
ATOM     10  C   UNL     1      18.442  -3.000  13.613  1.00  0.00     0.000 C 
BRANCH  10  11
ATOM     11  C   UNL     1      18.972  -3.218  15.038  1.00  0.00    -0.000 C 
BRANCH  11  12
ATOM     12  C   UNL     1      17.827  -3.531  16.008  1.00  0.00    -0.000 C 
BRANCH  12  13
ATOM     13  C   UNL     1      17.388  -4.996  15.889  1.00  0.00    -0.000 C 
BRANCH  13  14
ATOM     14  C   UNL     1      15.860  -5.116  15.894  1.00  0.00    -0.000 C 
BRANCH  14  15
ATOM     15  C   UNL     1      15.201  -3.760  15.618  1.00  0.00    -0.003 C 
ATOM     16  C   UNL     1      14.033  -3.510  16.567  1.00  0.00     0.004 C 
ENDBRANCH  14  15
ENDBRANCH  13  14
ENDBRANCH  12  13
ENDBRANCH  11  12
ENDBRANCH  10  11
ENDBRANCH   1  10
TORSDOF 12
ENDMDL
MODEL 9
REMARK VINA RESULT:    -4.885      1.833      4.654
REMARK INTER + INTRA:          -9.994
REMARK INTER:                  -7.923
REMARK INTRA:                  -2.071
REMARK UNBOUND:                -1.681
REMARK SMILES CCCCCCCCCCCCCC(=O)[O-]
REMARK SMILES IDX 8 1 9 2 10 3 11 4 12 5 13 6 14 7 15 8 16 9 7 10 6 11 5 12
REMARK SMILES IDX 4 13 3 14 2 15 1 16
REMARK H PARENT
REMARK Flexibility Score: inf
ROOT
ATOM      1  C   UNL     1      18.901  -4.848  12.741  1.00  0.00     0.000 C 
ENDROOT
BRANCH   1   2
ATOM      2  C   UNL     1      17.865  -5.401  11.747  1.00  0.00     0.000 C 
BRANCH   2   3
ATOM      3  C   UNL     1      16.783  -6.251  12.434  1.00  0.00     0.000 C 
BRANCH   3   4
ATOM      4  C   UNL     1      15.366  -5.690  12.215  1.00  0.00     0.000 C 
BRANCH   4   5
ATOM      5  C   UNL     1      15.370  -4.195  11.846  1.00  0.00     0.006 C 
BRANCH   5   6
ATOM      6  C   UNL     1      14.887  -3.262  12.968  1.00  0.00     0.053 C 
BRANCH   6   7
ATOM      7  C   UNL     1      14.770  -1.843  12.505  1.00  0.00     0.041 C 
ATOM      8  O   UNL     1      15.789  -1.219  12.106  1.00  0.00    -0.550 OA
ATOM      9  O   UNL     1      13.541  -1.198  12.545  1.00  0.00    -0.550 OA
ENDBRANCH   6   7
ENDBRANCH   5   6
ENDBRANCH   4   5
ENDBRANCH   3   4
ENDBRANCH   2   3
ENDBRANCH   1   2
BRANCH   1  10
ATOM     10  C   UNL     1      18.797  -3.324  12.915  1.00  0.00     0.000 C 
BRANCH  10  11
ATOM     11  C   UNL     1      18.332  -2.917  14.321  1.00  0.00    -0.000 C 
BRANCH  11  12
ATOM     12  C   UNL     1      18.856  -3.896  15.377  1.00  0.00    -0.000 C 
BRANCH  12  13
ATOM     13  C   UNL     1      17.760  -4.254  16.389  1.00  0.00    -0.000 C 
BRANCH  13  14
ATOM     14  C   UNL     1      17.092  -5.585  16.029  1.00  0.00    -0.000 C 
BRANCH  14  15
ATOM     15  C   UNL     1      15.569  -5.430  15.941  1.00  0.00    -0.003 C 
ATOM     16  C   UNL     1      14.881  -6.789  15.843  1.00  0.00     0.004 C 
ENDBRANCH  14  15
ENDBRANCH  13  14
ENDBRANCH  12  13
ENDBRANCH  11  12
ENDBRANCH  10  11
ENDBRANCH   1  10
TORSDOF 12
ENDMDL
