MODEL 1
REMARK VINA RESULT:    -2.887      0.000      0.000
REMARK INTER + INTRA:          -3.766
REMARK INTER:                  -3.561
REMARK INTRA:                  -0.205
REMARK UNBOUND:                -0.205
REMARK SMILES CCCCC(=O)CC
REMARK SMILES IDX 4 1 3 2 2 3 1 4 5 5 6 6 7 7 8 8
REMARK H PARENT
REMARK Flexibility Score: inf
ROOT
ATOM      1  C   UNL     1     136.773 141.324 128.999  1.00  0.00     0.075 C 
ENDROOT
BRANCH   1   2
ATOM      2  C   UNL     1     135.487 140.620 128.550  1.00  0.00     0.008 C 
BRANCH   2   3
ATOM      3  C   UNL     1     134.761 139.986 129.742  1.00  0.00    -0.003 C 
ATOM      4  C   UNL     1     134.882 138.466 129.717  1.00  0.00     0.004 C 
ENDBRANCH   2   3
ENDBRANCH   1   2
BRANCH   1   5
ATOM      5  C   UNL     1     137.941 140.375 128.953  1.00  0.00     0.132 C 
ATOM      6  O   UNL     1     138.310 139.929 127.876  1.00  0.00    -0.300 OA
BRANCH   5   7
ATOM      7  C   UNL     1     138.679 139.980 130.206  1.00  0.00     0.072 C 
ATOM      8  C   UNL     1     140.117 140.487 130.170  1.00  0.00     0.012 C 
ENDBRANCH   5   7
ENDBRANCH   1   5
TORSDOF 4
ENDMDL
MODEL 2
REMARK VINA RESULT:    -2.841      1.967      3.856
REMARK INTER + INTRA:          -3.710
REMARK INTER:                  -3.320
REMARK INTRA:                  -0.390
REMARK UNBOUND:                -0.205
REMARK SMILES CCCCC(=O)CC
REMARK SMILES IDX 4 1 3 2 2 3 1 4 5 5 6 6 7 7 8 8
REMARK H PARENT
REMARK Flexibility Score: inf
ROOT
ATOM      1  C   UNL     1     135.490 140.512 128.635  1.00  0.00     0.075 C 
ENDROOT
BRANCH   1   2
ATOM      2  C   UNL     1     136.743 141.297 129.041  1.00  0.00     0.008 C 
BRANCH   2   3
ATOM      3  C   UNL     1     137.946 140.362 129.217  1.00  0.00    -0.003 C 
ATOM      4  C   UNL     1     138.265 139.624 127.921  1.00  0.00     0.004 C 
ENDBRANCH   2   3
ENDBRANCH   1   2
BRANCH   1   5
ATOM      5  C   UNL     1     134.933 139.757 129.813  1.00  0.00     0.132 C 
ATOM      6  O   UNL     1     134.439 140.377 130.744  1.00  0.00    -0.300 OA
BRANCH   5   7
ATOM      7  C   UNL     1     134.955 138.251 129.859  1.00  0.00     0.072 C 
ATOM      8  C   UNL     1     134.995 137.668 128.450  1.00  0.00     0.012 C 
ENDBRANCH   5   7
ENDBRANCH   1   5
TORSDOF 4
ENDMDL
MODEL 3
REMARK VINA RESULT:    -2.836      2.558      4.373
REMARK INTER + INTRA:          -3.703
REMARK INTER:                  -3.317
REMARK INTRA:                  -0.387
REMARK UNBOUND:                -0.205
REMARK SMILES CCCCC(=O)CC
REMARK SMILES IDX 4 1 3 2 2 3 1 4 5 5 6 6 7 7 8 8
REMARK H PARENT
REMARK Flexibility Score: inf
ROOT
ATOM      1  C   UNL     1     140.548 139.492 128.341  1.00  0.00     0.075 C 
ENDROOT
BRANCH   1   2
ATOM      2  C   UNL     1     141.363 138.375 129.004  1.00  0.00     0.008 C 
BRANCH   2   3
ATOM      3  C   UNL     1     140.465 137.195 129.392  1.00  0.00    -0.003 C 
ATOM      4  C   UNL     1     139.700 136.663 128.183  1.00  0.00     0.004 C 
ENDBRANCH   2   3
ENDBRANCH   1   2
BRANCH   1   5
ATOM      5  C   UNL     1     139.714 140.218 129.364  1.00  0.00     0.132 C 
ATOM      6  O   UNL     1     140.269 140.863 130.242  1.00  0.00    -0.300 OA
BRANCH   5   7
ATOM      7  C   UNL     1     138.209 140.183 129.313  1.00  0.00     0.072 C 
ATOM      8  C   UNL     1     137.720 139.985 127.882  1.00  0.00     0.012 C 
ENDBRANCH   5   7
ENDBRANCH   1   5
TORSDOF 4
ENDMDL
MODEL 4
REMARK VINA RESULT:    -2.832      5.132      5.670
REMARK INTER + INTRA:          -3.699
REMARK INTER:                  -3.290
REMARK INTRA:                  -0.409
REMARK UNBOUND:                -0.205
REMARK SMILES CCCCC(=O)CC
REMARK SMILES IDX 4 1 3 2 2 3 1 4 5 5 6 6 7 7 8 8
REMARK H PARENT
REMARK Flexibility Score: inf
ROOT
ATOM      1  C   UNL     1     139.747 134.570 128.619  1.00  0.00     0.075 C 
ENDROOT
BRANCH   1   2
ATOM      2  C   UNL     1     138.375 133.965 128.938  1.00  0.00     0.008 C 
BRANCH   2   3
ATOM      3  C   UNL     1     137.264 135.010 128.791  1.00  0.00    -0.003 C 
ATOM      4  C   UNL     1     136.345 135.013 130.009  1.00  0.00     0.004 C 
ENDBRANCH   2   3
ENDBRANCH   1   2
BRANCH   1   5
ATOM      5  C   UNL     1     140.225 135.431 129.758  1.00  0.00     0.132 C 
ATOM      6  O   UNL     1     140.607 136.570 129.530  1.00  0.00    -0.300 OA
BRANCH   5   7
ATOM      7  C   UNL     1     140.221 134.925 131.177  1.00  0.00     0.072 C 
ATOM      8  C   UNL     1     139.469 135.887 132.092  1.00  0.00     0.012 C 
ENDBRANCH   5   7
ENDBRANCH   1   5
TORSDOF 4
ENDMDL
MODEL 5
REMARK VINA RESULT:    -2.826      3.369      4.222
REMARK INTER + INTRA:          -3.692
REMARK INTER:                  -3.286
REMARK INTRA:                  -0.407
REMARK UNBOUND:                -0.205
REMARK SMILES CCCCC(=O)CC
REMARK SMILES IDX 4 1 3 2 2 3 1 4 5 5 6 6 7 7 8 8
REMARK H PARENT
REMARK Flexibility Score: inf
ROOT
ATOM      1  C   UNL     1     140.627 139.729 128.624  1.00  0.00     0.075 C 
ENDROOT
BRANCH   1   2
ATOM      2  C   UNL     1     141.226 138.356 128.951  1.00  0.00     0.008 C 
BRANCH   2   3
ATOM      3  C   UNL     1     140.182 137.246 128.789  1.00  0.00    -0.003 C 
ATOM      4  C   UNL     1     140.201 136.293 129.981  1.00  0.00     0.004 C 
ENDBRANCH   2   3
ENDBRANCH   1   2
BRANCH   1   5
ATOM      5  C   UNL     1     139.751 140.207 129.752  1.00  0.00     0.132 C 
ATOM      6  O   UNL     1     138.604 140.558 129.513  1.00  0.00    -0.300 OA
BRANCH   5   7
ATOM      7  C   UNL     1     140.252 140.242 131.172  1.00  0.00     0.072 C 
ATOM      8  C   UNL     1     139.354 139.412 132.083  1.00  0.00     0.012 C 
ENDBRANCH   5   7
ENDBRANCH   1   5
TORSDOF 4
ENDMDL
MODEL 6
REMARK VINA RESULT:    -2.822      3.674      5.230
REMARK INTER + INTRA:          -3.686
REMARK INTER:                  -3.281
REMARK INTRA:                  -0.406
REMARK UNBOUND:                -0.205
REMARK SMILES CCCCC(=O)CC
REMARK SMILES IDX 4 1 3 2 2 3 1 4 5 5 6 6 7 7 8 8
REMARK H PARENT
REMARK Flexibility Score: inf
ROOT
ATOM      1  C   UNL     1     134.586 135.413 128.649  1.00  0.00     0.075 C 
ENDROOT
BRANCH   1   2
ATOM      2  C   UNL     1     133.960 136.783 128.937  1.00  0.00     0.008 C 
BRANCH   2   3
ATOM      3  C   UNL     1     134.999 137.902 128.801  1.00  0.00    -0.003 C 
ATOM      4  C   UNL     1     135.105 138.715 130.087  1.00  0.00     0.004 C 
ENDBRANCH   2   3
ENDBRANCH   1   2
BRANCH   1   5
ATOM      5  C   UNL     1     135.442 134.967 129.804  1.00  0.00     0.132 C 
ATOM      6  O   UNL     1     136.591 134.606 129.596  1.00  0.00    -0.300 OA
BRANCH   5   7
ATOM      7  C   UNL     1     134.917 134.978 131.217  1.00  0.00     0.072 C 
ATOM      8  C   UNL     1     135.948 135.571 132.172  1.00  0.00     0.012 C 
ENDBRANCH   5   7
ENDBRANCH   1   5
TORSDOF 4
ENDMDL
MODEL 7
REMARK VINA RESULT:    -2.814      2.921      4.062
REMARK INTER + INTRA:          -3.676
REMARK INTER:                  -3.559
REMARK INTRA:                  -0.118
REMARK UNBOUND:                -0.205
REMARK SMILES CCCCC(=O)CC
REMARK SMILES IDX 4 1 3 2 2 3 1 4 5 5 6 6 7 7 8 8
REMARK H PARENT
REMARK Flexibility Score: inf
ROOT
ATOM      1  C   UNL     1     134.978 137.613 129.793  1.00  0.00     0.075 C 
ENDROOT
BRANCH   1   2
ATOM      2  C   UNL     1     133.941 136.791 129.019  1.00  0.00     0.008 C 
BRANCH   2   3
ATOM      3  C   UNL     1     134.521 135.439 128.588  1.00  0.00    -0.003 C 
ATOM      4  C   UNL     1     135.129 134.696 129.774  1.00  0.00     0.004 C 
ENDBRANCH   2   3
ENDBRANCH   1   2
BRANCH   1   5
ATOM      5  C   UNL     1     135.147 138.974 129.170  1.00  0.00     0.132 C 
ATOM      6  O   UNL     1     135.705 139.073 128.087  1.00  0.00    -0.300 OA
BRANCH   5   7
ATOM      7  C   UNL     1     134.623 140.214 129.845  1.00  0.00     0.072 C 
ATOM      8  C   UNL     1     135.077 140.270 131.301  1.00  0.00     0.012 C 
ENDBRANCH   5   7
ENDBRANCH   1   5
TORSDOF 4
ENDMDL
MODEL 8
REMARK VINA RESULT:    -2.798      4.223      5.762
REMARK INTER + INTRA:          -3.657
REMARK INTER:                  -3.564
REMARK INTRA:                  -0.093
REMARK UNBOUND:                -0.205
REMARK SMILES CCCCC(=O)CC
REMARK SMILES IDX 4 1 3 2 2 3 1 4 5 5 6 6 7 7 8 8
REMARK H PARENT
REMARK Flexibility Score: inf
ROOT
ATOM      1  C   UNL     1     140.028 137.298 129.686  1.00  0.00     0.075 C 
ENDROOT
BRANCH   1   2
ATOM      2  C   UNL     1     141.118 138.151 129.027  1.00  0.00     0.008 C 
BRANCH   2   3
ATOM      3  C   UNL     1     140.572 139.525 128.622  1.00  0.00    -0.003 C 
ATOM      4  C   UNL     1     140.146 140.331 129.845  1.00  0.00     0.004 C 
ENDBRANCH   2   3
ENDBRANCH   1   2
BRANCH   1   5
ATOM      5  C   UNL     1     140.106 135.873 129.205  1.00  0.00     0.132 C 
ATOM      6  O   UNL     1     140.757 135.059 129.844  1.00  0.00    -0.300 OA
BRANCH   5   7
ATOM      7  C   UNL     1     139.380 135.426 127.963  1.00  0.00     0.072 C 
ATOM      8  C   UNL     1     139.209 133.910 127.953  1.00  0.00     0.012 C 
ENDBRANCH   5   7
ENDBRANCH   1   5
TORSDOF 4
ENDMDL
MODEL 9
REMARK VINA RESULT:    -2.760      2.001      4.382
REMARK INTER + INTRA:          -3.611
REMARK INTER:                  -3.399
REMARK INTRA:                  -0.212
REMARK UNBOUND:                -0.205
REMARK SMILES CCCCC(=O)CC
REMARK SMILES IDX 4 1 3 2 2 3 1 4 5 5 6 6 7 7 8 8
REMARK H PARENT
REMARK Flexibility Score: inf
ROOT
ATOM      1  C   UNL     1     135.345 138.630 130.257  1.00  0.00     0.075 C 
ENDROOT
BRANCH   1   2
ATOM      2  C   UNL     1     134.661 139.910 129.763  1.00  0.00     0.008 C 
BRANCH   2   3
ATOM      3  C   UNL     1     135.484 140.583 128.658  1.00  0.00    -0.003 C 
ATOM      4  C   UNL     1     136.885 140.934 129.150  1.00  0.00     0.004 C 
ENDBRANCH   2   3
ENDBRANCH   1   2
BRANCH   1   5
ATOM      5  C   UNL     1     135.197 137.525 129.244  1.00  0.00     0.132 C 
ATOM      6  O   UNL     1     136.182 137.136 128.633  1.00  0.00    -0.300 OA
BRANCH   5   7
ATOM      7  C   UNL     1     133.863 136.875 128.984  1.00  0.00     0.072 C 
ATOM      8  C   UNL     1     133.980 135.821 127.887  1.00  0.00     0.012 C 
ENDBRANCH   5   7
ENDBRANCH   1   5
TORSDOF 4
ENDMDL
