MODEL 1
REMARK VINA RESULT:    -4.873      0.000      0.000
REMARK INTER + INTRA:          -5.426
REMARK INTER:                  -5.301
REMARK INTRA:                  -0.125
REMARK UNBOUND:                -0.125
REMARK SMILES Cc1ccc(C(C)C)cc1O
REMARK SMILES IDX 1 1 2 2 10 3 9 4 5 5 4 6 3 7 11 8 6 10 7 11 8 12
REMARK H PARENT 11 9
REMARK Flexibility Score: inf
ROOT
ATOM      1  C   UNL     1     -13.467  81.770 -13.177  1.00  0.00     0.048 C 
ATOM      2  C   UNL     1     -12.771  82.162 -11.902  1.00  0.00    -0.009 A 
ATOM      3  C   UNL     1     -13.382  83.031 -10.972  1.00  0.00     0.118 A 
ATOM      4  C   UNL     1     -12.708  83.377  -9.795  1.00  0.00     0.050 A 
ATOM      5  C   UNL     1     -11.428  82.870  -9.520  1.00  0.00    -0.042 A 
ATOM      6  C   UNL     1     -10.825  82.005 -10.451  1.00  0.00     0.004 A 
ATOM      7  C   UNL     1     -11.491  81.655 -11.627  1.00  0.00     0.007 A 
ENDROOT
BRANCH   3   8
ATOM      8  O   UNL     1     -14.654  83.567 -11.188  1.00  0.00    -0.508 OA
ATOM      9  H   UNL     1     -14.859  84.555 -11.100  1.00  0.00     0.293 HD
ENDBRANCH   3   8
BRANCH   5  10
ATOM     10  C   UNL     1     -10.716  83.259  -8.238  1.00  0.00     0.013 C 
ATOM     11  C   UNL     1      -9.262  83.659  -8.511  1.00  0.00     0.012 C 
ATOM     12  C   UNL     1     -10.794  82.132  -7.200  1.00  0.00     0.012 C 
ENDBRANCH   5  10
TORSDOF 2
ENDMDL
MODEL 2
REMARK VINA RESULT:    -4.509      2.344      4.092
REMARK INTER + INTRA:          -5.030
REMARK INTER:                  -4.928
REMARK INTRA:                  -0.103
REMARK UNBOUND:                -0.125
REMARK SMILES Cc1ccc(C(C)C)cc1O
REMARK SMILES IDX 1 1 2 2 10 3 9 4 5 5 4 6 3 7 11 8 6 10 7 11 8 12
REMARK H PARENT 11 9
REMARK Flexibility Score: inf
ROOT
ATOM      1  C   UNL     1     -14.999  84.681  -7.582  1.00  0.00     0.048 C 
ATOM      2  C   UNL     1     -14.413  83.866  -8.703  1.00  0.00    -0.009 A 
ATOM      3  C   UNL     1     -14.282  84.399 -10.004  1.00  0.00     0.118 A 
ATOM      4  C   UNL     1     -13.733  83.615 -11.026  1.00  0.00     0.050 A 
ATOM      5  C   UNL     1     -13.307  82.299 -10.777  1.00  0.00    -0.042 A 
ATOM      6  C   UNL     1     -13.442  81.775  -9.479  1.00  0.00     0.004 A 
ATOM      7  C   UNL     1     -13.988  82.551  -8.455  1.00  0.00     0.007 A 
ENDROOT
BRANCH   3   8
ATOM      8  O   UNL     1     -14.685  85.700 -10.314  1.00  0.00    -0.508 OA
ATOM      9  H   UNL     1     -14.474  86.498  -9.727  1.00  0.00     0.293 HD
ENDBRANCH   3   8
BRANCH   5  10
ATOM     10  C   UNL     1     -12.716  81.468 -11.900  1.00  0.00     0.013 C 
ATOM     11  C   UNL     1     -11.220  81.756 -12.074  1.00  0.00     0.012 C 
ATOM     12  C   UNL     1     -13.477  81.693 -13.213  1.00  0.00     0.012 C 
ENDBRANCH   5  10
TORSDOF 2
ENDMDL
MODEL 3
REMARK VINA RESULT:    -4.334      6.988      8.592
REMARK INTER + INTRA:          -4.839
REMARK INTER:                  -4.714
REMARK INTRA:                  -0.125
REMARK UNBOUND:                -0.125
REMARK SMILES Cc1ccc(C(C)C)cc1O
REMARK SMILES IDX 1 1 2 2 10 3 9 4 5 5 4 6 3 7 11 8 6 10 7 11 8 12
REMARK H PARENT 11 9
REMARK Flexibility Score: inf
ROOT
ATOM      1  C   UNL     1      -2.951  81.793  -8.676  1.00  0.00     0.048 C 
ATOM      2  C   UNL     1      -3.709  83.030  -9.075  1.00  0.00    -0.009 A 
ATOM      3  C   UNL     1      -3.274  84.314  -8.681  1.00  0.00     0.118 A 
ATOM      4  C   UNL     1      -4.002  85.445  -9.070  1.00  0.00     0.050 A 
ATOM      5  C   UNL     1      -5.163  85.324  -9.850  1.00  0.00    -0.042 A 
ATOM      6  C   UNL     1      -5.591  84.042 -10.238  1.00  0.00     0.004 A 
ATOM      7  C   UNL     1      -4.871  82.909  -9.855  1.00  0.00     0.007 A 
ENDROOT
BRANCH   3   8
ATOM      8  O   UNL     1      -2.126  84.500  -7.907  1.00  0.00    -0.508 OA
ATOM      9  H   UNL     1      -1.896  83.917  -7.113  1.00  0.00     0.293 HD
ENDBRANCH   3   8
BRANCH   5  10
ATOM     10  C   UNL     1      -5.936  86.564 -10.258  1.00  0.00     0.013 C 
ATOM     11  C   UNL     1      -5.634  87.739  -9.320  1.00  0.00     0.012 C 
ATOM     12  C   UNL     1      -7.442  86.281 -10.319  1.00  0.00     0.012 C 
ENDBRANCH   5  10
TORSDOF 2
ENDMDL
MODEL 4
REMARK VINA RESULT:    -4.191      1.610      2.126
REMARK INTER + INTRA:          -4.684
REMARK INTER:                  -4.579
REMARK INTRA:                  -0.105
REMARK UNBOUND:                -0.125
REMARK SMILES Cc1ccc(C(C)C)cc1O
REMARK SMILES IDX 1 1 2 2 10 3 9 4 5 5 4 6 3 7 11 8 6 10 7 11 8 12
REMARK H PARENT 11 9
REMARK Flexibility Score: inf
ROOT
ATOM      1  C   UNL     1     -13.487  81.779 -12.733  1.00  0.00     0.048 C 
ATOM      2  C   UNL     1     -12.769  81.953 -11.422  1.00  0.00    -0.009 A 
ATOM      3  C   UNL     1     -11.359  81.912 -11.350  1.00  0.00     0.118 A 
ATOM      4  C   UNL     1     -10.720  82.078 -10.115  1.00  0.00     0.050 A 
ATOM      5  C   UNL     1     -11.461  82.286  -8.940  1.00  0.00    -0.042 A 
ATOM      6  C   UNL     1     -12.865  82.325  -9.021  1.00  0.00     0.004 A 
ATOM      7  C   UNL     1     -13.509  82.161 -10.248  1.00  0.00     0.007 A 
ENDROOT
BRANCH   3   8
ATOM      8  O   UNL     1     -10.566  81.710 -12.482  1.00  0.00    -0.508 OA
ATOM      9  H   UNL     1     -10.590  82.320 -13.289  1.00  0.00     0.293 HD
ENDBRANCH   3   8
BRANCH   5  10
ATOM     10  C   UNL     1     -10.747  82.462  -7.613  1.00  0.00     0.013 C 
ATOM     11  C   UNL     1      -9.397  83.164  -7.800  1.00  0.00     0.012 C 
ATOM     12  C   UNL     1     -10.576  81.117  -6.896  1.00  0.00     0.012 C 
ENDBRANCH   5  10
TORSDOF 2
ENDMDL
MODEL 5
REMARK VINA RESULT:    -4.075      6.861      8.322
REMARK INTER + INTRA:          -4.558
REMARK INTER:                  -4.432
REMARK INTRA:                  -0.126
REMARK UNBOUND:                -0.125
REMARK SMILES Cc1ccc(C(C)C)cc1O
REMARK SMILES IDX 1 1 2 2 10 3 9 4 5 5 4 6 3 7 11 8 6 10 7 11 8 12
REMARK H PARENT 11 9
REMARK Flexibility Score: inf
ROOT
ATOM      1  C   UNL     1      -3.054  82.561  -8.680  1.00  0.00     0.048 C 
ATOM      2  C   UNL     1      -3.804  83.796  -9.098  1.00  0.00    -0.009 A 
ATOM      3  C   UNL     1      -4.949  83.713  -9.920  1.00  0.00     0.118 A 
ATOM      4  C   UNL     1      -5.625  84.881 -10.292  1.00  0.00     0.050 A 
ATOM      5  C   UNL     1      -5.182  86.142  -9.858  1.00  0.00    -0.042 A 
ATOM      6  C   UNL     1      -4.040  86.216  -9.041  1.00  0.00     0.004 A 
ATOM      7  C   UNL     1      -3.361  85.056  -8.665  1.00  0.00     0.007 A 
ENDROOT
BRANCH   3   8
ATOM      8  O   UNL     1      -5.440  82.490 -10.382  1.00  0.00    -0.508 OA
ATOM      9  H   UNL     1      -6.418  82.330 -10.587  1.00  0.00     0.293 HD
ENDBRANCH   3   8
BRANCH   5  10
ATOM     10  C   UNL     1      -5.930  87.394 -10.275  1.00  0.00     0.013 C 
ATOM     11  C   UNL     1      -5.796  88.497  -9.219  1.00  0.00     0.012 C 
ATOM     12  C   UNL     1      -7.405  87.085 -10.564  1.00  0.00     0.012 C 
ENDBRANCH   5  10
TORSDOF 2
ENDMDL
MODEL 6
REMARK VINA RESULT:    -3.968      5.219      7.769
REMARK INTER + INTRA:          -4.441
REMARK INTER:                  -4.340
REMARK INTRA:                  -0.102
REMARK UNBOUND:                -0.125
REMARK SMILES Cc1ccc(C(C)C)cc1O
REMARK SMILES IDX 1 1 2 2 10 3 9 4 5 5 4 6 3 7 11 8 6 10 7 11 8 12
REMARK H PARENT 11 9
REMARK Flexibility Score: inf
ROOT
ATOM      1  C   UNL     1      -2.611  81.845  -8.059  1.00  0.00     0.048 C 
ATOM      2  C   UNL     1      -3.927  82.524  -8.326  1.00  0.00    -0.009 A 
ATOM      3  C   UNL     1      -4.341  82.826  -9.642  1.00  0.00     0.118 A 
ATOM      4  C   UNL     1      -5.572  83.458  -9.857  1.00  0.00     0.050 A 
ATOM      5  C   UNL     1      -6.407  83.798  -8.780  1.00  0.00    -0.042 A 
ATOM      6  C   UNL     1      -5.988  83.494  -7.473  1.00  0.00     0.004 A 
ATOM      7  C   UNL     1      -4.762  82.864  -7.250  1.00  0.00     0.007 A 
ENDROOT
BRANCH   3   8
ATOM      8  O   UNL     1      -3.556  82.512 -10.754  1.00  0.00    -0.508 OA
ATOM      9  H   UNL     1      -3.672  81.661 -11.290  1.00  0.00     0.293 HD
ENDBRANCH   3   8
BRANCH   5  10
ATOM     10  C   UNL     1      -7.736  84.483  -9.038  1.00  0.00     0.013 C 
ATOM     11  C   UNL     1      -8.810  83.471  -9.452  1.00  0.00     0.012 C 
ATOM     12  C   UNL     1      -7.590  85.592 -10.087  1.00  0.00     0.012 C 
ENDBRANCH   5  10
TORSDOF 2
ENDMDL
MODEL 7
REMARK VINA RESULT:    -3.965      6.572      9.237
REMARK INTER + INTRA:          -4.438
REMARK INTER:                  -4.313
REMARK INTRA:                  -0.125
REMARK UNBOUND:                -0.125
REMARK SMILES Cc1ccc(C(C)C)cc1O
REMARK SMILES IDX 1 1 2 2 10 3 9 4 5 5 4 6 3 7 11 8 6 10 7 11 8 12
REMARK H PARENT 11 9
REMARK Flexibility Score: inf
ROOT
ATOM      1  C   UNL     1      -1.971  86.718  -7.614  1.00  0.00     0.048 C 
ATOM      2  C   UNL     1      -3.262  86.732  -8.386  1.00  0.00    -0.009 A 
ATOM      3  C   UNL     1      -3.694  85.600  -9.110  1.00  0.00     0.118 A 
ATOM      4  C   UNL     1      -4.900  85.646  -9.819  1.00  0.00     0.050 A 
ATOM      5  C   UNL     1      -5.694  86.805  -9.821  1.00  0.00    -0.042 A 
ATOM      6  C   UNL     1      -5.257  87.928  -9.097  1.00  0.00     0.004 A 
ATOM      7  C   UNL     1      -4.055  87.891  -8.388  1.00  0.00     0.007 A 
ENDROOT
BRANCH   3   8
ATOM      8  O   UNL     1      -2.950  84.418  -9.147  1.00  0.00    -0.508 OA
ATOM      9  H   UNL     1      -2.478  84.038  -8.336  1.00  0.00     0.293 HD
ENDBRANCH   3   8
BRANCH   5  10
ATOM     10  C   UNL     1      -6.997  86.831 -10.596  1.00  0.00     0.013 C 
ATOM     11  C   UNL     1      -7.318  88.245 -11.094  1.00  0.00     0.012 C 
ATOM     12  C   UNL     1      -8.151  86.267  -9.757  1.00  0.00     0.012 C 
ENDBRANCH   5  10
TORSDOF 2
ENDMDL
MODEL 8
REMARK VINA RESULT:    -3.880      5.550      7.010
REMARK INTER + INTRA:          -4.346
REMARK INTER:                  -4.247
REMARK INTRA:                  -0.099
REMARK UNBOUND:                -0.125
REMARK SMILES Cc1ccc(C(C)C)cc1O
REMARK SMILES IDX 1 1 2 2 10 3 9 4 5 5 4 6 3 7 11 8 6 10 7 11 8 12
REMARK H PARENT 11 9
REMARK Flexibility Score: inf
ROOT
ATOM      1  C   UNL     1      -7.790  86.591 -10.344  1.00  0.00     0.048 C 
ATOM      2  C   UNL     1      -6.731  85.605  -9.934  1.00  0.00    -0.009 A 
ATOM      3  C   UNL     1      -7.031  84.234  -9.773  1.00  0.00     0.118 A 
ATOM      4  C   UNL     1      -6.023  83.341  -9.391  1.00  0.00     0.050 A 
ATOM      5  C   UNL     1      -4.710  83.787  -9.164  1.00  0.00    -0.042 A 
ATOM      6  C   UNL     1      -4.419  85.153  -9.326  1.00  0.00     0.004 A 
ATOM      7  C   UNL     1      -5.419  86.050  -9.707  1.00  0.00     0.007 A 
ENDROOT
BRANCH   3   8
ATOM      8  O   UNL     1      -8.316  83.729  -9.985  1.00  0.00    -0.508 OA
ATOM      9  H   UNL     1      -8.567  83.183 -10.799  1.00  0.00     0.293 HD
ENDBRANCH   3   8
BRANCH   5  10
ATOM     10  C   UNL     1      -3.635  82.800  -8.750  1.00  0.00     0.013 C 
ATOM     11  C   UNL     1      -3.409  81.739  -9.833  1.00  0.00     0.012 C 
ATOM     12  C   UNL     1      -3.972  82.150  -7.402  1.00  0.00     0.012 C 
ENDBRANCH   5  10
TORSDOF 2
ENDMDL
