MODEL 1
REMARK VINA RESULT:    -2.545      0.000      0.000
REMARK INTER + INTRA:          -3.465
REMARK INTER:                  -3.586
REMARK INTRA:                   0.121
REMARK UNBOUND:                 0.121
REMARK SMILES CC1=CCC(=C(C)C)C(=O)CC(C)=CCC1
REMARK SMILES IDX 12 1 14 2 13 3 15 4 16 5 2 6 1 7 3 8 11 10 9 11 10 12 5 13
REMARK SMILES IDX 6 14 7 15 8 16 4 17
REMARK H PARENT
REMARK Flexibility Score: 60.00
ROOT
ATOM      1  C   UNL     1      68.336  14.750  46.264  1.00  0.00    -0.070 C 
ATOM      2  C   UNL     1      69.284  13.977  46.845  1.00  0.00    -0.027 C 
ATOM      3  C   UNL     1      68.682  16.186  45.961  1.00  0.00     0.039 C 
ENDROOT
BRANCH   2   4
ATOM      4  C   UNL     1      69.162  12.505  47.163  1.00  0.00     0.032 C 
BRANCH   4   5
ATOM      5  C   UNL     1      68.633  12.240  48.582  1.00  0.00     0.034 C 
BRANCH   5   6
ATOM      6  C   UNL     1      67.582  11.145  48.620  1.00  0.00    -0.077 C 
ATOM      7  C   UNL     1      68.033   9.716  48.460  1.00  0.00     0.039 C 
ATOM      8  C   UNL     1      66.257  11.377  48.768  1.00  0.00    -0.023 CG0
ATOM      9  G   UNL     1      65.603  12.734  48.884  1.00  0.00     0.000 G0
ENDBRANCH   5   6
ENDBRANCH   4   5
ENDBRANCH   2   4
BRANCH   1  10
ATOM     10  C   UNL     1      66.954  14.249  45.883  1.00  0.00     0.111 C 
BRANCH  10  11
ATOM     11  C   UNL     1      65.951  14.431  46.996  1.00  0.00     0.163 C 
ATOM     12  O   UNL     1      65.732  15.601  47.413  1.00  0.00    -0.294 OA
BRANCH  11  13
ATOM     13  C   UNL     1      65.158  13.294  47.555  1.00  0.00    -0.002 C 
ATOM     14  C   UNL     1      64.015  12.878  46.935  1.00  0.00    -0.069 C 
ATOM     15  C   UNL     1      63.548  13.509  45.642  1.00  0.00     0.039 C 
ATOM     16  C   UNL     1      63.140  11.802  47.539  1.00  0.00     0.039 C 
BRANCH  13  17
ATOM     17  C   UNL     1      65.571  12.718  48.904  1.00  0.00     0.066 CG0
ATOM     18  G   UNL     1      66.268  11.386  48.755  1.00  0.00     0.000 G0
ENDBRANCH  13  17
ENDBRANCH  11  13
ENDBRANCH  10  11
ENDBRANCH   1  10
TORSDOF 0
ENDMDL
MODEL 2
REMARK VINA RESULT:    -2.529      2.901      5.654
REMARK INTER + INTRA:          -3.443
REMARK INTER:                  -3.680
REMARK INTRA:                   0.237
REMARK UNBOUND:                 0.121
REMARK SMILES CC1=CCC(=C(C)C)C(=O)CC(C)=CCC1
REMARK SMILES IDX 12 1 14 2 13 3 15 4 16 5 2 6 1 7 3 8 11 10 9 11 10 12 5 13
REMARK SMILES IDX 6 14 7 15 8 16 4 17
REMARK H PARENT
REMARK Flexibility Score: 60.00
ROOT
ATOM      1  C   UNL     1      62.438  14.391  44.025  1.00  0.00    -0.070 C 
ATOM      2  C   UNL     1      62.718  14.871  42.790  1.00  0.00    -0.027 C 
ATOM      3  C   UNL     1      61.021  14.513  44.527  1.00  0.00     0.039 C 
ENDROOT
BRANCH   2   4
ATOM      4  C   UNL     1      64.048  14.784  42.080  1.00  0.00     0.032 C 
BRANCH   4   5
ATOM      5  C   UNL     1      65.107  15.732  42.670  1.00  0.00     0.034 C 
BRANCH   5   6
ATOM      6  C   UNL     1      66.437  15.044  42.913  1.00  0.00    -0.077 C 
ATOM      7  C   UNL     1      67.104  14.349  41.754  1.00  0.00     0.039 C 
ATOM      8  C   UNL     1      67.054  15.000  44.117  1.00  0.00    -0.023 CG0
ATOM      9  G   UNL     1      66.524  15.580  45.406  1.00  0.00     0.000 G0
ENDBRANCH   5   6
ENDBRANCH   4   5
ENDBRANCH   2   4
BRANCH   1  10
ATOM     10  C   UNL     1      63.463  13.721  44.922  1.00  0.00     0.111 C 
BRANCH  10  11
ATOM     11  C   UNL     1      64.145  14.701  45.845  1.00  0.00     0.163 C 
ATOM     12  O   UNL     1      63.431  15.557  46.437  1.00  0.00    -0.294 OA
BRANCH  11  13
ATOM     13  C   UNL     1      65.609  14.639  46.143  1.00  0.00    -0.002 C 
ATOM     14  C   UNL     1      66.075  13.843  47.148  1.00  0.00    -0.069 C 
ATOM     15  C   UNL     1      65.144  12.963  47.951  1.00  0.00     0.039 C 
ATOM     16  C   UNL     1      67.537  13.844  47.537  1.00  0.00     0.039 C 
BRANCH  13  17
ATOM     17  C   UNL     1      66.538  15.592  45.402  1.00  0.00     0.066 CG0
ATOM     18  G   UNL     1      67.031  14.998  44.103  1.00  0.00     0.000 G0
ENDBRANCH  13  17
ENDBRANCH  11  13
ENDBRANCH  10  11
ENDBRANCH   1  10
TORSDOF 0
ENDMDL
MODEL 3
REMARK VINA RESULT:    -2.394      2.328      4.262
REMARK INTER + INTRA:          -3.252
REMARK INTER:                  -3.389
REMARK INTRA:                   0.136
REMARK UNBOUND:                 0.121
REMARK SMILES CC1=CCC(=C(C)C)C(=O)CC(C)=CCC1
REMARK SMILES IDX 12 1 14 2 13 3 15 4 16 5 2 6 1 7 3 8 11 10 9 11 10 12 5 13
REMARK SMILES IDX 6 14 7 15 8 16 4 17
REMARK H PARENT
REMARK Flexibility Score: 60.00
ROOT
ATOM      1  C   UNL     1      67.324  13.633  47.324  1.00  0.00    -0.070 C 
ATOM      2  C   UNL     1      67.168  14.905  46.887  1.00  0.00    -0.027 C 
ATOM      3  C   UNL     1      68.709  13.037  47.289  1.00  0.00     0.039 C 
ENDROOT
BRANCH   2   4
ATOM      4  C   UNL     1      65.885  15.703  46.906  1.00  0.00     0.032 C 
BRANCH   4   5
ATOM      5  C   UNL     1      64.881  15.250  45.833  1.00  0.00     0.034 C 
BRANCH   5   6
ATOM      6  C   UNL     1      63.490  15.018  46.394  1.00  0.00    -0.077 C 
ATOM      7  C   UNL     1      62.812  16.153  47.116  1.00  0.00     0.039 C 
ATOM      8  C   UNL     1      62.828  13.841  46.301  1.00  0.00    -0.023 CG0
ATOM      9  G   UNL     1      63.356  12.574  45.672  1.00  0.00     0.000 G0
ENDBRANCH   5   6
ENDBRANCH   4   5
ENDBRANCH   2   4
BRANCH   1  10
ATOM     10  C   UNL     1      66.190  12.781  47.866  1.00  0.00     0.111 C 
BRANCH  10  11
ATOM     11  C   UNL     1      65.584  11.892  46.807  1.00  0.00     0.163 C 
ATOM     12  O   UNL     1      66.364  11.250  46.053  1.00  0.00    -0.294 OA
BRANCH  11  13
ATOM     13  C   UNL     1      64.108  11.688  46.679  1.00  0.00    -0.002 C 
ATOM     14  C   UNL     1      63.494  10.664  47.341  1.00  0.00    -0.069 C 
ATOM     15  C   UNL     1      64.267   9.747  48.262  1.00  0.00     0.039 C 
ATOM     16  C   UNL     1      62.023  10.372  47.144  1.00  0.00     0.039 C 
BRANCH  13  17
ATOM     17  C   UNL     1      63.343  12.548  45.682  1.00  0.00     0.066 CG0
ATOM     18  G   UNL     1      62.833  13.821  46.315  1.00  0.00     0.000 G0
ENDBRANCH  13  17
ENDBRANCH  11  13
ENDBRANCH  10  11
ENDBRANCH   1  10
TORSDOF 0
ENDMDL
MODEL 4
REMARK VINA RESULT:    -2.357     17.536     18.652
REMARK INTER + INTRA:          -3.200
REMARK INTER:                  -3.378
REMARK INTRA:                   0.178
REMARK UNBOUND:                 0.121
REMARK SMILES CC1=CCC(=C(C)C)C(=O)CC(C)=CCC1
REMARK SMILES IDX 12 1 14 2 13 3 15 4 16 5 2 6 1 7 3 8 11 10 9 11 10 12 5 13
REMARK SMILES IDX 6 14 7 15 8 16 4 17
REMARK H PARENT
REMARK Flexibility Score: 60.00
ROOT
ATOM      1  C   UNL     1      73.198   1.550  35.111  1.00  0.00    -0.070 C 
ATOM      2  C   UNL     1      73.954   2.667  34.991  1.00  0.00    -0.027 C 
ATOM      3  C   UNL     1      73.886   0.269  35.511  1.00  0.00     0.039 C 
ENDROOT
BRANCH   2   4
ATOM      4  C   UNL     1      73.451   4.055  34.672  1.00  0.00     0.032 C 
BRANCH   4   5
ATOM      5  C   UNL     1      73.384   4.336  33.161  1.00  0.00     0.034 C 
BRANCH   5   6
ATOM      6  C   UNL     1      72.105   5.044  32.754  1.00  0.00    -0.077 C 
ATOM      7  C   UNL     1      71.921   6.482  33.167  1.00  0.00     0.039 C 
ATOM      8  C   UNL     1      71.107   4.454  32.057  1.00  0.00    -0.023 CG0
ATOM      9  G   UNL     1      71.073   3.014  31.603  1.00  0.00     0.000 G0
ENDBRANCH   5   6
ENDBRANCH   4   5
ENDBRANCH   2   4
BRANCH   1  10
ATOM     10  C   UNL     1      71.696   1.519  34.888  1.00  0.00     0.111 C 
BRANCH  10  11
ATOM     11  C   UNL     1      71.337   1.210  33.455  1.00  0.00     0.163 C 
ATOM     12  O   UNL     1      71.751   0.127  32.958  1.00  0.00    -0.294 OA
BRANCH  11  13
ATOM     13  C   UNL     1      70.446   2.094  32.642  1.00  0.00    -0.002 C 
ATOM     14  C   UNL     1      69.089   1.981  32.736  1.00  0.00    -0.069 C 
ATOM     15  C   UNL     1      68.446   1.007  33.698  1.00  0.00     0.039 C 
ATOM     16  C   UNL     1      68.170   2.789  31.847  1.00  0.00     0.039 C 
BRANCH  13  17
ATOM     17  C   UNL     1      71.086   3.009  31.606  1.00  0.00     0.066 CG0
ATOM     18  G   UNL     1      71.087   4.451  32.055  1.00  0.00     0.000 G0
ENDBRANCH  13  17
ENDBRANCH  11  13
ENDBRANCH  10  11
ENDBRANCH   1  10
TORSDOF 0
ENDMDL
MODEL 5
REMARK VINA RESULT:    -2.340     16.839     18.124
REMARK INTER + INTRA:          -3.177
REMARK INTER:                  -3.419
REMARK INTRA:                   0.242
REMARK UNBOUND:                 0.121
REMARK SMILES CC1=CCC(=C(C)C)C(=O)CC(C)=CCC1
REMARK SMILES IDX 12 1 14 2 13 3 15 4 16 5 2 6 1 7 3 8 11 10 9 11 10 12 5 13
REMARK SMILES IDX 6 14 7 15 8 16 4 17
REMARK H PARENT
REMARK Flexibility Score: 60.00
ROOT
ATOM      1  C   UNL     1      69.999   2.800  32.109  1.00  0.00    -0.070 C 
ATOM      2  C   UNL     1      69.486   3.738  31.278  1.00  0.00    -0.027 C 
ATOM      3  C   UNL     1      69.081   1.710  32.600  1.00  0.00     0.039 C 
ENDROOT
BRANCH   2   4
ATOM      4  C   UNL     1      70.251   4.865  30.624  1.00  0.00     0.032 C 
BRANCH   4   5
ATOM      5  C   UNL     1      70.209   6.170  31.437  1.00  0.00     0.034 C 
BRANCH   5   6
ATOM      6  C   UNL     1      71.592   6.727  31.720  1.00  0.00    -0.077 C 
ATOM      7  C   UNL     1      72.309   7.456  30.613  1.00  0.00     0.039 C 
ATOM      8  C   UNL     1      72.230   6.591  32.905  1.00  0.00    -0.023 CG0
ATOM      9  G   UNL     1      71.709   5.849  34.113  1.00  0.00     0.000 G0
ENDBRANCH   5   6
ENDBRANCH   4   5
ENDBRANCH   2   4
BRANCH   1  10
ATOM     10  C   UNL     1      71.450   2.773  32.558  1.00  0.00     0.111 C 
BRANCH  10  11
ATOM     11  C   UNL     1      71.621   3.263  33.975  1.00  0.00     0.163 C 
ATOM     12  O   UNL     1      71.141   2.564  34.909  1.00  0.00    -0.294 OA
BRANCH  11  13
ATOM     13  C   UNL     1      72.403   4.493  34.310  1.00  0.00    -0.002 C 
ATOM     14  C   UNL     1      73.640   4.391  34.877  1.00  0.00    -0.069 C 
ATOM     15  C   UNL     1      74.280   3.045  35.132  1.00  0.00     0.039 C 
ATOM     16  C   UNL     1      74.404   5.619  35.322  1.00  0.00     0.039 C 
BRANCH  13  17
ATOM     17  C   UNL     1      71.726   5.848  34.143  1.00  0.00     0.066 CG0
ATOM     18  G   UNL     1      72.226   6.577  32.918  1.00  0.00     0.000 G0
ENDBRANCH  13  17
ENDBRANCH  11  13
ENDBRANCH  10  11
ENDBRANCH   1  10
TORSDOF 0
ENDMDL
MODEL 6
REMARK VINA RESULT:    -2.310     16.997     18.835
REMARK INTER + INTRA:          -3.135
REMARK INTER:                  -3.310
REMARK INTRA:                   0.175
REMARK UNBOUND:                 0.121
REMARK SMILES CC1=CCC(=C(C)C)C(=O)CC(C)=CCC1
REMARK SMILES IDX 12 1 14 2 13 3 15 4 16 5 2 6 1 7 3 8 11 10 9 11 10 12 5 13
REMARK SMILES IDX 6 14 7 15 8 16 4 17
REMARK H PARENT
REMARK Flexibility Score: 60.00
ROOT
ATOM      1  C   UNL     1      68.785  -2.347  35.557  1.00  0.00    -0.070 C 
ATOM      2  C   UNL     1      69.221  -2.381  34.276  1.00  0.00    -0.027 C 
ATOM      3  C   UNL     1      67.349  -2.720  35.827  1.00  0.00     0.039 C 
ENDROOT
BRANCH   2   4
ATOM      4  C   UNL     1      70.631  -2.114  33.806  1.00  0.00     0.032 C 
BRANCH   4   5
ATOM      5  C   UNL     1      70.931  -0.615  33.631  1.00  0.00     0.034 C 
BRANCH   5   6
ATOM      6  C   UNL     1      72.306  -0.230  34.145  1.00  0.00    -0.077 C 
ATOM      7  C   UNL     1      73.515  -0.795  33.447  1.00  0.00     0.039 C 
ATOM      8  C   UNL     1      72.512   0.578  35.211  1.00  0.00    -0.023 CG0
ATOM      9  G   UNL     1      71.438   1.195  36.076  1.00  0.00     0.000 G0
ENDBRANCH   5   6
ENDBRANCH   4   5
ENDBRANCH   2   4
BRANCH   1  10
ATOM     10  C   UNL     1      69.663  -1.974  36.738  1.00  0.00     0.111 C 
BRANCH  10  11
ATOM     11  C   UNL     1      69.702  -0.484  36.976  1.00  0.00     0.163 C 
ATOM     12  O   UNL     1      68.606   0.133  37.065  1.00  0.00    -0.294 OA
BRANCH  11  13
ATOM     13  C   UNL     1      70.981   0.261  37.189  1.00  0.00    -0.002 C 
ATOM     14  C   UNL     1      71.630   0.189  38.388  1.00  0.00    -0.069 C 
ATOM     15  C   UNL     1      71.114  -0.684  39.510  1.00  0.00     0.039 C 
ATOM     16  C   UNL     1      72.866   1.017  38.663  1.00  0.00     0.039 C 
BRANCH  13  17
ATOM     17  C   UNL     1      71.454   1.214  36.098  1.00  0.00     0.066 CG0
ATOM     18  G   UNL     1      72.496   0.577  35.210  1.00  0.00     0.000 G0
ENDBRANCH  13  17
ENDBRANCH  11  13
ENDBRANCH  10  11
ENDBRANCH   1  10
TORSDOF 0
ENDMDL
MODEL 7
REMARK VINA RESULT:    -2.285     16.757     18.333
REMARK INTER + INTRA:          -3.099
REMARK INTER:                  -3.271
REMARK INTRA:                   0.172
REMARK UNBOUND:                 0.121
REMARK SMILES CC1=CCC(=C(C)C)C(=O)CC(C)=CCC1
REMARK SMILES IDX 12 1 14 2 13 3 15 4 16 5 2 6 1 7 3 8 11 10 9 11 10 12 5 13
REMARK SMILES IDX 6 14 7 15 8 16 4 17
REMARK H PARENT
REMARK Flexibility Score: 60.00
ROOT
ATOM      1  C   UNL     1      71.212  -0.820  38.515  1.00  0.00    -0.070 C 
ATOM      2  C   UNL     1      70.031  -1.467  38.666  1.00  0.00    -0.027 C 
ATOM      3  C   UNL     1      71.940  -0.379  39.759  1.00  0.00     0.039 C 
ENDROOT
BRANCH   2   4
ATOM      4  C   UNL     1      69.186  -2.049  37.557  1.00  0.00     0.032 C 
BRANCH   4   5
ATOM      5  C   UNL     1      68.453  -0.975  36.734  1.00  0.00     0.034 C 
BRANCH   5   6
ATOM      6  C   UNL     1      68.616  -1.172  35.239  1.00  0.00    -0.077 C 
ATOM      7  C   UNL     1      68.195  -2.490  34.641  1.00  0.00     0.039 C 
ATOM      8  C   UNL     1      69.138  -0.240  34.409  1.00  0.00    -0.023 CG0
ATOM      9  G   UNL     1      69.670   1.113  34.819  1.00  0.00     0.000 G0
ENDBRANCH   5   6
ENDBRANCH   4   5
ENDBRANCH   2   4
BRANCH   1  10
ATOM     10  C   UNL     1      71.852  -0.534  37.169  1.00  0.00     0.111 C 
BRANCH  10  11
ATOM     11  C   UNL     1      71.484   0.831  36.638  1.00  0.00     0.163 C 
ATOM     12  O   UNL     1      71.536   1.810  37.430  1.00  0.00    -0.294 OA
BRANCH  11  13
ATOM     13  C   UNL     1      71.146   1.068  35.201  1.00  0.00    -0.002 C 
ATOM     14  C   UNL     1      72.129   1.359  34.300  1.00  0.00    -0.069 C 
ATOM     15  C   UNL     1      73.585   1.393  34.708  1.00  0.00     0.039 C 
ATOM     16  C   UNL     1      71.801   1.708  32.865  1.00  0.00     0.039 C 
BRANCH  13  17
ATOM     17  C   UNL     1      69.676   1.128  34.804  1.00  0.00     0.066 CG0
ATOM     18  G   UNL     1      69.151  -0.227  34.395  1.00  0.00     0.000 G0
ENDBRANCH  13  17
ENDBRANCH  11  13
ENDBRANCH  10  11
ENDBRANCH   1  10
TORSDOF 0
ENDMDL
MODEL 8
REMARK VINA RESULT:    -2.217     17.751     18.887
REMARK INTER + INTRA:          -3.004
REMARK INTER:                  -3.150
REMARK INTRA:                   0.147
REMARK UNBOUND:                 0.121
REMARK SMILES CC1=CCC(=C(C)C)C(=O)CC(C)=CCC1
REMARK SMILES IDX 12 1 14 2 13 3 15 4 16 5 2 6 1 7 3 8 11 10 9 11 10 12 5 13
REMARK SMILES IDX 6 14 7 15 8 16 4 17
REMARK H PARENT
REMARK Flexibility Score: 60.00
ROOT
ATOM      1  C   UNL     1      71.888  -0.658  33.378  1.00  0.00    -0.070 C 
ATOM      2  C   UNL     1      72.910  -0.561  34.262  1.00  0.00    -0.027 C 
ATOM      3  C   UNL     1      71.894  -1.816  32.414  1.00  0.00     0.039 C 
ENDROOT
BRANCH   2   4
ATOM      4  C   UNL     1      73.052   0.477  35.350  1.00  0.00     0.032 C 
BRANCH   4   5
ATOM      5  C   UNL     1      73.692   1.784  34.852  1.00  0.00     0.034 C 
BRANCH   5   6
ATOM      6  C   UNL     1      72.897   3.014  35.250  1.00  0.00    -0.077 C 
ATOM      7  C   UNL     1      72.828   3.378  36.711  1.00  0.00     0.039 C 
ATOM      8  C   UNL     1      72.227   3.794  34.372  1.00  0.00    -0.023 CG0
ATOM      9  G   UNL     1      72.124   3.566  32.882  1.00  0.00     0.000 G0
ENDBRANCH   5   6
ENDBRANCH   4   5
ENDBRANCH   2   4
BRANCH   1  10
ATOM     10  C   UNL     1      70.729   0.321  33.318  1.00  0.00     0.111 C 
BRANCH  10  11
ATOM     11  C   UNL     1      70.905   1.352  32.229  1.00  0.00     0.163 C 
ATOM     12  O   UNL     1      71.050   0.946  31.044  1.00  0.00    -0.294 OA
BRANCH  11  13
ATOM     13  C   UNL     1      70.830   2.821  32.496  1.00  0.00    -0.002 C 
ATOM     14  C   UNL     1      69.671   3.505  32.270  1.00  0.00    -0.069 C 
ATOM     15  C   UNL     1      68.419   2.798  31.803  1.00  0.00     0.039 C 
ATOM     16  C   UNL     1      69.602   5.008  32.431  1.00  0.00     0.039 C 
BRANCH  13  17
ATOM     17  C   UNL     1      72.111   3.553  32.876  1.00  0.00     0.066 CG0
ATOM     18  G   UNL     1      72.201   3.790  34.365  1.00  0.00     0.000 G0
ENDBRANCH  13  17
ENDBRANCH  11  13
ENDBRANCH  10  11
ENDBRANCH   1  10
TORSDOF 0
ENDMDL
MODEL 9
REMARK VINA RESULT:    -2.158     17.368     18.332
REMARK INTER + INTRA:          -2.920
REMARK INTER:                  -3.254
REMARK INTRA:                   0.333
REMARK UNBOUND:                 0.121
REMARK SMILES CC1=CCC(=C(C)C)C(=O)CC(C)=CCC1
REMARK SMILES IDX 12 1 14 2 13 3 15 4 16 5 2 6 1 7 3 8 11 10 9 11 10 12 5 13
REMARK SMILES IDX 6 14 7 15 8 16 4 17
REMARK H PARENT
REMARK Flexibility Score: 60.00
ROOT
ATOM      1  C   UNL     1      69.626   1.998  33.112  1.00  0.00    -0.070 C 
ATOM      2  C   UNL     1      70.887   2.395  32.820  1.00  0.00    -0.027 C 
ATOM      3  C   UNL     1      68.505   2.983  32.894  1.00  0.00     0.039 C 
ENDROOT
BRANCH   2   4
ATOM      4  C   UNL     1      72.131   1.543  32.900  1.00  0.00     0.032 C 
BRANCH   4   5
ATOM      5  C   UNL     1      72.853   1.660  34.254  1.00  0.00     0.034 C 
BRANCH   5   6
ATOM      6  C   UNL     1      73.051   0.316  34.930  1.00  0.00    -0.077 C 
ATOM      7  C   UNL     1      74.160  -0.576  34.434  1.00  0.00     0.039 C 
ATOM      8  C   UNL     1      72.276  -0.140  35.941  1.00  0.00    -0.023 CG0
ATOM      9  G   UNL     1      71.086   0.574  36.537  1.00  0.00     0.000 G0
ENDBRANCH   5   6
ENDBRANCH   4   5
ENDBRANCH   2   4
BRANCH   1  10
ATOM     10  C   UNL     1      69.274   0.613  33.627  1.00  0.00     0.111 C 
BRANCH  10  11
ATOM     11  C   UNL     1      68.923   0.619  35.094  1.00  0.00     0.163 C 
ATOM     12  O   UNL     1      67.846   1.174  35.445  1.00  0.00    -0.294 OA
BRANCH  11  13
ATOM     13  C   UNL     1      69.757  -0.076  36.122  1.00  0.00    -0.002 C 
ATOM     14  C   UNL     1      69.285  -1.186  36.758  1.00  0.00    -0.069 C 
ATOM     15  C   UNL     1      67.939  -1.781  36.408  1.00  0.00     0.039 C 
ATOM     16  C   UNL     1      70.065  -1.844  37.876  1.00  0.00     0.039 C 
BRANCH  13  17
ATOM     17  C   UNL     1      71.070   0.571  36.545  1.00  0.00     0.066 CG0
ATOM     18  G   UNL     1      72.262  -0.134  35.942  1.00  0.00     0.000 G0
ENDBRANCH  13  17
ENDBRANCH  11  13
ENDBRANCH  10  11
ENDBRANCH   1  10
TORSDOF 0
ENDMDL
