MODEL 1
REMARK VINA RESULT:    -3.889      0.000      0.000
REMARK INTER + INTRA:          -6.873
REMARK INTER:                  -5.367
REMARK INTRA:                  -1.506
REMARK UNBOUND:                -1.506
REMARK SMILES CCCCc1cccc(O)c1CCCC
REMARK SMILES IDX 5 1 11 2 9 3 8 4 7 5 6 6 4 7 3 8 2 9 1 10 12 11 13 12 14 13
REMARK SMILES IDX 15 14 10 15
REMARK H PARENT 10 16
REMARK Flexibility Score: inf
ROOT
ATOM      1  C   UNL     1      -4.611  83.286  -7.346  1.00  0.00    -0.041 A 
ATOM      2  C   UNL     1      -4.644  83.091  -8.756  1.00  0.00    -0.003 A 
ATOM      3  C   UNL     1      -3.645  82.299  -9.365  1.00  0.00     0.119 A 
ATOM      4  C   UNL     1      -2.613  81.751  -8.594  1.00  0.00     0.046 A 
ATOM      5  C   UNL     1      -2.564  81.974  -7.220  1.00  0.00     0.004 A 
ATOM      6  C   UNL     1      -3.553  82.736  -6.601  1.00  0.00     0.004 A 
ENDROOT
BRANCH   1   7
ATOM      7  C   UNL     1      -5.641  84.114  -6.609  1.00  0.00     0.036 C 
BRANCH   7   8
ATOM      8  C   UNL     1      -4.977  85.316  -5.918  1.00  0.00     0.004 C 
BRANCH   8   9
ATOM      9  C   UNL     1      -4.876  86.542  -6.837  1.00  0.00    -0.003 C 
ATOM     10  C   UNL     1      -3.474  86.732  -7.415  1.00  0.00     0.004 C 
ENDBRANCH   8   9
ENDBRANCH   7   8
ENDBRANCH   1   7
BRANCH   2  11
ATOM     11  C   UNL     1      -5.755  83.659  -9.618  1.00  0.00     0.040 C 
BRANCH  11  12
ATOM     12  C   UNL     1      -5.363  85.034 -10.171  1.00  0.00     0.005 C 
BRANCH  12  13
ATOM     13  C   UNL     1      -6.547  86.006 -10.116  1.00  0.00    -0.003 C 
ATOM     14  C   UNL     1      -7.723  85.400  -9.354  1.00  0.00     0.004 C 
ENDBRANCH  12  13
ENDBRANCH  11  12
ENDBRANCH   2  11
BRANCH   3  15
ATOM     15  O   UNL     1      -3.679  82.056 -10.738  1.00  0.00    -0.508 OA
ATOM     16  H   UNL     1      -3.269  81.221 -11.142  1.00  0.00     0.293 HD
ENDBRANCH   3  15
TORSDOF 7
ENDMDL
MODEL 2
REMARK VINA RESULT:    -3.784      1.449      2.572
REMARK INTER + INTRA:          -6.728
REMARK INTER:                  -5.560
REMARK INTRA:                  -1.168
REMARK UNBOUND:                -1.506
REMARK SMILES CCCCc1cccc(O)c1CCCC
REMARK SMILES IDX 5 1 11 2 9 3 8 4 7 5 6 6 4 7 3 8 2 9 1 10 12 11 13 12 14 13
REMARK SMILES IDX 15 14 10 15
REMARK H PARENT 10 16
REMARK Flexibility Score: inf
ROOT
ATOM      1  C   UNL     1      -5.182  83.054  -7.646  1.00  0.00    -0.041 A 
ATOM      2  C   UNL     1      -4.844  83.062  -9.029  1.00  0.00    -0.003 A 
ATOM      3  C   UNL     1      -3.735  82.308  -9.471  1.00  0.00     0.119 A 
ATOM      4  C   UNL     1      -2.954  81.597  -8.552  1.00  0.00     0.046 A 
ATOM      5  C   UNL     1      -3.268  81.620  -7.195  1.00  0.00     0.004 A 
ATOM      6  C   UNL     1      -4.370  82.342  -6.745  1.00  0.00     0.004 A 
ENDROOT
BRANCH   1   7
ATOM      7  C   UNL     1      -6.355  83.828  -7.083  1.00  0.00     0.036 C 
BRANCH   7   8
ATOM      8  C   UNL     1      -7.617  82.952  -7.051  1.00  0.00     0.004 C 
BRANCH   8   9
ATOM      9  C   UNL     1      -8.697  83.436  -8.029  1.00  0.00    -0.003 C 
ATOM     10  C   UNL     1      -8.997  82.419  -9.129  1.00  0.00     0.004 C 
ENDBRANCH   8   9
ENDBRANCH   7   8
ENDBRANCH   1   7
BRANCH   2  11
ATOM     11  C   UNL     1      -5.676  83.811 -10.053  1.00  0.00     0.040 C 
BRANCH  11  12
ATOM     12  C   UNL     1      -5.294  85.295 -10.081  1.00  0.00     0.005 C 
BRANCH  12  13
ATOM     13  C   UNL     1      -6.542  86.184 -10.132  1.00  0.00    -0.003 C 
ATOM     14  C   UNL     1      -6.633  87.076  -8.897  1.00  0.00     0.004 C 
ENDBRANCH  12  13
ENDBRANCH  11  12
ENDBRANCH   2  11
BRANCH   3  15
ATOM     15  O   UNL     1      -3.409  82.264 -10.827  1.00  0.00    -0.508 OA
ATOM     16  H   UNL     1      -3.797  81.561 -11.446  1.00  0.00     0.293 HD
ENDBRANCH   3  15
TORSDOF 7
ENDMDL
MODEL 3
REMARK VINA RESULT:    -3.705      1.691      3.640
REMARK INTER + INTRA:          -6.619
REMARK INTER:                  -5.134
REMARK INTRA:                  -1.485
REMARK UNBOUND:                -1.506
REMARK SMILES CCCCc1cccc(O)c1CCCC
REMARK SMILES IDX 5 1 11 2 9 3 8 4 7 5 6 6 4 7 3 8 2 9 1 10 12 11 13 12 14 13
REMARK SMILES IDX 15 14 10 15
REMARK H PARENT 10 16
REMARK Flexibility Score: inf
ROOT
ATOM      1  C   UNL     1      -4.872  84.817  -9.579  1.00  0.00    -0.041 A 
ATOM      2  C   UNL     1      -3.815  84.853  -8.626  1.00  0.00    -0.003 A 
ATOM      3  C   UNL     1      -3.167  83.649  -8.271  1.00  0.00     0.119 A 
ATOM      4  C   UNL     1      -3.590  82.433  -8.819  1.00  0.00     0.046 A 
ATOM      5  C   UNL     1      -4.648  82.397  -9.724  1.00  0.00     0.004 A 
ATOM      6  C   UNL     1      -5.285  83.578 -10.101  1.00  0.00     0.004 A 
ENDROOT
BRANCH   1   7
ATOM      7  C   UNL     1      -5.620  86.056 -10.023  1.00  0.00     0.036 C 
BRANCH   7   8
ATOM      8  C   UNL     1      -7.105  85.958  -9.642  1.00  0.00     0.004 C 
BRANCH   8   9
ATOM      9  C   UNL     1      -7.390  86.496  -8.232  1.00  0.00    -0.003 C 
ATOM     10  C   UNL     1      -7.580  85.383  -7.202  1.00  0.00     0.004 C 
ENDBRANCH   8   9
ENDBRANCH   7   8
ENDBRANCH   1   7
BRANCH   2  11
ATOM     11  C   UNL     1      -3.324  86.156  -8.024  1.00  0.00     0.040 C 
BRANCH  11  12
ATOM     12  C   UNL     1      -3.999  86.417  -6.673  1.00  0.00     0.005 C 
BRANCH  12  13
ATOM     13  C   UNL     1      -4.169  87.920  -6.424  1.00  0.00    -0.003 C 
ATOM     14  C   UNL     1      -4.340  88.680  -7.737  1.00  0.00     0.004 C 
ENDBRANCH  12  13
ENDBRANCH  11  12
ENDBRANCH   2  11
BRANCH   3  15
ATOM     15  O   UNL     1      -2.100  83.664  -7.373  1.00  0.00    -0.508 OA
ATOM     16  H   UNL     1      -1.154  83.874  -7.672  1.00  0.00     0.293 HD
ENDBRANCH   3  15
TORSDOF 7
ENDMDL
MODEL 4
REMARK VINA RESULT:    -3.677      1.832      4.651
REMARK INTER + INTRA:          -6.580
REMARK INTER:                  -5.515
REMARK INTRA:                  -1.065
REMARK UNBOUND:                -1.506
REMARK SMILES CCCCc1cccc(O)c1CCCC
REMARK SMILES IDX 5 1 11 2 9 3 8 4 7 5 6 6 4 7 3 8 2 9 1 10 12 11 13 12 14 13
REMARK SMILES IDX 15 14 10 15
REMARK H PARENT 10 16
REMARK Flexibility Score: inf
ROOT
ATOM      1  C   UNL     1      -4.916  85.446  -9.148  1.00  0.00    -0.041 A 
ATOM      2  C   UNL     1      -3.771  84.762  -8.654  1.00  0.00    -0.003 A 
ATOM      3  C   UNL     1      -2.978  85.376  -7.659  1.00  0.00     0.119 A 
ATOM      4  C   UNL     1      -3.295  86.660  -7.198  1.00  0.00     0.046 A 
ATOM      5  C   UNL     1      -4.397  87.340  -7.711  1.00  0.00     0.004 A 
ATOM      6  C   UNL     1      -5.200  86.740  -8.678  1.00  0.00     0.004 A 
ENDROOT
BRANCH   1   7
ATOM      7  C   UNL     1      -5.825  84.864 -10.210  1.00  0.00     0.036 C 
BRANCH   7   8
ATOM      8  C   UNL     1      -7.244  84.663  -9.658  1.00  0.00     0.004 C 
BRANCH   8   9
ATOM      9  C   UNL     1      -7.453  83.264  -9.061  1.00  0.00    -0.003 C 
ATOM     10  C   UNL     1      -7.450  83.266  -7.533  1.00  0.00     0.004 C 
ENDBRANCH   8   9
ENDBRANCH   7   8
ENDBRANCH   1   7
BRANCH   2  11
ATOM     11  C   UNL     1      -3.407  83.365  -9.122  1.00  0.00     0.040 C 
BRANCH  11  12
ATOM     12  C   UNL     1      -3.973  82.309  -8.166  1.00  0.00     0.005 C 
BRANCH  12  13
ATOM     13  C   UNL     1      -2.879  81.337  -7.711  1.00  0.00    -0.003 C 
ATOM     14  C   UNL     1      -3.070  80.938  -6.250  1.00  0.00     0.004 C 
ENDBRANCH  12  13
ENDBRANCH  11  12
ENDBRANCH   2  11
BRANCH   3  15
ATOM     15  O   UNL     1      -1.875  84.709  -7.126  1.00  0.00    -0.508 OA
ATOM     16  H   UNL     1      -1.972  83.828  -6.633  1.00  0.00     0.293 HD
ENDBRANCH   3  15
TORSDOF 7
ENDMDL
MODEL 5
REMARK VINA RESULT:    -3.646      2.897      4.683
REMARK INTER + INTRA:          -6.537
REMARK INTER:                  -5.472
REMARK INTRA:                  -1.065
REMARK UNBOUND:                -1.506
REMARK SMILES CCCCc1cccc(O)c1CCCC
REMARK SMILES IDX 5 1 11 2 9 3 8 4 7 5 6 6 4 7 3 8 2 9 1 10 12 11 13 12 14 13
REMARK SMILES IDX 15 14 10 15
REMARK H PARENT 10 16
REMARK Flexibility Score: inf
ROOT
ATOM      1  C   UNL     1      -4.248  86.144  -7.861  1.00  0.00    -0.041 A 
ATOM      2  C   UNL     1      -4.287  87.499  -7.427  1.00  0.00    -0.003 A 
ATOM      3  C   UNL     1      -3.113  88.088  -6.905  1.00  0.00     0.119 A 
ATOM      4  C   UNL     1      -1.942  87.332  -6.777  1.00  0.00     0.046 A 
ATOM      5  C   UNL     1      -1.919  85.996  -7.170  1.00  0.00     0.004 A 
ATOM      6  C   UNL     1      -3.061  85.406  -7.707  1.00  0.00     0.004 A 
ENDROOT
BRANCH   1   7
ATOM      7  C   UNL     1      -5.454  85.433  -8.438  1.00  0.00     0.036 C 
BRANCH   7   8
ATOM      8  C   UNL     1      -5.100  84.765  -9.775  1.00  0.00     0.004 C 
BRANCH   8   9
ATOM      9  C   UNL     1      -5.370  83.253  -9.770  1.00  0.00    -0.003 C 
ATOM     10  C   UNL     1      -4.086  82.424  -9.790  1.00  0.00     0.004 C 
ENDBRANCH   8   9
ENDBRANCH   7   8
ENDBRANCH   1   7
BRANCH   2  11
ATOM     11  C   UNL     1      -5.535  88.349  -7.563  1.00  0.00     0.040 C 
BRANCH  11  12
ATOM     12  C   UNL     1      -5.574  89.041  -8.931  1.00  0.00     0.005 C 
BRANCH  12  13
ATOM     13  C   UNL     1      -6.865  88.699  -9.683  1.00  0.00    -0.003 C 
ATOM     14  C   UNL     1      -6.564  87.974 -10.992  1.00  0.00     0.004 C 
ENDBRANCH  12  13
ENDBRANCH  11  12
ENDBRANCH   2  11
BRANCH   3  15
ATOM     15  O   UNL     1      -3.113  89.427  -6.513  1.00  0.00    -0.508 OA
ATOM     16  H   UNL     1      -2.288  89.868  -6.123  1.00  0.00     0.293 HD
ENDBRANCH   3  15
TORSDOF 7
ENDMDL
MODEL 6
REMARK VINA RESULT:    -3.570      8.890     11.512
REMARK INTER + INTRA:          -6.433
REMARK INTER:                  -5.159
REMARK INTRA:                  -1.273
REMARK UNBOUND:                -1.506
REMARK SMILES CCCCc1cccc(O)c1CCCC
REMARK SMILES IDX 5 1 11 2 9 3 8 4 7 5 6 6 4 7 3 8 2 9 1 10 12 11 13 12 14 13
REMARK SMILES IDX 15 14 10 15
REMARK H PARENT 10 16
REMARK Flexibility Score: inf
ROOT
ATOM      1  C   UNL     1      -5.750  91.896 -15.330  1.00  0.00    -0.041 A 
ATOM      2  C   UNL     1      -4.436  91.393 -15.118  1.00  0.00    -0.003 A 
ATOM      3  C   UNL     1      -4.268  90.183 -14.408  1.00  0.00     0.119 A 
ATOM      4  C   UNL     1      -5.380  89.513 -13.883  1.00  0.00     0.046 A 
ATOM      5  C   UNL     1      -6.661  90.028 -14.062  1.00  0.00     0.004 A 
ATOM      6  C   UNL     1      -6.846  91.209 -14.778  1.00  0.00     0.004 A 
ENDROOT
BRANCH   1   7
ATOM      7  C   UNL     1      -6.026  93.180 -16.082  1.00  0.00     0.036 C 
BRANCH   7   8
ATOM      8  C   UNL     1      -7.071  92.949 -17.184  1.00  0.00     0.004 C 
BRANCH   8   9
ATOM      9  C   UNL     1      -6.447  92.884 -18.585  1.00  0.00    -0.003 C 
ATOM     10  C   UNL     1      -6.000  91.473 -18.968  1.00  0.00     0.004 C 
ENDBRANCH   8   9
ENDBRANCH   7   8
ENDBRANCH   1   7
BRANCH   2  11
ATOM     11  C   UNL     1      -3.211  92.086 -15.684  1.00  0.00     0.040 C 
BRANCH  11  12
ATOM     12  C   UNL     1      -2.789  91.444 -17.010  1.00  0.00     0.005 C 
BRANCH  12  13
ATOM     13  C   UNL     1      -1.992  92.432 -17.871  1.00  0.00    -0.003 C 
ATOM     14  C   UNL     1      -2.891  93.541 -18.410  1.00  0.00     0.004 C 
ENDBRANCH  12  13
ENDBRANCH  11  12
ENDBRANCH   2  11
BRANCH   3  15
ATOM     15  O   UNL     1      -2.994  89.646 -14.225  1.00  0.00    -0.508 OA
ATOM     16  H   UNL     1      -2.734  89.167 -13.370  1.00  0.00     0.293 HD
ENDBRANCH   3  15
TORSDOF 7
ENDMDL
MODEL 7
REMARK VINA RESULT:    -3.570      8.897     11.470
REMARK INTER + INTRA:          -6.433
REMARK INTER:                  -5.318
REMARK INTRA:                  -1.114
REMARK UNBOUND:                -1.506
REMARK SMILES CCCCc1cccc(O)c1CCCC
REMARK SMILES IDX 5 1 11 2 9 3 8 4 7 5 6 6 4 7 3 8 2 9 1 10 12 11 13 12 14 13
REMARK SMILES IDX 15 14 10 15
REMARK H PARENT 10 16
REMARK Flexibility Score: inf
ROOT
ATOM      1  C   UNL     1      -4.657  91.403 -17.550  1.00  0.00    -0.041 A 
ATOM      2  C   UNL     1      -4.445  90.725 -16.317  1.00  0.00    -0.003 A 
ATOM      3  C   UNL     1      -3.155  90.729 -15.741  1.00  0.00     0.119 A 
ATOM      4  C   UNL     1      -2.091  91.357 -16.400  1.00  0.00     0.046 A 
ATOM      5  C   UNL     1      -2.296  91.989 -17.624  1.00  0.00     0.004 A 
ATOM      6  C   UNL     1      -3.566  92.011 -18.195  1.00  0.00     0.004 A 
ENDROOT
BRANCH   1   7
ATOM      7  C   UNL     1      -6.005  91.454 -18.237  1.00  0.00     0.036 C 
BRANCH   7   8
ATOM      8  C   UNL     1      -6.475  92.908 -18.398  1.00  0.00     0.004 C 
BRANCH   8   9
ATOM      9  C   UNL     1      -7.135  93.459 -17.125  1.00  0.00    -0.003 C 
ATOM     10  C   UNL     1      -6.236  94.436 -16.369  1.00  0.00     0.004 C 
ENDBRANCH   8   9
ENDBRANCH   7   8
ENDBRANCH   1   7
BRANCH   2  11
ATOM     11  C   UNL     1      -5.578  90.046 -15.570  1.00  0.00     0.040 C 
BRANCH  11  12
ATOM     12  C   UNL     1      -6.267  91.031 -14.619  1.00  0.00     0.005 C 
BRANCH  12  13
ATOM     13  C   UNL     1      -7.551  90.426 -14.037  1.00  0.00    -0.003 C 
ATOM     14  C   UNL     1      -7.494  88.901 -14.045  1.00  0.00     0.004 C 
ENDBRANCH  12  13
ENDBRANCH  11  12
ENDBRANCH   2  11
BRANCH   3  15
ATOM     15  O   UNL     1      -2.931  90.110 -14.511  1.00  0.00    -0.508 OA
ATOM     16  H   UNL     1      -3.619  89.497 -14.089  1.00  0.00     0.293 HD
ENDBRANCH   3  15
TORSDOF 7
ENDMDL
MODEL 8
REMARK VINA RESULT:    -3.505      2.328      3.923
REMARK INTER + INTRA:          -6.343
REMARK INTER:                  -5.506
REMARK INTRA:                  -0.837
REMARK UNBOUND:                -1.506
REMARK SMILES CCCCc1cccc(O)c1CCCC
REMARK SMILES IDX 5 1 11 2 9 3 8 4 7 5 6 6 4 7 3 8 2 9 1 10 12 11 13 12 14 13
REMARK SMILES IDX 15 14 10 15
REMARK H PARENT 10 16
REMARK Flexibility Score: inf
ROOT
ATOM      1  C   UNL     1      -5.171  86.791  -8.481  1.00  0.00    -0.041 A 
ATOM      2  C   UNL     1      -4.696  85.572  -9.041  1.00  0.00    -0.003 A 
ATOM      3  C   UNL     1      -3.445  85.064  -8.625  1.00  0.00     0.119 A 
ATOM      4  C   UNL     1      -2.666  85.776  -7.705  1.00  0.00     0.046 A 
ATOM      5  C   UNL     1      -3.118  86.986  -7.186  1.00  0.00     0.004 A 
ATOM      6  C   UNL     1      -4.359  87.491  -7.571  1.00  0.00     0.004 A 
ENDROOT
BRANCH   1   7
ATOM      7  C   UNL     1      -6.499  87.407  -8.863  1.00  0.00     0.036 C 
BRANCH   7   8
ATOM      8  C   UNL     1      -6.308  88.476  -9.950  1.00  0.00     0.004 C 
BRANCH   8   9
ATOM      9  C   UNL     1      -6.861  88.037 -11.313  1.00  0.00    -0.003 C 
ATOM     10  C   UNL     1      -6.500  89.008 -12.437  1.00  0.00     0.004 C 
ENDBRANCH   8   9
ENDBRANCH   7   8
ENDBRANCH   1   7
BRANCH   2  11
ATOM     11  C   UNL     1      -5.521  84.769 -10.029  1.00  0.00     0.040 C 
BRANCH  11  12
ATOM     12  C   UNL     1      -6.416  83.763  -9.297  1.00  0.00     0.005 C 
BRANCH  12  13
ATOM     13  C   UNL     1      -7.889  83.965  -9.671  1.00  0.00    -0.003 C 
ATOM     14  C   UNL     1      -8.726  82.747  -9.290  1.00  0.00     0.004 C 
ENDBRANCH  12  13
ENDBRANCH  11  12
ENDBRANCH   2  11
BRANCH   3  15
ATOM     15  O   UNL     1      -2.977  83.849  -9.126  1.00  0.00    -0.508 OA
ATOM     16  H   UNL     1      -3.174  83.551 -10.074  1.00  0.00     0.293 HD
ENDBRANCH   3  15
TORSDOF 7
ENDMDL
MODEL 9
REMARK VINA RESULT:    -3.459      9.410     11.796
REMARK INTER + INTRA:          -6.279
REMARK INTER:                  -5.028
REMARK INTRA:                  -1.251
REMARK UNBOUND:                -1.506
REMARK SMILES CCCCc1cccc(O)c1CCCC
REMARK SMILES IDX 5 1 11 2 9 3 8 4 7 5 6 6 4 7 3 8 2 9 1 10 12 11 13 12 14 13
REMARK SMILES IDX 15 14 10 15
REMARK H PARENT 10 16
REMARK Flexibility Score: inf
ROOT
ATOM      1  C   UNL     1      -3.775  91.949 -16.783  1.00  0.00    -0.041 A 
ATOM      2  C   UNL     1      -4.984  91.822 -17.523  1.00  0.00    -0.003 A 
ATOM      3  C   UNL     1      -4.925  91.764 -18.934  1.00  0.00     0.119 A 
ATOM      4  C   UNL     1      -3.695  91.873 -19.593  1.00  0.00     0.046 A 
ATOM      5  C   UNL     1      -2.518  92.032 -18.866  1.00  0.00     0.004 A 
ATOM      6  C   UNL     1      -2.556  92.072 -17.474  1.00  0.00     0.004 A 
ENDROOT
BRANCH   1   7
ATOM      7  C   UNL     1      -3.742  92.015 -15.271  1.00  0.00     0.036 C 
BRANCH   7   8
ATOM      8  C   UNL     1      -3.598  90.608 -14.671  1.00  0.00     0.004 C 
BRANCH   8   9
ATOM      9  C   UNL     1      -4.712  90.278 -13.667  1.00  0.00    -0.003 C 
ATOM     10  C   UNL     1      -5.638  89.165 -14.156  1.00  0.00     0.004 C 
ENDBRANCH   8   9
ENDBRANCH   7   8
ENDBRANCH   1   7
BRANCH   2  11
ATOM     11  C   UNL     1      -6.332  91.688 -16.840  1.00  0.00     0.040 C 
BRANCH  11  12
ATOM     12  C   UNL     1      -6.987  93.062 -16.659  1.00  0.00     0.005 C 
BRANCH  12  13
ATOM     13  C   UNL     1      -7.281  93.340 -15.180  1.00  0.00    -0.003 C 
ATOM     14  C   UNL     1      -7.883  92.114 -14.499  1.00  0.00     0.004 C 
ENDBRANCH  12  13
ENDBRANCH  11  12
ENDBRANCH   2  11
BRANCH   3  15
ATOM     15  O   UNL     1      -6.091  91.595 -19.680  1.00  0.00    -0.508 OA
ATOM     16  H   UNL     1      -6.082  91.608 -20.694  1.00  0.00     0.293 HD
ENDBRANCH   3  15
TORSDOF 7
ENDMDL
