MODEL 1
REMARK VINA RESULT:     8.688      0.000      0.000
REMARK INTER + INTRA:           8.688
REMARK INTER:                   8.688
REMARK INTRA:                   0.000
REMARK UNBOUND:                 0.000
REMARK SMILES C=C1CCCC(C)(C)[C@]12CC=C(C)CC2
REMARK SMILES IDX 13 1 12 2 11 3 10 4 9 5 15 6 14 7 2 8 1 9 3 10 4 11 5 12
REMARK SMILES IDX 6 13 7 14 8 15
REMARK H PARENT
REMARK Flexibility Score: inf
ROOT
ATOM      1  C   UNL     1     -14.630  -1.315  22.107  1.00  0.00     0.039 C 
ATOM      2  C   UNL     1     -14.537  -2.028  20.787  1.00  0.00    -0.077 C 
ATOM      3  C   UNL     1     -13.571  -1.708  19.917  1.00  0.00    -0.027 C 
ATOM      4  C   UNL     1     -13.559  -2.356  18.565  1.00  0.00     0.039 C 
ATOM      5  C   UNL     1     -14.986  -2.365  17.908  1.00  0.00    -0.000 C 
ATOM      6  C   UNL     1     -15.994  -3.023  18.944  1.00  0.00     0.017 C 
ATOM      7  C   UNL     1     -15.517  -3.113  20.415  1.00  0.00     0.031 C 
ATOM      8  C   UNL     1     -15.001  -3.250  16.632  1.00  0.00    -0.070 C 
ATOM      9  C   UNL     1     -13.920  -3.880  16.122  1.00  0.00     0.008 C 
ATOM     10  C   UNL     1     -16.300  -3.327  15.858  1.00  0.00     0.031 C 
ATOM     11  C   UNL     1     -16.712  -1.929  15.416  1.00  0.00     0.005 C 
ATOM     12  C   UNL     1     -16.787  -0.971  16.611  1.00  0.00     0.008 C 
ATOM     13  C   UNL     1     -15.462  -0.894  17.446  1.00  0.00    -0.026 C 
ATOM     14  C   UNL     1     -14.380  -0.206  16.566  1.00  0.00     0.012 C 
ATOM     15  C   UNL     1     -15.748   0.071  18.631  1.00  0.00     0.012 C 
ENDROOT
TORSDOF 0
ENDMDL
