MODEL 1
REMARK VINA RESULT:    -4.016      0.000      0.000
REMARK INTER + INTRA:          -6.012
REMARK INTER:                  -5.659
REMARK INTRA:                  -0.353
REMARK UNBOUND:                -0.353
REMARK SMILES C=CCCCCCCC(=O)[O-]
REMARK SMILES IDX 6 1 7 2 8 3 9 4 10 5 11 6 5 7 4 8 3 9 2 10 1 11
REMARK H PARENT
REMARK Flexibility Score: inf
ROOT
ATOM      1  C   UNL     1      45.936  27.555   7.005  1.00  0.00     0.000 C 
ENDROOT
BRANCH   1   2
ATOM      2  C   UNL     1      46.400  26.963   5.666  1.00  0.00     0.006 C 
BRANCH   2   3
ATOM      3  C   UNL     1      45.600  27.515   4.480  1.00  0.00     0.053 C 
BRANCH   3   4
ATOM      4  C   UNL     1      45.013  26.417   3.645  1.00  0.00     0.041 C 
ATOM      5  O   UNL     1      45.261  25.213   3.918  1.00  0.00    -0.550 OA
ATOM      6  O   UNL     1      44.166  26.723   2.588  1.00  0.00    -0.550 OA
ENDBRANCH   3   4
ENDBRANCH   2   3
ENDBRANCH   1   2
BRANCH   1   7
ATOM      7  C   UNL     1      46.195  26.578   8.158  1.00  0.00     0.000 C 
BRANCH   7   8
ATOM      8  C   UNL     1      45.179  26.777   9.289  1.00  0.00     0.004 C 
BRANCH   8   9
ATOM      9  C   UNL     1      45.583  27.950  10.190  1.00  0.00     0.027 C 
BRANCH   9  10
ATOM     10  C   UNL     1      44.544  29.037  10.169  1.00  0.00    -0.035 C 
ATOM     11  C   UNL     1      44.678  30.124   9.404  1.00  0.00     0.004 C 
ENDBRANCH   9  10
ENDBRANCH   8   9
ENDBRANCH   7   8
ENDBRANCH   1   7
TORSDOF 7
ENDMDL
MODEL 2
REMARK VINA RESULT:    -3.967      0.239      1.005
REMARK INTER + INTRA:          -5.942
REMARK INTER:                  -5.589
REMARK INTRA:                  -0.353
REMARK UNBOUND:                -0.353
REMARK SMILES C=CCCCCCCC(=O)[O-]
REMARK SMILES IDX 6 1 7 2 8 3 9 4 10 5 11 6 5 7 4 8 3 9 2 10 1 11
REMARK H PARENT
REMARK Flexibility Score: inf
ROOT
ATOM      1  C   UNL     1      45.906  27.696   6.774  1.00  0.00     0.000 C 
ENDROOT
BRANCH   1   2
ATOM      2  C   UNL     1      46.417  27.200   5.414  1.00  0.00     0.006 C 
BRANCH   2   3
ATOM      3  C   UNL     1      45.503  27.627   4.259  1.00  0.00     0.053 C 
BRANCH   3   4
ATOM      4  C   UNL     1      44.887  26.447   3.570  1.00  0.00     0.041 C 
ATOM      5  O   UNL     1      44.033  26.619   2.662  1.00  0.00    -0.550 OA
ATOM      6  O   UNL     1      45.283  25.159   3.909  1.00  0.00    -0.550 OA
ENDBRANCH   3   4
ENDBRANCH   2   3
ENDBRANCH   1   2
BRANCH   1   7
ATOM      7  C   UNL     1      46.300  26.728   7.896  1.00  0.00     0.000 C 
BRANCH   7   8
ATOM      8  C   UNL     1      45.251  26.725   9.015  1.00  0.00     0.004 C 
BRANCH   8   9
ATOM      9  C   UNL     1      45.606  27.745  10.104  1.00  0.00     0.027 C 
BRANCH   9  10
ATOM     10  C   UNL     1      44.590  28.852  10.166  1.00  0.00    -0.035 C 
ATOM     11  C   UNL     1      44.692  29.945   9.407  1.00  0.00     0.004 C 
ENDBRANCH   9  10
ENDBRANCH   8   9
ENDBRANCH   7   8
ENDBRANCH   1   7
TORSDOF 7
ENDMDL
MODEL 3
REMARK VINA RESULT:    -3.892      1.374      2.034
REMARK INTER + INTRA:          -5.837
REMARK INTER:                  -5.469
REMARK INTRA:                  -0.368
REMARK UNBOUND:                -0.353
REMARK SMILES C=CCCCCCCC(=O)[O-]
REMARK SMILES IDX 6 1 7 2 8 3 9 4 10 5 11 6 5 7 4 8 3 9 2 10 1 11
REMARK H PARENT
REMARK Flexibility Score: inf
ROOT
ATOM      1  C   UNL     1      45.970  26.810   5.872  1.00  0.00     0.000 C 
ENDROOT
BRANCH   1   2
ATOM      2  C   UNL     1      46.117  26.518   4.372  1.00  0.00     0.006 C 
BRANCH   2   3
ATOM      3  C   UNL     1      44.759  26.368   3.674  1.00  0.00     0.053 C 
BRANCH   3   4
ATOM      4  C   UNL     1      44.575  27.387   2.591  1.00  0.00     0.041 C 
ATOM      5  O   UNL     1      44.108  28.524   2.865  1.00  0.00    -0.550 OA
ATOM      6  O   UNL     1      44.950  27.092   1.286  1.00  0.00    -0.550 OA
ENDBRANCH   3   4
ENDBRANCH   2   3
ENDBRANCH   1   2
BRANCH   1   7
ATOM      7  C   UNL     1      46.100  28.311   6.155  1.00  0.00     0.000 C 
BRANCH   7   8
ATOM      8  C   UNL     1      45.584  28.655   7.558  1.00  0.00     0.004 C 
BRANCH   8   9
ATOM      9  C   UNL     1      45.581  27.416   8.462  1.00  0.00     0.027 C 
BRANCH   9  10
ATOM     10  C   UNL     1      44.970  27.721   9.801  1.00  0.00    -0.035 C 
ATOM     11  C   UNL     1      44.592  28.958  10.138  1.00  0.00     0.004 C 
ENDBRANCH   9  10
ENDBRANCH   8   9
ENDBRANCH   7   8
ENDBRANCH   1   7
TORSDOF 7
ENDMDL
MODEL 4
REMARK VINA RESULT:    -3.837      3.259      5.523
REMARK INTER + INTRA:          -5.759
REMARK INTER:                  -5.200
REMARK INTRA:                  -0.560
REMARK UNBOUND:                -0.353
REMARK SMILES C=CCCCCCCC(=O)[O-]
REMARK SMILES IDX 6 1 7 2 8 3 9 4 10 5 11 6 5 7 4 8 3 9 2 10 1 11
REMARK H PARENT
REMARK Flexibility Score: inf
ROOT
ATOM      1  C   UNL     1      46.471  28.014   5.804  1.00  0.00     0.000 C 
ENDROOT
BRANCH   1   2
ATOM      2  C   UNL     1      45.791  28.086   7.178  1.00  0.00     0.006 C 
BRANCH   2   3
ATOM      3  C   UNL     1      45.760  26.724   7.883  1.00  0.00     0.053 C 
BRANCH   3   4
ATOM      4  C   UNL     1      45.466  26.861   9.346  1.00  0.00     0.041 C 
ATOM      5  O   UNL     1      45.879  25.992  10.158  1.00  0.00    -0.550 OA
ATOM      6  O   UNL     1      44.766  27.965   9.815  1.00  0.00    -0.550 OA
ENDBRANCH   3   4
ENDBRANCH   2   3
ENDBRANCH   1   2
BRANCH   1   7
ATOM      7  C   UNL     1      46.918  26.583   5.485  1.00  0.00     0.000 C 
BRANCH   7   8
ATOM      8  C   UNL     1      46.422  26.145   4.101  1.00  0.00     0.004 C 
BRANCH   8   9
ATOM      9  C   UNL     1      44.899  25.971   4.093  1.00  0.00     0.027 C 
BRANCH   9  10
ATOM     10  C   UNL     1      44.257  26.845   3.051  1.00  0.00    -0.035 C 
ATOM     11  C   UNL     1      44.975  27.670   2.284  1.00  0.00     0.004 C 
ENDBRANCH   9  10
ENDBRANCH   8   9
ENDBRANCH   7   8
ENDBRANCH   1   7
TORSDOF 7
ENDMDL
MODEL 5
REMARK VINA RESULT:    -3.834      1.873      3.321
REMARK INTER + INTRA:          -5.756
REMARK INTER:                  -5.499
REMARK INTRA:                  -0.258
REMARK UNBOUND:                -0.353
REMARK SMILES C=CCCCCCCC(=O)[O-]
REMARK SMILES IDX 6 1 7 2 8 3 9 4 10 5 11 6 5 7 4 8 3 9 2 10 1 11
REMARK H PARENT
REMARK Flexibility Score: inf
ROOT
ATOM      1  C   UNL     1      44.889  26.308   3.874  1.00  0.00     0.000 C 
ENDROOT
BRANCH   1   2
ATOM      2  C   UNL     1      44.065  27.092   2.843  1.00  0.00     0.006 C 
BRANCH   2   3
ATOM      3  C   UNL     1      44.838  28.285   2.267  1.00  0.00     0.053 C 
BRANCH   3   4
ATOM      4  C   UNL     1      45.634  27.900   1.057  1.00  0.00     0.041 C 
ATOM      5  O   UNL     1      45.137  27.134   0.189  1.00  0.00    -0.550 OA
ATOM      6  O   UNL     1      46.911  28.415   0.871  1.00  0.00    -0.550 OA
ENDBRANCH   3   4
ENDBRANCH   2   3
ENDBRANCH   1   2
BRANCH   1   7
ATOM      7  C   UNL     1      45.744  27.252   4.728  1.00  0.00     0.000 C 
BRANCH   7   8
ATOM      8  C   UNL     1      46.107  26.606   6.070  1.00  0.00     0.004 C 
BRANCH   8   9
ATOM      9  C   UNL     1      45.818  27.559   7.236  1.00  0.00     0.027 C 
BRANCH   9  10
ATOM     10  C   UNL     1      45.611  26.803   8.519  1.00  0.00    -0.035 C 
ATOM     11  C   UNL     1      45.147  27.400   9.620  1.00  0.00     0.004 C 
ENDBRANCH   9  10
ENDBRANCH   8   9
ENDBRANCH   7   8
ENDBRANCH   1   7
TORSDOF 7
ENDMDL
MODEL 6
REMARK VINA RESULT:    -3.682      0.984      1.878
REMARK INTER + INTRA:          -5.541
REMARK INTER:                  -5.116
REMARK INTRA:                  -0.425
REMARK UNBOUND:                -0.353
REMARK SMILES C=CCCCCCCC(=O)[O-]
REMARK SMILES IDX 6 1 7 2 8 3 9 4 10 5 11 6 5 7 4 8 3 9 2 10 1 11
REMARK H PARENT
REMARK Flexibility Score: inf
ROOT
ATOM      1  C   UNL     1      46.709  28.574   6.241  1.00  0.00     0.000 C 
ENDROOT
BRANCH   1   2
ATOM      2  C   UNL     1      46.028  27.356   5.601  1.00  0.00     0.006 C 
BRANCH   2   3
ATOM      3  C   UNL     1      45.596  27.625   4.154  1.00  0.00     0.053 C 
BRANCH   3   4
ATOM      4  C   UNL     1      44.918  26.436   3.545  1.00  0.00     0.041 C 
ATOM      5  O   UNL     1      45.219  25.273   3.923  1.00  0.00    -0.550 OA
ATOM      6  O   UNL     1      43.930  26.613   2.584  1.00  0.00    -0.550 OA
ENDBRANCH   3   4
ENDBRANCH   2   3
ENDBRANCH   1   2
BRANCH   1   7
ATOM      7  C   UNL     1      45.679  29.491   6.911  1.00  0.00     0.000 C 
BRANCH   7   8
ATOM      8  C   UNL     1      45.977  29.656   8.406  1.00  0.00     0.004 C 
BRANCH   8   9
ATOM      9  C   UNL     1      44.771  29.238   9.256  1.00  0.00     0.027 C 
BRANCH   9  10
ATOM     10  C   UNL     1      45.021  27.927   9.948  1.00  0.00    -0.035 C 
ATOM     11  C   UNL     1      45.295  26.812   9.265  1.00  0.00     0.004 C 
ENDBRANCH   9  10
ENDBRANCH   8   9
ENDBRANCH   7   8
ENDBRANCH   1   7
TORSDOF 7
ENDMDL
MODEL 7
REMARK VINA RESULT:    -3.307      5.377      7.727
REMARK INTER + INTRA:          -5.013
REMARK INTER:                  -4.752
REMARK INTRA:                  -0.261
REMARK UNBOUND:                -0.353
REMARK SMILES C=CCCCCCCC(=O)[O-]
REMARK SMILES IDX 6 1 7 2 8 3 9 4 10 5 11 6 5 7 4 8 3 9 2 10 1 11
REMARK H PARENT
REMARK Flexibility Score: inf
ROOT
ATOM      1  C   UNL     1      45.371  28.688  -0.965  1.00  0.00     0.000 C 
ENDROOT
BRANCH   1   2
ATOM      2  C   UNL     1      45.255  27.802  -2.213  1.00  0.00     0.006 C 
BRANCH   2   3
ATOM      3  C   UNL     1      44.437  28.469  -3.326  1.00  0.00     0.053 C 
BRANCH   3   4
ATOM      4  C   UNL     1      43.247  27.645  -3.714  1.00  0.00     0.041 C 
ATOM      5  O   UNL     1      43.287  26.390  -3.612  1.00  0.00    -0.550 OA
ATOM      6  O   UNL     1      42.085  28.265  -4.157  1.00  0.00    -0.550 OA
ENDBRANCH   3   4
ENDBRANCH   2   3
ENDBRANCH   1   2
BRANCH   1   7
ATOM      7  C   UNL     1      45.404  27.840   0.311  1.00  0.00     0.000 C 
BRANCH   7   8
ATOM      8  C   UNL     1      45.723  28.702   1.539  1.00  0.00     0.004 C 
BRANCH   8   9
ATOM      9  C   UNL     1      44.608  28.602   2.586  1.00  0.00     0.027 C 
BRANCH   9  10
ATOM     10  C   UNL     1      44.188  27.174   2.800  1.00  0.00    -0.035 C 
ATOM     11  C   UNL     1      44.787  26.393   3.703  1.00  0.00     0.004 C 
ENDBRANCH   9  10
ENDBRANCH   8   9
ENDBRANCH   7   8
ENDBRANCH   1   7
TORSDOF 7
ENDMDL
MODEL 8
REMARK VINA RESULT:    -3.264      9.169     12.067
REMARK INTER + INTRA:          -4.952
REMARK INTER:                  -4.268
REMARK INTRA:                  -0.684
REMARK UNBOUND:                -0.353
REMARK SMILES C=CCCCCCCC(=O)[O-]
REMARK SMILES IDX 6 1 7 2 8 3 9 4 10 5 11 6 5 7 4 8 3 9 2 10 1 11
REMARK H PARENT
REMARK Flexibility Score: inf
ROOT
ATOM      1  C   UNL     1      42.989  29.527  -3.386  1.00  0.00     0.000 C 
ENDROOT
BRANCH   1   2
ATOM      2  C   UNL     1      44.394  29.398  -2.781  1.00  0.00     0.006 C 
BRANCH   2   3
ATOM      3  C   UNL     1      45.058  28.062  -3.134  1.00  0.00     0.053 C 
BRANCH   3   4
ATOM      4  C   UNL     1      45.846  27.511  -1.985  1.00  0.00     0.041 C 
ATOM      5  O   UNL     1      47.034  27.129  -2.157  1.00  0.00    -0.550 OA
ATOM      6  O   UNL     1      45.280  27.451  -0.718  1.00  0.00    -0.550 OA
ENDBRANCH   3   4
ENDBRANCH   2   3
ENDBRANCH   1   2
BRANCH   1   7
ATOM      7  C   UNL     1      42.635  28.293  -4.225  1.00  0.00     0.000 C 
BRANCH   7   8
ATOM      8  C   UNL     1      42.106  28.698  -5.606  1.00  0.00     0.004 C 
BRANCH   8   9
ATOM      9  C   UNL     1      43.260  29.016  -6.565  1.00  0.00     0.027 C 
BRANCH   9  10
ATOM     10  C   UNL     1      44.078  27.789  -6.859  1.00  0.00    -0.035 C 
ATOM     11  C   UNL     1      45.412  27.801  -6.797  1.00  0.00     0.004 C 
ENDBRANCH   9  10
ENDBRANCH   8   9
ENDBRANCH   7   8
ENDBRANCH   1   7
TORSDOF 7
ENDMDL
MODEL 9
REMARK VINA RESULT:    -3.239      4.804      6.516
REMARK INTER + INTRA:          -4.917
REMARK INTER:                  -4.542
REMARK INTRA:                  -0.375
REMARK UNBOUND:                -0.353
REMARK SMILES C=CCCCCCCC(=O)[O-]
REMARK SMILES IDX 6 1 7 2 8 3 9 4 10 5 11 6 5 7 4 8 3 9 2 10 1 11
REMARK H PARENT
REMARK Flexibility Score: inf
ROOT
ATOM      1  C   UNL     1      45.523  27.981   0.761  1.00  0.00     0.000 C 
ENDROOT
BRANCH   1   2
ATOM      2  C   UNL     1      46.093  28.894  -0.333  1.00  0.00     0.006 C 
BRANCH   2   3
ATOM      3  C   UNL     1      45.236  28.882  -1.605  1.00  0.00     0.053 C 
BRANCH   3   4
ATOM      4  C   UNL     1      45.490  27.661  -2.436  1.00  0.00     0.041 C 
ATOM      5  O   UNL     1      46.627  27.120  -2.434  1.00  0.00    -0.550 OA
ATOM      6  O   UNL     1      44.461  27.103  -3.184  1.00  0.00    -0.550 OA
ENDBRANCH   3   4
ENDBRANCH   2   3
ENDBRANCH   1   2
BRANCH   1   7
ATOM      7  C   UNL     1      45.521  28.687   2.122  1.00  0.00     0.000 C 
BRANCH   7   8
ATOM      8  C   UNL     1      44.319  28.250   2.969  1.00  0.00     0.004 C 
BRANCH   8   9
ATOM      9  C   UNL     1      44.326  26.732   3.192  1.00  0.00     0.027 C 
BRANCH   9  10
ATOM     10  C   UNL     1      45.283  26.347   4.286  1.00  0.00    -0.035 C 
ATOM     11  C   UNL     1      46.350  25.579   4.051  1.00  0.00     0.004 C 
ENDBRANCH   9  10
ENDBRANCH   8   9
ENDBRANCH   7   8
ENDBRANCH   1   7
TORSDOF 7
ENDMDL
