MODEL 1
REMARK VINA RESULT:    15.305      0.000      0.000
REMARK INTER + INTRA:          24.211
REMARK INTER:                  20.673
REMARK INTRA:                   3.537
REMARK UNBOUND:                 3.537
REMARK SMILES O=c1c(-c2ccc(O)cc2)coc2c([C@@H]3O[C@H](CO)[C@@H](O)[C@H](O)[C@@H]3O)c(O)ccc12
REMARK SMILES IDX 3 1 11 2 12 3 13 4 30 5 2 6 1 7 29 8 28 9 26 10 14 11 4 12
REMARK SMILES IDX 5 13 6 14 7 15 10 16 9 17 8 18 15 20 24 21 16 22 22 23 17 24
REMARK SMILES IDX 20 25 25 26 23 28 18 30 19 31 21 33 27 35
REMARK H PARENT 8 19 25 27 23 29 19 32 21 34 27 36
REMARK Flexibility Score: inf
ROOT
ATOM      1  C   UNL     1      20.014   6.445   6.041  1.00  0.00     0.065 A 
ATOM      2  C   UNL     1      19.444   5.176   6.186  1.00  0.00     0.208 A 
ATOM      3  O   UNL     1      20.164   4.078   5.988  1.00  0.00    -0.463 OA
ATOM      4  C   UNL     1      21.445   4.087   5.652  1.00  0.00     0.147 A 
ATOM      5  C   UNL     1      22.100   5.333   5.477  1.00  0.00     0.066 A 
ATOM      6  C   UNL     1      21.366   6.520   5.668  1.00  0.00     0.200 A 
ATOM      7  O   UNL     1      21.913   7.644   5.490  1.00  0.00    -0.288 OA
ATOM      8  C   UNL     1      23.450   5.367   5.109  1.00  0.00     0.020 A 
ATOM      9  C   UNL     1      24.152   4.185   4.915  1.00  0.00     0.047 A 
ATOM     10  C   UNL     1      23.524   2.947   5.085  1.00  0.00     0.125 A 
ATOM     11  C   UNL     1      22.158   2.869   5.463  1.00  0.00     0.069 A 
ENDROOT
BRANCH   1  12
ATOM     12  C   UNL     1      19.187   7.658   6.263  1.00  0.00    -0.011 A 
ATOM     13  C   UNL     1      17.782   7.581   6.267  1.00  0.00     0.013 A 
ATOM     14  C   UNL     1      17.011   8.731   6.462  1.00  0.00     0.047 A 
ATOM     15  C   UNL     1      17.633   9.973   6.651  1.00  0.00     0.115 A 
ATOM     16  C   UNL     1      19.802   8.908   6.454  1.00  0.00     0.013 A 
ATOM     17  C   UNL     1      19.028  10.056   6.645  1.00  0.00     0.047 A 
BRANCH  15  18
ATOM     18  O   UNL     1      16.875  11.125   6.847  1.00  0.00    -0.508 OA
ATOM     19  H   UNL     1      17.161  11.841   7.504  1.00  0.00     0.293 HD
ENDBRANCH  15  18
ENDBRANCH   1  12
BRANCH  11  20
ATOM     20  C   UNL     1      21.567   1.452   5.610  1.00  0.00     0.188 C 
ATOM     21  C   UNL     1      22.450   0.159   5.632  1.00  0.00     0.179 C 
ATOM     22  O   UNL     1      20.486   1.440   6.536  1.00  0.00    -0.362 OA
ATOM     23  C   UNL     1      22.755  -0.396   7.038  1.00  0.00     0.177 C 
ATOM     24  C   UNL     1      20.835   1.078   7.864  1.00  0.00     0.176 C 
ATOM     25  C   UNL     1      21.526  -0.303   7.949  1.00  0.00     0.177 C 
BRANCH  21  26
ATOM     26  O   UNL     1      23.625   0.298   4.877  1.00  0.00    -0.387 OA
ATOM     27  H   UNL     1      23.416   0.918   4.129  1.00  0.00     0.211 HD
ENDBRANCH  21  26
BRANCH  23  28
ATOM     28  O   UNL     1      23.832   0.267   7.642  1.00  0.00    -0.387 OA
ATOM     29  H   UNL     1      23.494   0.681   8.480  1.00  0.00     0.211 HD
ENDBRANCH  23  28
BRANCH  24  30
ATOM     30  C   UNL     1      21.580   2.195   8.624  1.00  0.00     0.191 C 
BRANCH  30  31
ATOM     31  O   UNL     1      20.749   3.312   8.794  1.00  0.00    -0.394 OA
ATOM     32  H   UNL     1      21.040   3.763   9.627  1.00  0.00     0.210 HD
ENDBRANCH  30  31
ENDBRANCH  24  30
BRANCH  25  33
ATOM     33  O   UNL     1      20.615  -1.338   7.656  1.00  0.00    -0.388 OA
ATOM     34  H   UNL     1      20.293  -1.719   8.512  1.00  0.00     0.211 HD
ENDBRANCH  25  33
ENDBRANCH  11  20
BRANCH  10  35
ATOM     35  O   UNL     1      24.263   1.781   4.875  1.00  0.00    -0.507 OA
ATOM     36  H   UNL     1      23.845   0.946   4.485  1.00  0.00     0.293 HD
ENDBRANCH  10  35
TORSDOF 9
ENDMDL
