MODEL 1
REMARK VINA RESULT:    -6.061      0.000      0.000
REMARK INTER + INTRA:          -6.512
REMARK INTER:                  -6.415
REMARK INTRA:                  -0.097
REMARK UNBOUND:                -0.097
REMARK SMILES C=C(C)[C@@H]1CC=C(C)C(=O)C1
REMARK SMILES IDX 8 1 7 2 6 3 5 4 4 5 11 6 9 7 10 8 2 9 1 10 3 11
REMARK H PARENT
REMARK Flexibility Score: inf
ROOT
ATOM      1  C   UNL     1      34.921  20.120  15.539  1.00  0.00     0.048 C 
ATOM      2  C   UNL     1      34.289  20.451  16.863  1.00  0.00    -0.012 C 
ATOM      3  C   UNL     1      34.873  21.344  17.679  1.00  0.00    -0.019 C 
ATOM      4  C   UNL     1      34.274  21.726  19.007  1.00  0.00     0.036 C 
ATOM      5  C   UNL     1      33.522  20.539  19.636  1.00  0.00     0.025 C 
ATOM      6  C   UNL     1      32.467  19.992  18.656  1.00  0.00     0.089 C 
ATOM      7  C   UNL     1      33.090  19.701  17.319  1.00  0.00     0.158 C 
ATOM      8  O   UNL     1      32.560  18.839  16.568  1.00  0.00    -0.295 OA
ENDROOT
BRANCH   5   9
ATOM      9  C   UNL     1      32.895  20.920  20.970  1.00  0.00    -0.077 C 
ATOM     10  C   UNL     1      32.092  20.055  21.609  1.00  0.00     0.008 C 
ATOM     11  C   UNL     1      33.153  22.265  21.604  1.00  0.00     0.039 C 
ENDBRANCH   5   9
TORSDOF 1
ENDMDL
MODEL 2
REMARK VINA RESULT:    -5.976      2.026      4.618
REMARK INTER + INTRA:          -6.422
REMARK INTER:                  -6.324
REMARK INTRA:                  -0.099
REMARK UNBOUND:                -0.097
REMARK SMILES C=C(C)[C@@H]1CC=C(C)C(=O)C1
REMARK SMILES IDX 8 1 7 2 6 3 5 4 4 5 11 6 9 7 10 8 2 9 1 10 3 11
REMARK H PARENT
REMARK Flexibility Score: inf
ROOT
ATOM      1  C   UNL     1      33.272  21.406  21.129  1.00  0.00     0.048 C 
ATOM      2  C   UNL     1      33.099  20.595  19.875  1.00  0.00    -0.012 C 
ATOM      3  C   UNL     1      32.334  19.490  19.892  1.00  0.00    -0.019 C 
ATOM      4  C   UNL     1      32.112  18.652  18.661  1.00  0.00     0.036 C 
ATOM      5  C   UNL     1      33.350  18.673  17.746  1.00  0.00     0.025 C 
ATOM      6  C   UNL     1      33.738  20.123  17.403  1.00  0.00     0.089 C 
ATOM      7  C   UNL     1      33.869  20.945  18.655  1.00  0.00     0.158 C 
ATOM      8  O   UNL     1      34.614  21.962  18.647  1.00  0.00    -0.295 OA
ENDROOT
BRANCH   5   9
ATOM      9  C   UNL     1      33.128  17.844  16.489  1.00  0.00    -0.077 C 
ATOM     10  C   UNL     1      31.886  17.476  16.136  1.00  0.00     0.008 C 
ATOM     11  C   UNL     1      34.281  17.416  15.616  1.00  0.00     0.039 C 
ENDBRANCH   5   9
TORSDOF 1
ENDMDL
MODEL 3
REMARK VINA RESULT:    -5.914      6.138      8.687
REMARK INTER + INTRA:          -6.357
REMARK INTER:                  -6.261
REMARK INTRA:                  -0.096
REMARK UNBOUND:                -0.097
REMARK SMILES C=C(C)[C@@H]1CC=C(C)C(=O)C1
REMARK SMILES IDX 8 1 7 2 6 3 5 4 4 5 11 6 9 7 10 8 2 9 1 10 3 11
REMARK H PARENT
REMARK Flexibility Score: inf
ROOT
ATOM      1  C   UNL     1      31.118  19.494  22.941  1.00  0.00     0.048 C 
ATOM      2  C   UNL     1      30.523  18.949  24.210  1.00  0.00    -0.012 C 
ATOM      3  C   UNL     1      29.226  19.164  24.487  1.00  0.00    -0.019 C 
ATOM      4  C   UNL     1      28.575  18.626  25.733  1.00  0.00     0.036 C 
ATOM      5  C   UNL     1      29.576  18.571  26.902  1.00  0.00     0.025 C 
ATOM      6  C   UNL     1      30.824  17.764  26.501  1.00  0.00     0.089 C 
ATOM      7  C   UNL     1      31.395  18.282  25.210  1.00  0.00     0.158 C 
ATOM      8  O   UNL     1      32.620  18.109  24.966  1.00  0.00    -0.295 OA
ENDROOT
BRANCH   5   9
ATOM      9  C   UNL     1      28.932  18.010  28.162  1.00  0.00    -0.077 C 
ATOM     10  C   UNL     1      27.641  18.263  28.428  1.00  0.00     0.008 C 
ATOM     11  C   UNL     1      29.716  17.166  29.137  1.00  0.00     0.039 C 
ENDBRANCH   5   9
TORSDOF 1
ENDMDL
MODEL 4
REMARK VINA RESULT:    -5.908      1.913      4.761
REMARK INTER + INTRA:          -6.350
REMARK INTER:                  -6.252
REMARK INTRA:                  -0.098
REMARK UNBOUND:                -0.097
REMARK SMILES C=C(C)[C@@H]1CC=C(C)C(=O)C1
REMARK SMILES IDX 8 1 7 2 6 3 5 4 4 5 11 6 9 7 10 8 2 9 1 10 3 11
REMARK H PARENT
REMARK Flexibility Score: inf
ROOT
ATOM      1  C   UNL     1      31.801  19.493  21.273  1.00  0.00     0.048 C 
ATOM      2  C   UNL     1      32.255  19.665  19.849  1.00  0.00    -0.012 C 
ATOM      3  C   UNL     1      31.932  18.743  18.927  1.00  0.00    -0.019 C 
ATOM      4  C   UNL     1      32.345  18.875  17.485  1.00  0.00     0.036 C 
ATOM      5  C   UNL     1      33.701  19.594  17.361  1.00  0.00     0.025 C 
ATOM      6  C   UNL     1      33.655  20.953  18.082  1.00  0.00     0.089 C 
ATOM      7  C   UNL     1      33.160  20.787  19.492  1.00  0.00     0.158 C 
ATOM      8  O   UNL     1      33.491  21.635  20.364  1.00  0.00    -0.295 OA
ENDROOT
BRANCH   5   9
ATOM      9  C   UNL     1      34.118  19.750  15.906  1.00  0.00    -0.077 C 
ATOM     10  C   UNL     1      33.187  19.926  14.954  1.00  0.00     0.008 C 
ATOM     11  C   UNL     1      35.569  19.709  15.494  1.00  0.00     0.039 C 
ENDBRANCH   5   9
TORSDOF 1
ENDMDL
MODEL 5
REMARK VINA RESULT:    -5.793      8.672     10.304
REMARK INTER + INTRA:          -6.228
REMARK INTER:                  -6.130
REMARK INTRA:                  -0.098
REMARK UNBOUND:                -0.097
REMARK SMILES C=C(C)[C@@H]1CC=C(C)C(=O)C1
REMARK SMILES IDX 8 1 7 2 6 3 5 4 4 5 11 6 9 7 10 8 2 9 1 10 3 11
REMARK H PARENT
REMARK Flexibility Score: inf
ROOT
ATOM      1  C   UNL     1      31.233  17.530  25.779  1.00  0.00     0.048 C 
ATOM      2  C   UNL     1      30.053  18.251  26.367  1.00  0.00    -0.012 C 
ATOM      3  C   UNL     1      29.500  19.282  25.706  1.00  0.00    -0.019 C 
ATOM      4  C   UNL     1      28.306  20.027  26.240  1.00  0.00     0.036 C 
ATOM      5  C   UNL     1      28.322  20.067  27.780  1.00  0.00     0.025 C 
ATOM      6  C   UNL     1      28.423  18.641  28.351  1.00  0.00     0.089 C 
ATOM      7  C   UNL     1      29.578  17.904  27.731  1.00  0.00     0.158 C 
ATOM      8  O   UNL     1      30.117  16.959  28.367  1.00  0.00    -0.295 OA
ENDROOT
BRANCH   5   9
ATOM      9  C   UNL     1      27.107  20.802  28.330  1.00  0.00    -0.077 C 
ATOM     10  C   UNL     1      25.927  20.722  27.695  1.00  0.00     0.008 C 
ATOM     11  C   UNL     1      27.194  21.632  29.587  1.00  0.00     0.039 C 
ENDBRANCH   5   9
TORSDOF 1
ENDMDL
MODEL 6
REMARK VINA RESULT:    -5.787      1.400      2.018
REMARK INTER + INTRA:          -6.222
REMARK INTER:                  -6.125
REMARK INTRA:                  -0.097
REMARK UNBOUND:                -0.097
REMARK SMILES C=C(C)[C@@H]1CC=C(C)C(=O)C1
REMARK SMILES IDX 8 1 7 2 6 3 5 4 4 5 11 6 9 7 10 8 2 9 1 10 3 11
REMARK H PARENT
REMARK Flexibility Score: inf
ROOT
ATOM      1  C   UNL     1      34.445  19.716  15.235  1.00  0.00     0.048 C 
ATOM      2  C   UNL     1      34.138  19.867  16.699  1.00  0.00    -0.012 C 
ATOM      3  C   UNL     1      33.399  18.937  17.327  1.00  0.00    -0.019 C 
ATOM      4  C   UNL     1      33.077  19.029  18.795  1.00  0.00     0.036 C 
ATOM      5  C   UNL     1      32.944  20.497  19.241  1.00  0.00     0.025 C 
ATOM      6  C   UNL     1      34.212  21.286  18.872  1.00  0.00     0.089 C 
ATOM      7  C   UNL     1      34.545  21.101  17.417  1.00  0.00     0.158 C 
ATOM      8  O   UNL     1      35.209  21.991  16.820  1.00  0.00    -0.295 OA
ENDROOT
BRANCH   5   9
ATOM      9  C   UNL     1      32.638  20.601  20.729  1.00  0.00    -0.077 C 
ATOM     10  C   UNL     1      31.955  19.623  21.346  1.00  0.00     0.008 C 
ATOM     11  C   UNL     1      33.083  21.791  21.542  1.00  0.00     0.039 C 
ENDBRANCH   5   9
TORSDOF 1
ENDMDL
MODEL 7
REMARK VINA RESULT:    -5.745      6.031      8.573
REMARK INTER + INTRA:          -6.178
REMARK INTER:                  -6.086
REMARK INTRA:                  -0.092
REMARK UNBOUND:                -0.097
REMARK SMILES C=C(C)[C@@H]1CC=C(C)C(=O)C1
REMARK SMILES IDX 8 1 7 2 6 3 5 4 4 5 11 6 9 7 10 8 2 9 1 10 3 11
REMARK H PARENT
REMARK Flexibility Score: inf
ROOT
ATOM      1  C   UNL     1      32.231  18.539  23.652  1.00  0.00     0.048 C 
ATOM      2  C   UNL     1      31.120  18.624  24.662  1.00  0.00    -0.012 C 
ATOM      3  C   UNL     1      31.175  17.882  25.782  1.00  0.00    -0.019 C 
ATOM      4  C   UNL     1      30.100  17.942  26.834  1.00  0.00     0.036 C 
ATOM      5  C   UNL     1      28.722  18.218  26.202  1.00  0.00     0.025 C 
ATOM      6  C   UNL     1      28.771  19.495  25.346  1.00  0.00     0.089 C 
ATOM      7  C   UNL     1      29.909  19.430  24.364  1.00  0.00     0.158 C 
ATOM      8  O   UNL     1      29.841  20.099  23.298  1.00  0.00    -0.295 OA
ENDROOT
BRANCH   5   9
ATOM      9  C   UNL     1      27.631  18.300  27.261  1.00  0.00    -0.077 C 
ATOM     10  C   UNL     1      26.347  18.103  26.921  1.00  0.00     0.008 C 
ATOM     11  C   UNL     1      27.955  18.603  28.703  1.00  0.00     0.039 C 
ENDBRANCH   5   9
TORSDOF 1
ENDMDL
MODEL 8
REMARK VINA RESULT:    -5.568      6.785      9.923
REMARK INTER + INTRA:          -5.990
REMARK INTER:                  -5.891
REMARK INTRA:                  -0.099
REMARK UNBOUND:                -0.097
REMARK SMILES C=C(C)[C@@H]1CC=C(C)C(=O)C1
REMARK SMILES IDX 8 1 7 2 6 3 5 4 4 5 11 6 9 7 10 8 2 9 1 10 3 11
REMARK H PARENT
REMARK Flexibility Score: inf
ROOT
ATOM      1  C   UNL     1      26.788  18.631  28.746  1.00  0.00     0.048 C 
ATOM      2  C   UNL     1      27.857  18.818  27.705  1.00  0.00    -0.012 C 
ATOM      3  C   UNL     1      27.654  19.666  26.683  1.00  0.00    -0.019 C 
ATOM      4  C   UNL     1      28.697  19.905  25.623  1.00  0.00     0.036 C 
ATOM      5  C   UNL     1      29.529  18.634  25.370  1.00  0.00     0.025 C 
ATOM      6  C   UNL     1      30.142  18.123  26.686  1.00  0.00     0.089 C 
ATOM      7  C   UNL     1      29.080  17.977  27.741  1.00  0.00     0.158 C 
ATOM      8  O   UNL     1      29.256  17.156  28.681  1.00  0.00    -0.295 OA
ENDROOT
BRANCH   5   9
ATOM      9  C   UNL     1      30.600  18.871  24.313  1.00  0.00    -0.077 C 
ATOM     10  C   UNL     1      31.896  18.696  24.617  1.00  0.00     0.008 C 
ATOM     11  C   UNL     1      30.241  19.306  22.914  1.00  0.00     0.039 C 
ENDBRANCH   5   9
TORSDOF 1
ENDMDL
