MODEL 1
REMARK VINA RESULT:    -2.518      0.000      0.000
REMARK INTER + INTRA:          -3.230
REMARK INTER:                  -3.181
REMARK INTRA:                  -0.050
REMARK UNBOUND:                -0.050
REMARK SMILES CCCCCCO
REMARK SMILES IDX 4 1 3 2 2 3 1 4 5 5 6 6 7 7
REMARK H PARENT 7 8
REMARK Flexibility Score: inf
ROOT
ATOM      1  C   UNL     1     115.289 121.649 108.333  1.00  0.00     0.002 C 
ENDROOT
BRANCH   1   2
ATOM      2  C   UNL     1     116.619 122.334 108.694  1.00  0.00    -0.000 C 
BRANCH   2   3
ATOM      3  C   UNL     1     117.119 123.361 107.663  1.00  0.00    -0.003 C 
ATOM      4  C   UNL     1     117.561 124.680 108.297  1.00  0.00     0.004 C 
ENDBRANCH   2   3
ENDBRANCH   1   2
BRANCH   1   5
ATOM      5  C   UNL     1     114.268 121.684 109.481  1.00  0.00     0.028 C 
BRANCH   5   6
ATOM      6  C   UNL     1     113.449 120.391 109.550  1.00  0.00     0.156 C 
BRANCH   6   7
ATOM      7  O   UNL     1     113.771 119.654 110.700  1.00  0.00    -0.396 OA
ATOM      8  H   UNL     1     113.737 120.288 111.462  1.00  0.00     0.210 HD
ENDBRANCH   6   7
ENDBRANCH   5   6
ENDBRANCH   1   5
TORSDOF 5
ENDMDL
MODEL 2
REMARK VINA RESULT:    -2.511      9.922     12.070
REMARK INTER + INTRA:          -3.222
REMARK INTER:                  -3.117
REMARK INTRA:                  -0.105
REMARK UNBOUND:                -0.050
REMARK SMILES CCCCCCO
REMARK SMILES IDX 4 1 3 2 2 3 1 4 5 5 6 6 7 7
REMARK H PARENT 7 8
REMARK Flexibility Score: inf
ROOT
ATOM      1  C   UNL     1     109.568 112.784 108.224  1.00  0.00     0.002 C 
ENDROOT
BRANCH   1   2
ATOM      2  C   UNL     1     108.418 111.768 108.343  1.00  0.00    -0.000 C 
BRANCH   2   3
ATOM      3  C   UNL     1     107.957 111.480 109.783  1.00  0.00    -0.003 C 
ATOM      4  C   UNL     1     107.713 109.995 110.047  1.00  0.00     0.004 C 
ENDBRANCH   2   3
ENDBRANCH   1   2
BRANCH   1   5
ATOM      5  C   UNL     1     110.173 113.163 109.586  1.00  0.00     0.028 C 
BRANCH   5   6
ATOM      6  C   UNL     1     111.699 113.019 109.586  1.00  0.00     0.156 C 
BRANCH   6   7
ATOM      7  O   UNL     1     112.270 113.736 110.648  1.00  0.00    -0.396 OA
ATOM      8  H   UNL     1     112.834 114.444 110.242  1.00  0.00     0.210 HD
ENDBRANCH   6   7
ENDBRANCH   5   6
ENDBRANCH   1   5
TORSDOF 5
ENDMDL
MODEL 3
REMARK VINA RESULT:    -2.505      3.199      4.335
REMARK INTER + INTRA:          -3.213
REMARK INTER:                  -3.116
REMARK INTRA:                  -0.097
REMARK UNBOUND:                -0.050
REMARK SMILES CCCCCCO
REMARK SMILES IDX 4 1 3 2 2 3 1 4 5 5 6 6 7 7
REMARK H PARENT 7 8
REMARK Flexibility Score: inf
ROOT
ATOM      1  C   UNL     1     112.746 122.434 108.264  1.00  0.00     0.002 C 
ENDROOT
BRANCH   1   2
ATOM      2  C   UNL     1     111.766 123.618 108.350  1.00  0.00    -0.000 C 
BRANCH   2   3
ATOM      3  C   UNL     1     111.483 124.121 109.776  1.00  0.00    -0.003 C 
ATOM      4  C   UNL     1     109.992 124.263 110.076  1.00  0.00     0.004 C 
ENDBRANCH   2   3
ENDBRANCH   1   2
BRANCH   1   5
ATOM      5  C   UNL     1     112.989 121.761 109.625  1.00  0.00     0.028 C 
BRANCH   5   6
ATOM      6  C   UNL     1     113.325 120.273 109.469  1.00  0.00     0.156 C 
BRANCH   6   7
ATOM      7  O   UNL     1     113.733 119.721 110.692  1.00  0.00    -0.396 OA
ATOM      8  H   UNL     1     113.219 118.880 110.808  1.00  0.00     0.210 HD
ENDBRANCH   6   7
ENDBRANCH   5   6
ENDBRANCH   1   5
TORSDOF 5
ENDMDL
MODEL 4
REMARK VINA RESULT:    -2.497      6.723      7.370
REMARK INTER + INTRA:          -3.203
REMARK INTER:                  -3.100
REMARK INTRA:                  -0.103
REMARK UNBOUND:                -0.050
REMARK SMILES CCCCCCO
REMARK SMILES IDX 4 1 3 2 2 3 1 4 5 5 6 6 7 7
REMARK H PARENT 7 8
REMARK Flexibility Score: inf
ROOT
ATOM      1  C   UNL     1     122.448 119.420 108.322  1.00  0.00     0.002 C 
ENDROOT
BRANCH   1   2
ATOM      2  C   UNL     1     123.817 120.107 108.470  1.00  0.00    -0.000 C 
BRANCH   2   3
ATOM      3  C   UNL     1     124.168 120.551 109.901  1.00  0.00    -0.003 C 
ATOM      4  C   UNL     1     124.232 122.069 110.058  1.00  0.00     0.004 C 
ENDBRANCH   2   3
ENDBRANCH   1   2
BRANCH   1   5
ATOM      5  C   UNL     1     121.814 119.055 109.675  1.00  0.00     0.028 C 
BRANCH   5   6
ATOM      6  C   UNL     1     120.285 119.009 109.589  1.00  0.00     0.156 C 
BRANCH   6   7
ATOM      7  O   UNL     1     119.746 118.268 110.652  1.00  0.00    -0.396 OA
ATOM      8  H   UNL     1     119.677 117.330 110.337  1.00  0.00     0.210 HD
ENDBRANCH   6   7
ENDBRANCH   5   6
ENDBRANCH   1   5
TORSDOF 5
ENDMDL
MODEL 5
REMARK VINA RESULT:    -2.473      8.272      9.025
REMARK INTER + INTRA:          -3.174
REMARK INTER:                  -3.126
REMARK INTRA:                  -0.048
REMARK UNBOUND:                -0.050
REMARK SMILES CCCCCCO
REMARK SMILES IDX 4 1 3 2 2 3 1 4 5 5 6 6 7 7
REMARK H PARENT 7 8
REMARK Flexibility Score: inf
ROOT
ATOM      1  C   UNL     1     121.593 116.746 108.371  1.00  0.00     0.002 C 
ENDROOT
BRANCH   1   2
ATOM      2  C   UNL     1     122.382 115.452 108.636  1.00  0.00    -0.000 C 
BRANCH   2   3
ATOM      3  C   UNL     1     123.574 115.217 107.692  1.00  0.00    -0.003 C 
ATOM      4  C   UNL     1     124.681 114.374 108.324  1.00  0.00     0.004 C 
ENDBRANCH   2   3
ENDBRANCH   1   2
BRANCH   1   5
ATOM      5  C   UNL     1     121.749 117.782 109.496  1.00  0.00     0.028 C 
BRANCH   5   6
ATOM      6  C   UNL     1     120.515 118.684 109.612  1.00  0.00     0.156 C 
BRANCH   6   7
ATOM      7  O   UNL     1     119.681 118.261 110.658  1.00  0.00    -0.396 OA
ATOM      8  H   UNL     1     118.994 117.671 110.252  1.00  0.00     0.210 HD
ENDBRANCH   6   7
ENDBRANCH   5   6
ENDBRANCH   1   5
TORSDOF 5
ENDMDL
MODEL 6
REMARK VINA RESULT:    -2.462     12.292     13.266
REMARK INTER + INTRA:          -3.159
REMARK INTER:                  -3.091
REMARK INTRA:                  -0.067
REMARK UNBOUND:                -0.050
REMARK SMILES CCCCCCO
REMARK SMILES IDX 4 1 3 2 2 3 1 4 5 5 6 6 7 7
REMARK H PARENT 7 8
REMARK Flexibility Score: inf
ROOT
ATOM      1  C   UNL     1     118.590 109.253 108.788  1.00  0.00     0.002 C 
ENDROOT
BRANCH   1   2
ATOM      2  C   UNL     1     119.843 109.062 109.660  1.00  0.00    -0.000 C 
BRANCH   2   3
ATOM      3  C   UNL     1     120.724 107.862 109.273  1.00  0.00    -0.003 C 
ATOM      4  C   UNL     1     122.020 107.785 110.079  1.00  0.00     0.004 C 
ENDBRANCH   2   3
ENDBRANCH   1   2
BRANCH   1   5
ATOM      5  C   UNL     1     117.825 110.546 109.116  1.00  0.00     0.028 C 
BRANCH   5   6
ATOM      6  C   UNL     1     118.769 111.658 109.586  1.00  0.00     0.156 C 
BRANCH   6   7
ATOM      7  O   UNL     1     118.250 112.312 110.714  1.00  0.00    -0.396 OA
ATOM      8  H   UNL     1     118.579 111.813 111.506  1.00  0.00     0.210 HD
ENDBRANCH   6   7
ENDBRANCH   5   6
ENDBRANCH   1   5
TORSDOF 5
ENDMDL
MODEL 7
REMARK VINA RESULT:    -2.392     10.945     12.675
REMARK INTER + INTRA:          -3.071
REMARK INTER:                  -3.041
REMARK INTRA:                  -0.030
REMARK UNBOUND:                -0.050
REMARK SMILES CCCCCCO
REMARK SMILES IDX 4 1 3 2 2 3 1 4 5 5 6 6 7 7
REMARK H PARENT 7 8
REMARK Flexibility Score: inf
ROOT
ATOM      1  C   UNL     1     117.182 110.017 109.095  1.00  0.00     0.002 C 
ENDROOT
BRANCH   1   2
ATOM      2  C   UNL     1     116.301 109.356 108.019  1.00  0.00    -0.000 C 
BRANCH   2   3
ATOM      3  C   UNL     1     114.878 108.997 108.480  1.00  0.00    -0.003 C 
ATOM      4  C   UNL     1     114.524 107.529 108.242  1.00  0.00     0.004 C 
ENDBRANCH   2   3
ENDBRANCH   1   2
BRANCH   1   5
ATOM      5  C   UNL     1     117.921 111.262 108.580  1.00  0.00     0.028 C 
BRANCH   5   6
ATOM      6  C   UNL     1     118.935 111.783 109.605  1.00  0.00     0.156 C 
BRANCH   6   7
ATOM      7  O   UNL     1     118.283 112.342 110.714  1.00  0.00    -0.396 OA
ATOM      8  H   UNL     1     118.799 112.064 111.515  1.00  0.00     0.210 HD
ENDBRANCH   6   7
ENDBRANCH   5   6
ENDBRANCH   1   5
TORSDOF 5
ENDMDL
MODEL 8
REMARK VINA RESULT:    -2.391      8.138      8.915
REMARK INTER + INTRA:          -3.069
REMARK INTER:                  -2.977
REMARK INTRA:                  -0.092
REMARK UNBOUND:                -0.050
REMARK SMILES CCCCCCO
REMARK SMILES IDX 4 1 3 2 2 3 1 4 5 5 6 6 7 7
REMARK H PARENT 7 8
REMARK Flexibility Score: inf
ROOT
ATOM      1  C   UNL     1     110.449 114.686 107.867  1.00  0.00     0.002 C 
ENDROOT
BRANCH   1   2
ATOM      2  C   UNL     1     110.374 116.218 107.748  1.00  0.00    -0.000 C 
BRANCH   2   3
ATOM      3  C   UNL     1     109.457 116.902 108.777  1.00  0.00    -0.003 C 
ATOM      4  C   UNL     1     108.089 117.275 108.206  1.00  0.00     0.004 C 
ENDBRANCH   2   3
ENDBRANCH   1   2
BRANCH   1   5
ATOM      5  C   UNL     1     110.482 114.201 109.326  1.00  0.00     0.028 C 
BRANCH   5   6
ATOM      6  C   UNL     1     111.697 113.306 109.597  1.00  0.00     0.156 C 
BRANCH   6   7
ATOM      7  O   UNL     1     112.386 113.730 110.743  1.00  0.00    -0.396 OA
ATOM      8  H   UNL     1     112.209 113.053 111.447  1.00  0.00     0.210 HD
ENDBRANCH   6   7
ENDBRANCH   5   6
ENDBRANCH   1   5
TORSDOF 5
ENDMDL
MODEL 9
REMARK VINA RESULT:    -2.220     12.165     13.383
REMARK INTER + INTRA:          -2.854
REMARK INTER:                  -2.746
REMARK INTRA:                  -0.108
REMARK UNBOUND:                -0.050
REMARK SMILES CCCCCCO
REMARK SMILES IDX 4 1 3 2 2 3 1 4 5 5 6 6 7 7
REMARK H PARENT 7 8
REMARK Flexibility Score: inf
ROOT
ATOM      1  C   UNL     1     119.703 109.324 109.722  1.00  0.00     0.002 C 
ENDROOT
BRANCH   1   2
ATOM      2  C   UNL     1     119.623 108.046 108.869  1.00  0.00    -0.000 C 
BRANCH   2   3
ATOM      3  C   UNL     1     118.752 108.164 107.606  1.00  0.00    -0.003 C 
ATOM      4  C   UNL     1     117.585 107.177 107.589  1.00  0.00     0.004 C 
ENDBRANCH   2   3
ENDBRANCH   1   2
BRANCH   1   5
ATOM      5  C   UNL     1     118.451 110.208 109.592  1.00  0.00     0.028 C 
BRANCH   5   6
ATOM      6  C   UNL     1     118.808 111.698 109.600  1.00  0.00     0.156 C 
BRANCH   6   7
ATOM      7  O   UNL     1     118.228 112.346 110.701  1.00  0.00    -0.396 OA
ATOM      8  H   UNL     1     118.153 111.668 111.422  1.00  0.00     0.210 HD
ENDBRANCH   6   7
ENDBRANCH   5   6
ENDBRANCH   1   5
TORSDOF 5
ENDMDL
