MODEL 1
REMARK VINA RESULT:    -4.562      0.000      0.000
REMARK INTER + INTRA:          -5.325
REMARK INTER:                  -5.095
REMARK INTRA:                  -0.230
REMARK UNBOUND:                -0.230
REMARK SMILES O=C([O-])c1ccccc1C(=O)[O-]
REMARK SMILES IDX 4 1 9 2 5 3 8 4 6 5 7 6 2 7 1 8 3 9 10 10 11 11 12 12
REMARK H PARENT
REMARK Flexibility Score: inf
ROOT
ATOM      1  C   UNL     1      26.909  24.807 -17.886  1.00  0.00     0.006 A 
ATOM      2  C   UNL     1      27.912  23.879 -18.285  1.00  0.00     0.006 A 
ATOM      3  C   UNL     1      25.986  25.270 -18.842  1.00  0.00     0.010 A 
ATOM      4  C   UNL     1      27.994  23.500 -19.637  1.00  0.00     0.010 A 
ATOM      5  C   UNL     1      26.073  24.863 -20.173  1.00  0.00     0.001 A 
ATOM      6  C   UNL     1      27.082  23.990 -20.573  1.00  0.00     0.001 A 
ENDROOT
BRANCH   1   7
ATOM      7  C   UNL     1      26.827  25.369 -16.517  1.00  0.00     0.072 C 
ATOM      8  O   UNL     1      26.090  24.838 -15.646  1.00  0.00    -0.545 OA
ATOM      9  O   UNL     1      27.619  26.455 -16.161  1.00  0.00    -0.545 OA
ENDBRANCH   1   7
BRANCH   2  10
ATOM     10  C   UNL     1      28.840  23.232 -17.329  1.00  0.00     0.072 C 
ATOM     11  O   UNL     1      29.976  23.726 -17.098  1.00  0.00    -0.545 OA
ATOM     12  O   UNL     1      28.439  22.103 -16.623  1.00  0.00    -0.545 OA
ENDBRANCH   2  10
TORSDOF 2
ENDMDL
MODEL 2
REMARK VINA RESULT:    -4.554      0.041      3.143
REMARK INTER + INTRA:          -5.316
REMARK INTER:                  -5.086
REMARK INTRA:                  -0.231
REMARK UNBOUND:                -0.230
REMARK SMILES O=C([O-])c1ccccc1C(=O)[O-]
REMARK SMILES IDX 4 1 9 2 5 3 8 4 6 5 7 6 2 7 1 8 3 9 10 10 11 11 12 12
REMARK H PARENT
REMARK Flexibility Score: inf
ROOT
ATOM      1  C   UNL     1      27.920  23.888 -18.254  1.00  0.00     0.006 A 
ATOM      2  C   UNL     1      26.906  24.805 -17.860  1.00  0.00     0.006 A 
ATOM      3  C   UNL     1      28.017  23.513 -19.606  1.00  0.00     0.010 A 
ATOM      4  C   UNL     1      25.985  25.261 -18.822  1.00  0.00     0.010 A 
ATOM      5  C   UNL     1      27.107  23.996 -20.547  1.00  0.00     0.001 A 
ATOM      6  C   UNL     1      26.087  24.858 -20.154  1.00  0.00     0.001 A 
ENDROOT
BRANCH   1   7
ATOM      7  C   UNL     1      28.848  23.248 -17.291  1.00  0.00     0.072 C 
ATOM      8  O   UNL     1      29.996  23.722 -17.091  1.00  0.00    -0.545 OA
ATOM      9  O   UNL     1      28.432  22.149 -16.547  1.00  0.00    -0.545 OA
ENDBRANCH   1   7
BRANCH   2  10
ATOM     10  C   UNL     1      26.807  25.362 -16.492  1.00  0.00     0.072 C 
ATOM     11  O   UNL     1      26.066  24.823 -15.627  1.00  0.00    -0.545 OA
ATOM     12  O   UNL     1      27.587  26.453 -16.126  1.00  0.00    -0.545 OA
ENDBRANCH   2  10
TORSDOF 2
ENDMDL
MODEL 3
REMARK VINA RESULT:    -4.140      1.509      3.201
REMARK INTER + INTRA:          -4.854
REMARK INTER:                  -4.646
REMARK INTRA:                  -0.209
REMARK UNBOUND:                -0.230
REMARK SMILES O=C([O-])c1ccccc1C(=O)[O-]
REMARK SMILES IDX 4 1 9 2 5 3 8 4 6 5 7 6 2 7 1 8 3 9 10 10 11 11 12 12
REMARK H PARENT
REMARK Flexibility Score: inf
ROOT
ATOM      1  C   UNL     1      28.151  23.724 -19.513  1.00  0.00     0.006 A 
ATOM      2  C   UNL     1      27.940  24.190 -18.185  1.00  0.00     0.006 A 
ATOM      3  C   UNL     1      27.226  24.069 -20.515  1.00  0.00     0.010 A 
ATOM      4  C   UNL     1      26.777  24.928 -17.896  1.00  0.00     0.010 A 
ATOM      5  C   UNL     1      26.091  24.822 -20.209  1.00  0.00     0.001 A 
ATOM      6  C   UNL     1      25.861  25.239 -18.901  1.00  0.00     0.001 A 
ENDROOT
BRANCH   1   7
ATOM      7  C   UNL     1      29.271  22.828 -19.886  1.00  0.00     0.072 C 
ATOM      8  O   UNL     1      29.101  21.583 -19.965  1.00  0.00    -0.545 OA
ATOM      9  O   UNL     1      30.510  23.363 -20.219  1.00  0.00    -0.545 OA
ENDBRANCH   1   7
BRANCH   2  10
ATOM     10  C   UNL     1      28.923  23.995 -17.094  1.00  0.00     0.072 C 
ATOM     11  O   UNL     1      29.928  24.747 -16.988  1.00  0.00    -0.545 OA
ATOM     12  O   UNL     1      28.710  23.015 -16.131  1.00  0.00    -0.545 OA
ENDBRANCH   2  10
TORSDOF 2
ENDMDL
MODEL 4
REMARK VINA RESULT:    -4.137      1.561      2.780
REMARK INTER + INTRA:          -4.851
REMARK INTER:                  -4.653
REMARK INTRA:                  -0.198
REMARK UNBOUND:                -0.230
REMARK SMILES O=C([O-])c1ccccc1C(=O)[O-]
REMARK SMILES IDX 4 1 9 2 5 3 8 4 6 5 7 6 2 7 1 8 3 9 10 10 11 11 12 12
REMARK H PARENT
REMARK Flexibility Score: inf
ROOT
ATOM      1  C   UNL     1      28.029  24.135 -18.268  1.00  0.00     0.006 A 
ATOM      2  C   UNL     1      28.174  23.667 -19.604  1.00  0.00     0.006 A 
ATOM      3  C   UNL     1      26.891  24.889 -17.926  1.00  0.00     0.010 A 
ATOM      4  C   UNL     1      27.210  24.028 -20.563  1.00  0.00     0.010 A 
ATOM      5  C   UNL     1      25.936  25.216 -18.890  1.00  0.00     0.001 A 
ATOM      6  C   UNL     1      26.101  24.797 -20.207  1.00  0.00     0.001 A 
ENDROOT
BRANCH   1   7
ATOM      7  C   UNL     1      29.056  23.923 -17.221  1.00  0.00     0.072 C 
ATOM      8  O   UNL     1      30.068  24.669 -17.152  1.00  0.00    -0.545 OA
ATOM      9  O   UNL     1      28.879  22.935 -16.259  1.00  0.00    -0.545 OA
ENDBRANCH   1   7
BRANCH   2  10
ATOM     10  C   UNL     1      29.262  22.756 -20.027  1.00  0.00     0.072 C 
ATOM     11  O   UNL     1      29.047  21.525 -20.189  1.00  0.00    -0.545 OA
ATOM     12  O   UNL     1      30.524  23.264 -20.316  1.00  0.00    -0.545 OA
ENDBRANCH   2  10
TORSDOF 2
ENDMDL
MODEL 5
REMARK VINA RESULT:    -4.059      1.247      1.695
REMARK INTER + INTRA:          -4.764
REMARK INTER:                  -4.541
REMARK INTRA:                  -0.224
REMARK UNBOUND:                -0.230
REMARK SMILES O=C([O-])c1ccccc1C(=O)[O-]
REMARK SMILES IDX 4 1 9 2 5 3 8 4 6 5 7 6 2 7 1 8 3 9 10 10 11 11 12 12
REMARK H PARENT
REMARK Flexibility Score: inf
ROOT
ATOM      1  C   UNL     1      27.594  25.413 -17.593  1.00  0.00     0.006 A 
ATOM      2  C   UNL     1      28.742  24.676 -17.998  1.00  0.00     0.006 A 
ATOM      3  C   UNL     1      26.404  25.288 -18.335  1.00  0.00     0.010 A 
ATOM      4  C   UNL     1      28.677  23.895 -19.166  1.00  0.00     0.010 A 
ATOM      5  C   UNL     1      26.357  24.489 -19.477  1.00  0.00     0.001 A 
ATOM      6  C   UNL     1      27.493  23.804 -19.899  1.00  0.00     0.001 A 
ENDROOT
BRANCH   1   7
ATOM      7  C   UNL     1      27.604  26.366 -16.459  1.00  0.00     0.072 C 
ATOM      8  O   UNL     1      27.270  25.996 -15.303  1.00  0.00    -0.545 OA
ATOM      9  O   UNL     1      28.049  27.670 -16.648  1.00  0.00    -0.545 OA
ENDBRANCH   1   7
BRANCH   2  10
ATOM     10  C   UNL     1      29.995  24.635 -17.209  1.00  0.00     0.072 C 
ATOM     11  O   UNL     1      30.205  23.711 -16.379  1.00  0.00    -0.545 OA
ATOM     12  O   UNL     1      30.987  25.585 -17.426  1.00  0.00    -0.545 OA
ENDBRANCH   2  10
TORSDOF 2
ENDMDL
MODEL 6
REMARK VINA RESULT:    -4.042      2.330      3.276
REMARK INTER + INTRA:          -4.745
REMARK INTER:                  -4.540
REMARK INTRA:                  -0.204
REMARK UNBOUND:                -0.230
REMARK SMILES O=C([O-])c1ccccc1C(=O)[O-]
REMARK SMILES IDX 4 1 9 2 5 3 8 4 6 5 7 6 2 7 1 8 3 9 10 10 11 11 12 12
REMARK H PARENT
REMARK Flexibility Score: inf
ROOT
ATOM      1  C   UNL     1      27.945  25.872 -17.130  1.00  0.00     0.006 A 
ATOM      2  C   UNL     1      29.155  25.188 -17.436  1.00  0.00     0.006 A 
ATOM      3  C   UNL     1      28.008  27.198 -16.665  1.00  0.00     0.010 A 
ATOM      4  C   UNL     1      30.383  25.832 -17.201  1.00  0.00     0.010 A 
ATOM      5  C   UNL     1      29.237  27.826 -16.462  1.00  0.00     0.001 A 
ATOM      6  C   UNL     1      30.422  27.141 -16.717  1.00  0.00     0.001 A 
ENDROOT
BRANCH   1   7
ATOM      7  C   UNL     1      26.612  25.231 -17.214  1.00  0.00     0.072 C 
ATOM      8  O   UNL     1      26.009  24.860 -16.173  1.00  0.00    -0.545 OA
ATOM      9  O   UNL     1      25.980  25.094 -18.445  1.00  0.00    -0.545 OA
ENDBRANCH   1   7
BRANCH   2  10
ATOM     10  C   UNL     1      29.188  23.844 -18.057  1.00  0.00     0.072 C 
ATOM     11  O   UNL     1      29.269  22.806 -17.347  1.00  0.00    -0.545 OA
ATOM     12  O   UNL     1      29.063  23.709 -19.435  1.00  0.00    -0.545 OA
ENDBRANCH   2  10
TORSDOF 2
ENDMDL
MODEL 7
REMARK VINA RESULT:    -4.035      2.329      4.292
REMARK INTER + INTRA:          -4.737
REMARK INTER:                  -4.532
REMARK INTRA:                  -0.205
REMARK UNBOUND:                -0.230
REMARK SMILES O=C([O-])c1ccccc1C(=O)[O-]
REMARK SMILES IDX 4 1 9 2 5 3 8 4 6 5 7 6 2 7 1 8 3 9 10 10 11 11 12 12
REMARK H PARENT
REMARK Flexibility Score: inf
ROOT
ATOM      1  C   UNL     1      29.161  25.197 -17.414  1.00  0.00     0.006 A 
ATOM      2  C   UNL     1      27.946  25.879 -17.124  1.00  0.00     0.006 A 
ATOM      3  C   UNL     1      30.385  25.848 -17.175  1.00  0.00     0.010 A 
ATOM      4  C   UNL     1      28.000  27.209 -16.667  1.00  0.00     0.010 A 
ATOM      5  C   UNL     1      30.415  27.160 -16.700  1.00  0.00     0.001 A 
ATOM      6  C   UNL     1      29.226  27.843 -16.459  1.00  0.00     0.001 A 
ENDROOT
BRANCH   1   7
ATOM      7  C   UNL     1      29.204  23.848 -18.025  1.00  0.00     0.072 C 
ATOM      8  O   UNL     1      29.292  22.818 -17.307  1.00  0.00    -0.545 OA
ATOM      9  O   UNL     1      29.078  23.702 -19.402  1.00  0.00    -0.545 OA
ENDBRANCH   1   7
BRANCH   2  10
ATOM     10  C   UNL     1      26.616  25.234 -17.213  1.00  0.00     0.072 C 
ATOM     11  O   UNL     1      26.008  24.863 -16.174  1.00  0.00    -0.545 OA
ATOM     12  O   UNL     1      25.992  25.091 -18.447  1.00  0.00    -0.545 OA
ENDBRANCH   2  10
TORSDOF 2
ENDMDL
MODEL 8
REMARK VINA RESULT:    -3.755      2.280      4.200
REMARK INTER + INTRA:          -4.425
REMARK INTER:                  -4.249
REMARK INTRA:                  -0.175
REMARK UNBOUND:                -0.230
REMARK SMILES O=C([O-])c1ccccc1C(=O)[O-]
REMARK SMILES IDX 4 1 9 2 5 3 8 4 6 5 7 6 2 7 1 8 3 9 10 10 11 11 12 12
REMARK H PARENT
REMARK Flexibility Score: inf
ROOT
ATOM      1  C   UNL     1      27.807  26.385 -15.855  1.00  0.00     0.006 A 
ATOM      2  C   UNL     1      27.030  25.320 -16.391  1.00  0.00     0.006 A 
ATOM      3  C   UNL     1      27.924  26.513 -14.459  1.00  0.00     0.010 A 
ATOM      4  C   UNL     1      26.347  24.462 -15.510  1.00  0.00     0.010 A 
ATOM      5  C   UNL     1      27.255  25.636 -13.604  1.00  0.00     0.001 A 
ATOM      6  C   UNL     1      26.459  24.621 -14.128  1.00  0.00     0.001 A 
ENDROOT
BRANCH   1   7
ATOM      7  C   UNL     1      28.451  27.419 -16.700  1.00  0.00     0.072 C 
ATOM      8  O   UNL     1      27.800  28.419 -17.103  1.00  0.00    -0.545 OA
ATOM      9  O   UNL     1      29.805  27.329 -17.001  1.00  0.00    -0.545 OA
ENDBRANCH   1   7
BRANCH   2  10
ATOM     10  C   UNL     1      26.957  25.022 -17.840  1.00  0.00     0.072 C 
ATOM     11  O   UNL     1      27.943  24.526 -18.447  1.00  0.00    -0.545 OA
ATOM     12  O   UNL     1      25.770  25.226 -18.534  1.00  0.00    -0.545 OA
ENDBRANCH   2  10
TORSDOF 2
ENDMDL
MODEL 9
REMARK VINA RESULT:    -3.753      2.319      4.522
REMARK INTER + INTRA:          -4.422
REMARK INTER:                  -4.194
REMARK INTRA:                  -0.228
REMARK UNBOUND:                -0.230
REMARK SMILES O=C([O-])c1ccccc1C(=O)[O-]
REMARK SMILES IDX 4 1 9 2 5 3 8 4 6 5 7 6 2 7 1 8 3 9 10 10 11 11 12 12
REMARK H PARENT
REMARK Flexibility Score: inf
ROOT
ATOM      1  C   UNL     1      27.147  25.448 -16.362  1.00  0.00     0.006 A 
ATOM      2  C   UNL     1      27.996  26.433 -15.783  1.00  0.00     0.006 A 
ATOM      3  C   UNL     1      26.376  24.628 -15.518  1.00  0.00     0.010 A 
ATOM      4  C   UNL     1      28.091  26.515 -14.382  1.00  0.00     0.010 A 
ATOM      5  C   UNL     1      26.469  24.743 -14.131  1.00  0.00     0.001 A 
ATOM      6  C   UNL     1      27.334  25.676 -13.564  1.00  0.00     0.001 A 
ENDROOT
BRANCH   1   7
ATOM      7  C   UNL     1      27.083  25.193 -17.820  1.00  0.00     0.072 C 
ATOM      8  O   UNL     1      26.149  25.669 -18.517  1.00  0.00    -0.545 OA
ATOM      9  O   UNL     1      28.096  24.478 -18.449  1.00  0.00    -0.545 OA
ENDBRANCH   1   7
BRANCH   2  10
ATOM     10  C   UNL     1      28.740  27.430 -16.586  1.00  0.00     0.072 C 
ATOM     11  O   UNL     1      29.942  27.233 -16.907  1.00  0.00    -0.545 OA
ATOM     12  O   UNL     1      28.096  28.571 -17.052  1.00  0.00    -0.545 OA
ENDBRANCH   2  10
TORSDOF 2
ENDMDL
