MODEL 1
REMARK VINA RESULT:    -3.348      0.000      0.000
REMARK INTER + INTRA:          -4.239
REMARK INTER:                  -4.131
REMARK INTRA:                  -0.108
REMARK UNBOUND:                -0.108
REMARK SMILES CCCCCC(=O)[O-]
REMARK SMILES IDX 4 1 5 2 6 3 7 4 8 5 3 6 2 7 1 8
REMARK H PARENT
REMARK Flexibility Score: inf
ROOT
ATOM      1  C   UNL     1      -3.620 -72.169 -12.419  1.00  0.00     0.006 C 
ENDROOT
BRANCH   1   2
ATOM      2  C   UNL     1      -4.879 -72.989 -12.105  1.00  0.00     0.053 C 
BRANCH   2   3
ATOM      3  C   UNL     1      -4.539 -74.336 -11.544  1.00  0.00     0.041 C 
ATOM      4  O   UNL     1      -3.408 -74.542 -11.030  1.00  0.00    -0.550 OA
ATOM      5  O   UNL     1      -5.484 -75.354 -11.559  1.00  0.00    -0.550 OA
ENDBRANCH   2   3
ENDBRANCH   1   2
BRANCH   1   6
ATOM      6  C   UNL     1      -3.909 -70.662 -12.480  1.00  0.00     0.000 C 
BRANCH   6   7
ATOM      7  C   UNL     1      -4.667 -70.196 -11.232  1.00  0.00    -0.003 C 
ATOM      8  C   UNL     1      -3.776 -69.346 -10.330  1.00  0.00     0.004 C 
ENDBRANCH   6   7
ENDBRANCH   1   6
TORSDOF 4
ENDMDL
MODEL 2
REMARK VINA RESULT:    -3.181     16.391     17.241
REMARK INTER + INTRA:          -4.033
REMARK INTER:                  -3.862
REMARK INTRA:                  -0.170
REMARK UNBOUND:                -0.108
REMARK SMILES CCCCCC(=O)[O-]
REMARK SMILES IDX 4 1 5 2 6 3 7 4 8 5 3 6 2 7 1 8
REMARK H PARENT
REMARK Flexibility Score: inf
ROOT
ATOM      1  C   UNL     1      -7.567 -75.807   4.808  1.00  0.00     0.006 C 
ENDROOT
BRANCH   1   2
ATOM      2  C   UNL     1      -8.015 -74.364   5.077  1.00  0.00     0.053 C 
BRANCH   2   3
ATOM      3  C   UNL     1      -8.382 -73.651   3.812  1.00  0.00     0.041 C 
ATOM      4  O   UNL     1      -8.811 -74.299   2.821  1.00  0.00    -0.550 OA
ATOM      5  O   UNL     1      -8.282 -72.268   3.740  1.00  0.00    -0.550 OA
ENDBRANCH   2   3
ENDBRANCH   1   2
BRANCH   1   6
ATOM      6  C   UNL     1      -8.217 -76.808   5.775  1.00  0.00     0.000 C 
BRANCH   6   7
ATOM      7  C   UNL     1      -8.719 -78.048   5.026  1.00  0.00    -0.003 C 
ATOM      8  C   UNL     1      -8.959 -77.742   3.550  1.00  0.00     0.004 C 
ENDBRANCH   6   7
ENDBRANCH   1   6
TORSDOF 4
ENDMDL
MODEL 3
REMARK VINA RESULT:    -3.072      2.750      4.256
REMARK INTER + INTRA:          -3.899
REMARK INTER:                  -3.671
REMARK INTRA:                  -0.228
REMARK UNBOUND:                -0.108
REMARK SMILES CCCCCC(=O)[O-]
REMARK SMILES IDX 4 1 5 2 6 3 7 4 8 5 3 6 2 7 1 8
REMARK H PARENT
REMARK Flexibility Score: inf
ROOT
ATOM      1  C   UNL     1      -4.450 -70.678 -12.689  1.00  0.00     0.006 C 
ENDROOT
BRANCH   1   2
ATOM      2  C   UNL     1      -3.943 -69.449 -11.921  1.00  0.00     0.053 C 
BRANCH   2   3
ATOM      3  C   UNL     1      -4.253 -69.540 -10.459  1.00  0.00     0.041 C 
ATOM      4  O   UNL     1      -5.339 -70.046 -10.072  1.00  0.00    -0.550 OA
ATOM      5  O   UNL     1      -3.328 -69.097  -9.522  1.00  0.00    -0.550 OA
ENDBRANCH   2   3
ENDBRANCH   1   2
BRANCH   1   6
ATOM      6  C   UNL     1      -3.394 -71.791 -12.767  1.00  0.00     0.000 C 
BRANCH   6   7
ATOM      7  C   UNL     1      -3.796 -72.991 -11.903  1.00  0.00    -0.003 C 
ATOM      8  C   UNL     1      -5.287 -73.291 -12.034  1.00  0.00     0.004 C 
ENDBRANCH   6   7
ENDBRANCH   1   6
TORSDOF 4
ENDMDL
MODEL 4
REMARK VINA RESULT:    -2.899     16.354     17.137
REMARK INTER + INTRA:          -3.685
REMARK INTER:                  -3.542
REMARK INTRA:                  -0.143
REMARK UNBOUND:                -0.108
REMARK SMILES CCCCCC(=O)[O-]
REMARK SMILES IDX 4 1 5 2 6 3 7 4 8 5 3 6 2 7 1 8
REMARK H PARENT
REMARK Flexibility Score: inf
ROOT
ATOM      1  C   UNL     1      -7.431 -71.503   4.968  1.00  0.00     0.006 C 
ENDROOT
BRANCH   1   2
ATOM      2  C   UNL     1      -7.986 -72.932   5.041  1.00  0.00     0.053 C 
BRANCH   2   3
ATOM      3  C   UNL     1      -8.804 -73.273   3.833  1.00  0.00     0.041 C 
ATOM      4  O   UNL     1      -8.447 -74.209   3.071  1.00  0.00    -0.550 OA
ATOM      5  O   UNL     1      -9.977 -72.579   3.569  1.00  0.00    -0.550 OA
ENDBRANCH   2   3
ENDBRANCH   1   2
BRANCH   1   6
ATOM      6  C   UNL     1      -7.996 -70.603   6.077  1.00  0.00     0.000 C 
BRANCH   6   7
ATOM      7  C   UNL     1      -9.171 -69.765   5.559  1.00  0.00    -0.003 C 
ATOM      8  C   UNL     1      -9.922 -69.097   6.708  1.00  0.00     0.004 C 
ENDBRANCH   6   7
ENDBRANCH   1   6
TORSDOF 4
ENDMDL
MODEL 5
REMARK VINA RESULT:    -2.880      6.134      7.728
REMARK INTER + INTRA:          -3.661
REMARK INTER:                  -3.521
REMARK INTRA:                  -0.140
REMARK UNBOUND:                -0.108
REMARK SMILES CCCCCC(=O)[O-]
REMARK SMILES IDX 4 1 5 2 6 3 7 4 8 5 3 6 2 7 1 8
REMARK H PARENT
REMARK Flexibility Score: inf
ROOT
ATOM      1  C   UNL     1      -5.020 -66.566  -7.342  1.00  0.00     0.006 C 
ENDROOT
BRANCH   1   2
ATOM      2  C   UNL     1      -4.425 -67.560  -6.335  1.00  0.00     0.053 C 
BRANCH   2   3
ATOM      3  C   UNL     1      -3.372 -66.924  -5.481  1.00  0.00     0.041 C 
ATOM      4  O   UNL     1      -3.356 -67.129  -4.239  1.00  0.00    -0.550 OA
ATOM      5  O   UNL     1      -2.389 -66.133  -6.062  1.00  0.00    -0.550 OA
ENDBRANCH   2   3
ENDBRANCH   1   2
BRANCH   1   6
ATOM      6  C   UNL     1      -5.122 -67.160  -8.755  1.00  0.00     0.000 C 
BRANCH   6   7
ATOM      7  C   UNL     1      -5.006 -68.688  -8.718  1.00  0.00    -0.003 C 
ATOM      8  C   UNL     1      -4.031 -69.194  -9.778  1.00  0.00     0.004 C 
ENDBRANCH   6   7
ENDBRANCH   1   6
TORSDOF 4
ENDMDL
MODEL 6
REMARK VINA RESULT:    -2.837      8.209      8.770
REMARK INTER + INTRA:          -3.609
REMARK INTER:                  -3.523
REMARK INTRA:                  -0.086
REMARK UNBOUND:                -0.108
REMARK SMILES CCCCCC(=O)[O-]
REMARK SMILES IDX 4 1 5 2 6 3 7 4 8 5 3 6 2 7 1 8
REMARK H PARENT
REMARK Flexibility Score: inf
ROOT
ATOM      1  C   UNL     1      -5.017 -65.917  -7.473  1.00  0.00     0.006 C 
ENDROOT
BRANCH   1   2
ATOM      2  C   UNL     1      -4.728 -66.970  -6.395  1.00  0.00     0.053 C 
BRANCH   2   3
ATOM      3  C   UNL     1      -3.468 -66.668  -5.645  1.00  0.00     0.041 C 
ATOM      4  O   UNL     1      -2.585 -65.932  -6.161  1.00  0.00    -0.550 OA
ATOM      5  O   UNL     1      -3.282 -67.171  -4.364  1.00  0.00    -0.550 OA
ENDBRANCH   2   3
ENDBRANCH   1   2
BRANCH   1   6
ATOM      6  C   UNL     1      -6.141 -64.955  -7.060  1.00  0.00     0.000 C 
BRANCH   6   7
ATOM      7  C   UNL     1      -7.237 -64.898  -8.129  1.00  0.00    -0.003 C 
ATOM      8  C   UNL     1      -8.615 -64.713  -7.499  1.00  0.00     0.004 C 
ENDBRANCH   6   7
ENDBRANCH   1   6
TORSDOF 4
ENDMDL
MODEL 7
REMARK VINA RESULT:    -2.829     15.161     15.964
REMARK INTER + INTRA:          -3.598
REMARK INTER:                  -3.495
REMARK INTRA:                  -0.103
REMARK UNBOUND:                -0.108
REMARK SMILES CCCCCC(=O)[O-]
REMARK SMILES IDX 4 1 5 2 6 3 7 4 8 5 3 6 2 7 1 8
REMARK H PARENT
REMARK Flexibility Score: inf
ROOT
ATOM      1  C   UNL     1      -8.408 -65.322   1.980  1.00  0.00     0.006 C 
ENDROOT
BRANCH   1   2
ATOM      2  C   UNL     1      -8.999 -65.169   0.572  1.00  0.00     0.053 C 
BRANCH   2   3
ATOM      3  C   UNL     1      -9.230 -63.732   0.218  1.00  0.00     0.041 C 
ATOM      4  O   UNL     1      -9.919 -62.996   0.973  1.00  0.00    -0.550 OA
ATOM      5  O   UNL     1      -8.656 -63.196  -0.927  1.00  0.00    -0.550 OA
ENDBRANCH   2   3
ENDBRANCH   1   2
BRANCH   1   6
ATOM      6  C   UNL     1      -6.910 -64.987   2.021  1.00  0.00     0.000 C 
BRANCH   6   7
ATOM      7  C   UNL     1      -6.195 -65.798   3.107  1.00  0.00    -0.003 C 
ATOM      8  C   UNL     1      -4.773 -66.157   2.683  1.00  0.00     0.004 C 
ENDBRANCH   6   7
ENDBRANCH   1   6
TORSDOF 4
ENDMDL
MODEL 8
REMARK VINA RESULT:    -2.824     14.912     16.090
REMARK INTER + INTRA:          -3.593
REMARK INTER:                  -3.436
REMARK INTRA:                  -0.157
REMARK UNBOUND:                -0.108
REMARK SMILES CCCCCC(=O)[O-]
REMARK SMILES IDX 4 1 5 2 6 3 7 4 8 5 3 6 2 7 1 8
REMARK H PARENT
REMARK Flexibility Score: inf
ROOT
ATOM      1  C   UNL     1      -7.500 -64.588   1.435  1.00  0.00     0.006 C 
ENDROOT
BRANCH   1   2
ATOM      2  C   UNL     1      -8.375 -64.893   0.212  1.00  0.00     0.053 C 
BRANCH   2   3
ATOM      3  C   UNL     1      -9.050 -63.661  -0.309  1.00  0.00     0.041 C 
ATOM      4  O   UNL     1     -10.220 -63.377   0.059  1.00  0.00    -0.550 OA
ATOM      5  O   UNL     1      -8.375 -62.811  -1.175  1.00  0.00    -0.550 OA
ENDBRANCH   2   3
ENDBRANCH   1   2
BRANCH   1   6
ATOM      6  C   UNL     1      -7.754 -65.568   2.590  1.00  0.00     0.000 C 
BRANCH   6   7
ATOM      7  C   UNL     1      -9.204 -66.064   2.580  1.00  0.00    -0.003 C 
ATOM      8  C   UNL     1      -9.934 -65.661   3.858  1.00  0.00     0.004 C 
ENDBRANCH   6   7
ENDBRANCH   1   6
TORSDOF 4
ENDMDL
MODEL 9
REMARK VINA RESULT:    -2.719      3.496      4.953
REMARK INTER + INTRA:          -3.463
REMARK INTER:                  -3.389
REMARK INTRA:                  -0.074
REMARK UNBOUND:                -0.108
REMARK SMILES CCCCCC(=O)[O-]
REMARK SMILES IDX 4 1 5 2 6 3 7 4 8 5 3 6 2 7 1 8
REMARK H PARENT
REMARK Flexibility Score: inf
ROOT
ATOM      1  C   UNL     1      -3.849 -70.037 -10.850  1.00  0.00     0.006 C 
ENDROOT
BRANCH   1   2
ATOM      2  C   UNL     1      -4.427 -68.681 -10.422  1.00  0.00     0.053 C 
BRANCH   2   3
ATOM      3  C   UNL     1      -4.852 -68.685  -8.986  1.00  0.00     0.041 C 
ATOM      4  O   UNL     1      -5.742 -69.483  -8.592  1.00  0.00    -0.550 OA
ATOM      5  O   UNL     1      -4.242 -67.830  -8.077  1.00  0.00    -0.550 OA
ENDBRANCH   2   3
ENDBRANCH   1   2
BRANCH   1   6
ATOM      6  C   UNL     1      -4.392 -70.497 -12.211  1.00  0.00     0.000 C 
BRANCH   6   7
ATOM      7  C   UNL     1      -3.645 -71.740 -12.708  1.00  0.00    -0.003 C 
ATOM      8  C   UNL     1      -4.061 -72.983 -11.927  1.00  0.00     0.004 C 
ENDBRANCH   6   7
ENDBRANCH   1   6
TORSDOF 4
ENDMDL
