MODEL 1
REMARK VINA RESULT:    -5.559      0.000      0.000
REMARK INTER + INTRA:          -7.031
REMARK INTER:                  -6.697
REMARK INTRA:                  -0.334
REMARK UNBOUND:                -0.334
REMARK SMILES O=c1c(O)c(-c2ccc(O)cc2O)oc2cc(O)cc(O)c12
REMARK SMILES IDX 5 1 3 2 2 3 1 4 22 5 20 6 19 7 17 8 16 9 15 10 14 11 6 12
REMARK SMILES IDX 8 13 7 14 9 15 11 16 12 17 10 18 13 20 4 22 21 24 18 26
REMARK H PARENT 10 19 13 21 4 23 21 25 18 27
REMARK Flexibility Score: inf
ROOT
ATOM      1  C   UNL     1      -4.453   7.796   1.495  1.00  0.00     0.184 A 
ATOM      2  C   UNL     1      -3.516   8.508   2.262  1.00  0.00     0.208 A 
ATOM      3  C   UNL     1      -2.297   8.881   1.675  1.00  0.00     0.238 A 
ATOM      4  O   UNL     1      -1.439   9.468   2.384  1.00  0.00    -0.285 OA
ATOM      5  C   UNL     1      -2.039   8.556   0.320  1.00  0.00     0.111 A 
ATOM      6  C   UNL     1      -0.856   8.920  -0.389  1.00  0.00     0.134 A 
ATOM      7  C   UNL     1      -0.652   8.435  -1.687  1.00  0.00     0.093 A 
ATOM      8  C   UNL     1      -1.620   7.654  -2.324  1.00  0.00     0.123 A 
ATOM      9  C   UNL     1      -2.805   7.344  -1.661  1.00  0.00     0.094 A 
ATOM     10  C   UNL     1      -3.020   7.782  -0.352  1.00  0.00     0.146 A 
ATOM     11  O   UNL     1      -4.159   7.454   0.247  1.00  0.00    -0.451 OA
ENDROOT
BRANCH   1  12
ATOM     12  C   UNL     1      -5.768   7.393   2.045  1.00  0.00     0.063 A 
ATOM     13  C   UNL     1      -8.190   7.629   2.112  1.00  0.00     0.047 A 
ATOM     14  C   UNL     1      -6.947   8.028   1.615  1.00  0.00     0.020 A 
ATOM     15  C   UNL     1      -8.274   6.583   3.038  1.00  0.00     0.119 A 
ATOM     16  C   UNL     1      -7.110   5.936   3.462  1.00  0.00     0.093 A 
ATOM     17  C   UNL     1      -5.858   6.331   2.970  1.00  0.00     0.130 A 
BRANCH  15  18
ATOM     18  O   UNL     1      -9.509   6.177   3.541  1.00  0.00    -0.508 OA
ATOM     19  H   UNL     1     -10.172   6.844   3.916  1.00  0.00     0.293 HD
ENDBRANCH  15  18
BRANCH  17  20
ATOM     20  O   UNL     1      -4.704   5.681   3.406  1.00  0.00    -0.507 OA
ATOM     21  H   UNL     1      -3.889   5.587   2.812  1.00  0.00     0.293 HD
ENDBRANCH  17  20
ENDBRANCH   1  12
BRANCH   2  22
ATOM     22  O   UNL     1      -3.787   8.805   3.601  1.00  0.00    -0.502 OA
ATOM     23  H   UNL     1      -3.056   9.012   4.270  1.00  0.00     0.293 HD
ENDBRANCH   2  22
BRANCH   6  24
ATOM     24  O   UNL     1       0.131   9.769   0.121  1.00  0.00    -0.507 OA
ATOM     25  H   UNL     1       0.719   9.557   0.913  1.00  0.00     0.293 HD
ENDBRANCH   6  24
BRANCH   8  26
ATOM     26  O   UNL     1      -1.416   7.189  -3.622  1.00  0.00    -0.508 OA
ATOM     27  H   UNL     1      -1.598   7.773  -4.430  1.00  0.00     0.293 HD
ENDBRANCH   8  26
TORSDOF 6
ENDMDL
MODEL 2
REMARK VINA RESULT:    -5.547     11.258     14.049
REMARK INTER + INTRA:          -7.016
REMARK INTER:                  -6.593
REMARK INTRA:                  -0.422
REMARK UNBOUND:                -0.334
REMARK SMILES O=c1c(O)c(-c2ccc(O)cc2O)oc2cc(O)cc(O)c12
REMARK SMILES IDX 5 1 3 2 2 3 1 4 22 5 20 6 19 7 17 8 16 9 15 10 14 11 6 12
REMARK SMILES IDX 8 13 7 14 9 15 11 16 12 17 10 18 13 20 4 22 21 24 18 26
REMARK H PARENT 10 19 13 21 4 23 21 25 18 27
REMARK Flexibility Score: inf
ROOT
ATOM      1  C   UNL     1      -5.178  -4.687   1.369  1.00  0.00     0.184 A 
ATOM      2  C   UNL     1      -5.474  -5.697   2.301  1.00  0.00     0.208 A 
ATOM      3  C   UNL     1      -6.776  -6.219   2.348  1.00  0.00     0.238 A 
ATOM      4  O   UNL     1      -7.049  -7.083   3.221  1.00  0.00    -0.285 OA
ATOM      5  C   UNL     1      -7.760  -5.740   1.449  1.00  0.00     0.111 A 
ATOM      6  C   UNL     1      -9.100  -6.226   1.381  1.00  0.00     0.134 A 
ATOM      7  C   UNL     1     -10.024  -5.590   0.541  1.00  0.00     0.093 A 
ATOM      8  C   UNL     1      -9.637  -4.528  -0.280  1.00  0.00     0.123 A 
ATOM      9  C   UNL     1      -8.317  -4.086  -0.264  1.00  0.00     0.094 A 
ATOM     10  C   UNL     1      -7.381  -4.676   0.590  1.00  0.00     0.146 A 
ATOM     11  O   UNL     1      -6.136  -4.216   0.582  1.00  0.00    -0.451 OA
ENDROOT
BRANCH   1  12
ATOM     12  C   UNL     1      -3.819  -4.109   1.250  1.00  0.00     0.063 A 
ATOM     13  C   UNL     1      -1.461  -4.358   0.701  1.00  0.00     0.047 A 
ATOM     14  C   UNL     1      -2.737  -4.909   0.841  1.00  0.00     0.020 A 
ATOM     15  C   UNL     1      -1.250  -2.998   0.958  1.00  0.00     0.119 A 
ATOM     16  C   UNL     1      -2.320  -2.191   1.351  1.00  0.00     0.093 A 
ATOM     17  C   UNL     1      -3.605  -2.737   1.497  1.00  0.00     0.130 A 
BRANCH  15  18
ATOM     18  O   UNL     1       0.019  -2.439   0.821  1.00  0.00    -0.508 OA
ATOM     19  H   UNL     1       0.727  -2.868   0.238  1.00  0.00     0.293 HD
ENDBRANCH  15  18
BRANCH  17  20
ATOM     20  O   UNL     1      -4.663  -1.921   1.897  1.00  0.00    -0.507 OA
ATOM     21  H   UNL     1      -5.073  -1.997   2.820  1.00  0.00     0.293 HD
ENDBRANCH  17  20
ENDBRANCH   1  12
BRANCH   2  22
ATOM     22  O   UNL     1      -4.489  -6.144   3.186  1.00  0.00    -0.502 OA
ATOM     23  H   UNL     1      -3.742  -5.545   3.515  1.00  0.00     0.293 HD
ENDBRANCH   2  22
BRANCH   6  24
ATOM     24  O   UNL     1      -9.565  -7.336   2.090  1.00  0.00    -0.507 OA
ATOM     25  H   UNL     1      -9.938  -8.174   1.668  1.00  0.00     0.293 HD
ENDBRANCH   6  24
BRANCH   8  26
ATOM     26  O   UNL     1     -10.558  -3.911  -1.125  1.00  0.00    -0.508 OA
ATOM     27  H   UNL     1     -10.368  -3.012  -1.552  1.00  0.00     0.293 HD
ENDBRANCH   8  26
TORSDOF 6
ENDMDL
MODEL 3
REMARK VINA RESULT:    -5.180     11.516     14.348
REMARK INTER + INTRA:          -6.574
REMARK INTER:                  -6.327
REMARK INTRA:                  -0.247
REMARK UNBOUND:                -0.334
REMARK SMILES O=c1c(O)c(-c2ccc(O)cc2O)oc2cc(O)cc(O)c12
REMARK SMILES IDX 5 1 3 2 2 3 1 4 22 5 20 6 19 7 17 8 16 9 15 10 14 11 6 12
REMARK SMILES IDX 8 13 7 14 9 15 11 16 12 17 10 18 13 20 4 22 21 24 18 26
REMARK H PARENT 10 19 13 21 4 23 21 25 18 27
REMARK Flexibility Score: inf
ROOT
ATOM      1  C   UNL     1      -6.034  -4.753   1.265  1.00  0.00     0.184 A 
ATOM      2  C   UNL     1      -6.349  -5.805   2.141  1.00  0.00     0.208 A 
ATOM      3  C   UNL     1      -7.641  -6.355   2.109  1.00  0.00     0.238 A 
ATOM      4  O   UNL     1      -7.933  -7.259   2.934  1.00  0.00    -0.285 OA
ATOM      5  C   UNL     1      -8.595  -5.858   1.188  1.00  0.00     0.111 A 
ATOM      6  C   UNL     1      -9.920  -6.367   1.041  1.00  0.00     0.134 A 
ATOM      7  C   UNL     1     -10.819  -5.715   0.187  1.00  0.00     0.093 A 
ATOM      8  C   UNL     1     -10.420  -4.613  -0.573  1.00  0.00     0.123 A 
ATOM      9  C   UNL     1      -9.111  -4.146  -0.480  1.00  0.00     0.094 A 
ATOM     10  C   UNL     1      -8.202  -4.753   0.390  1.00  0.00     0.146 A 
ATOM     11  O   UNL     1      -6.968  -4.268   0.456  1.00  0.00    -0.451 OA
ENDROOT
BRANCH   1  12
ATOM     12  C   UNL     1      -4.685  -4.144   1.230  1.00  0.00     0.063 A 
ATOM     13  C   UNL     1      -3.213  -2.248   1.643  1.00  0.00     0.047 A 
ATOM     14  C   UNL     1      -4.490  -2.815   1.649  1.00  0.00     0.020 A 
ATOM     15  C   UNL     1      -2.111  -3.004   1.228  1.00  0.00     0.119 A 
ATOM     16  C   UNL     1      -2.290  -4.329   0.822  1.00  0.00     0.093 A 
ATOM     17  C   UNL     1      -3.569  -4.906   0.824  1.00  0.00     0.130 A 
BRANCH  15  18
ATOM     18  O   UNL     1      -0.833  -2.449   1.218  1.00  0.00    -0.508 OA
ATOM     19  H   UNL     1      -0.272  -2.426   0.375  1.00  0.00     0.293 HD
ENDBRANCH  15  18
BRANCH  17  20
ATOM     20  O   UNL     1      -3.735  -6.227   0.410  1.00  0.00    -0.507 OA
ATOM     21  H   UNL     1      -3.340  -7.001   0.932  1.00  0.00     0.293 HD
ENDBRANCH  17  20
ENDBRANCH   1  12
BRANCH   2  22
ATOM     22  O   UNL     1      -5.395  -6.269   3.051  1.00  0.00    -0.502 OA
ATOM     23  H   UNL     1      -5.458  -6.086   4.045  1.00  0.00     0.293 HD
ENDBRANCH   2  22
BRANCH   6  24
ATOM     24  O   UNL     1     -10.392  -7.514   1.684  1.00  0.00    -0.507 OA
ATOM     25  H   UNL     1     -10.046  -8.448   1.521  1.00  0.00     0.293 HD
ENDBRANCH   6  24
BRANCH   8  26
ATOM     26  O   UNL     1     -11.316  -3.980  -1.432  1.00  0.00    -0.508 OA
ATOM     27  H   UNL     1     -11.149  -3.928  -2.430  1.00  0.00     0.293 HD
ENDBRANCH   8  26
TORSDOF 6
ENDMDL
MODEL 4
REMARK VINA RESULT:    -5.148     10.503     13.790
REMARK INTER + INTRA:          -6.536
REMARK INTER:                  -6.135
REMARK INTRA:                  -0.400
REMARK UNBOUND:                -0.334
REMARK SMILES O=c1c(O)c(-c2ccc(O)cc2O)oc2cc(O)cc(O)c12
REMARK SMILES IDX 5 1 3 2 2 3 1 4 22 5 20 6 19 7 17 8 16 9 15 10 14 11 6 12
REMARK SMILES IDX 8 13 7 14 9 15 11 16 12 17 10 18 13 20 4 22 21 24 18 26
REMARK H PARENT 10 19 13 21 4 23 21 25 18 27
REMARK Flexibility Score: inf
ROOT
ATOM      1  C   UNL     1       5.912   0.451  -4.374  1.00  0.00     0.184 A 
ATOM      2  C   UNL     1       6.992   0.975  -5.105  1.00  0.00     0.208 A 
ATOM      3  C   UNL     1       6.898   2.277  -5.620  1.00  0.00     0.238 A 
ATOM      4  O   UNL     1       7.845   2.720  -6.321  1.00  0.00    -0.285 OA
ATOM      5  C   UNL     1       5.734   3.047  -5.380  1.00  0.00     0.111 A 
ATOM      6  C   UNL     1       5.547   4.392  -5.819  1.00  0.00     0.134 A 
ATOM      7  C   UNL     1       4.304   5.013  -5.635  1.00  0.00     0.093 A 
ATOM      8  C   UNL     1       3.265   4.358  -4.970  1.00  0.00     0.123 A 
ATOM      9  C   UNL     1       3.458   3.067  -4.485  1.00  0.00     0.094 A 
ATOM     10  C   UNL     1       4.674   2.409  -4.685  1.00  0.00     0.146 A 
ATOM     11  O   UNL     1       4.811   1.174  -4.217  1.00  0.00    -0.451 OA
ENDROOT
BRANCH   1  12
ATOM     12  C   UNL     1       5.955  -0.906  -3.782  1.00  0.00     0.063 A 
ATOM     13  C   UNL     1       5.542  -3.299  -3.960  1.00  0.00     0.047 A 
ATOM     14  C   UNL     1       5.476  -2.014  -4.505  1.00  0.00     0.020 A 
ATOM     15  C   UNL     1       6.096  -3.496  -2.690  1.00  0.00     0.119 A 
ATOM     16  C   UNL     1       6.588  -2.405  -1.969  1.00  0.00     0.093 A 
ATOM     17  C   UNL     1       6.524  -1.111  -2.508  1.00  0.00     0.130 A 
BRANCH  15  18
ATOM     18  O   UNL     1       6.166  -4.773  -2.137  1.00  0.00    -0.508 OA
ATOM     19  H   UNL     1       6.179  -5.602  -2.718  1.00  0.00     0.293 HD
ENDBRANCH  15  18
BRANCH  17  20
ATOM     20  O   UNL     1       7.012  -0.030  -1.775  1.00  0.00    -0.507 OA
ATOM     21  H   UNL     1       7.149   0.881  -2.197  1.00  0.00     0.293 HD
ENDBRANCH  17  20
ENDBRANCH   1  12
BRANCH   2  22
ATOM     22  O   UNL     1       8.125   0.191  -5.341  1.00  0.00    -0.502 OA
ATOM     23  H   UNL     1       8.753  -0.093  -4.598  1.00  0.00     0.293 HD
ENDBRANCH   2  22
BRANCH   6  24
ATOM     24  O   UNL     1       6.548   5.166  -6.412  1.00  0.00    -0.507 OA
ATOM     25  H   UNL     1       6.696   6.148  -6.236  1.00  0.00     0.293 HD
ENDBRANCH   6  24
BRANCH   8  26
ATOM     26  O   UNL     1       2.037   4.989  -4.777  1.00  0.00    -0.508 OA
ATOM     27  H   UNL     1       1.973   5.988  -4.619  1.00  0.00     0.293 HD
ENDBRANCH   8  26
TORSDOF 6
ENDMDL
MODEL 5
REMARK VINA RESULT:    -4.908     10.003     13.618
REMARK INTER + INTRA:          -6.246
REMARK INTER:                  -5.819
REMARK INTRA:                  -0.427
REMARK UNBOUND:                -0.334
REMARK SMILES O=c1c(O)c(-c2ccc(O)cc2O)oc2cc(O)cc(O)c12
REMARK SMILES IDX 5 1 3 2 2 3 1 4 22 5 20 6 19 7 17 8 16 9 15 10 14 11 6 12
REMARK SMILES IDX 8 13 7 14 9 15 11 16 12 17 10 18 13 20 4 22 21 24 18 26
REMARK H PARENT 10 19 13 21 4 23 21 25 18 27
REMARK Flexibility Score: inf
ROOT
ATOM      1  C   UNL     1       5.195   0.675  -5.090  1.00  0.00     0.184 A 
ATOM      2  C   UNL     1       5.852   1.053  -6.273  1.00  0.00     0.208 A 
ATOM      3  C   UNL     1       5.509   2.270  -6.883  1.00  0.00     0.238 A 
ATOM      4  O   UNL     1       6.061   2.577  -7.972  1.00  0.00    -0.285 OA
ATOM      5  C   UNL     1       4.529   3.103  -6.291  1.00  0.00     0.111 A 
ATOM      6  C   UNL     1       4.132   4.376  -6.800  1.00  0.00     0.134 A 
ATOM      7  C   UNL     1       3.062   5.055  -6.205  1.00  0.00     0.093 A 
ATOM      8  C   UNL     1       2.417   4.537  -5.079  1.00  0.00     0.123 A 
ATOM      9  C   UNL     1       2.837   3.324  -4.539  1.00  0.00     0.094 A 
ATOM     10  C   UNL     1       3.878   2.605  -5.133  1.00  0.00     0.146 A 
ATOM     11  O   UNL     1       4.237   1.447  -4.592  1.00  0.00    -0.451 OA
ENDROOT
BRANCH   1  12
ATOM     12  C   UNL     1       5.524  -0.584  -4.382  1.00  0.00     0.063 A 
ATOM     13  C   UNL     1       5.443  -3.014  -4.250  1.00  0.00     0.047 A 
ATOM     14  C   UNL     1       5.109  -1.824  -4.901  1.00  0.00     0.020 A 
ATOM     15  C   UNL     1       6.205  -2.983  -3.077  1.00  0.00     0.119 A 
ATOM     16  C   UNL     1       6.635  -1.758  -2.559  1.00  0.00     0.093 A 
ATOM     17  C   UNL     1       6.302  -0.558  -3.206  1.00  0.00     0.130 A 
BRANCH  15  18
ATOM     18  O   UNL     1       6.544  -4.164  -2.419  1.00  0.00    -0.508 OA
ATOM     19  H   UNL     1       6.520  -4.233  -1.409  1.00  0.00     0.293 HD
ENDBRANCH  15  18
BRANCH  17  20
ATOM     20  O   UNL     1       6.732   0.658  -2.675  1.00  0.00    -0.507 OA
ATOM     21  H   UNL     1       7.628   1.060  -2.923  1.00  0.00     0.293 HD
ENDBRANCH  17  20
ENDBRANCH   1  12
BRANCH   2  22
ATOM     22  O   UNL     1       6.806   0.207  -6.846  1.00  0.00    -0.502 OA
ATOM     23  H   UNL     1       7.655  -0.059  -6.362  1.00  0.00     0.293 HD
ENDBRANCH   2  22
BRANCH   6  24
ATOM     24  O   UNL     1       4.768   5.024  -7.863  1.00  0.00    -0.507 OA
ATOM     25  H   UNL     1       4.773   4.696  -8.817  1.00  0.00     0.293 HD
ENDBRANCH   6  24
BRANCH   8  26
ATOM     26  O   UNL     1       1.364   5.228  -4.483  1.00  0.00    -0.508 OA
ATOM     27  H   UNL     1       1.510   5.830  -3.682  1.00  0.00     0.293 HD
ENDBRANCH   8  26
TORSDOF 6
ENDMDL
MODEL 6
REMARK VINA RESULT:    -4.810     12.866     13.847
REMARK INTER + INTRA:          -6.128
REMARK INTER:                  -5.652
REMARK INTRA:                  -0.476
REMARK UNBOUND:                -0.334
REMARK SMILES O=c1c(O)c(-c2ccc(O)cc2O)oc2cc(O)cc(O)c12
REMARK SMILES IDX 5 1 3 2 2 3 1 4 22 5 20 6 19 7 17 8 16 9 15 10 14 11 6 12
REMARK SMILES IDX 8 13 7 14 9 15 11 16 12 17 10 18 13 20 4 22 21 24 18 26
REMARK H PARENT 10 19 13 21 4 23 21 25 18 27
REMARK Flexibility Score: inf
ROOT
ATOM      1  C   UNL     1       0.357  -4.539   1.106  1.00  0.00     0.184 A 
ATOM      2  C   UNL     1       0.516  -5.542   0.134  1.00  0.00     0.208 A 
ATOM      3  C   UNL     1       1.765  -6.169   0.001  1.00  0.00     0.238 A 
ATOM      4  O   UNL     1       1.917  -7.027  -0.907  1.00  0.00    -0.285 OA
ATOM      5  C   UNL     1       2.833  -5.799   0.855  1.00  0.00     0.111 A 
ATOM      6  C   UNL     1       4.129  -6.397   0.836  1.00  0.00     0.134 A 
ATOM      7  C   UNL     1       5.147  -5.865   1.638  1.00  0.00     0.093 A 
ATOM      8  C   UNL     1       4.896  -4.799   2.506  1.00  0.00     0.123 A 
ATOM      9  C   UNL     1       3.619  -4.248   2.575  1.00  0.00     0.094 A 
ATOM     10  C   UNL     1       2.592  -4.734   1.760  1.00  0.00     0.146 A 
ATOM     11  O   UNL     1       1.393  -4.172   1.849  1.00  0.00    -0.451 OA
ENDROOT
BRANCH   1  12
ATOM     12  C   UNL     1      -0.939  -3.853   1.315  1.00  0.00     0.063 A 
ATOM     13  C   UNL     1      -3.155  -3.792   2.321  1.00  0.00     0.047 A 
ATOM     14  C   UNL     1      -1.943  -4.449   2.100  1.00  0.00     0.020 A 
ATOM     15  C   UNL     1      -3.378  -2.524   1.770  1.00  0.00     0.119 A 
ATOM     16  C   UNL     1      -2.383  -1.916   1.000  1.00  0.00     0.093 A 
ATOM     17  C   UNL     1      -1.164  -2.571   0.771  1.00  0.00     0.130 A 
BRANCH  15  18
ATOM     18  O   UNL     1      -4.584  -1.860   1.985  1.00  0.00    -0.508 OA
ATOM     19  H   UNL     1      -4.690  -1.182   2.730  1.00  0.00     0.293 HD
ENDBRANCH  15  18
BRANCH  17  20
ATOM     20  O   UNL     1      -0.181  -1.956  -0.005  1.00  0.00    -0.507 OA
ATOM     21  H   UNL     1      -0.352  -1.691  -0.968  1.00  0.00     0.293 HD
ENDBRANCH  17  20
ENDBRANCH   1  12
BRANCH   2  22
ATOM     22  O   UNL     1      -0.549  -5.879  -0.706  1.00  0.00    -0.502 OA
ATOM     23  H   UNL     1      -0.428  -6.043  -1.697  1.00  0.00     0.293 HD
ENDBRANCH   2  22
BRANCH   6  24
ATOM     24  O   UNL     1       4.460  -7.521   0.074  1.00  0.00    -0.507 OA
ATOM     25  H   UNL     1       4.761  -7.495  -0.888  1.00  0.00     0.293 HD
ENDBRANCH   6  24
BRANCH   8  26
ATOM     26  O   UNL     1       5.910  -4.286   3.312  1.00  0.00    -0.508 OA
ATOM     27  H   UNL     1       5.838  -3.369   3.737  1.00  0.00     0.293 HD
ENDBRANCH   8  26
TORSDOF 6
ENDMDL
MODEL 7
REMARK VINA RESULT:    -4.793     11.858     12.635
REMARK INTER + INTRA:          -6.107
REMARK INTER:                  -5.629
REMARK INTRA:                  -0.479
REMARK UNBOUND:                -0.334
REMARK SMILES O=c1c(O)c(-c2ccc(O)cc2O)oc2cc(O)cc(O)c12
REMARK SMILES IDX 5 1 3 2 2 3 1 4 22 5 20 6 19 7 17 8 16 9 15 10 14 11 6 12
REMARK SMILES IDX 8 13 7 14 9 15 11 16 12 17 10 18 13 20 4 22 21 24 18 26
REMARK H PARENT 10 19 13 21 4 23 21 25 18 27
REMARK Flexibility Score: inf
ROOT
ATOM      1  C   UNL     1       2.917   0.437   7.230  1.00  0.00     0.184 A 
ATOM      2  C   UNL     1       3.799   0.840   8.248  1.00  0.00     0.208 A 
ATOM      3  C   UNL     1       5.016   0.159   8.404  1.00  0.00     0.238 A 
ATOM      4  O   UNL     1       5.776   0.488   9.352  1.00  0.00    -0.285 OA
ATOM      5  C   UNL     1       5.346  -0.903   7.527  1.00  0.00     0.111 A 
ATOM      6  C   UNL     1       6.570  -1.637   7.567  1.00  0.00     0.134 A 
ATOM      7  C   UNL     1       6.735  -2.751   6.734  1.00  0.00     0.093 A 
ATOM      8  C   UNL     1       5.747  -3.117   5.817  1.00  0.00     0.123 A 
ATOM      9  C   UNL     1       4.574  -2.371   5.729  1.00  0.00     0.094 A 
ATOM     10  C   UNL     1       4.364  -1.277   6.572  1.00  0.00     0.146 A 
ATOM     11  O   UNL     1       3.227  -0.601   6.464  1.00  0.00    -0.451 OA
ENDROOT
BRANCH   1  12
ATOM     12  C   UNL     1       1.628   1.127   6.996  1.00  0.00     0.063 A 
ATOM     13  C   UNL     1       0.364   2.959   6.010  1.00  0.00     0.047 A 
ATOM     14  C   UNL     1       1.582   2.322   6.256  1.00  0.00     0.020 A 
ATOM     15  C   UNL     1      -0.829   2.405   6.491  1.00  0.00     0.119 A 
ATOM     16  C   UNL     1      -0.797   1.211   7.216  1.00  0.00     0.093 A 
ATOM     17  C   UNL     1       0.423   0.566   7.469  1.00  0.00     0.130 A 
BRANCH  15  18
ATOM     18  O   UNL     1      -2.049   3.032   6.252  1.00  0.00    -0.508 OA
ATOM     19  H   UNL     1      -2.703   3.223   7.001  1.00  0.00     0.293 HD
ENDBRANCH  15  18
BRANCH  17  20
ATOM     20  O   UNL     1       0.441  -0.622   8.200  1.00  0.00    -0.507 OA
ATOM     21  H   UNL     1       0.945  -1.438   7.875  1.00  0.00     0.293 HD
ENDBRANCH  17  20
ENDBRANCH   1  12
BRANCH   2  22
ATOM     22  O   UNL     1       3.445   1.882   9.110  1.00  0.00    -0.502 OA
ATOM     23  H   UNL     1       2.486   2.183   9.232  1.00  0.00     0.293 HD
ENDBRANCH   2  22
BRANCH   6  24
ATOM     24  O   UNL     1       7.656  -1.300   8.380  1.00  0.00    -0.507 OA
ATOM     25  H   UNL     1       7.653  -0.561   9.067  1.00  0.00     0.293 HD
ENDBRANCH   6  24
BRANCH   8  26
ATOM     26  O   UNL     1       5.926  -4.217   4.981  1.00  0.00    -0.508 OA
ATOM     27  H   UNL     1       5.138  -4.727   4.598  1.00  0.00     0.293 HD
ENDBRANCH   8  26
TORSDOF 6
ENDMDL
MODEL 8
REMARK VINA RESULT:    -4.741      9.896     13.365
REMARK INTER + INTRA:          -6.044
REMARK INTER:                  -5.560
REMARK INTRA:                  -0.484
REMARK UNBOUND:                -0.334
REMARK SMILES O=c1c(O)c(-c2ccc(O)cc2O)oc2cc(O)cc(O)c12
REMARK SMILES IDX 5 1 3 2 2 3 1 4 22 5 20 6 19 7 17 8 16 9 15 10 14 11 6 12
REMARK SMILES IDX 8 13 7 14 9 15 11 16 12 17 10 18 13 20 4 22 21 24 18 26
REMARK H PARENT 10 19 13 21 4 23 21 25 18 27
REMARK Flexibility Score: inf
ROOT
ATOM      1  C   UNL     1       5.505   1.120  -4.518  1.00  0.00     0.184 A 
ATOM      2  C   UNL     1       6.457   1.869  -5.231  1.00  0.00     0.208 A 
ATOM      3  C   UNL     1       6.071   3.090  -5.806  1.00  0.00     0.238 A 
ATOM      4  O   UNL     1       6.913   3.728  -6.490  1.00  0.00    -0.285 OA
ATOM      5  C   UNL     1       4.744   3.556  -5.644  1.00  0.00     0.111 A 
ATOM      6  C   UNL     1       4.255   4.798  -6.149  1.00  0.00     0.134 A 
ATOM      7  C   UNL     1       2.891   5.099  -6.041  1.00  0.00     0.093 A 
ATOM      8  C   UNL     1       2.012   4.232  -5.387  1.00  0.00     0.123 A 
ATOM      9  C   UNL     1       2.492   3.045  -4.838  1.00  0.00     0.094 A 
ATOM     10  C   UNL     1       3.841   2.700  -4.963  1.00  0.00     0.146 A 
ATOM     11  O   UNL     1       4.253   1.554  -4.436  1.00  0.00    -0.451 OA
ENDROOT
BRANCH   1  12
ATOM     12  C   UNL     1       5.850  -0.164  -3.867  1.00  0.00     0.063 A 
ATOM     13  C   UNL     1       6.844  -1.390  -2.012  1.00  0.00     0.047 A 
ATOM     14  C   UNL     1       6.542  -0.180  -2.642  1.00  0.00     0.020 A 
ATOM     15  C   UNL     1       6.449  -2.601  -2.592  1.00  0.00     0.119 A 
ATOM     16  C   UNL     1       5.750  -2.598  -3.801  1.00  0.00     0.093 A 
ATOM     17  C   UNL     1       5.445  -1.387  -4.442  1.00  0.00     0.130 A 
BRANCH  15  18
ATOM     18  O   UNL     1       6.745  -3.813  -1.972  1.00  0.00    -0.508 OA
ATOM     19  H   UNL     1       7.677  -4.210  -2.001  1.00  0.00     0.293 HD
ENDBRANCH  15  18
BRANCH  17  20
ATOM     20  O   UNL     1       4.752  -1.398  -5.652  1.00  0.00    -0.507 OA
ATOM     21  H   UNL     1       4.604  -0.552  -6.188  1.00  0.00     0.293 HD
ENDBRANCH  17  20
ENDBRANCH   1  12
BRANCH   2  22
ATOM     22  O   UNL     1       7.757   1.381  -5.388  1.00  0.00    -0.502 OA
ATOM     23  H   UNL     1       8.572   1.897  -5.081  1.00  0.00     0.293 HD
ENDBRANCH   2  22
BRANCH   6  24
ATOM     24  O   UNL     1       5.063   5.775  -6.738  1.00  0.00    -0.507 OA
ATOM     25  H   UNL     1       5.525   6.519  -6.236  1.00  0.00     0.293 HD
ENDBRANCH   6  24
BRANCH   8  26
ATOM     26  O   UNL     1       0.660   4.546  -5.269  1.00  0.00    -0.508 OA
ATOM     27  H   UNL     1       0.194   5.143  -5.942  1.00  0.00     0.293 HD
ENDBRANCH   8  26
TORSDOF 6
ENDMDL
MODEL 9
REMARK VINA RESULT:    -4.653     10.741     14.113
REMARK INTER + INTRA:          -5.939
REMARK INTER:                  -5.459
REMARK INTRA:                  -0.480
REMARK UNBOUND:                -0.334
REMARK SMILES O=c1c(O)c(-c2ccc(O)cc2O)oc2cc(O)cc(O)c12
REMARK SMILES IDX 5 1 3 2 2 3 1 4 22 5 20 6 19 7 17 8 16 9 15 10 14 11 6 12
REMARK SMILES IDX 8 13 7 14 9 15 11 16 12 17 10 18 13 20 4 22 21 24 18 26
REMARK H PARENT 10 19 13 21 4 23 21 25 18 27
REMARK Flexibility Score: inf
ROOT
ATOM      1  C   UNL     1       5.096   0.824  -4.932  1.00  0.00     0.184 A 
ATOM      2  C   UNL     1       5.583   0.294  -6.139  1.00  0.00     0.208 A 
ATOM      3  C   UNL     1       6.444  -0.814  -6.098  1.00  0.00     0.238 A 
ATOM      4  O   UNL     1       6.921  -1.249  -7.179  1.00  0.00    -0.285 OA
ATOM      5  C   UNL     1       6.791  -1.390  -4.852  1.00  0.00     0.111 A 
ATOM      6  C   UNL     1       7.622  -2.539  -4.694  1.00  0.00     0.134 A 
ATOM      7  C   UNL     1       8.003  -2.946  -3.409  1.00  0.00     0.093 A 
ATOM      8  C   UNL     1       7.527  -2.284  -2.274  1.00  0.00     0.123 A 
ATOM      9  C   UNL     1       6.666  -1.198  -2.417  1.00  0.00     0.094 A 
ATOM     10  C   UNL     1       6.299  -0.746  -3.687  1.00  0.00     0.146 A 
ATOM     11  O   UNL     1       5.486   0.300  -3.778  1.00  0.00    -0.451 OA
ENDROOT
BRANCH   1  12
ATOM     12  C   UNL     1       4.165   1.976  -4.905  1.00  0.00     0.063 A 
ATOM     13  C   UNL     1       1.931   2.892  -5.214  1.00  0.00     0.047 A 
ATOM     14  C   UNL     1       2.816   1.812  -5.267  1.00  0.00     0.020 A 
ATOM     15  C   UNL     1       2.379   4.148  -4.789  1.00  0.00     0.119 A 
ATOM     16  C   UNL     1       3.714   4.319  -4.414  1.00  0.00     0.093 A 
ATOM     17  C   UNL     1       4.610   3.241  -4.466  1.00  0.00     0.130 A 
BRANCH  15  18
ATOM     18  O   UNL     1       1.504   5.231  -4.733  1.00  0.00    -0.508 OA
ATOM     19  H   UNL     1       1.747   6.129  -5.134  1.00  0.00     0.293 HD
ENDBRANCH  15  18
BRANCH  17  20
ATOM     20  O   UNL     1       5.941   3.427  -4.095  1.00  0.00    -0.507 OA
ATOM     21  H   UNL     1       6.584   2.649  -4.011  1.00  0.00     0.293 HD
ENDBRANCH  17  20
ENDBRANCH   1  12
BRANCH   2  22
ATOM     22  O   UNL     1       5.237   0.889  -7.356  1.00  0.00    -0.502 OA
ATOM     23  H   UNL     1       5.436   0.455  -8.249  1.00  0.00     0.293 HD
ENDBRANCH   2  22
BRANCH   6  24
ATOM     24  O   UNL     1       8.077  -3.326  -5.757  1.00  0.00    -0.507 OA
ATOM     25  H   UNL     1       7.547  -4.065  -6.193  1.00  0.00     0.293 HD
ENDBRANCH   6  24
BRANCH   8  26
ATOM     26  O   UNL     1       7.897  -2.705  -0.999  1.00  0.00    -0.508 OA
ATOM     27  H   UNL     1       8.002  -3.687  -0.774  1.00  0.00     0.293 HD
ENDBRANCH   8  26
TORSDOF 6
ENDMDL
