MODEL 1
REMARK VINA RESULT:    -4.122      0.000      0.000
REMARK INTER + INTRA:          -5.782
REMARK INTER:                  -5.567
REMARK INTRA:                  -0.215
REMARK UNBOUND:                -0.215
REMARK SMILES CCCCCCCC(=O)[O-]
REMARK SMILES IDX 5 1 6 2 7 3 8 4 9 5 10 6 4 7 3 8 2 9 1 10
REMARK H PARENT
REMARK Flexibility Score: inf
ROOT
ATOM      1  C   UNL     1      11.309   7.471  11.502  1.00  0.00     0.000 C 
ENDROOT
BRANCH   1   2
ATOM      2  C   UNL     1      12.090   6.887  10.316  1.00  0.00     0.006 C 
BRANCH   2   3
ATOM      3  C   UNL     1      12.588   5.462  10.593  1.00  0.00     0.053 C 
BRANCH   3   4
ATOM      4  C   UNL     1      11.751   4.436   9.892  1.00  0.00     0.041 C 
ATOM      5  O   UNL     1      10.631   4.751   9.413  1.00  0.00    -0.550 OA
ATOM      6  O   UNL     1      12.224   3.138   9.738  1.00  0.00    -0.550 OA
ENDBRANCH   3   4
ENDBRANCH   2   3
ENDBRANCH   1   2
BRANCH   1   7
ATOM      7  C   UNL     1      11.584   8.971  11.656  1.00  0.00     0.000 C 
BRANCH   7   8
ATOM      8  C   UNL     1      12.023   9.591  10.325  1.00  0.00    -0.000 C 
BRANCH   8   9
ATOM      9  C   UNL     1      12.377  11.072  10.497  1.00  0.00    -0.003 C 
ATOM     10  C   UNL     1      12.740  11.712   9.160  1.00  0.00     0.004 C 
ENDBRANCH   8   9
ENDBRANCH   7   8
ENDBRANCH   1   7
TORSDOF 6
ENDMDL
MODEL 2
REMARK VINA RESULT:    -4.045      1.156      2.008
REMARK INTER + INTRA:          -5.678
REMARK INTER:                  -5.479
REMARK INTRA:                  -0.199
REMARK UNBOUND:                -0.215
REMARK SMILES CCCCCCCC(=O)[O-]
REMARK SMILES IDX 5 1 6 2 7 3 8 4 9 5 10 6 4 7 3 8 2 9 1 10
REMARK H PARENT
REMARK Flexibility Score: inf
ROOT
ATOM      1  C   UNL     1      11.972   9.330  10.389  1.00  0.00     0.000 C 
ENDROOT
BRANCH   1   2
ATOM      2  C   UNL     1      11.583   8.022  11.093  1.00  0.00     0.006 C 
BRANCH   2   3
ATOM      3  C   UNL     1      12.082   6.783  10.337  1.00  0.00     0.053 C 
BRANCH   3   4
ATOM      4  C   UNL     1      11.427   5.529  10.830  1.00  0.00     0.041 C 
ATOM      5  O   UNL     1      12.102   4.476  10.974  1.00  0.00    -0.550 OA
ATOM      6  O   UNL     1      10.078   5.532  11.163  1.00  0.00    -0.550 OA
ENDBRANCH   3   4
ENDBRANCH   2   3
ENDBRANCH   1   2
BRANCH   1   7
ATOM      7  C   UNL     1      12.088  10.482  11.393  1.00  0.00     0.000 C 
BRANCH   7   8
ATOM      8  C   UNL     1      12.341  11.813  10.678  1.00  0.00    -0.000 C 
BRANCH   8   9
ATOM      9  C   UNL     1      12.713  11.587   9.208  1.00  0.00    -0.003 C 
ATOM     10  C   UNL     1      12.792  12.908   8.450  1.00  0.00     0.004 C 
ENDBRANCH   8   9
ENDBRANCH   7   8
ENDBRANCH   1   7
TORSDOF 6
ENDMDL
MODEL 3
REMARK VINA RESULT:    -3.982      3.502      5.643
REMARK INTER + INTRA:          -5.593
REMARK INTER:                  -5.328
REMARK INTRA:                  -0.265
REMARK UNBOUND:                -0.215
REMARK SMILES CCCCCCCC(=O)[O-]
REMARK SMILES IDX 5 1 6 2 7 3 8 4 9 5 10 6 4 7 3 8 2 9 1 10
REMARK H PARENT
REMARK Flexibility Score: inf
ROOT
ATOM      1  C   UNL     1      11.319   7.463  11.682  1.00  0.00     0.000 C 
ENDROOT
BRANCH   1   2
ATOM      2  C   UNL     1      11.495   8.985  11.588  1.00  0.00     0.006 C 
BRANCH   2   3
ATOM      3  C   UNL     1      12.063   9.422  10.231  1.00  0.00     0.053 C 
BRANCH   3   4
ATOM      4  C   UNL     1      12.527  10.846  10.255  1.00  0.00     0.041 C 
ATOM      5  O   UNL     1      12.985  11.381   9.212  1.00  0.00    -0.550 OA
ATOM      6  O   UNL     1      12.423  11.593  11.422  1.00  0.00    -0.550 OA
ENDBRANCH   3   4
ENDBRANCH   2   3
ENDBRANCH   1   2
BRANCH   1   7
ATOM      7  C   UNL     1      11.996   6.757  10.502  1.00  0.00     0.000 C 
BRANCH   7   8
ATOM      8  C   UNL     1      11.626   5.270  10.463  1.00  0.00    -0.000 C 
BRANCH   8   9
ATOM      9  C   UNL     1      10.117   5.074  10.649  1.00  0.00    -0.003 C 
ATOM     10  C   UNL     1       9.491   4.417   9.422  1.00  0.00     0.004 C 
ENDBRANCH   8   9
ENDBRANCH   7   8
ENDBRANCH   1   7
TORSDOF 6
ENDMDL
MODEL 4
REMARK VINA RESULT:    -3.966      4.339      6.225
REMARK INTER + INTRA:          -5.573
REMARK INTER:                  -5.286
REMARK INTRA:                  -0.287
REMARK UNBOUND:                -0.215
REMARK SMILES CCCCCCCC(=O)[O-]
REMARK SMILES IDX 5 1 6 2 7 3 8 4 9 5 10 6 4 7 3 8 2 9 1 10
REMARK H PARENT
REMARK Flexibility Score: inf
ROOT
ATOM      1  C   UNL     1      12.119   9.155  10.199  1.00  0.00     0.000 C 
ENDROOT
BRANCH   1   2
ATOM      2  C   UNL     1      12.507  10.629  10.009  1.00  0.00     0.006 C 
BRANCH   2   3
ATOM      3  C   UNL     1      12.261  11.463  11.274  1.00  0.00     0.053 C 
BRANCH   3   4
ATOM      4  C   UNL     1      11.679  12.805  10.950  1.00  0.00     0.041 C 
ATOM      5  O   UNL     1      11.997  13.393   9.884  1.00  0.00    -0.550 OA
ATOM      6  O   UNL     1      10.759  13.392  11.811  1.00  0.00    -0.550 OA
ENDBRANCH   3   4
ENDBRANCH   2   3
ENDBRANCH   1   2
BRANCH   1   7
ATOM      7  C   UNL     1      11.454   8.933  11.563  1.00  0.00     0.000 C 
BRANCH   7   8
ATOM      8  C   UNL     1      11.307   7.439  11.867  1.00  0.00    -0.000 C 
BRANCH   8   9
ATOM      9  C   UNL     1      11.700   6.588  10.654  1.00  0.00    -0.003 C 
ATOM     10  C   UNL     1      12.529   5.378  11.075  1.00  0.00     0.004 C 
ENDBRANCH   8   9
ENDBRANCH   7   8
ENDBRANCH   1   7
TORSDOF 6
ENDMDL
MODEL 5
REMARK VINA RESULT:    -3.914      1.392      2.136
REMARK INTER + INTRA:          -5.502
REMARK INTER:                  -5.303
REMARK INTRA:                  -0.199
REMARK UNBOUND:                -0.215
REMARK SMILES CCCCCCCC(=O)[O-]
REMARK SMILES IDX 5 1 6 2 7 3 8 4 9 5 10 6 4 7 3 8 2 9 1 10
REMARK H PARENT
REMARK Flexibility Score: inf
ROOT
ATOM      1  C   UNL     1      12.038   6.658  10.593  1.00  0.00     0.000 C 
ENDROOT
BRANCH   1   2
ATOM      2  C   UNL     1      11.885   5.147  10.817  1.00  0.00     0.006 C 
BRANCH   2   3
ATOM      3  C   UNL     1      13.220   4.471  11.159  1.00  0.00     0.053 C 
BRANCH   3   4
ATOM      4  C   UNL     1      13.060   2.995  11.362  1.00  0.00     0.041 C 
ATOM      5  O   UNL     1      13.260   2.486  12.495  1.00  0.00    -0.550 OA
ATOM      6  O   UNL     1      12.658   2.186  10.305  1.00  0.00    -0.550 OA
ENDBRANCH   3   4
ENDBRANCH   2   3
ENDBRANCH   1   2
BRANCH   1   7
ATOM      7  C   UNL     1      11.220   7.452  11.619  1.00  0.00     0.000 C 
BRANCH   7   8
ATOM      8  C   UNL     1      11.526   8.951  11.527  1.00  0.00    -0.000 C 
BRANCH   8   9
ATOM      9  C   UNL     1      12.152   9.303  10.173  1.00  0.00    -0.003 C 
ATOM     10  C   UNL     1      12.553  10.774  10.117  1.00  0.00     0.004 C 
ENDBRANCH   8   9
ENDBRANCH   7   8
ENDBRANCH   1   7
TORSDOF 6
ENDMDL
MODEL 6
REMARK VINA RESULT:    -3.907      4.617      6.427
REMARK INTER + INTRA:          -5.492
REMARK INTER:                  -5.238
REMARK INTRA:                  -0.255
REMARK UNBOUND:                -0.215
REMARK SMILES CCCCCCCC(=O)[O-]
REMARK SMILES IDX 5 1 6 2 7 3 8 4 9 5 10 6 4 7 3 8 2 9 1 10
REMARK H PARENT
REMARK Flexibility Score: inf
ROOT
ATOM      1  C   UNL     1      12.165  10.170  11.394  1.00  0.00     0.000 C 
ENDROOT
BRANCH   1   2
ATOM      2  C   UNL     1      12.406  11.610  10.920  1.00  0.00     0.006 C 
BRANCH   2   3
ATOM      3  C   UNL     1      12.580  11.701   9.398  1.00  0.00     0.053 C 
BRANCH   3   4
ATOM      4  C   UNL     1      12.552  13.120   8.919  1.00  0.00     0.041 C 
ATOM      5  O   UNL     1      12.468  14.066   9.744  1.00  0.00    -0.550 OA
ATOM      6  O   UNL     1      12.651  13.399   7.560  1.00  0.00    -0.550 OA
ENDBRANCH   3   4
ENDBRANCH   2   3
ENDBRANCH   1   2
BRANCH   1   7
ATOM      7  C   UNL     1      12.059   9.210  10.203  1.00  0.00     0.000 C 
BRANCH   7   8
ATOM      8  C   UNL     1      11.861   7.765  10.675  1.00  0.00    -0.000 C 
BRANCH   8   9
ATOM      9  C   UNL     1      11.200   7.724  12.058  1.00  0.00    -0.003 C 
ATOM     10  C   UNL     1      10.635   6.338  12.357  1.00  0.00     0.004 C 
ENDBRANCH   8   9
ENDBRANCH   7   8
ENDBRANCH   1   7
TORSDOF 6
ENDMDL
MODEL 7
REMARK VINA RESULT:    -3.906      3.493      5.778
REMARK INTER + INTRA:          -5.491
REMARK INTER:                  -5.234
REMARK INTRA:                  -0.257
REMARK UNBOUND:                -0.215
REMARK SMILES CCCCCCCC(=O)[O-]
REMARK SMILES IDX 5 1 6 2 7 3 8 4 9 5 10 6 4 7 3 8 2 9 1 10
REMARK H PARENT
REMARK Flexibility Score: inf
ROOT
ATOM      1  C   UNL     1      11.320   7.179  11.458  1.00  0.00     0.000 C 
ENDROOT
BRANCH   1   2
ATOM      2  C   UNL     1      11.501   8.703  11.511  1.00  0.00     0.006 C 
BRANCH   2   3
ATOM      3  C   UNL     1      12.092   9.264  10.210  1.00  0.00     0.053 C 
BRANCH   3   4
ATOM      4  C   UNL     1      12.373  10.732  10.316  1.00  0.00     0.041 C 
ATOM      5  O   UNL     1      12.806  11.367   9.319  1.00  0.00    -0.550 OA
ATOM      6  O   UNL     1      12.126  11.405  11.507  1.00  0.00    -0.550 OA
ENDBRANCH   3   4
ENDBRANCH   2   3
ENDBRANCH   1   2
BRANCH   1   7
ATOM      7  C   UNL     1      12.055   6.580  10.254  1.00  0.00     0.000 C 
BRANCH   7   8
ATOM      8  C   UNL     1      12.742   5.261  10.627  1.00  0.00    -0.000 C 
BRANCH   8   9
ATOM      9  C   UNL     1      11.942   4.507  11.696  1.00  0.00    -0.003 C 
ATOM     10  C   UNL     1      12.511   3.110  11.927  1.00  0.00     0.004 C 
ENDBRANCH   8   9
ENDBRANCH   7   8
ENDBRANCH   1   7
TORSDOF 6
ENDMDL
MODEL 8
REMARK VINA RESULT:    -3.758      3.516      6.316
REMARK INTER + INTRA:          -5.291
REMARK INTER:                  -5.032
REMARK INTRA:                  -0.259
REMARK UNBOUND:                -0.215
REMARK SMILES CCCCCCCC(=O)[O-]
REMARK SMILES IDX 5 1 6 2 7 3 8 4 9 5 10 6 4 7 3 8 2 9 1 10
REMARK H PARENT
REMARK Flexibility Score: inf
ROOT
ATOM      1  C   UNL     1      12.713   2.913  10.814  1.00  0.00     0.000 C 
ENDROOT
BRANCH   1   2
ATOM      2  C   UNL     1      13.018   4.347  11.270  1.00  0.00     0.006 C 
BRANCH   2   3
ATOM      3  C   UNL     1      12.358   5.397  10.367  1.00  0.00     0.053 C 
BRANCH   3   4
ATOM      4  C   UNL     1      10.884   5.169  10.234  1.00  0.00     0.041 C 
ATOM      5  O   UNL     1      10.115   5.415  11.200  1.00  0.00    -0.550 OA
ATOM      6  O   UNL     1      10.354   4.716   9.032  1.00  0.00    -0.550 OA
ENDBRANCH   3   4
ENDBRANCH   2   3
ENDBRANCH   1   2
BRANCH   1   7
ATOM      7  C   UNL     1      13.100   1.897  11.895  1.00  0.00     0.000 C 
BRANCH   7   8
ATOM      8  C   UNL     1      12.923   2.491  13.297  1.00  0.00    -0.000 C 
BRANCH   8   9
ATOM      9  C   UNL     1      13.253   1.456  14.378  1.00  0.00    -0.003 C 
ATOM     10  C   UNL     1      14.018   2.092  15.536  1.00  0.00     0.004 C 
ENDBRANCH   8   9
ENDBRANCH   7   8
ENDBRANCH   1   7
TORSDOF 6
ENDMDL
MODEL 9
REMARK VINA RESULT:    -3.690      3.043      4.452
REMARK INTER + INTRA:          -5.200
REMARK INTER:                  -4.616
REMARK INTRA:                  -0.584
REMARK UNBOUND:                -0.215
REMARK SMILES CCCCCCCC(=O)[O-]
REMARK SMILES IDX 5 1 6 2 7 3 8 4 9 5 10 6 4 7 3 8 2 9 1 10
REMARK H PARENT
REMARK Flexibility Score: inf
ROOT
ATOM      1  C   UNL     1      10.525   3.111   9.364  1.00  0.00     0.000 C 
ENDROOT
BRANCH   1   2
ATOM      2  C   UNL     1      12.005   2.711   9.454  1.00  0.00     0.006 C 
BRANCH   2   3
ATOM      3  C   UNL     1      12.294   1.821  10.671  1.00  0.00     0.053 C 
BRANCH   3   4
ATOM      4  C   UNL     1      13.145   2.524  11.684  1.00  0.00     0.041 C 
ATOM      5  O   UNL     1      13.659   3.640  11.414  1.00  0.00    -0.550 OA
ATOM      6  O   UNL     1      13.342   1.960  12.939  1.00  0.00    -0.550 OA
ENDBRANCH   3   4
ENDBRANCH   2   3
ENDBRANCH   1   2
BRANCH   1   7
ATOM      7  C   UNL     1      10.355   4.626   9.518  1.00  0.00     0.000 C 
BRANCH   7   8
ATOM      8  C   UNL     1      10.105   5.007  10.982  1.00  0.00    -0.000 C 
BRANCH   8   9
ATOM      9  C   UNL     1      11.086   6.091  11.443  1.00  0.00    -0.003 C 
ATOM     10  C   UNL     1      12.014   6.515  10.308  1.00  0.00     0.004 C 
ENDBRANCH   8   9
ENDBRANCH   7   8
ENDBRANCH   1   7
TORSDOF 6
ENDMDL
