MODEL 1
REMARK VINA RESULT:    -4.079      0.000      0.000
REMARK INTER + INTRA:          -6.561
REMARK INTER:                  -6.225
REMARK INTRA:                  -0.335
REMARK UNBOUND:                -0.335
REMARK SMILES O=C([O-])CCCCCCCCC(=O)[O-]
REMARK SMILES IDX 7 1 6 2 5 3 4 4 2 5 1 6 3 7 8 8 9 9 10 10 11 11 12 12 13 13
REMARK SMILES IDX 14 14
REMARK H PARENT
REMARK Flexibility Score: inf
ROOT
ATOM      1  C   UNL     1      -0.892   9.289   8.378  1.00  0.00     0.000 C 
ENDROOT
BRANCH   1   2
ATOM      2  C   UNL     1      -1.996  10.125   7.696  1.00  0.00     0.000 C 
BRANCH   2   3
ATOM      3  C   UNL     1      -2.813   9.335   6.659  1.00  0.00     0.006 C 
BRANCH   3   4
ATOM      4  C   UNL     1      -2.237   7.943   6.379  1.00  0.00     0.053 C 
BRANCH   4   5
ATOM      5  C   UNL     1      -2.332   7.621   4.921  1.00  0.00     0.041 C 
ATOM      6  O   UNL     1      -1.677   6.660   4.439  1.00  0.00    -0.550 OA
ATOM      7  O   UNL     1      -3.184   8.352   4.103  1.00  0.00    -0.550 OA
ENDBRANCH   4   5
ENDBRANCH   3   4
ENDBRANCH   2   3
ENDBRANCH   1   2
BRANCH   1   8
ATOM      8  C   UNL     1       0.454  10.033   8.424  1.00  0.00     0.000 C 
BRANCH   8   9
ATOM      9  C   UNL     1       1.595   9.174   8.997  1.00  0.00     0.000 C 
BRANCH   9  10
ATOM     10  C   UNL     1       2.924   9.253   8.220  1.00  0.00     0.006 C 
BRANCH  10  11
ATOM     11  C   UNL     1       3.443   7.902   7.704  1.00  0.00     0.053 C 
BRANCH  11  12
ATOM     12  C   UNL     1       4.821   8.015   7.129  1.00  0.00     0.041 C 
ATOM     13  O   UNL     1       5.000   7.921   5.886  1.00  0.00    -0.550 OA
ATOM     14  O   UNL     1       5.913   8.190   7.970  1.00  0.00    -0.550 OA
ENDBRANCH  11  12
ENDBRANCH  10  11
ENDBRANCH   9  10
ENDBRANCH   8   9
ENDBRANCH   1   8
TORSDOF 9
ENDMDL
MODEL 2
REMARK VINA RESULT:    -4.022      0.591      6.365
REMARK INTER + INTRA:          -6.473
REMARK INTER:                  -6.115
REMARK INTRA:                  -0.358
REMARK UNBOUND:                -0.335
REMARK SMILES O=C([O-])CCCCCCCCC(=O)[O-]
REMARK SMILES IDX 7 1 6 2 5 3 4 4 2 5 1 6 3 7 8 8 9 9 10 10 11 11 12 12 13 13
REMARK SMILES IDX 14 14
REMARK H PARENT
REMARK Flexibility Score: inf
ROOT
ATOM      1  C   UNL     1       0.415   9.344   8.360  1.00  0.00     0.000 C 
ENDROOT
BRANCH   1   2
ATOM      2  C   UNL     1       1.334   9.297   9.599  1.00  0.00     0.000 C 
BRANCH   2   3
ATOM      3  C   UNL     1       2.809   9.020   9.260  1.00  0.00     0.006 C 
BRANCH   3   4
ATOM      4  C   UNL     1       3.017   8.589   7.804  1.00  0.00     0.053 C 
BRANCH   4   5
ATOM      5  C   UNL     1       4.425   8.130   7.591  1.00  0.00     0.041 C 
ATOM      6  O   UNL     1       5.280   8.261   8.505  1.00  0.00    -0.550 OA
ATOM      7  O   UNL     1       4.781   7.511   6.399  1.00  0.00    -0.550 OA
ENDBRANCH   4   5
ENDBRANCH   3   4
ENDBRANCH   2   3
ENDBRANCH   1   2
BRANCH   1   8
ATOM      8  C   UNL     1      -1.049   9.024   8.709  1.00  0.00     0.000 C 
BRANCH   8   9
ATOM      9  C   UNL     1      -2.047  10.002   8.065  1.00  0.00     0.000 C 
BRANCH   9  10
ATOM     10  C   UNL     1      -2.603   9.559   6.697  1.00  0.00     0.006 C 
BRANCH  10  11
ATOM     11  C   UNL     1      -2.480   8.053   6.416  1.00  0.00     0.053 C 
BRANCH  11  12
ATOM     12  C   UNL     1      -2.433   7.760   4.948  1.00  0.00     0.041 C 
ATOM     13  O   UNL     1      -1.633   6.899   4.499  1.00  0.00    -0.550 OA
ATOM     14  O   UNL     1      -3.251   8.463   4.073  1.00  0.00    -0.550 OA
ENDBRANCH  11  12
ENDBRANCH  10  11
ENDBRANCH   9  10
ENDBRANCH   8   9
ENDBRANCH   1   8
TORSDOF 9
ENDMDL
MODEL 3
REMARK VINA RESULT:    -3.903     13.643     14.846
REMARK INTER + INTRA:          -6.291
REMARK INTER:                  -5.723
REMARK INTRA:                  -0.568
REMARK UNBOUND:                -0.335
REMARK SMILES O=C([O-])CCCCCCCCC(=O)[O-]
REMARK SMILES IDX 7 1 6 2 5 3 4 4 2 5 1 6 3 7 8 8 9 9 10 10 11 11 12 12 13 13
REMARK SMILES IDX 14 14
REMARK H PARENT
REMARK Flexibility Score: inf
ROOT
ATOM      1  C   UNL     1       3.866  -6.969   8.194  1.00  0.00     0.000 C 
ENDROOT
BRANCH   1   2
ATOM      2  C   UNL     1       3.499  -6.061   9.387  1.00  0.00     0.000 C 
BRANCH   2   3
ATOM      3  C   UNL     1       2.593  -4.879   9.004  1.00  0.00     0.006 C 
BRANCH   3   4
ATOM      4  C   UNL     1       2.232  -4.860   7.514  1.00  0.00     0.053 C 
BRANCH   4   5
ATOM      5  C   UNL     1       0.816  -5.299   7.313  1.00  0.00     0.041 C 
ATOM      6  O   UNL     1      -0.070  -4.461   7.002  1.00  0.00    -0.550 OA
ATOM      7  O   UNL     1       0.484  -6.644   7.421  1.00  0.00    -0.550 OA
ENDBRANCH   4   5
ENDBRANCH   3   4
ENDBRANCH   2   3
ENDBRANCH   1   2
BRANCH   1   8
ATOM      8  C   UNL     1       5.388  -7.125   8.029  1.00  0.00     0.000 C 
BRANCH   8   9
ATOM      9  C   UNL     1       5.928  -6.438   6.763  1.00  0.00     0.000 C 
BRANCH   9  10
ATOM     10  C   UNL     1       7.170  -5.551   6.982  1.00  0.00     0.006 C 
BRANCH  10  11
ATOM     11  C   UNL     1       7.475  -5.235   8.455  1.00  0.00     0.053 C 
BRANCH  11  12
ATOM     12  C   UNL     1       8.720  -4.415   8.605  1.00  0.00     0.041 C 
ATOM     13  O   UNL     1       9.845  -4.914   8.339  1.00  0.00    -0.550 OA
ATOM     14  O   UNL     1       8.639  -3.108   9.070  1.00  0.00    -0.550 OA
ENDBRANCH  11  12
ENDBRANCH  10  11
ENDBRANCH   9  10
ENDBRANCH   8   9
ENDBRANCH   1   8
TORSDOF 9
ENDMDL
MODEL 4
REMARK VINA RESULT:    -3.883     13.672     16.069
REMARK INTER + INTRA:          -6.262
REMARK INTER:                  -5.590
REMARK INTRA:                  -0.672
REMARK UNBOUND:                -0.335
REMARK SMILES O=C([O-])CCCCCCCCC(=O)[O-]
REMARK SMILES IDX 7 1 6 2 5 3 4 4 2 5 1 6 3 7 8 8 9 9 10 10 11 11 12 12 13 13
REMARK SMILES IDX 14 14
REMARK H PARENT
REMARK Flexibility Score: inf
ROOT
ATOM      1  C   UNL     1       5.392  -7.245   8.489  1.00  0.00     0.000 C 
ENDROOT
BRANCH   1   2
ATOM      2  C   UNL     1       5.584  -6.433   7.191  1.00  0.00     0.000 C 
BRANCH   2   3
ATOM      3  C   UNL     1       6.941  -5.711   7.113  1.00  0.00     0.006 C 
BRANCH   3   4
ATOM      4  C   UNL     1       7.444  -5.235   8.480  1.00  0.00     0.053 C 
BRANCH   4   5
ATOM      5  C   UNL     1       8.636  -4.346   8.318  1.00  0.00     0.041 C 
ATOM      6  O   UNL     1       8.538  -3.109   8.527  1.00  0.00    -0.550 OA
ATOM      7  O   UNL     1       9.870  -4.892   7.984  1.00  0.00    -0.550 OA
ENDBRANCH   4   5
ENDBRANCH   3   4
ENDBRANCH   2   3
ENDBRANCH   1   2
BRANCH   1   8
ATOM      8  C   UNL     1       4.015  -6.997   9.131  1.00  0.00     0.000 C 
BRANCH   8   9
ATOM      9  C   UNL     1       3.840  -5.556   9.640  1.00  0.00     0.000 C 
BRANCH   9  10
ATOM     10  C   UNL     1       2.536  -4.862   9.198  1.00  0.00     0.006 C 
BRANCH  10  11
ATOM     11  C   UNL     1       2.281  -4.888   7.683  1.00  0.00     0.053 C 
BRANCH  11  12
ATOM     12  C   UNL     1       0.927  -5.438   7.353  1.00  0.00     0.041 C 
ATOM     13  O   UNL     1      -0.008  -4.663   7.019  1.00  0.00    -0.550 OA
ATOM     14  O   UNL     1       0.690  -6.803   7.447  1.00  0.00    -0.550 OA
ENDBRANCH  11  12
ENDBRANCH  10  11
ENDBRANCH   9  10
ENDBRANCH   8   9
ENDBRANCH   1   8
TORSDOF 9
ENDMDL
MODEL 5
REMARK VINA RESULT:    -3.817     16.592     18.156
REMARK INTER + INTRA:          -6.161
REMARK INTER:                  -5.527
REMARK INTRA:                  -0.633
REMARK UNBOUND:                -0.335
REMARK SMILES O=C([O-])CCCCCCCCC(=O)[O-]
REMARK SMILES IDX 7 1 6 2 5 3 4 4 2 5 1 6 3 7 8 8 9 9 10 10 11 11 12 12 13 13
REMARK SMILES IDX 14 14
REMARK H PARENT
REMARK Flexibility Score: inf
ROOT
ATOM      1  C   UNL     1      -6.209   2.855  -7.827  1.00  0.00     0.000 C 
ENDROOT
BRANCH   1   2
ATOM      2  C   UNL     1      -6.346   1.522  -8.592  1.00  0.00     0.000 C 
BRANCH   2   3
ATOM      3  C   UNL     1      -7.007   1.670  -9.973  1.00  0.00     0.006 C 
BRANCH   3   4
ATOM      4  C   UNL     1      -7.788   2.980 -10.124  1.00  0.00     0.053 C 
BRANCH   4   5
ATOM      5  C   UNL     1      -9.217   2.786  -9.723  1.00  0.00     0.041 C 
ATOM      6  O   UNL     1      -9.857   1.780 -10.125  1.00  0.00    -0.550 OA
ATOM      7  O   UNL     1      -9.826   3.692  -8.864  1.00  0.00    -0.550 OA
ENDBRANCH   4   5
ENDBRANCH   3   4
ENDBRANCH   2   3
ENDBRANCH   1   2
BRANCH   1   8
ATOM      8  C   UNL     1      -4.846   2.984  -7.123  1.00  0.00     0.000 C 
BRANCH   8   9
ATOM      9  C   UNL     1      -3.717   2.244  -7.862  1.00  0.00     0.000 C 
BRANCH   9  10
ATOM     10  C   UNL     1      -3.154   2.980  -9.094  1.00  0.00     0.006 C 
BRANCH  10  11
ATOM     11  C   UNL     1      -2.311   4.222  -8.766  1.00  0.00     0.053 C 
BRANCH  11  12
ATOM     12  C   UNL     1      -2.926   5.475  -9.310  1.00  0.00     0.041 C 
ATOM     13  O   UNL     1      -2.253   6.538  -9.369  1.00  0.00    -0.550 OA
ATOM     14  O   UNL     1      -4.253   5.476  -9.719  1.00  0.00    -0.550 OA
ENDBRANCH  11  12
ENDBRANCH  10  11
ENDBRANCH   9  10
ENDBRANCH   8   9
ENDBRANCH   1   8
TORSDOF 9
ENDMDL
MODEL 6
REMARK VINA RESULT:    -3.775     16.524     19.002
REMARK INTER + INTRA:          -6.096
REMARK INTER:                  -5.469
REMARK INTRA:                  -0.627
REMARK UNBOUND:                -0.335
REMARK SMILES O=C([O-])CCCCCCCCC(=O)[O-]
REMARK SMILES IDX 7 1 6 2 5 3 4 4 2 5 1 6 3 7 8 8 9 9 10 10 11 11 12 12 13 13
REMARK SMILES IDX 14 14
REMARK H PARENT
REMARK Flexibility Score: inf
ROOT
ATOM      1  C   UNL     1      -4.937   3.017  -7.105  1.00  0.00     0.000 C 
ENDROOT
BRANCH   1   2
ATOM      2  C   UNL     1      -3.843   2.248  -7.876  1.00  0.00     0.000 C 
BRANCH   2   3
ATOM      3  C   UNL     1      -3.416   2.934  -9.184  1.00  0.00     0.006 C 
BRANCH   3   4
ATOM      4  C   UNL     1      -2.417   4.075  -8.963  1.00  0.00     0.053 C 
BRANCH   4   5
ATOM      5  C   UNL     1      -3.062   5.396  -9.238  1.00  0.00     0.041 C 
ATOM      6  O   UNL     1      -2.437   6.466  -9.014  1.00  0.00    -0.550 OA
ATOM      7  O   UNL     1      -4.336   5.446  -9.790  1.00  0.00    -0.550 OA
ENDBRANCH   4   5
ENDBRANCH   3   4
ENDBRANCH   2   3
ENDBRANCH   1   2
BRANCH   1   8
ATOM      8  C   UNL     1      -6.354   2.621  -7.556  1.00  0.00     0.000 C 
BRANCH   8   9
ATOM      9  C   UNL     1      -6.370   1.368  -8.450  1.00  0.00     0.000 C 
BRANCH   9  10
ATOM     10  C   UNL     1      -6.960   1.581  -9.858  1.00  0.00     0.006 C 
BRANCH  10  11
ATOM     11  C   UNL     1      -7.487   3.001 -10.121  1.00  0.00     0.053 C 
BRANCH  11  12
ATOM     12  C   UNL     1      -8.980   3.071 -10.018  1.00  0.00     0.041 C 
ATOM     13  O   UNL     1      -9.673   2.026 -10.124  1.00  0.00    -0.550 OA
ATOM     14  O   UNL     1      -9.607   4.298  -9.840  1.00  0.00    -0.550 OA
ENDBRANCH  11  12
ENDBRANCH  10  11
ENDBRANCH   9  10
ENDBRANCH   8   9
ENDBRANCH   1   8
TORSDOF 9
ENDMDL
MODEL 7
REMARK VINA RESULT:    -3.751     16.023     17.232
REMARK INTER + INTRA:          -6.060
REMARK INTER:                  -5.534
REMARK INTRA:                  -0.526
REMARK UNBOUND:                -0.335
REMARK SMILES O=C([O-])CCCCCCCCC(=O)[O-]
REMARK SMILES IDX 7 1 6 2 5 3 4 4 2 5 1 6 3 7 8 8 9 9 10 10 11 11 12 12 13 13
REMARK SMILES IDX 14 14
REMARK H PARENT
REMARK Flexibility Score: inf
ROOT
ATOM      1  C   UNL     1      -2.787   5.547  -8.921  1.00  0.00     0.000 C 
ENDROOT
BRANCH   1   2
ATOM      2  C   UNL     1      -2.330   6.397 -10.125  1.00  0.00     0.000 C 
BRANCH   2   3
ATOM      3  C   UNL     1      -2.310   7.908  -9.838  1.00  0.00     0.006 C 
BRANCH   3   4
ATOM      4  C   UNL     1      -3.671   8.577 -10.061  1.00  0.00     0.053 C 
BRANCH   4   5
ATOM      5  C   UNL     1      -4.171   9.183  -8.788  1.00  0.00     0.041 C 
ATOM      6  O   UNL     1      -3.359   9.641  -7.942  1.00  0.00    -0.550 OA
ATOM      7  O   UNL     1      -5.537   9.288  -8.558  1.00  0.00    -0.550 OA
ENDBRANCH   4   5
ENDBRANCH   3   4
ENDBRANCH   2   3
ENDBRANCH   1   2
BRANCH   1   8
ATOM      8  C   UNL     1      -2.130   4.155  -8.909  1.00  0.00     0.000 C 
BRANCH   8   9
ATOM      9  C   UNL     1      -2.879   3.131  -9.780  1.00  0.00     0.000 C 
BRANCH   9  10
ATOM     10  C   UNL     1      -4.240   2.671  -9.219  1.00  0.00     0.006 C 
BRANCH  10  11
ATOM     11  C   UNL     1      -4.209   2.239  -7.745  1.00  0.00     0.053 C 
BRANCH  11  12
ATOM     12  C   UNL     1      -5.062   3.120  -6.886  1.00  0.00     0.041 C 
ATOM     13  O   UNL     1      -6.293   2.886  -6.760  1.00  0.00    -0.550 OA
ATOM     14  O   UNL     1      -4.503   4.222  -6.251  1.00  0.00    -0.550 OA
ENDBRANCH  11  12
ENDBRANCH  10  11
ENDBRANCH   9  10
ENDBRANCH   8   9
ENDBRANCH   1   8
TORSDOF 9
ENDMDL
MODEL 8
REMARK VINA RESULT:    -3.549     16.551     17.594
REMARK INTER + INTRA:          -5.751
REMARK INTER:                  -5.410
REMARK INTRA:                  -0.341
REMARK UNBOUND:                -0.335
REMARK SMILES O=C([O-])CCCCCCCCC(=O)[O-]
REMARK SMILES IDX 7 1 6 2 5 3 4 4 2 5 1 6 3 7 8 8 9 9 10 10 11 11 12 12 13 13
REMARK SMILES IDX 14 14
REMARK H PARENT
REMARK Flexibility Score: inf
ROOT
ATOM      1  C   UNL     1      -3.667   4.062  -9.753  1.00  0.00     0.000 C 
ENDROOT
BRANCH   1   2
ATOM      2  C   UNL     1      -3.527   2.572  -9.377  1.00  0.00     0.000 C 
BRANCH   2   3
ATOM      3  C   UNL     1      -4.019   2.248  -7.955  1.00  0.00     0.006 C 
BRANCH   3   4
ATOM      4  C   UNL     1      -5.317   2.977  -7.592  1.00  0.00     0.053 C 
BRANCH   4   5
ATOM      5  C   UNL     1      -6.493   2.291  -8.212  1.00  0.00     0.041 C 
ATOM      6  O   UNL     1      -7.521   2.950  -8.521  1.00  0.00    -0.550 OA
ATOM      7  O   UNL     1      -6.435   0.933  -8.496  1.00  0.00    -0.550 OA
ENDBRANCH   4   5
ENDBRANCH   3   4
ENDBRANCH   2   3
ENDBRANCH   1   2
BRANCH   1   8
ATOM      8  C   UNL     1      -2.688   4.954  -8.968  1.00  0.00     0.000 C 
BRANCH   8   9
ATOM      9  C   UNL     1      -2.269   6.214  -9.745  1.00  0.00     0.000 C 
BRANCH   9  10
ATOM     10  C   UNL     1      -3.416   7.195 -10.061  1.00  0.00     0.006 C 
BRANCH  10  11
ATOM     11  C   UNL     1      -3.112   8.662  -9.718  1.00  0.00     0.053 C 
BRANCH  11  12
ATOM     12  C   UNL     1      -4.156   9.254  -8.822  1.00  0.00     0.041 C 
ATOM     13  O   UNL     1      -3.821   9.997  -7.862  1.00  0.00    -0.550 OA
ATOM     14  O   UNL     1      -5.497   8.958  -9.027  1.00  0.00    -0.550 OA
ENDBRANCH  11  12
ENDBRANCH  10  11
ENDBRANCH   9  10
ENDBRANCH   8   9
ENDBRANCH   1   8
TORSDOF 9
ENDMDL
MODEL 9
REMARK VINA RESULT:    -2.180      5.027      7.041
REMARK INTER + INTRA:          -3.662
REMARK INTER:                  -3.163
REMARK INTRA:                  -0.500
REMARK UNBOUND:                -0.335
REMARK SMILES O=C([O-])CCCCCCCCC(=O)[O-]
REMARK SMILES IDX 7 1 6 2 5 3 4 4 2 5 1 6 3 7 8 8 9 9 10 10 11 11 12 12 13 13
REMARK SMILES IDX 14 14
REMARK H PARENT
REMARK Flexibility Score: inf
ROOT
ATOM      1  C   UNL     1      -2.942   9.790   6.798  1.00  0.00     0.000 C 
ENDROOT
BRANCH   1   2
ATOM      2  C   UNL     1      -2.270   8.434   6.497  1.00  0.00     0.000 C 
BRANCH   2   3
ATOM      3  C   UNL     1      -2.553   7.910   5.079  1.00  0.00     0.006 C 
BRANCH   3   4
ATOM      4  C   UNL     1      -2.117   6.453   4.882  1.00  0.00     0.053 C 
BRANCH   4   5
ATOM      5  C   UNL     1      -3.226   5.521   5.256  1.00  0.00     0.041 C 
ATOM      6  O   UNL     1      -3.917   4.967   4.361  1.00  0.00    -0.550 OA
ATOM      7  O   UNL     1      -3.463   5.224   6.592  1.00  0.00    -0.550 OA
ENDBRANCH   4   5
ENDBRANCH   3   4
ENDBRANCH   2   3
ENDBRANCH   1   2
BRANCH   1   8
ATOM      8  C   UNL     1      -2.927  10.125   8.301  1.00  0.00     0.000 C 
BRANCH   8   9
ATOM      9  C   UNL     1      -4.289   9.897   8.980  1.00  0.00     0.000 C 
BRANCH   9  10
ATOM     10  C   UNL     1      -4.372   8.637   9.865  1.00  0.00     0.006 C 
BRANCH  10  11
ATOM     11  C   UNL     1      -4.958   7.402   9.163  1.00  0.00     0.053 C 
BRANCH  11  12
ATOM     12  C   UNL     1      -6.416   7.230   9.459  1.00  0.00     0.041 C 
ATOM     13  O   UNL     1      -6.837   6.161   9.973  1.00  0.00    -0.550 OA
ATOM     14  O   UNL     1      -7.314   8.238   9.134  1.00  0.00    -0.550 OA
ENDBRANCH  11  12
ENDBRANCH  10  11
ENDBRANCH   9  10
ENDBRANCH   8   9
ENDBRANCH   1   8
TORSDOF 9
ENDMDL
