MODEL 1
REMARK VINA RESULT:    -5.559      0.000      0.000
REMARK INTER + INTRA:         -20.157
REMARK INTER:                 -14.497
REMARK INTRA:                  -5.660
REMARK UNBOUND:                -5.660
REMARK SMILES CCCCCCCCCCCCCCCCCCCCCCCCCCCCCO
REMARK SMILES IDX 16 1 15 2 14 3 13 4 12 5 11 6 10 7 9 8 8 9 7 10 6 11 5 12
REMARK SMILES IDX 4 13 3 14 2 15 1 16 17 17 18 18 19 19 20 20 21 21 22 22
REMARK SMILES IDX 23 23 24 24 25 25 26 26 27 27 28 28 29 29 30 30
REMARK H PARENT 30 31
REMARK Flexibility Score: inf
ROOT
ATOM      1  C   UNL     1     203.062 202.270 237.543  1.00  0.00     0.000 C 
ENDROOT
BRANCH   1   2
ATOM      2  C   UNL     1     203.910 203.441 238.063  1.00  0.00     0.000 C 
BRANCH   2   3
ATOM      3  C   UNL     1     203.395 204.783 237.521  1.00  0.00     0.000 C 
BRANCH   3   4
ATOM      4  C   UNL     1     203.301 204.806 235.986  1.00  0.00     0.000 C 
BRANCH   4   5
ATOM      5  C   UNL     1     202.195 205.750 235.478  1.00  0.00     0.000 C 
BRANCH   5   6
ATOM      6  C   UNL     1     201.302 205.095 234.412  1.00  0.00     0.000 C 
BRANCH   6   7
ATOM      7  C   UNL     1     201.406 203.562 234.409  1.00  0.00     0.000 C 
BRANCH   7   8
ATOM      8  C   UNL     1     200.108 202.927 233.891  1.00  0.00    -0.000 C 
BRANCH   8   9
ATOM      9  C   UNL     1     199.535 203.651 232.661  1.00  0.00    -0.000 C 
BRANCH   9  10
ATOM     10  C   UNL     1     200.256 203.299 231.342  1.00  0.00    -0.000 C 
BRANCH  10  11
ATOM     11  C   UNL     1     201.051 204.489 230.777  1.00  0.00    -0.000 C 
BRANCH  11  12
ATOM     12  C   UNL     1     202.190 204.049 229.844  1.00  0.00    -0.000 C 
BRANCH  12  13
ATOM     13  C   UNL     1     203.542 204.663 230.236  1.00  0.00    -0.000 C 
BRANCH  13  14
ATOM     14  C   UNL     1     203.363 205.766 231.286  1.00  0.00    -0.000 C 
BRANCH  14  15
ATOM     15  C   UNL     1     204.428 205.655 232.385  1.00  0.00    -0.003 C 
ATOM     16  C   UNL     1     204.611 206.985 233.112  1.00  0.00     0.004 C 
ENDBRANCH  14  15
ENDBRANCH  13  14
ENDBRANCH  12  13
ENDBRANCH  11  12
ENDBRANCH  10  11
ENDBRANCH   9  10
ENDBRANCH   8   9
ENDBRANCH   7   8
ENDBRANCH   6   7
ENDBRANCH   5   6
ENDBRANCH   4   5
ENDBRANCH   3   4
ENDBRANCH   2   3
ENDBRANCH   1   2
BRANCH   1  17
ATOM     17  C   UNL     1     203.914 201.122 236.969  1.00  0.00     0.000 C 
BRANCH  17  18
ATOM     18  C   UNL     1     203.838 200.955 235.438  1.00  0.00     0.000 C 
BRANCH  18  19
ATOM     19  C   UNL     1     205.180 201.119 234.696  1.00  0.00     0.000 C 
BRANCH  19  20
ATOM     20  C   UNL     1     205.550 202.572 234.349  1.00  0.00     0.000 C 
BRANCH  20  21
ATOM     21  C   UNL     1     207.007 202.712 233.873  1.00  0.00     0.000 C 
BRANCH  21  22
ATOM     22  C   UNL     1     207.258 202.040 232.514  1.00  0.00     0.000 C 
BRANCH  22  23
ATOM     23  C   UNL     1     206.550 202.768 231.358  1.00  0.00     0.000 C 
BRANCH  23  24
ATOM     24  C   UNL     1     205.761 201.800 230.459  1.00  0.00     0.000 C 
BRANCH  24  25
ATOM     25  C   UNL     1     204.514 201.231 231.158  1.00  0.00     0.000 C 
BRANCH  25  26
ATOM     26  C   UNL     1     203.390 200.886 230.157  1.00  0.00     0.000 C 
BRANCH  26  27
ATOM     27  C   UNL     1     202.160 200.234 230.815  1.00  0.00     0.002 C 
BRANCH  27  28
ATOM     28  C   UNL     1     202.217 200.153 232.354  1.00  0.00     0.028 C 
BRANCH  28  29
ATOM     29  C   UNL     1     202.427 198.729 232.883  1.00  0.00     0.156 C 
BRANCH  29  30
ATOM     30  O   UNL     1     203.682 198.239 232.500  1.00  0.00    -0.396 OA
ATOM     31  H   UNL     1     203.505 197.453 231.921  1.00  0.00     0.210 HD
ENDBRANCH  29  30
ENDBRANCH  28  29
ENDBRANCH  27  28
ENDBRANCH  26  27
ENDBRANCH  25  26
ENDBRANCH  24  25
ENDBRANCH  23  24
ENDBRANCH  22  23
ENDBRANCH  21  22
ENDBRANCH  20  21
ENDBRANCH  19  20
ENDBRANCH  18  19
ENDBRANCH  17  18
ENDBRANCH   1  17
TORSDOF 28
ENDMDL
MODEL 2
REMARK VINA RESULT:    -5.553      2.090      4.271
REMARK INTER + INTRA:         -20.139
REMARK INTER:                 -15.133
REMARK INTRA:                  -5.007
REMARK UNBOUND:                -5.660
REMARK SMILES CCCCCCCCCCCCCCCCCCCCCCCCCCCCCO
REMARK SMILES IDX 16 1 15 2 14 3 13 4 12 5 11 6 10 7 9 8 8 9 7 10 6 11 5 12
REMARK SMILES IDX 4 13 3 14 2 15 1 16 17 17 18 18 19 19 20 20 21 21 22 22
REMARK SMILES IDX 23 23 24 24 25 25 26 26 27 27 28 28 29 29 30 30
REMARK H PARENT 30 31
REMARK Flexibility Score: inf
ROOT
ATOM      1  C   UNL     1     203.191 203.576 238.661  1.00  0.00     0.000 C 
ENDROOT
BRANCH   1   2
ATOM      2  C   UNL     1     203.742 204.576 237.633  1.00  0.00     0.000 C 
BRANCH   2   3
ATOM      3  C   UNL     1     202.765 204.762 236.461  1.00  0.00     0.000 C 
BRANCH   3   4
ATOM      4  C   UNL     1     203.380 204.365 235.108  1.00  0.00     0.000 C 
BRANCH   4   5
ATOM      5  C   UNL     1     202.426 203.505 234.258  1.00  0.00     0.000 C 
BRANCH   5   6
ATOM      6  C   UNL     1     201.147 204.258 233.859  1.00  0.00     0.000 C 
BRANCH   6   7
ATOM      7  C   UNL     1     200.076 203.334 233.260  1.00  0.00     0.000 C 
BRANCH   7   8
ATOM      8  C   UNL     1     200.273 203.179 231.745  1.00  0.00    -0.000 C 
BRANCH   8   9
ATOM      9  C   UNL     1     201.073 204.336 231.122  1.00  0.00    -0.000 C 
BRANCH   9  10
ATOM     10  C   UNL     1     201.943 203.911 229.920  1.00  0.00    -0.000 C 
BRANCH  10  11
ATOM     11  C   UNL     1     202.134 202.386 229.850  1.00  0.00    -0.000 C 
BRANCH  11  12
ATOM     12  C   UNL     1     203.608 201.969 229.975  1.00  0.00    -0.000 C 
BRANCH  12  13
ATOM     13  C   UNL     1     203.807 200.789 230.937  1.00  0.00    -0.000 C 
BRANCH  13  14
ATOM     14  C   UNL     1     202.461 200.176 231.342  1.00  0.00    -0.000 C 
BRANCH  14  15
ATOM     15  C   UNL     1     202.458 199.792 232.828  1.00  0.00    -0.003 C 
ATOM     16  C   UNL     1     202.457 198.276 233.006  1.00  0.00     0.004 C 
ENDBRANCH  14  15
ENDBRANCH  13  14
ENDBRANCH  12  13
ENDBRANCH  11  12
ENDBRANCH  10  11
ENDBRANCH   9  10
ENDBRANCH   8   9
ENDBRANCH   7   8
ENDBRANCH   6   7
ENDBRANCH   5   6
ENDBRANCH   4   5
ENDBRANCH   3   4
ENDBRANCH   2   3
ENDBRANCH   1   2
BRANCH   1  17
ATOM     17  C   UNL     1     203.970 202.248 238.683  1.00  0.00     0.000 C 
BRANCH  17  18
ATOM     18  C   UNL     1     203.387 201.134 237.789  1.00  0.00     0.000 C 
BRANCH  18  19
ATOM     19  C   UNL     1     203.876 201.149 236.326  1.00  0.00     0.000 C 
BRANCH  19  20
ATOM     20  C   UNL     1     204.501 199.828 235.844  1.00  0.00     0.000 C 
BRANCH  20  21
ATOM     21  C   UNL     1     205.535 200.040 234.723  1.00  0.00     0.000 C 
BRANCH  21  22
ATOM     22  C   UNL     1     205.595 201.495 234.235  1.00  0.00     0.000 C 
BRANCH  22  23
ATOM     23  C   UNL     1     206.941 201.838 233.571  1.00  0.00     0.000 C 
BRANCH  23  24
ATOM     24  C   UNL     1     206.792 202.106 232.064  1.00  0.00     0.000 C 
BRANCH  24  25
ATOM     25  C   UNL     1     206.659 203.605 231.743  1.00  0.00     0.000 C 
BRANCH  25  26
ATOM     26  C   UNL     1     205.210 204.112 231.914  1.00  0.00     0.000 C 
BRANCH  26  27
ATOM     27  C   UNL     1     204.942 205.456 231.212  1.00  0.00     0.002 C 
BRANCH  27  28
ATOM     28  C   UNL     1     203.957 206.386 231.949  1.00  0.00     0.028 C 
BRANCH  28  29
ATOM     29  C   UNL     1     204.577 207.095 233.159  1.00  0.00     0.156 C 
BRANCH  29  30
ATOM     30  O   UNL     1     204.972 208.396 232.821  1.00  0.00    -0.396 OA
ATOM     31  H   UNL     1     205.881 208.315 232.433  1.00  0.00     0.210 HD
ENDBRANCH  29  30
ENDBRANCH  28  29
ENDBRANCH  27  28
ENDBRANCH  26  27
ENDBRANCH  25  26
ENDBRANCH  24  25
ENDBRANCH  23  24
ENDBRANCH  22  23
ENDBRANCH  21  22
ENDBRANCH  20  21
ENDBRANCH  19  20
ENDBRANCH  18  19
ENDBRANCH  17  18
ENDBRANCH   1  17
TORSDOF 28
ENDMDL
MODEL 3
REMARK VINA RESULT:    -5.538      2.591      6.857
REMARK INTER + INTRA:         -20.101
REMARK INTER:                 -14.964
REMARK INTRA:                  -5.137
REMARK UNBOUND:                -5.660
REMARK SMILES CCCCCCCCCCCCCCCCCCCCCCCCCCCCCO
REMARK SMILES IDX 16 1 15 2 14 3 13 4 12 5 11 6 10 7 9 8 8 9 7 10 6 11 5 12
REMARK SMILES IDX 4 13 3 14 2 15 1 16 17 17 18 18 19 19 20 20 21 21 22 22
REMARK SMILES IDX 23 23 24 24 25 25 26 26 27 27 28 28 29 29 30 30
REMARK H PARENT 30 31
REMARK Flexibility Score: inf
ROOT
ATOM      1  C   UNL     1     204.718 204.502 229.873  1.00  0.00     0.000 C 
ENDROOT
BRANCH   1   2
ATOM      2  C   UNL     1     204.677 203.144 230.591  1.00  0.00     0.000 C 
BRANCH   2   3
ATOM      3  C   UNL     1     205.937 202.318 230.287  1.00  0.00     0.000 C 
BRANCH   3   4
ATOM      4  C   UNL     1     206.589 201.742 231.556  1.00  0.00     0.000 C 
BRANCH   4   5
ATOM      5  C   UNL     1     207.077 202.840 232.518  1.00  0.00     0.000 C 
BRANCH   5   6
ATOM      6  C   UNL     1     206.632 202.596 233.969  1.00  0.00     0.000 C 
BRANCH   6   7
ATOM      7  C   UNL     1     205.168 202.141 234.073  1.00  0.00     0.000 C 
BRANCH   7   8
ATOM      8  C   UNL     1     205.073 200.742 234.698  1.00  0.00    -0.000 C 
BRANCH   8   9
ATOM      9  C   UNL     1     203.821 199.969 234.252  1.00  0.00    -0.000 C 
BRANCH   9  10
ATOM     10  C   UNL     1     203.939 199.359 232.839  1.00  0.00    -0.000 C 
BRANCH  10  11
ATOM     11  C   UNL     1     203.049 200.086 231.815  1.00  0.00    -0.000 C 
BRANCH  11  12
ATOM     12  C   UNL     1     202.038 201.034 232.478  1.00  0.00    -0.000 C 
BRANCH  12  13
ATOM     13  C   UNL     1     201.512 202.105 231.511  1.00  0.00    -0.000 C 
BRANCH  13  14
ATOM     14  C   UNL     1     200.860 203.264 232.275  1.00  0.00    -0.000 C 
BRANCH  14  15
ATOM     15  C   UNL     1     200.599 204.455 231.344  1.00  0.00    -0.003 C 
ATOM     16  C   UNL     1     201.036 204.146 229.915  1.00  0.00     0.004 C 
ENDBRANCH  14  15
ENDBRANCH  13  14
ENDBRANCH  12  13
ENDBRANCH  11  12
ENDBRANCH  10  11
ENDBRANCH   9  10
ENDBRANCH   8   9
ENDBRANCH   7   8
ENDBRANCH   6   7
ENDBRANCH   5   6
ENDBRANCH   4   5
ENDBRANCH   3   4
ENDBRANCH   2   3
ENDBRANCH   1   2
BRANCH   1  17
ATOM     17  C   UNL     1     204.648 205.696 230.844  1.00  0.00     0.000 C 
BRANCH  17  18
ATOM     18  C   UNL     1     204.193 205.346 232.275  1.00  0.00     0.000 C 
BRANCH  18  19
ATOM     19  C   UNL     1     203.297 206.404 232.952  1.00  0.00     0.000 C 
BRANCH  19  20
ATOM     20  C   UNL     1     203.223 206.299 234.486  1.00  0.00     0.000 C 
BRANCH  20  21
ATOM     21  C   UNL     1     202.057 205.414 234.959  1.00  0.00     0.000 C 
BRANCH  21  22
ATOM     22  C   UNL     1     202.526 204.157 235.709  1.00  0.00     0.000 C 
BRANCH  22  23
ATOM     23  C   UNL     1     203.274 204.493 237.011  1.00  0.00     0.000 C 
BRANCH  23  24
ATOM     24  C   UNL     1     204.255 203.381 237.420  1.00  0.00     0.000 C 
BRANCH  24  25
ATOM     25  C   UNL     1     203.541 202.057 237.746  1.00  0.00     0.000 C 
BRANCH  25  26
ATOM     26  C   UNL     1     203.052 202.002 239.210  1.00  0.00     0.000 C 
BRANCH  26  27
ATOM     27  C   UNL     1     203.859 202.905 240.161  1.00  0.00     0.002 C 
BRANCH  27  28
ATOM     28  C   UNL     1     203.330 202.956 241.609  1.00  0.00     0.028 C 
BRANCH  28  29
ATOM     29  C   UNL     1     204.442 203.040 242.662  1.00  0.00     0.156 C 
BRANCH  29  30
ATOM     30  O   UNL     1     204.617 201.804 243.296  1.00  0.00    -0.396 OA
ATOM     31  H   UNL     1     204.689 202.000 244.266  1.00  0.00     0.210 HD
ENDBRANCH  29  30
ENDBRANCH  28  29
ENDBRANCH  27  28
ENDBRANCH  26  27
ENDBRANCH  25  26
ENDBRANCH  24  25
ENDBRANCH  23  24
ENDBRANCH  22  23
ENDBRANCH  21  22
ENDBRANCH  20  21
ENDBRANCH  19  20
ENDBRANCH  18  19
ENDBRANCH  17  18
ENDBRANCH   1  17
TORSDOF 28
ENDMDL
MODEL 4
REMARK VINA RESULT:    -5.526      2.676      6.266
REMARK INTER + INTRA:         -20.071
REMARK INTER:                 -15.045
REMARK INTRA:                  -5.026
REMARK UNBOUND:                -5.660
REMARK SMILES CCCCCCCCCCCCCCCCCCCCCCCCCCCCCO
REMARK SMILES IDX 16 1 15 2 14 3 13 4 12 5 11 6 10 7 9 8 8 9 7 10 6 11 5 12
REMARK SMILES IDX 4 13 3 14 2 15 1 16 17 17 18 18 19 19 20 20 21 21 22 22
REMARK SMILES IDX 23 23 24 24 25 25 26 26 27 27 28 28 29 29 30 30
REMARK H PARENT 30 31
REMARK Flexibility Score: inf
ROOT
ATOM      1  C   UNL     1     202.445 201.312 229.791  1.00  0.00     0.000 C 
ENDROOT
BRANCH   1   2
ATOM      2  C   UNL     1     202.692 202.779 230.176  1.00  0.00     0.000 C 
BRANCH   2   3
ATOM      3  C   UNL     1     201.444 203.637 229.918  1.00  0.00     0.000 C 
BRANCH   3   4
ATOM      4  C   UNL     1     200.991 204.416 231.165  1.00  0.00     0.000 C 
BRANCH   4   5
ATOM      5  C   UNL     1     199.975 203.630 232.013  1.00  0.00     0.000 C 
BRANCH   5   6
ATOM      6  C   UNL     1     200.524 203.259 233.400  1.00  0.00     0.000 C 
BRANCH   6   7
ATOM      7  C   UNL     1     201.880 203.918 233.699  1.00  0.00     0.000 C 
BRANCH   7   8
ATOM      8  C   UNL     1     201.722 205.056 234.717  1.00  0.00    -0.000 C 
BRANCH   8   9
ATOM      9  C   UNL     1     202.946 205.986 234.771  1.00  0.00    -0.000 C 
BRANCH   9  10
ATOM     10  C   UNL     1     203.325 206.592 233.403  1.00  0.00    -0.000 C 
BRANCH  10  11
ATOM     11  C   UNL     1     204.630 205.997 232.843  1.00  0.00    -0.000 C 
BRANCH  11  12
ATOM     12  C   UNL     1     204.561 205.741 231.330  1.00  0.00    -0.000 C 
BRANCH  12  13
ATOM     13  C   UNL     1     205.468 204.585 230.886  1.00  0.00    -0.000 C 
BRANCH  13  14
ATOM     14  C   UNL     1     205.996 203.803 232.095  1.00  0.00    -0.000 C 
BRANCH  14  15
ATOM     15  C   UNL     1     205.967 202.293 231.828  1.00  0.00    -0.003 C 
ATOM     16  C   UNL     1     206.316 201.983 230.374  1.00  0.00     0.004 C 
ENDBRANCH  14  15
ENDBRANCH  13  14
ENDBRANCH  12  13
ENDBRANCH  11  12
ENDBRANCH  10  11
ENDBRANCH   9  10
ENDBRANCH   8   9
ENDBRANCH   7   8
ENDBRANCH   6   7
ENDBRANCH   5   6
ENDBRANCH   4   5
ENDBRANCH   3   4
ENDBRANCH   2   3
ENDBRANCH   1   2
BRANCH   1  17
ATOM     17  C   UNL     1     202.070 200.431 230.998  1.00  0.00     0.000 C 
BRANCH  17  18
ATOM     18  C   UNL     1     203.255 199.998 231.884  1.00  0.00     0.000 C 
BRANCH  18  19
ATOM     19  C   UNL     1     203.170 200.453 233.355  1.00  0.00     0.000 C 
BRANCH  19  20
ATOM     20  C   UNL     1     203.988 199.598 234.341  1.00  0.00     0.000 C 
BRANCH  20  21
ATOM     21  C   UNL     1     204.714 200.449 235.397  1.00  0.00     0.000 C 
BRANCH  21  22
ATOM     22  C   UNL     1     204.620 201.957 235.116  1.00  0.00     0.000 C 
BRANCH  22  23
ATOM     23  C   UNL     1     204.245 202.767 236.370  1.00  0.00     0.000 C 
BRANCH  23  24
ATOM     24  C   UNL     1     202.894 202.330 236.960  1.00  0.00     0.000 C 
BRANCH  24  25
ATOM     25  C   UNL     1     203.000 201.934 238.443  1.00  0.00     0.000 C 
BRANCH  25  26
ATOM     26  C   UNL     1     204.307 202.440 239.090  1.00  0.00     0.000 C 
BRANCH  26  27
ATOM     27  C   UNL     1     204.083 203.518 240.167  1.00  0.00     0.002 C 
BRANCH  27  28
ATOM     28  C   UNL     1     203.804 202.972 241.581  1.00  0.00     0.028 C 
BRANCH  28  29
ATOM     29  C   UNL     1     204.012 204.012 242.690  1.00  0.00     0.156 C 
BRANCH  29  30
ATOM     30  O   UNL     1     204.885 205.020 242.264  1.00  0.00    -0.396 OA
ATOM     31  H   UNL     1     205.144 205.523 243.079  1.00  0.00     0.210 HD
ENDBRANCH  29  30
ENDBRANCH  28  29
ENDBRANCH  27  28
ENDBRANCH  26  27
ENDBRANCH  25  26
ENDBRANCH  24  25
ENDBRANCH  23  24
ENDBRANCH  22  23
ENDBRANCH  21  22
ENDBRANCH  20  21
ENDBRANCH  19  20
ENDBRANCH  18  19
ENDBRANCH  17  18
ENDBRANCH   1  17
TORSDOF 28
ENDMDL
MODEL 5
REMARK VINA RESULT:    -5.511      1.822      5.595
REMARK INTER + INTRA:         -20.031
REMARK INTER:                 -14.614
REMARK INTRA:                  -5.417
REMARK UNBOUND:                -5.660
REMARK SMILES CCCCCCCCCCCCCCCCCCCCCCCCCCCCCO
REMARK SMILES IDX 16 1 15 2 14 3 13 4 12 5 11 6 10 7 9 8 8 9 7 10 6 11 5 12
REMARK SMILES IDX 4 13 3 14 2 15 1 16 17 17 18 18 19 19 20 20 21 21 22 22
REMARK SMILES IDX 23 23 24 24 25 25 26 26 27 27 28 28 29 29 30 30
REMARK H PARENT 30 31
REMARK Flexibility Score: inf
ROOT
ATOM      1  C   UNL     1     204.225 203.399 238.378  1.00  0.00     0.000 C 
ENDROOT
BRANCH   1   2
ATOM      2  C   UNL     1     203.165 202.354 238.761  1.00  0.00     0.000 C 
BRANCH   2   3
ATOM      3  C   UNL     1     203.261 201.112 237.862  1.00  0.00     0.000 C 
BRANCH   3   4
ATOM      4  C   UNL     1     203.796 201.436 236.456  1.00  0.00     0.000 C 
BRANCH   4   5
ATOM      5  C   UNL     1     204.518 200.239 235.811  1.00  0.00     0.000 C 
BRANCH   5   6
ATOM      6  C   UNL     1     205.506 200.665 234.714  1.00  0.00     0.000 C 
BRANCH   6   7
ATOM      7  C   UNL     1     205.464 202.174 234.429  1.00  0.00     0.000 C 
BRANCH   7   8
ATOM      8  C   UNL     1     206.807 202.663 233.869  1.00  0.00    -0.000 C 
BRANCH   8   9
ATOM      9  C   UNL     1     207.169 202.012 232.523  1.00  0.00    -0.000 C 
BRANCH   9  10
ATOM     10  C   UNL     1     206.610 202.768 231.298  1.00  0.00    -0.000 C 
BRANCH  10  11
ATOM     11  C   UNL     1     206.037 201.813 230.236  1.00  0.00    -0.000 C 
BRANCH  11  12
ATOM     12  C   UNL     1     204.503 201.862 230.163  1.00  0.00    -0.000 C 
BRANCH  12  13
ATOM     13  C   UNL     1     203.840 200.701 230.919  1.00  0.00    -0.000 C 
BRANCH  13  14
ATOM     14  C   UNL     1     203.113 201.204 232.172  1.00  0.00    -0.000 C 
BRANCH  14  15
ATOM     15  C   UNL     1     202.280 200.084 232.809  1.00  0.00    -0.003 C 
ATOM     16  C   UNL     1     203.043 198.762 232.813  1.00  0.00     0.004 C 
ENDBRANCH  14  15
ENDBRANCH  13  14
ENDBRANCH  12  13
ENDBRANCH  11  12
ENDBRANCH  10  11
ENDBRANCH   9  10
ENDBRANCH   8   9
ENDBRANCH   7   8
ENDBRANCH   6   7
ENDBRANCH   5   6
ENDBRANCH   4   5
ENDBRANCH   3   4
ENDBRANCH   2   3
ENDBRANCH   1   2
BRANCH   1  17
ATOM     17  C   UNL     1     203.617 204.671 237.758  1.00  0.00     0.000 C 
BRANCH  17  18
ATOM     18  C   UNL     1     203.375 204.603 236.236  1.00  0.00     0.000 C 
BRANCH  18  19
ATOM     19  C   UNL     1     202.475 205.720 235.668  1.00  0.00     0.000 C 
BRANCH  19  20
ATOM     20  C   UNL     1     201.401 205.239 234.676  1.00  0.00     0.000 C 
BRANCH  20  21
ATOM     21  C   UNL     1     201.480 203.725 234.412  1.00  0.00     0.000 C 
BRANCH  21  22
ATOM     22  C   UNL     1     200.232 203.176 233.703  1.00  0.00     0.000 C 
BRANCH  22  23
ATOM     23  C   UNL     1     199.975 203.859 232.349  1.00  0.00     0.000 C 
BRANCH  23  24
ATOM     24  C   UNL     1     200.542 203.047 231.172  1.00  0.00     0.000 C 
BRANCH  24  25
ATOM     25  C   UNL     1     201.441 203.892 230.252  1.00  0.00     0.000 C 
BRANCH  25  26
ATOM     26  C   UNL     1     201.930 205.184 230.940  1.00  0.00     0.000 C 
BRANCH  26  27
ATOM     27  C   UNL     1     203.463 205.324 230.966  1.00  0.00     0.002 C 
BRANCH  27  28
ATOM     28  C   UNL     1     204.110 205.102 232.348  1.00  0.00     0.028 C 
BRANCH  28  29
ATOM     29  C   UNL     1     204.888 206.320 232.862  1.00  0.00     0.156 C 
BRANCH  29  30
ATOM     30  O   UNL     1     204.082 207.465 232.846  1.00  0.00    -0.396 OA
ATOM     31  H   UNL     1     203.654 207.488 231.950  1.00  0.00     0.210 HD
ENDBRANCH  29  30
ENDBRANCH  28  29
ENDBRANCH  27  28
ENDBRANCH  26  27
ENDBRANCH  25  26
ENDBRANCH  24  25
ENDBRANCH  23  24
ENDBRANCH  22  23
ENDBRANCH  21  22
ENDBRANCH  20  21
ENDBRANCH  19  20
ENDBRANCH  18  19
ENDBRANCH  17  18
ENDBRANCH   1  17
TORSDOF 28
ENDMDL
MODEL 6
REMARK VINA RESULT:    -5.455      2.566      6.720
REMARK INTER + INTRA:         -19.885
REMARK INTER:                 -14.746
REMARK INTRA:                  -5.139
REMARK UNBOUND:                -5.660
REMARK SMILES CCCCCCCCCCCCCCCCCCCCCCCCCCCCCO
REMARK SMILES IDX 16 1 15 2 14 3 13 4 12 5 11 6 10 7 9 8 8 9 7 10 6 11 5 12
REMARK SMILES IDX 4 13 3 14 2 15 1 16 17 17 18 18 19 19 20 20 21 21 22 22
REMARK SMILES IDX 23 23 24 24 25 25 26 26 27 27 28 28 29 29 30 30
REMARK H PARENT 30 31
REMARK Flexibility Score: inf
ROOT
ATOM      1  C   UNL     1     206.177 203.850 232.876  1.00  0.00     0.000 C 
ENDROOT
BRANCH   1   2
ATOM      2  C   UNL     1     206.442 203.659 231.375  1.00  0.00     0.000 C 
BRANCH   2   3
ATOM      3  C   UNL     1     206.522 202.169 231.010  1.00  0.00     0.000 C 
BRANCH   3   4
ATOM      4  C   UNL     1     205.337 201.706 230.145  1.00  0.00     0.000 C 
BRANCH   4   5
ATOM      5  C   UNL     1     204.573 202.884 229.513  1.00  0.00     0.000 C 
BRANCH   5   6
ATOM      6  C   UNL     1     203.064 202.831 229.801  1.00  0.00     0.000 C 
BRANCH   6   7
ATOM      7  C   UNL     1     202.485 204.200 230.189  1.00  0.00     0.000 C 
BRANCH   7   8
ATOM      8  C   UNL     1     201.081 204.049 230.794  1.00  0.00    -0.000 C 
BRANCH   8   9
ATOM      9  C   UNL     1     200.823 202.644 231.365  1.00  0.00    -0.000 C 
BRANCH   9  10
ATOM     10  C   UNL     1     200.930 202.571 232.903  1.00  0.00    -0.000 C 
BRANCH  10  11
ATOM     11  C   UNL     1     202.174 201.791 233.364  1.00  0.00    -0.000 C 
BRANCH  11  12
ATOM     12  C   UNL     1     202.401 200.507 232.551  1.00  0.00    -0.000 C 
BRANCH  12  13
ATOM     13  C   UNL     1     203.770 199.869 232.827  1.00  0.00    -0.000 C 
BRANCH  13  14
ATOM     14  C   UNL     1     204.606 200.745 233.768  1.00  0.00    -0.000 C 
BRANCH  14  15
ATOM     15  C   UNL     1     205.373 199.885 234.781  1.00  0.00    -0.003 C 
ATOM     16  C   UNL     1     204.439 199.331 235.854  1.00  0.00     0.004 C 
ENDBRANCH  14  15
ENDBRANCH  13  14
ENDBRANCH  12  13
ENDBRANCH  11  12
ENDBRANCH  10  11
ENDBRANCH   9  10
ENDBRANCH   8   9
ENDBRANCH   7   8
ENDBRANCH   6   7
ENDBRANCH   5   6
ENDBRANCH   4   5
ENDBRANCH   3   4
ENDBRANCH   2   3
ENDBRANCH   1   2
BRANCH   1  17
ATOM     17  C   UNL     1     204.731 204.289 233.179  1.00  0.00     0.000 C 
BRANCH  17  18
ATOM     18  C   UNL     1     204.389 205.736 232.769  1.00  0.00     0.000 C 
BRANCH  18  19
ATOM     19  C   UNL     1     203.256 206.394 233.583  1.00  0.00     0.000 C 
BRANCH  19  20
ATOM     20  C   UNL     1     202.539 205.451 234.566  1.00  0.00     0.000 C 
BRANCH  20  21
ATOM     21  C   UNL     1     202.610 205.951 236.019  1.00  0.00     0.000 C 
BRANCH  21  22
ATOM     22  C   UNL     1     203.246 204.928 236.973  1.00  0.00     0.000 C 
BRANCH  22  23
ATOM     23  C   UNL     1     203.439 203.550 236.315  1.00  0.00     0.000 C 
BRANCH  23  24
ATOM     24  C   UNL     1     202.901 202.408 237.193  1.00  0.00     0.000 C 
BRANCH  24  25
ATOM     25  C   UNL     1     203.777 202.154 238.432  1.00  0.00     0.000 C 
BRANCH  25  26
ATOM     26  C   UNL     1     202.983 202.299 239.748  1.00  0.00     0.000 C 
BRANCH  26  27
ATOM     27  C   UNL     1     203.822 202.855 240.914  1.00  0.00     0.002 C 
BRANCH  27  28
ATOM     28  C   UNL     1     203.908 201.932 242.146  1.00  0.00     0.028 C 
BRANCH  28  29
ATOM     29  C   UNL     1     202.536 201.509 242.689  1.00  0.00     0.156 C 
BRANCH  29  30
ATOM     30  O   UNL     1     202.235 200.198 242.302  1.00  0.00    -0.396 OA
ATOM     31  H   UNL     1     203.102 199.768 242.086  1.00  0.00     0.210 HD
ENDBRANCH  29  30
ENDBRANCH  28  29
ENDBRANCH  27  28
ENDBRANCH  26  27
ENDBRANCH  25  26
ENDBRANCH  24  25
ENDBRANCH  23  24
ENDBRANCH  22  23
ENDBRANCH  21  22
ENDBRANCH  20  21
ENDBRANCH  19  20
ENDBRANCH  18  19
ENDBRANCH  17  18
ENDBRANCH   1  17
TORSDOF 28
ENDMDL
MODEL 7
REMARK VINA RESULT:    -5.428      2.046      7.227
REMARK INTER + INTRA:         -19.815
REMARK INTER:                 -15.052
REMARK INTRA:                  -4.763
REMARK UNBOUND:                -5.660
REMARK SMILES CCCCCCCCCCCCCCCCCCCCCCCCCCCCCO
REMARK SMILES IDX 16 1 15 2 14 3 13 4 12 5 11 6 10 7 9 8 8 9 7 10 6 11 5 12
REMARK SMILES IDX 4 13 3 14 2 15 1 16 17 17 18 18 19 19 20 20 21 21 22 22
REMARK SMILES IDX 23 23 24 24 25 25 26 26 27 27 28 28 29 29 30 30
REMARK H PARENT 30 31
REMARK Flexibility Score: inf
ROOT
ATOM      1  C   UNL     1     203.258 202.574 229.369  1.00  0.00     0.000 C 
ENDROOT
BRANCH   1   2
ATOM      2  C   UNL     1     202.634 201.266 229.880  1.00  0.00     0.000 C 
BRANCH   2   3
ATOM      3  C   UNL     1     203.432 200.696 231.063  1.00  0.00     0.000 C 
BRANCH   3   4
ATOM      4  C   UNL     1     202.570 199.834 232.001  1.00  0.00     0.000 C 
BRANCH   4   5
ATOM      5  C   UNL     1     202.946 200.018 233.482  1.00  0.00     0.000 C 
BRANCH   5   6
ATOM      6  C   UNL     1     204.463 199.953 233.720  1.00  0.00     0.000 C 
BRANCH   6   7
ATOM      7  C   UNL     1     204.923 200.842 234.885  1.00  0.00     0.000 C 
BRANCH   7   8
ATOM      8  C   UNL     1     204.314 200.364 236.211  1.00  0.00    -0.000 C 
BRANCH   8   9
ATOM      9  C   UNL     1     203.549 201.472 236.954  1.00  0.00    -0.000 C 
BRANCH   9  10
ATOM     10  C   UNL     1     204.214 202.861 236.849  1.00  0.00    -0.000 C 
BRANCH  10  11
ATOM     11  C   UNL     1     203.685 203.842 237.911  1.00  0.00    -0.000 C 
BRANCH  11  12
ATOM     12  C   UNL     1     202.927 203.133 239.044  1.00  0.00    -0.000 C 
BRANCH  12  13
ATOM     13  C   UNL     1     203.812 202.874 240.273  1.00  0.00    -0.000 C 
BRANCH  13  14
ATOM     14  C   UNL     1     203.099 203.298 241.563  1.00  0.00    -0.000 C 
BRANCH  14  15
ATOM     15  C   UNL     1     204.036 203.175 242.772  1.00  0.00    -0.003 C 
ATOM     16  C   UNL     1     205.010 202.013 242.600  1.00  0.00     0.004 C 
ENDBRANCH  14  15
ENDBRANCH  13  14
ENDBRANCH  12  13
ENDBRANCH  11  12
ENDBRANCH  10  11
ENDBRANCH   9  10
ENDBRANCH   8   9
ENDBRANCH   7   8
ENDBRANCH   6   7
ENDBRANCH   5   6
ENDBRANCH   4   5
ENDBRANCH   3   4
ENDBRANCH   2   3
ENDBRANCH   1   2
BRANCH   1  17
ATOM     17  C   UNL     1     202.759 203.815 230.135  1.00  0.00     0.000 C 
BRANCH  17  18
ATOM     18  C   UNL     1     201.249 204.096 230.007  1.00  0.00     0.000 C 
BRANCH  18  19
ATOM     19  C   UNL     1     200.490 204.207 231.346  1.00  0.00     0.000 C 
BRANCH  19  20
ATOM     20  C   UNL     1     200.507 202.927 232.202  1.00  0.00     0.000 C 
BRANCH  20  21
ATOM     21  C   UNL     1     200.265 203.213 233.695  1.00  0.00     0.000 C 
BRANCH  21  22
ATOM     22  C   UNL     1     201.549 203.603 234.443  1.00  0.00     0.000 C 
BRANCH  22  23
ATOM     23  C   UNL     1     201.592 205.099 234.800  1.00  0.00     0.000 C 
BRANCH  23  24
ATOM     24  C   UNL     1     203.011 205.682 234.690  1.00  0.00     0.000 C 
BRANCH  24  25
ATOM     25  C   UNL     1     203.383 206.057 233.245  1.00  0.00     0.000 C 
BRANCH  25  26
ATOM     26  C   UNL     1     204.758 205.490 232.830  1.00  0.00     0.000 C 
BRANCH  26  27
ATOM     27  C   UNL     1     204.925 203.992 233.147  1.00  0.00     0.002 C 
BRANCH  27  28
ATOM     28  C   UNL     1     206.172 203.334 232.521  1.00  0.00     0.028 C 
BRANCH  28  29
ATOM     29  C   UNL     1     206.350 203.656 231.032  1.00  0.00     0.156 C 
BRANCH  29  30
ATOM     30  O   UNL     1     206.708 202.507 230.317  1.00  0.00    -0.396 OA
ATOM     31  H   UNL     1     206.862 201.798 230.994  1.00  0.00     0.210 HD
ENDBRANCH  29  30
ENDBRANCH  28  29
ENDBRANCH  27  28
ENDBRANCH  26  27
ENDBRANCH  25  26
ENDBRANCH  24  25
ENDBRANCH  23  24
ENDBRANCH  22  23
ENDBRANCH  21  22
ENDBRANCH  20  21
ENDBRANCH  19  20
ENDBRANCH  18  19
ENDBRANCH  17  18
ENDBRANCH   1  17
TORSDOF 28
ENDMDL
MODEL 8
REMARK VINA RESULT:    -5.419      2.531      6.798
REMARK INTER + INTRA:         -19.791
REMARK INTER:                 -15.020
REMARK INTRA:                  -4.771
REMARK UNBOUND:                -5.660
REMARK SMILES CCCCCCCCCCCCCCCCCCCCCCCCCCCCCO
REMARK SMILES IDX 16 1 15 2 14 3 13 4 12 5 11 6 10 7 9 8 8 9 7 10 6 11 5 12
REMARK SMILES IDX 4 13 3 14 2 15 1 16 17 17 18 18 19 19 20 20 21 21 22 22
REMARK SMILES IDX 23 23 24 24 25 25 26 26 27 27 28 28 29 29 30 30
REMARK H PARENT 30 31
REMARK Flexibility Score: inf
ROOT
ATOM      1  C   UNL     1     204.238 204.327 231.009  1.00  0.00     0.000 C 
ENDROOT
BRANCH   1   2
ATOM      2  C   UNL     1     203.653 204.000 229.626  1.00  0.00     0.000 C 
BRANCH   2   3
ATOM      3  C   UNL     1     202.358 203.183 229.751  1.00  0.00     0.000 C 
BRANCH   3   4
ATOM      4  C   UNL     1     201.121 204.064 229.999  1.00  0.00     0.000 C 
BRANCH   4   5
ATOM      5  C   UNL     1     200.821 204.249 231.498  1.00  0.00     0.000 C 
BRANCH   5   6
ATOM      6  C   UNL     1     200.243 202.981 232.146  1.00  0.00     0.000 C 
BRANCH   6   7
ATOM      7  C   UNL     1     200.838 202.699 233.534  1.00  0.00     0.000 C 
BRANCH   7   8
ATOM      8  C   UNL     1     202.314 202.290 233.425  1.00  0.00    -0.000 C 
BRANCH   8   9
ATOM      9  C   UNL     1     202.509 200.926 232.740  1.00  0.00    -0.000 C 
BRANCH   9  10
ATOM     10  C   UNL     1     203.269 199.900 233.609  1.00  0.00    -0.000 C 
BRANCH  10  11
ATOM     11  C   UNL     1     204.025 200.568 234.771  1.00  0.00    -0.000 C 
BRANCH  11  12
ATOM     12  C   UNL     1     205.510 200.804 234.452  1.00  0.00    -0.000 C 
BRANCH  12  13
ATOM     13  C   UNL     1     205.840 202.289 234.243  1.00  0.00    -0.000 C 
BRANCH  13  14
ATOM     14  C   UNL     1     206.427 202.531 232.847  1.00  0.00    -0.000 C 
BRANCH  14  15
ATOM     15  C   UNL     1     206.088 201.372 231.901  1.00  0.00    -0.003 C 
ATOM     16  C   UNL     1     206.449 201.714 230.457  1.00  0.00     0.004 C 
ENDBRANCH  14  15
ENDBRANCH  13  14
ENDBRANCH  12  13
ENDBRANCH  11  12
ENDBRANCH  10  11
ENDBRANCH   9  10
ENDBRANCH   8   9
ENDBRANCH   7   8
ENDBRANCH   6   7
ENDBRANCH   5   6
ENDBRANCH   4   5
ENDBRANCH   3   4
ENDBRANCH   2   3
ENDBRANCH   1   2
BRANCH   1  17
ATOM     17  C   UNL     1     204.735 205.781 231.121  1.00  0.00     0.000 C 
BRANCH  17  18
ATOM     18  C   UNL     1     204.636 206.398 232.531  1.00  0.00     0.000 C 
BRANCH  18  19
ATOM     19  C   UNL     1     203.876 205.543 233.565  1.00  0.00     0.000 C 
BRANCH  19  20
ATOM     20  C   UNL     1     202.586 206.185 234.108  1.00  0.00     0.000 C 
BRANCH  20  21
ATOM     21  C   UNL     1     202.442 206.020 235.631  1.00  0.00     0.000 C 
BRANCH  21  22
ATOM     22  C   UNL     1     202.743 204.591 236.108  1.00  0.00     0.000 C 
BRANCH  22  23
ATOM     23  C   UNL     1     203.619 204.564 237.373  1.00  0.00     0.000 C 
BRANCH  23  24
ATOM     24  C   UNL     1     204.440 203.268 237.483  1.00  0.00     0.000 C 
BRANCH  24  25
ATOM     25  C   UNL     1     203.665 202.138 238.185  1.00  0.00     0.000 C 
BRANCH  25  26
ATOM     26  C   UNL     1     202.843 202.654 239.386  1.00  0.00     0.000 C 
BRANCH  26  27
ATOM     27  C   UNL     1     203.573 202.513 240.735  1.00  0.00     0.002 C 
BRANCH  27  28
ATOM     28  C   UNL     1     202.931 203.291 241.902  1.00  0.00     0.028 C 
BRANCH  28  29
ATOM     29  C   UNL     1     202.402 202.386 243.021  1.00  0.00     0.156 C 
BRANCH  29  30
ATOM     30  O   UNL     1     202.089 201.115 242.523  1.00  0.00    -0.396 OA
ATOM     31  H   UNL     1     202.215 201.166 241.540  1.00  0.00     0.210 HD
ENDBRANCH  29  30
ENDBRANCH  28  29
ENDBRANCH  27  28
ENDBRANCH  26  27
ENDBRANCH  25  26
ENDBRANCH  24  25
ENDBRANCH  23  24
ENDBRANCH  22  23
ENDBRANCH  21  22
ENDBRANCH  20  21
ENDBRANCH  19  20
ENDBRANCH  18  19
ENDBRANCH  17  18
ENDBRANCH   1  17
TORSDOF 28
ENDMDL
MODEL 9
REMARK VINA RESULT:    -5.365      3.096      7.237
REMARK INTER + INTRA:         -19.650
REMARK INTER:                 -14.915
REMARK INTRA:                  -4.736
REMARK UNBOUND:                -5.660
REMARK SMILES CCCCCCCCCCCCCCCCCCCCCCCCCCCCCO
REMARK SMILES IDX 16 1 15 2 14 3 13 4 12 5 11 6 10 7 9 8 8 9 7 10 6 11 5 12
REMARK SMILES IDX 4 13 3 14 2 15 1 16 17 17 18 18 19 19 20 20 21 21 22 22
REMARK SMILES IDX 23 23 24 24 25 25 26 26 27 27 28 28 29 29 30 30
REMARK H PARENT 30 31
REMARK Flexibility Score: inf
ROOT
ATOM      1  C   UNL     1     200.779 204.199 231.016  1.00  0.00     0.000 C 
ENDROOT
BRANCH   1   2
ATOM      2  C   UNL     1     201.837 203.805 229.974  1.00  0.00     0.000 C 
BRANCH   2   3
ATOM      3  C   UNL     1     202.129 202.297 230.023  1.00  0.00     0.000 C 
BRANCH   3   4
ATOM      4  C   UNL     1     203.616 201.988 230.265  1.00  0.00     0.000 C 
BRANCH   4   5
ATOM      5  C   UNL     1     203.832 200.615 230.929  1.00  0.00     0.000 C 
BRANCH   5   6
ATOM      6  C   UNL     1     202.525 200.002 231.457  1.00  0.00     0.000 C 
BRANCH   6   7
ATOM      7  C   UNL     1     202.582 199.682 232.958  1.00  0.00     0.000 C 
BRANCH   7   8
ATOM      8  C   UNL     1     203.313 200.793 233.727  1.00  0.00    -0.000 C 
BRANCH   8   9
ATOM      9  C   UNL     1     204.356 200.250 234.718  1.00  0.00    -0.000 C 
BRANCH   9  10
ATOM     10  C   UNL     1     205.798 200.711 234.413  1.00  0.00    -0.000 C 
BRANCH  10  11
ATOM     11  C   UNL     1     205.874 202.215 234.099  1.00  0.00    -0.000 C 
BRANCH  11  12
ATOM     12  C   UNL     1     206.794 202.524 232.907  1.00  0.00    -0.000 C 
BRANCH  12  13
ATOM     13  C   UNL     1     206.237 203.634 232.005  1.00  0.00    -0.000 C 
BRANCH  13  14
ATOM     14  C   UNL     1     204.982 204.266 232.620  1.00  0.00    -0.000 C 
BRANCH  14  15
ATOM     15  C   UNL     1     204.626 205.579 231.911  1.00  0.00    -0.003 C 
ATOM     16  C   UNL     1     204.482 206.724 232.909  1.00  0.00     0.004 C 
ENDBRANCH  14  15
ENDBRANCH  13  14
ENDBRANCH  12  13
ENDBRANCH  11  12
ENDBRANCH  10  11
ENDBRANCH   9  10
ENDBRANCH   8   9
ENDBRANCH   7   8
ENDBRANCH   6   7
ENDBRANCH   5   6
ENDBRANCH   4   5
ENDBRANCH   3   4
ENDBRANCH   2   3
ENDBRANCH   1   2
BRANCH   1  17
ATOM     17  C   UNL     1     200.255 202.996 231.823  1.00  0.00     0.000 C 
BRANCH  17  18
ATOM     18  C   UNL     1     200.353 203.145 233.354  1.00  0.00     0.000 C 
BRANCH  18  19
ATOM     19  C   UNL     1     201.657 203.792 233.865  1.00  0.00     0.000 C 
BRANCH  19  20
ATOM     20  C   UNL     1     201.455 205.037 234.747  1.00  0.00     0.000 C 
BRANCH  20  21
ATOM     21  C   UNL     1     202.635 205.276 235.706  1.00  0.00     0.000 C 
BRANCH  21  22
ATOM     22  C   UNL     1     203.442 204.000 235.991  1.00  0.00     0.000 C 
BRANCH  22  23
ATOM     23  C   UNL     1     203.922 203.920 237.451  1.00  0.00     0.000 C 
BRANCH  23  24
ATOM     24  C   UNL     1     202.857 203.314 238.380  1.00  0.00     0.000 C 
BRANCH  24  25
ATOM     25  C   UNL     1     203.467 202.396 239.454  1.00  0.00     0.000 C 
BRANCH  25  26
ATOM     26  C   UNL     1     203.612 203.108 240.816  1.00  0.00     0.000 C 
BRANCH  26  27
ATOM     27  C   UNL     1     203.126 202.261 242.007  1.00  0.00     0.002 C 
BRANCH  27  28
ATOM     28  C   UNL     1     203.313 202.920 243.389  1.00  0.00     0.028 C 
BRANCH  28  29
ATOM     29  C   UNL     1     203.660 201.921 244.500  1.00  0.00     0.156 C 
BRANCH  29  30
ATOM     30  O   UNL     1     205.039 201.905 244.738  1.00  0.00    -0.396 OA
ATOM     31  H   UNL     1     205.380 202.788 244.441  1.00  0.00     0.210 HD
ENDBRANCH  29  30
ENDBRANCH  28  29
ENDBRANCH  27  28
ENDBRANCH  26  27
ENDBRANCH  25  26
ENDBRANCH  24  25
ENDBRANCH  23  24
ENDBRANCH  22  23
ENDBRANCH  21  22
ENDBRANCH  20  21
ENDBRANCH  19  20
ENDBRANCH  18  19
ENDBRANCH  17  18
ENDBRANCH   1  17
TORSDOF 28
ENDMDL
