MODEL 1
REMARK VINA RESULT:    -7.091      0.000      0.000
REMARK INTER + INTRA:          -7.466
REMARK INTER:                  -7.713
REMARK INTRA:                   0.247
REMARK UNBOUND:                 0.247
REMARK SMILES CC1(C)CC[C@]2(C(=O)[O-])CC[C@]3(C)C(=CC[C@@H]4[C@@]5(C)CC[C@@H](O)C(C)(C)[C@H]5CC[C@@]43C)[C@H]2C1
REMARK SMILES IDX 6 1 5 2 10 3 32 4 4 5 11 6 14 7 33 8 2 9 12 10 15 11 1 12
REMARK SMILES IDX 3 13 13 14 30 15 16 16 17 17 29 18 31 19 18 20 28 21 27 22
REMARK SMILES IDX 20 23 19 24 24 25 21 26 22 27 25 28 26 29 7 30 8 31 9 32
REMARK SMILES IDX 23 33
REMARK H PARENT 23 34
REMARK Flexibility Score: inf
ROOT
ATOM      1  C   UNL     1      15.191 -28.353  19.570  1.00  0.00     0.017 C 
ATOM      2  C   UNL     1      16.491 -28.989  19.015  1.00  0.00     0.014 C 
ATOM      3  C   UNL     1      15.575 -27.209  20.568  1.00  0.00     0.014 C 
ATOM      4  C   UNL     1      14.395 -29.437  20.370  1.00  0.00     0.028 C 
ATOM      5  C   UNL     1      16.228 -30.270  18.199  1.00  0.00     0.007 C 
ATOM      6  C   UNL     1      14.358 -26.630  21.348  1.00  0.00     0.013 C 
ATOM      7  C   UNL     1      13.182 -28.771  21.023  1.00  0.00    -0.064 C 
ATOM      8  C   UNL     1      14.137 -30.750  19.584  1.00  0.00     0.015 C 
ATOM      9  C   UNL     1      15.438 -31.355  18.982  1.00  0.00    -0.035 C 
ATOM     10  C   UNL     1      13.492 -27.703  22.085  1.00  0.00    -0.006 C 
ATOM     11  C   UNL     1      12.006 -28.733  20.359  1.00  0.00    -0.027 C 
ATOM     12  C   UNL     1      15.048 -32.481  18.000  1.00  0.00     0.011 C 
ATOM     13  C   UNL     1      16.321 -31.984  20.088  1.00  0.00     0.011 C 
ATOM     14  C   UNL     1      14.365 -28.330  23.227  1.00  0.00     0.017 C 
ATOM     15  C   UNL     1      12.114 -27.143  22.725  1.00  0.00    -0.020 C 
ATOM     16  C   UNL     1      11.185 -27.479  20.291  1.00  0.00     0.032 C 
ATOM     17  C   UNL     1      11.041 -26.708  21.631  1.00  0.00     0.006 C 
ATOM     18  C   UNL     1      12.352 -25.964  23.715  1.00  0.00     0.008 C 
ATOM     19  C   UNL     1      11.471 -28.310  23.569  1.00  0.00     0.012 C 
ATOM     20  C   UNL     1      10.702 -25.148  21.461  1.00  0.00    -0.025 C 
ATOM     21  C   UNL     1      11.050 -25.242  24.074  1.00  0.00     0.005 C 
ATOM     22  C   UNL     1      10.497 -24.434  22.877  1.00  0.00     0.003 C 
ATOM     23  C   UNL     1       9.422 -25.052  20.556  1.00  0.00     0.010 C 
ATOM     24  C   UNL     1      11.818 -24.364  20.706  1.00  0.00     0.012 C 
ATOM     25  C   UNL     1       9.067 -23.828  23.146  1.00  0.00    -0.006 C 
ATOM     26  C   UNL     1       8.674 -23.714  20.569  1.00  0.00     0.033 C 
ATOM     27  C   UNL     1       8.679 -22.960  21.909  1.00  0.00     0.120 C 
ATOM     28  C   UNL     1       9.120 -22.875  24.375  1.00  0.00     0.014 C 
ATOM     29  C   UNL     1       8.000 -24.915  23.459  1.00  0.00     0.014 C 
ENDROOT
BRANCH   1  30
ATOM     30  C   UNL     1      14.402 -27.750  18.400  1.00  0.00     0.048 C 
ATOM     31  O   UNL     1      14.550 -26.538  18.089  1.00  0.00    -0.550 OA
ATOM     32  O   UNL     1      13.600 -28.536  17.583  1.00  0.00    -0.550 OA
ENDBRANCH   1  30
BRANCH  27  33
ATOM     33  O   UNL     1       7.421 -22.354  22.093  1.00  0.00    -0.393 OA
ATOM     34  H   UNL     1       7.212 -22.374  23.064  1.00  0.00     0.210 HD
ENDBRANCH  27  33
TORSDOF 2
ENDMDL
MODEL 2
REMARK VINA RESULT:    -6.673      2.806      4.252
REMARK INTER + INTRA:          -7.011
REMARK INTER:                  -7.265
REMARK INTRA:                   0.254
REMARK UNBOUND:                 0.247
REMARK SMILES CC1(C)CC[C@]2(C(=O)[O-])CC[C@]3(C)C(=CC[C@@H]4[C@@]5(C)CC[C@@H](O)C(C)(C)[C@H]5CC[C@@]43C)[C@H]2C1
REMARK SMILES IDX 6 1 5 2 10 3 32 4 4 5 11 6 14 7 33 8 2 9 12 10 15 11 1 12
REMARK SMILES IDX 3 13 13 14 30 15 16 16 17 17 29 18 31 19 18 20 28 21 27 22
REMARK SMILES IDX 20 23 19 24 24 25 21 26 22 27 25 28 26 29 7 30 8 31 9 32
REMARK SMILES IDX 23 33
REMARK H PARENT 23 34
REMARK Flexibility Score: inf
ROOT
ATOM      1  C   UNL     1      13.262 -28.061  19.545  1.00  0.00     0.017 C 
ATOM      2  C   UNL     1      13.877 -27.799  18.147  1.00  0.00     0.014 C 
ATOM      3  C   UNL     1      12.405 -26.819  19.960  1.00  0.00     0.014 C 
ATOM      4  C   UNL     1      14.419 -28.212  20.589  1.00  0.00     0.028 C 
ATOM      5  C   UNL     1      14.919 -28.861  17.744  1.00  0.00     0.007 C 
ATOM      6  C   UNL     1      11.902 -26.874  21.433  1.00  0.00     0.013 C 
ATOM      7  C   UNL     1      13.804 -28.340  21.985  1.00  0.00    -0.064 C 
ATOM      8  C   UNL     1      15.499 -29.256  20.199  1.00  0.00     0.015 C 
ATOM      9  C   UNL     1      16.073 -29.022  18.773  1.00  0.00    -0.035 C 
ATOM     10  C   UNL     1      13.027 -27.114  22.492  1.00  0.00    -0.006 C 
ATOM     11  C   UNL     1      13.516 -29.565  22.476  1.00  0.00    -0.027 C 
ATOM     12  C   UNL     1      16.917 -30.252  18.374  1.00  0.00     0.011 C 
ATOM     13  C   UNL     1      17.006 -27.786  18.746  1.00  0.00     0.011 C 
ATOM     14  C   UNL     1      13.966 -25.858  22.496  1.00  0.00     0.017 C 
ATOM     15  C   UNL     1      12.498 -27.379  23.999  1.00  0.00    -0.020 C 
ATOM     16  C   UNL     1      12.208 -29.849  23.153  1.00  0.00     0.032 C 
ATOM     17  C   UNL     1      11.739 -28.769  24.166  1.00  0.00     0.006 C 
ATOM     18  C   UNL     1      11.591 -26.226  24.524  1.00  0.00     0.008 C 
ATOM     19  C   UNL     1      13.758 -27.420  24.947  1.00  0.00     0.012 C 
ATOM     20  C   UNL     1      10.155 -28.756  24.429  1.00  0.00    -0.025 C 
ATOM     21  C   UNL     1      10.850 -26.615  25.806  1.00  0.00     0.005 C 
ATOM     22  C   UNL     1       9.753 -27.671  25.533  1.00  0.00     0.003 C 
ATOM     23  C   UNL     1       9.748 -30.212  24.852  1.00  0.00     0.010 C 
ATOM     24  C   UNL     1       9.329 -28.437  23.146  1.00  0.00     0.012 C 
ATOM     25  C   UNL     1       9.093 -28.234  26.849  1.00  0.00    -0.006 C 
ATOM     26  C   UNL     1       8.382 -30.372  25.532  1.00  0.00     0.033 C 
ATOM     27  C   UNL     1       7.944 -29.201  26.428  1.00  0.00     0.120 C 
ATOM     28  C   UNL     1       8.441 -27.071  27.652  1.00  0.00     0.014 C 
ATOM     29  C   UNL     1      10.121 -28.919  27.794  1.00  0.00     0.014 C 
ENDROOT
BRANCH   1  30
ATOM     30  C   UNL     1      12.349 -29.291  19.457  1.00  0.00     0.048 C 
ATOM     31  O   UNL     1      11.097 -29.154  19.429  1.00  0.00    -0.550 OA
ATOM     32  O   UNL     1      12.866 -30.569  19.289  1.00  0.00    -0.550 OA
ENDBRANCH   1  30
BRANCH  27  33
ATOM     33  O   UNL     1       7.281 -29.719  27.557  1.00  0.00    -0.393 OA
ATOM     34  H   UNL     1       7.943 -30.229  28.093  1.00  0.00     0.210 HD
ENDBRANCH  27  33
TORSDOF 2
ENDMDL
MODEL 3
REMARK VINA RESULT:    -6.405      2.906      7.654
REMARK INTER + INTRA:          -6.720
REMARK INTER:                  -7.231
REMARK INTRA:                   0.511
REMARK UNBOUND:                 0.247
REMARK SMILES CC1(C)CC[C@]2(C(=O)[O-])CC[C@]3(C)C(=CC[C@@H]4[C@@]5(C)CC[C@@H](O)C(C)(C)[C@H]5CC[C@@]43C)[C@H]2C1
REMARK SMILES IDX 6 1 5 2 10 3 32 4 4 5 11 6 14 7 33 8 2 9 12 10 15 11 1 12
REMARK SMILES IDX 3 13 13 14 30 15 16 16 17 17 29 18 31 19 18 20 28 21 27 22
REMARK SMILES IDX 20 23 19 24 24 25 21 26 22 27 25 28 26 29 7 30 8 31 9 32
REMARK SMILES IDX 23 33
REMARK H PARENT 23 34
REMARK Flexibility Score: inf
ROOT
ATOM      1  C   UNL     1      11.028 -26.661  25.277  1.00  0.00     0.017 C 
ATOM      2  C   UNL     1      10.220 -26.154  26.499  1.00  0.00     0.014 C 
ATOM      3  C   UNL     1      11.118 -25.510  24.219  1.00  0.00     0.014 C 
ATOM      4  C   UNL     1      10.259 -27.855  24.619  1.00  0.00     0.028 C 
ATOM      5  C   UNL     1       9.880 -27.277  27.498  1.00  0.00     0.007 C 
ATOM      6  C   UNL     1      11.729 -25.963  22.860  1.00  0.00     0.013 C 
ATOM      7  C   UNL     1      10.993 -28.264  23.340  1.00  0.00    -0.064 C 
ATOM      8  C   UNL     1       9.878 -28.991  25.605  1.00  0.00     0.015 C 
ATOM      9  C   UNL     1       9.116 -28.469  26.856  1.00  0.00    -0.035 C 
ATOM     10  C   UNL     1      11.036 -27.210  22.222  1.00  0.00    -0.006 C 
ATOM     11  C   UNL     1      11.949 -29.217  23.398  1.00  0.00    -0.027 C 
ATOM     12  C   UNL     1       9.033 -29.612  27.893  1.00  0.00     0.011 C 
ATOM     13  C   UNL     1       7.667 -28.060  26.494  1.00  0.00     0.011 C 
ATOM     14  C   UNL     1       9.574 -26.802  21.824  1.00  0.00     0.017 C 
ATOM     15  C   UNL     1      11.785 -27.813  20.920  1.00  0.00    -0.020 C 
ATOM     16  C   UNL     1      13.268 -29.046  22.704  1.00  0.00     0.032 C 
ATOM     17  C   UNL     1      13.187 -28.490  21.257  1.00  0.00     0.006 C 
ATOM     18  C   UNL     1      11.977 -26.752  19.796  1.00  0.00     0.008 C 
ATOM     19  C   UNL     1      10.859 -28.939  20.315  1.00  0.00     0.012 C 
ATOM     20  C   UNL     1      14.531 -27.771  20.751  1.00  0.00    -0.025 C 
ATOM     21  C   UNL     1      12.946 -27.231  18.712  1.00  0.00     0.005 C 
ATOM     22  C   UNL     1      14.402 -27.288  19.232  1.00  0.00     0.003 C 
ATOM     23  C   UNL     1      15.703 -28.796  20.950  1.00  0.00     0.010 C 
ATOM     24  C   UNL     1      14.908 -26.521  21.602  1.00  0.00     0.012 C 
ATOM     25  C   UNL     1      15.400 -27.950  18.207  1.00  0.00    -0.006 C 
ATOM     26  C   UNL     1      17.003 -28.506  20.190  1.00  0.00     0.033 C 
ATOM     27  C   UNL     1      16.835 -27.848  18.810  1.00  0.00     0.120 C 
ATOM     28  C   UNL     1      15.405 -27.141  16.877  1.00  0.00     0.014 C 
ATOM     29  C   UNL     1      15.016 -29.413  17.849  1.00  0.00     0.014 C 
ENDROOT
BRANCH   1  30
ATOM     30  C   UNL     1      12.444 -27.024  25.742  1.00  0.00     0.048 C 
ATOM     31  O   UNL     1      13.450 -26.583  25.125  1.00  0.00    -0.550 OA
ATOM     32  O   UNL     1      12.664 -27.743  26.910  1.00  0.00    -0.550 OA
ENDBRANCH   1  30
BRANCH  27  33
ATOM     33  O   UNL     1      17.792 -28.390  17.930  1.00  0.00    -0.393 OA
ATOM     34  H   UNL     1      17.585 -28.064  17.015  1.00  0.00     0.210 HD
ENDBRANCH  27  33
TORSDOF 2
ENDMDL
MODEL 4
REMARK VINA RESULT:    -6.400      3.901      7.904
REMARK INTER + INTRA:          -6.714
REMARK INTER:                  -7.099
REMARK INTRA:                   0.385
REMARK UNBOUND:                 0.247
REMARK SMILES CC1(C)CC[C@]2(C(=O)[O-])CC[C@]3(C)C(=CC[C@@H]4[C@@]5(C)CC[C@@H](O)C(C)(C)[C@H]5CC[C@@]43C)[C@H]2C1
REMARK SMILES IDX 6 1 5 2 10 3 32 4 4 5 11 6 14 7 33 8 2 9 12 10 15 11 1 12
REMARK SMILES IDX 3 13 13 14 30 15 16 16 17 17 29 18 31 19 18 20 28 21 27 22
REMARK SMILES IDX 20 23 19 24 24 25 21 26 22 27 25 28 26 29 7 30 8 31 9 32
REMARK SMILES IDX 23 33
REMARK H PARENT 23 34
REMARK Flexibility Score: inf
ROOT
ATOM      1  C   UNL     1      10.683 -24.896  23.604  1.00  0.00     0.017 C 
ATOM      2  C   UNL     1      11.144 -23.433  23.388  1.00  0.00     0.014 C 
ATOM      3  C   UNL     1      11.884 -25.725  24.173  1.00  0.00     0.014 C 
ATOM      4  C   UNL     1      10.290 -25.515  22.221  1.00  0.00     0.028 C 
ATOM      5  C   UNL     1      10.109 -22.587  22.621  1.00  0.00     0.007 C 
ATOM      6  C   UNL     1      11.607 -27.256  24.239  1.00  0.00     0.013 C 
ATOM      7  C   UNL     1       9.962 -26.997  22.423  1.00  0.00    -0.064 C 
ATOM      8  C   UNL     1       9.268 -24.673  21.412  1.00  0.00     0.015 C 
ATOM      9  C   UNL     1       9.709 -23.191  21.246  1.00  0.00    -0.035 C 
ATOM     10  C   UNL     1      11.125 -27.885  22.891  1.00  0.00    -0.006 C 
ATOM     11  C   UNL     1       8.690 -27.366  22.687  1.00  0.00    -0.027 C 
ATOM     12  C   UNL     1       8.519 -22.383  20.684  1.00  0.00     0.011 C 
ATOM     13  C   UNL     1      10.875 -23.068  20.235  1.00  0.00     0.011 C 
ATOM     14  C   UNL     1      12.307 -27.793  21.863  1.00  0.00     0.017 C 
ATOM     15  C   UNL     1      10.639 -29.425  22.994  1.00  0.00    -0.020 C 
ATOM     16  C   UNL     1       8.369 -28.353  23.770  1.00  0.00     0.032 C 
ATOM     17  C   UNL     1       9.286 -29.605  23.816  1.00  0.00     0.006 C 
ATOM     18  C   UNL     1      11.735 -30.360  23.588  1.00  0.00     0.008 C 
ATOM     19  C   UNL     1      10.364 -29.939  21.528  1.00  0.00     0.012 C 
ATOM     20  C   UNL     1       9.345 -30.327  25.248  1.00  0.00    -0.025 C 
ATOM     21  C   UNL     1      11.176 -31.733  23.971  1.00  0.00     0.005 C 
ATOM     22  C   UNL     1      10.247 -31.647  25.204  1.00  0.00     0.003 C 
ATOM     23  C   UNL     1       7.863 -30.634  25.669  1.00  0.00     0.010 C 
ATOM     24  C   UNL     1       9.924 -29.410  26.367  1.00  0.00     0.012 C 
ATOM     25  C   UNL     1       9.506 -33.003  25.518  1.00  0.00    -0.006 C 
ATOM     26  C   UNL     1       7.669 -31.659  26.794  1.00  0.00     0.033 C 
ATOM     27  C   UNL     1       8.693 -32.806  26.834  1.00  0.00     0.120 C 
ATOM     28  C   UNL     1      10.550 -34.125  25.789  1.00  0.00     0.014 C 
ATOM     29  C   UNL     1       8.612 -33.488  24.342  1.00  0.00     0.014 C 
ENDROOT
BRANCH   1  30
ATOM     30  C   UNL     1       9.541 -24.905  24.628  1.00  0.00     0.048 C 
ATOM     31  O   UNL     1       8.402 -24.469  24.316  1.00  0.00    -0.550 OA
ATOM     32  O   UNL     1       9.691 -25.494  25.877  1.00  0.00    -0.550 OA
ENDBRANCH   1  30
BRANCH  27  33
ATOM     33  O   UNL     1       8.028 -33.993  27.199  1.00  0.00    -0.393 OA
ATOM     34  H   UNL     1       7.053 -33.845  27.086  1.00  0.00     0.210 HD
ENDBRANCH  27  33
TORSDOF 2
ENDMDL
MODEL 5
REMARK VINA RESULT:    -6.397      3.007      4.915
REMARK INTER + INTRA:          -6.711
REMARK INTER:                  -6.952
REMARK INTRA:                   0.241
REMARK UNBOUND:                 0.247
REMARK SMILES CC1(C)CC[C@]2(C(=O)[O-])CC[C@]3(C)C(=CC[C@@H]4[C@@]5(C)CC[C@@H](O)C(C)(C)[C@H]5CC[C@@]43C)[C@H]2C1
REMARK SMILES IDX 6 1 5 2 10 3 32 4 4 5 11 6 14 7 33 8 2 9 12 10 15 11 1 12
REMARK SMILES IDX 3 13 13 14 30 15 16 16 17 17 29 18 31 19 18 20 28 21 27 22
REMARK SMILES IDX 20 23 19 24 24 25 21 26 22 27 25 28 26 29 7 30 8 31 9 32
REMARK SMILES IDX 23 33
REMARK H PARENT 23 34
REMARK Flexibility Score: inf
ROOT
ATOM      1  C   UNL     1      11.265 -27.586  19.123  1.00  0.00     0.017 C 
ATOM      2  C   UNL     1      11.379 -27.408  17.588  1.00  0.00     0.014 C 
ATOM      3  C   UNL     1      10.145 -26.632  19.660  1.00  0.00     0.014 C 
ATOM      4  C   UNL     1      12.616 -27.155  19.786  1.00  0.00     0.028 C 
ATOM      5  C   UNL     1      12.601 -28.133  16.991  1.00  0.00     0.007 C 
ATOM      6  C   UNL     1      10.076 -26.567  21.215  1.00  0.00     0.013 C 
ATOM      7  C   UNL     1      12.454 -27.208  21.308  1.00  0.00    -0.064 C 
ATOM      8  C   UNL     1      13.870 -27.848  19.189  1.00  0.00     0.015 C 
ATOM      9  C   UNL     1      13.949 -27.714  17.642  1.00  0.00    -0.035 C 
ATOM     10  C   UNL     1      11.435 -26.226  21.909  1.00  0.00    -0.006 C 
ATOM     11  C   UNL     1      12.760 -28.344  21.970  1.00  0.00    -0.027 C 
ATOM     12  C   UNL     1      15.056 -28.658  17.123  1.00  0.00     0.011 C 
ATOM     13  C   UNL     1      14.333 -26.273  17.227  1.00  0.00     0.011 C 
ATOM     14  C   UNL     1      11.823 -24.757  21.520  1.00  0.00     0.017 C 
ATOM     15  C   UNL     1      11.426 -26.358  23.522  1.00  0.00    -0.020 C 
ATOM     16  C   UNL     1      11.854 -28.902  23.028  1.00  0.00     0.032 C 
ATOM     17  C   UNL     1      11.290 -27.860  24.032  1.00  0.00     0.006 C 
ATOM     18  C   UNL     1      10.322 -25.483  24.187  1.00  0.00     0.008 C 
ATOM     19  C   UNL     1      12.807 -25.810  24.054  1.00  0.00     0.012 C 
ATOM     20  C   UNL     1       9.927 -28.310  24.752  1.00  0.00    -0.025 C 
ATOM     21  C   UNL     1      10.113 -25.840  25.661  1.00  0.00     0.005 C 
ATOM     22  C   UNL     1       9.443 -27.225  25.822  1.00  0.00     0.003 C 
ATOM     23  C   UNL     1      10.194 -29.712  25.406  1.00  0.00     0.010 C 
ATOM     24  C   UNL     1       8.754 -28.524  23.748  1.00  0.00     0.012 C 
ATOM     25  C   UNL     1       9.379 -27.712  27.320  1.00  0.00    -0.006 C 
ATOM     26  C   UNL     1       9.192 -30.173  26.472  1.00  0.00     0.033 C 
ATOM     27  C   UNL     1       8.593 -29.059  27.348  1.00  0.00     0.120 C 
ATOM     28  C   UNL     1       8.568 -26.692  28.172  1.00  0.00     0.014 C 
ATOM     29  C   UNL     1      10.783 -27.836  27.975  1.00  0.00     0.014 C 
ENDROOT
BRANCH   1  30
ATOM     30  C   UNL     1      10.869 -29.037  19.422  1.00  0.00     0.048 C 
ATOM     31  O   UNL     1       9.666 -29.337  19.646  1.00  0.00    -0.550 OA
ATOM     32  O   UNL     1      11.791 -30.073  19.340  1.00  0.00    -0.550 OA
ENDBRANCH   1  30
BRANCH  27  33
ATOM     33  O   UNL     1       8.464 -29.540  28.666  1.00  0.00    -0.393 OA
ATOM     34  H   UNL     1       7.827 -30.302  28.651  1.00  0.00     0.210 HD
ENDBRANCH  27  33
TORSDOF 2
ENDMDL
MODEL 6
REMARK VINA RESULT:    -6.396      1.751      7.870
REMARK INTER + INTRA:          -6.710
REMARK INTER:                  -6.946
REMARK INTRA:                   0.236
REMARK UNBOUND:                 0.247
REMARK SMILES CC1(C)CC[C@]2(C(=O)[O-])CC[C@]3(C)C(=CC[C@@H]4[C@@]5(C)CC[C@@H](O)C(C)(C)[C@H]5CC[C@@]43C)[C@H]2C1
REMARK SMILES IDX 6 1 5 2 10 3 32 4 4 5 11 6 14 7 33 8 2 9 12 10 15 11 1 12
REMARK SMILES IDX 3 13 13 14 30 15 16 16 17 17 29 18 31 19 18 20 28 21 27 22
REMARK SMILES IDX 20 23 19 24 24 25 21 26 22 27 25 28 26 29 7 30 8 31 9 32
REMARK SMILES IDX 23 33
REMARK H PARENT 23 34
REMARK Flexibility Score: inf
ROOT
ATOM      1  C   UNL     1       9.565 -26.135  22.810  1.00  0.00     0.017 C 
ATOM      2  C   UNL     1       8.381 -25.579  23.641  1.00  0.00     0.014 C 
ATOM      3  C   UNL     1      10.022 -27.497  23.432  1.00  0.00     0.014 C 
ATOM      4  C   UNL     1      10.768 -25.138  22.907  1.00  0.00     0.028 C 
ATOM      5  C   UNL     1       8.002 -24.137  23.251  1.00  0.00     0.007 C 
ATOM      6  C   UNL     1      11.337 -28.054  22.810  1.00  0.00     0.013 C 
ATOM      7  C   UNL     1      11.973 -25.756  22.193  1.00  0.00    -0.064 C 
ATOM      8  C   UNL     1      10.412 -23.672  22.545  1.00  0.00     0.015 C 
ATOM      9  C   UNL     1       9.189 -23.137  23.342  1.00  0.00    -0.035 C 
ATOM     10  C   UNL     1      12.532 -27.047  22.812  1.00  0.00    -0.006 C 
ATOM     11  C   UNL     1      12.171 -25.502  20.882  1.00  0.00    -0.027 C 
ATOM     12  C   UNL     1       8.746 -21.794  22.721  1.00  0.00     0.011 C 
ATOM     13  C   UNL     1       9.564 -22.866  24.820  1.00  0.00     0.011 C 
ATOM     14  C   UNL     1      12.942 -26.784  24.303  1.00  0.00     0.017 C 
ATOM     15  C   UNL     1      13.836 -27.536  21.988  1.00  0.00    -0.020 C 
ATOM     16  C   UNL     1      12.522 -26.596  19.917  1.00  0.00     0.032 C 
ATOM     17  C   UNL     1      13.602 -27.595  20.414  1.00  0.00     0.006 C 
ATOM     18  C   UNL     1      14.375 -28.912  22.484  1.00  0.00     0.008 C 
ATOM     19  C   UNL     1      14.986 -26.488  22.248  1.00  0.00     0.012 C 
ATOM     20  C   UNL     1      13.554 -29.030  19.695  1.00  0.00    -0.025 C 
ATOM     21  C   UNL     1      15.399 -29.511  21.517  1.00  0.00     0.005 C 
ATOM     22  C   UNL     1      14.735 -29.980  20.201  1.00  0.00     0.003 C 
ATOM     23  C   UNL     1      13.622 -28.771  18.147  1.00  0.00     0.010 C 
ATOM     24  C   UNL     1      12.214 -29.787  19.942  1.00  0.00     0.012 C 
ATOM     25  C   UNL     1      15.777 -30.433  19.108  1.00  0.00    -0.006 C 
ATOM     26  C   UNL     1      13.986 -29.972  17.267  1.00  0.00     0.033 C 
ATOM     27  C   UNL     1      14.976 -30.975  17.885  1.00  0.00     0.120 C 
ATOM     28  C   UNL     1      16.634 -31.613  19.652  1.00  0.00     0.014 C 
ATOM     29  C   UNL     1      16.764 -29.299  18.709  1.00  0.00     0.014 C 
ENDROOT
BRANCH   1  30
ATOM     30  C   UNL     1       9.083 -26.380  21.374  1.00  0.00     0.048 C 
ATOM     31  O   UNL     1       8.748 -27.536  21.002  1.00  0.00    -0.550 OA
ATOM     32  O   UNL     1       8.892 -25.332  20.483  1.00  0.00    -0.550 OA
ENDBRANCH   1  30
BRANCH  27  33
ATOM     33  O   UNL     1      15.845 -31.433  16.875  1.00  0.00    -0.393 OA
ATOM     34  H   UNL     1      15.461 -32.267  16.497  1.00  0.00     0.210 HD
ENDBRANCH  27  33
TORSDOF 2
ENDMDL
MODEL 7
REMARK VINA RESULT:    -6.374      4.401      6.622
REMARK INTER + INTRA:          -6.686
REMARK INTER:                  -6.925
REMARK INTRA:                   0.240
REMARK UNBOUND:                 0.247
REMARK SMILES CC1(C)CC[C@]2(C(=O)[O-])CC[C@]3(C)C(=CC[C@@H]4[C@@]5(C)CC[C@@H](O)C(C)(C)[C@H]5CC[C@@]43C)[C@H]2C1
REMARK SMILES IDX 6 1 5 2 10 3 32 4 4 5 11 6 14 7 33 8 2 9 12 10 15 11 1 12
REMARK SMILES IDX 3 13 13 14 30 15 16 16 17 17 29 18 31 19 18 20 28 21 27 22
REMARK SMILES IDX 20 23 19 24 24 25 21 26 22 27 25 28 26 29 7 30 8 31 9 32
REMARK SMILES IDX 23 33
REMARK H PARENT 23 34
REMARK Flexibility Score: inf
ROOT
ATOM      1  C   UNL     1       9.304 -27.450  21.301  1.00  0.00     0.017 C 
ATOM      2  C   UNL     1       9.152 -27.015  19.821  1.00  0.00     0.014 C 
ATOM      3  C   UNL     1       8.676 -26.348  22.219  1.00  0.00     0.014 C 
ATOM      4  C   UNL     1      10.828 -27.548  21.648  1.00  0.00     0.028 C 
ATOM      5  C   UNL     1       9.936 -27.918  18.849  1.00  0.00     0.007 C 
ATOM      6  C   UNL     1       8.949 -26.572  23.735  1.00  0.00     0.013 C 
ATOM      7  C   UNL     1      10.971 -27.850  23.142  1.00  0.00    -0.064 C 
ATOM      8  C   UNL     1      11.650 -28.430  20.671  1.00  0.00     0.015 C 
ATOM      9  C   UNL     1      11.450 -28.024  19.183  1.00  0.00    -0.035 C 
ATOM     10  C   UNL     1      10.457 -26.763  24.100  1.00  0.00    -0.006 C 
ATOM     11  C   UNL     1      11.032 -29.133  23.558  1.00  0.00    -0.027 C 
ATOM     12  C   UNL     1      12.074 -29.117  18.288  1.00  0.00     0.011 C 
ATOM     13  C   UNL     1      12.175 -26.692  18.868  1.00  0.00     0.011 C 
ATOM     14  C   UNL     1      11.200 -25.411  23.812  1.00  0.00     0.017 C 
ATOM     15  C   UNL     1      10.737 -27.199  25.633  1.00  0.00    -0.020 C 
ATOM     16  C   UNL     1      10.233 -29.615  24.733  1.00  0.00     0.032 C 
ATOM     17  C   UNL     1      10.242 -28.675  25.969  1.00  0.00     0.006 C 
ATOM     18  C   UNL     1      10.124 -26.200  26.660  1.00  0.00     0.008 C 
ATOM     19  C   UNL     1      12.298 -27.169  25.861  1.00  0.00     0.012 C 
ATOM     20  C   UNL     1       8.984 -28.862  26.948  1.00  0.00    -0.025 C 
ATOM     21  C   UNL     1      10.118 -26.767  28.082  1.00  0.00     0.005 C 
ATOM     22  C   UNL     1       9.095 -27.917  28.234  1.00  0.00     0.003 C 
ATOM     23  C   UNL     1       8.923 -30.383  27.334  1.00  0.00     0.010 C 
ATOM     24  C   UNL     1       7.624 -28.543  26.257  1.00  0.00     0.012 C 
ATOM     25  C   UNL     1       9.187 -28.649  29.626  1.00  0.00    -0.006 C 
ATOM     26  C   UNL     1       8.067 -30.748  28.553  1.00  0.00     0.033 C 
ATOM     27  C   UNL     1       8.041 -29.706  29.684  1.00  0.00     0.120 C 
ATOM     28  C   UNL     1       8.930 -27.632  30.776  1.00  0.00     0.014 C 
ATOM     29  C   UNL     1      10.584 -29.283  29.883  1.00  0.00     0.014 C 
ENDROOT
BRANCH   1  30
ATOM     30  C   UNL     1       8.542 -28.765  21.506  1.00  0.00     0.048 C 
ATOM     31  O   UNL     1       7.382 -28.759  21.999  1.00  0.00    -0.550 OA
ATOM     32  O   UNL     1       9.048 -29.977  21.054  1.00  0.00    -0.550 OA
ENDBRANCH   1  30
BRANCH  27  33
ATOM     33  O   UNL     1       8.038 -30.380  30.921  1.00  0.00    -0.393 OA
ATOM     34  H   UNL     1       8.378 -29.753  31.611  1.00  0.00     0.210 HD
ENDBRANCH  27  33
TORSDOF 2
ENDMDL
MODEL 8
REMARK VINA RESULT:    -6.086      1.584      2.481
REMARK INTER + INTRA:          -6.373
REMARK INTER:                  -6.803
REMARK INTRA:                   0.430
REMARK UNBOUND:                 0.247
REMARK SMILES CC1(C)CC[C@]2(C(=O)[O-])CC[C@]3(C)C(=CC[C@@H]4[C@@]5(C)CC[C@@H](O)C(C)(C)[C@H]5CC[C@@]43C)[C@H]2C1
REMARK SMILES IDX 6 1 5 2 10 3 32 4 4 5 11 6 14 7 33 8 2 9 12 10 15 11 1 12
REMARK SMILES IDX 3 13 13 14 30 15 16 16 17 17 29 18 31 19 18 20 28 21 27 22
REMARK SMILES IDX 20 23 19 24 24 25 21 26 22 27 25 28 26 29 7 30 8 31 9 32
REMARK SMILES IDX 23 33
REMARK H PARENT 23 34
REMARK Flexibility Score: inf
ROOT
ATOM      1  C   UNL     1      14.897 -29.642  20.816  1.00  0.00     0.017 C 
ATOM      2  C   UNL     1      15.920 -30.805  20.757  1.00  0.00     0.014 C 
ATOM      3  C   UNL     1      14.093 -29.746  22.155  1.00  0.00     0.014 C 
ATOM      4  C   UNL     1      13.881 -29.799  19.636  1.00  0.00     0.028 C 
ATOM      5  C   UNL     1      16.606 -30.928  19.382  1.00  0.00     0.007 C 
ATOM      6  C   UNL     1      12.895 -28.755  22.238  1.00  0.00     0.013 C 
ATOM      7  C   UNL     1      12.799 -28.725  19.777  1.00  0.00    -0.064 C 
ATOM      8  C   UNL     1      14.541 -29.952  18.240  1.00  0.00     0.015 C 
ATOM      9  C   UNL     1      15.608 -31.084  18.201  1.00  0.00    -0.035 C 
ATOM     10  C   UNL     1      11.910 -28.827  21.027  1.00  0.00    -0.006 C 
ATOM     11  C   UNL     1      12.964 -27.531  19.168  1.00  0.00    -0.027 C 
ATOM     12  C   UNL     1      16.395 -30.973  16.877  1.00  0.00     0.011 C 
ATOM     13  C   UNL     1      14.938 -32.479  18.231  1.00  0.00     0.011 C 
ATOM     14  C   UNL     1      11.202 -30.226  21.059  1.00  0.00     0.017 C 
ATOM     15  C   UNL     1      10.780 -27.668  20.998  1.00  0.00    -0.020 C 
ATOM     16  C   UNL     1      12.684 -26.242  19.884  1.00  0.00     0.032 C 
ATOM     17  C   UNL     1      11.372 -26.217  20.713  1.00  0.00     0.006 C 
ATOM     18  C   UNL     1       9.926 -27.634  22.300  1.00  0.00     0.008 C 
ATOM     19  C   UNL     1       9.783 -28.002  19.821  1.00  0.00     0.012 C 
ATOM     20  C   UNL     1      11.362 -25.135  21.898  1.00  0.00    -0.025 C 
ATOM     21  C   UNL     1       9.081 -26.361  22.401  1.00  0.00     0.005 C 
ATOM     22  C   UNL     1       9.957 -25.114  22.662  1.00  0.00     0.003 C 
ATOM     23  C   UNL     1      11.708 -23.745  21.255  1.00  0.00     0.010 C 
ATOM     24  C   UNL     1      12.465 -25.396  22.968  1.00  0.00     0.012 C 
ATOM     25  C   UNL     1       9.149 -23.762  22.589  1.00  0.00    -0.006 C 
ATOM     26  C   UNL     1      11.379 -22.502  22.090  1.00  0.00     0.033 C 
ATOM     27  C   UNL     1      10.123 -22.606  22.972  1.00  0.00     0.120 C 
ATOM     28  C   UNL     1       8.010 -23.770  23.650  1.00  0.00     0.014 C 
ATOM     29  C   UNL     1       8.480 -23.533  21.205  1.00  0.00     0.014 C 
ENDROOT
BRANCH   1  30
ATOM     30  C   UNL     1      15.663 -28.313  20.796  1.00  0.00     0.048 C 
ATOM     31  O   UNL     1      15.491 -27.464  21.710  1.00  0.00    -0.550 OA
ATOM     32  O   UNL     1      16.644 -28.055  19.847  1.00  0.00    -0.550 OA
ENDBRANCH   1  30
BRANCH  27  33
ATOM     33  O   UNL     1       9.459 -21.363  22.963  1.00  0.00    -0.393 OA
ATOM     34  H   UNL     1       8.595 -21.482  22.489  1.00  0.00     0.210 HD
ENDBRANCH  27  33
TORSDOF 2
ENDMDL
MODEL 9
REMARK VINA RESULT:    -5.799      3.212      7.774
REMARK INTER + INTRA:          -6.060
REMARK INTER:                  -6.311
REMARK INTRA:                   0.251
REMARK UNBOUND:                 0.247
REMARK SMILES CC1(C)CC[C@]2(C(=O)[O-])CC[C@]3(C)C(=CC[C@@H]4[C@@]5(C)CC[C@@H](O)C(C)(C)[C@H]5CC[C@@]43C)[C@H]2C1
REMARK SMILES IDX 6 1 5 2 10 3 32 4 4 5 11 6 14 7 33 8 2 9 12 10 15 11 1 12
REMARK SMILES IDX 3 13 13 14 30 15 16 16 17 17 29 18 31 19 18 20 28 21 27 22
REMARK SMILES IDX 20 23 19 24 24 25 21 26 22 27 25 28 26 29 7 30 8 31 9 32
REMARK SMILES IDX 23 33
REMARK H PARENT 23 34
REMARK Flexibility Score: inf
ROOT
ATOM      1  C   UNL     1       9.184 -27.370  25.324  1.00  0.00     0.017 C 
ATOM      2  C   UNL     1       8.193 -27.000  26.457  1.00  0.00     0.014 C 
ATOM      3  C   UNL     1       8.700 -26.701  23.993  1.00  0.00     0.014 C 
ATOM      4  C   UNL     1       9.161 -28.921  25.114  1.00  0.00     0.028 C 
ATOM      5  C   UNL     1       8.450 -27.789  27.756  1.00  0.00     0.007 C 
ATOM      6  C   UNL     1       9.498 -27.166  22.739  1.00  0.00     0.013 C 
ATOM      7  C   UNL     1      10.041 -29.265  23.909  1.00  0.00    -0.064 C 
ATOM      8  C   UNL     1       9.391 -29.744  26.409  1.00  0.00     0.015 C 
ATOM      9  C   UNL     1       8.431 -29.331  27.561  1.00  0.00    -0.035 C 
ATOM     10  C   UNL     1       9.568 -28.716  22.553  1.00  0.00    -0.006 C 
ATOM     11  C   UNL     1      11.349 -29.544  24.099  1.00  0.00    -0.027 C 
ATOM     12  C   UNL     1       8.917 -29.995  28.868  1.00  0.00     0.011 C 
ATOM     13  C   UNL     1       6.991 -29.830  27.290  1.00  0.00     0.011 C 
ATOM     14  C   UNL     1       8.119 -29.234  22.250  1.00  0.00     0.017 C 
ATOM     15  C   UNL     1      10.561 -29.217  21.377  1.00  0.00    -0.020 C 
ATOM     16  C   UNL     1      12.412 -28.949  23.222  1.00  0.00     0.032 C 
ATOM     17  C   UNL     1      12.100 -28.966  21.701  1.00  0.00     0.006 C 
ATOM     18  C   UNL     1      10.213 -28.590  19.994  1.00  0.00     0.008 C 
ATOM     19  C   UNL     1      10.368 -30.775  21.220  1.00  0.00     0.012 C 
ATOM     20  C   UNL     1      12.895 -27.858  20.854  1.00  0.00    -0.025 C 
ATOM     21  C   UNL     1      11.323 -28.815  18.964  1.00  0.00     0.005 C 
ATOM     22  C   UNL     1      12.582 -27.979  19.290  1.00  0.00     0.003 C 
ATOM     23  C   UNL     1      14.422 -28.045  21.170  1.00  0.00     0.010 C 
ATOM     24  C   UNL     1      12.547 -26.400  21.283  1.00  0.00     0.012 C 
ATOM     25  C   UNL     1      13.811 -28.320  18.363  1.00  0.00    -0.006 C 
ATOM     26  C   UNL     1      15.409 -27.384  20.201  1.00  0.00     0.033 C 
ATOM     27  C   UNL     1      14.968 -27.340  18.728  1.00  0.00     0.120 C 
ATOM     28  C   UNL     1      13.439 -28.054  16.875  1.00  0.00     0.014 C 
ATOM     29  C   UNL     1      14.247 -29.809  18.463  1.00  0.00     0.014 C 
ENDROOT
BRANCH   1  30
ATOM     30  C   UNL     1      10.569 -26.818  25.684  1.00  0.00     0.048 C 
ATOM     31  O   UNL     1      11.002 -25.772  25.132  1.00  0.00    -0.550 OA
ATOM     32  O   UNL     1      11.332 -27.378  26.701  1.00  0.00    -0.550 OA
ENDBRANCH   1  30
BRANCH  27  33
ATOM     33  O   UNL     1      16.094 -27.563  17.911  1.00  0.00    -0.393 OA
ATOM     34  H   UNL     1      15.776 -27.680  16.978  1.00  0.00     0.210 HD
ENDBRANCH  27  33
TORSDOF 2
ENDMDL
