MODEL 1
REMARK VINA RESULT:    -4.456      0.000      0.000
REMARK INTER + INTRA:          -5.155
REMARK INTER:                  -5.107
REMARK INTRA:                  -0.048
REMARK UNBOUND:                -0.048
REMARK SMILES O=C([O-])c1cc(O)c(O)c(O)c1
REMARK SMILES IDX 4 1 5 2 12 3 6 4 10 5 8 6 2 7 1 8 3 9 7 10 11 12 9 14
REMARK H PARENT 7 11 11 13 9 15
REMARK Flexibility Score: inf
ROOT
ATOM      1  C   UNL     1      12.476  14.884  20.541  1.00  0.00     0.005 A 
ATOM      2  C   UNL     1      11.602  15.027  19.450  1.00  0.00     0.060 A 
ATOM      3  C   UNL     1      12.275  13.825  21.441  1.00  0.00     0.060 A 
ATOM      4  C   UNL     1      10.545  14.131  19.260  1.00  0.00     0.162 A 
ATOM      5  C   UNL     1      11.218  12.922  21.258  1.00  0.00     0.162 A 
ATOM      6  C   UNL     1      10.348  13.074  20.165  1.00  0.00     0.200 A 
ENDROOT
BRANCH   1   7
ATOM      7  C   UNL     1      13.594  15.833  20.740  1.00  0.00     0.072 C 
ATOM      8  O   UNL     1      13.800  16.353  21.869  1.00  0.00    -0.545 OA
ATOM      9  O   UNL     1      14.435  16.163  19.683  1.00  0.00    -0.545 OA
ENDBRANCH   1   7
BRANCH   4  10
ATOM     10  O   UNL     1       9.698  14.308  18.165  1.00  0.00    -0.504 OA
ATOM     11  H   UNL     1       9.738  15.135  17.581  1.00  0.00     0.293 HD
ENDBRANCH   4  10
BRANCH   5  12
ATOM     12  O   UNL     1      11.030  11.875  22.159  1.00  0.00    -0.504 OA
ATOM     13  H   UNL     1      11.021  10.908  21.856  1.00  0.00     0.293 HD
ENDBRANCH   5  12
BRANCH   6  14
ATOM     14  O   UNL     1       9.291  12.184  19.967  1.00  0.00    -0.502 OA
ATOM     15  H   UNL     1       8.353  12.378  20.296  1.00  0.00     0.293 HD
ENDBRANCH   6  14
TORSDOF 4
ENDMDL
MODEL 2
REMARK VINA RESULT:    -4.395      1.528      2.938
REMARK INTER + INTRA:          -5.085
REMARK INTER:                  -5.035
REMARK INTRA:                  -0.050
REMARK UNBOUND:                -0.048
REMARK SMILES O=C([O-])c1cc(O)c(O)c(O)c1
REMARK SMILES IDX 4 1 5 2 12 3 6 4 10 5 8 6 2 7 1 8 3 9 7 10 11 12 9 14
REMARK H PARENT 7 11 11 13 9 15
REMARK Flexibility Score: inf
ROOT
ATOM      1  C   UNL     1      12.134  14.327  21.653  1.00  0.00     0.005 A 
ATOM      2  C   UNL     1      11.139  13.336  21.709  1.00  0.00     0.060 A 
ATOM      3  C   UNL     1      12.512  14.846  20.404  1.00  0.00     0.060 A 
ATOM      4  C   UNL     1      10.531  12.869  20.539  1.00  0.00     0.162 A 
ATOM      5  C   UNL     1      11.907  14.383  19.226  1.00  0.00     0.162 A 
ATOM      6  C   UNL     1      10.913  13.391  19.292  1.00  0.00     0.200 A 
ENDROOT
BRANCH   1   7
ATOM      7  C   UNL     1      12.777  14.821  22.892  1.00  0.00     0.072 C 
ATOM      8  O   UNL     1      13.992  15.151  22.897  1.00  0.00    -0.545 OA
ATOM      9  O   UNL     1      12.045  14.929  24.069  1.00  0.00    -0.545 OA
ENDBRANCH   1   7
BRANCH   4  10
ATOM     10  O   UNL     1       9.548  11.884  20.637  1.00  0.00    -0.504 OA
ATOM     11  H   UNL     1       8.913  11.679  19.875  1.00  0.00     0.293 HD
ENDBRANCH   4  10
BRANCH   5  12
ATOM     12  O   UNL     1      12.291  14.905  17.992  1.00  0.00    -0.504 OA
ATOM     13  H   UNL     1      12.229  15.897  17.793  1.00  0.00     0.293 HD
ENDBRANCH   5  12
BRANCH   6  14
ATOM     14  O   UNL     1      10.301  12.919  18.130  1.00  0.00    -0.502 OA
ATOM     15  H   UNL     1       9.367  12.527  18.133  1.00  0.00     0.293 HD
ENDBRANCH   6  14
TORSDOF 4
ENDMDL
MODEL 3
REMARK VINA RESULT:    -4.379      1.511      2.222
REMARK INTER + INTRA:          -5.067
REMARK INTER:                  -5.017
REMARK INTRA:                  -0.050
REMARK UNBOUND:                -0.048
REMARK SMILES O=C([O-])c1cc(O)c(O)c(O)c1
REMARK SMILES IDX 4 1 5 2 12 3 6 4 10 5 8 6 2 7 1 8 3 9 7 10 11 12 9 14
REMARK H PARENT 7 11 11 13 9 15
REMARK Flexibility Score: inf
ROOT
ATOM      1  C   UNL     1      12.126  14.330  21.645  1.00  0.00     0.005 A 
ATOM      2  C   UNL     1      12.477  14.829  20.379  1.00  0.00     0.060 A 
ATOM      3  C   UNL     1      11.133  13.342  21.738  1.00  0.00     0.060 A 
ATOM      4  C   UNL     1      11.849  14.351  19.225  1.00  0.00     0.162 A 
ATOM      5  C   UNL     1      10.498  12.857  20.585  1.00  0.00     0.162 A 
ATOM      6  C   UNL     1      10.855  13.362  19.323  1.00  0.00     0.200 A 
ENDROOT
BRANCH   1   7
ATOM      7  C   UNL     1      12.792  14.837  22.866  1.00  0.00     0.072 C 
ATOM      8  O   UNL     1      13.985  15.238  22.826  1.00  0.00    -0.545 OA
ATOM      9  O   UNL     1      12.108  14.878  24.076  1.00  0.00    -0.545 OA
ENDBRANCH   1   7
BRANCH   4  10
ATOM     10  O   UNL     1      12.225  14.872  17.986  1.00  0.00    -0.504 OA
ATOM     11  H   UNL     1      13.088  14.603  17.528  1.00  0.00     0.293 HD
ENDBRANCH   4  10
BRANCH   5  12
ATOM     12  O   UNL     1       9.514  11.875  20.690  1.00  0.00    -0.504 OA
ATOM     13  H   UNL     1       9.061  11.669  21.574  1.00  0.00     0.293 HD
ENDBRANCH   5  12
BRANCH   6  14
ATOM     14  O   UNL     1      10.234  12.890  18.166  1.00  0.00    -0.502 OA
ATOM     15  H   UNL     1      10.538  12.046  17.696  1.00  0.00     0.293 HD
ENDBRANCH   6  14
TORSDOF 4
ENDMDL
MODEL 4
REMARK VINA RESULT:    -4.354      0.106      2.431
REMARK INTER + INTRA:          -5.038
REMARK INTER:                  -4.989
REMARK INTRA:                  -0.048
REMARK UNBOUND:                -0.048
REMARK SMILES O=C([O-])c1cc(O)c(O)c(O)c1
REMARK SMILES IDX 4 1 5 2 12 3 6 4 10 5 8 6 2 7 1 8 3 9 7 10 11 12 9 14
REMARK H PARENT 7 11 11 13 9 15
REMARK Flexibility Score: inf
ROOT
ATOM      1  C   UNL     1      12.501  14.859  20.558  1.00  0.00     0.005 A 
ATOM      2  C   UNL     1      12.298  13.822  21.484  1.00  0.00     0.060 A 
ATOM      3  C   UNL     1      11.656  14.952  19.441  1.00  0.00     0.060 A 
ATOM      4  C   UNL     1      11.269  12.892  21.299  1.00  0.00     0.162 A 
ATOM      5  C   UNL     1      10.622  14.024  19.248  1.00  0.00     0.162 A 
ATOM      6  C   UNL     1      10.427  12.989  20.178  1.00  0.00     0.200 A 
ENDROOT
BRANCH   1   7
ATOM      7  C   UNL     1      13.590  15.843  20.756  1.00  0.00     0.072 C 
ATOM      8  O   UNL     1      13.779  16.371  21.883  1.00  0.00    -0.545 OA
ATOM      9  O   UNL     1      14.420  16.196  19.698  1.00  0.00    -0.545 OA
ENDBRANCH   1   7
BRANCH   4  10
ATOM     10  O   UNL     1      11.100  11.876  22.240  1.00  0.00    -0.504 OA
ATOM     11  H   UNL     1      11.515  10.959  22.124  1.00  0.00     0.293 HD
ENDBRANCH   4  10
BRANCH   5  12
ATOM     12  O   UNL     1       9.790  14.127  18.134  1.00  0.00    -0.504 OA
ATOM     13  H   UNL     1       8.857  13.732  18.129  1.00  0.00     0.293 HD
ENDBRANCH   5  12
BRANCH   6  14
ATOM     14  O   UNL     1       9.403  12.057  20.001  1.00  0.00    -0.502 OA
ATOM     15  H   UNL     1       8.585  12.034  20.599  1.00  0.00     0.293 HD
ENDBRANCH   6  14
TORSDOF 4
ENDMDL
MODEL 5
REMARK VINA RESULT:    -4.148      1.409      4.032
REMARK INTER + INTRA:          -4.802
REMARK INTER:                  -4.756
REMARK INTRA:                  -0.046
REMARK UNBOUND:                -0.048
REMARK SMILES O=C([O-])c1cc(O)c(O)c(O)c1
REMARK SMILES IDX 4 1 5 2 12 3 6 4 10 5 8 6 2 7 1 8 3 9 7 10 11 12 9 14
REMARK H PARENT 7 11 11 13 9 15
REMARK Flexibility Score: inf
ROOT
ATOM      1  C   UNL     1      10.984  13.278  21.665  1.00  0.00     0.005 A 
ATOM      2  C   UNL     1      12.127  14.090  21.571  1.00  0.00     0.060 A 
ATOM      3  C   UNL     1      10.271  12.964  20.497  1.00  0.00     0.060 A 
ATOM      4  C   UNL     1      12.552  14.582  20.332  1.00  0.00     0.162 A 
ATOM      5  C   UNL     1      10.691  13.453  19.251  1.00  0.00     0.162 A 
ATOM      6  C   UNL     1      11.835  14.265  19.166  1.00  0.00     0.200 A 
ENDROOT
BRANCH   1   7
ATOM      7  C   UNL     1      10.536  12.758  22.977  1.00  0.00     0.072 C 
ATOM      8  O   UNL     1      11.217  11.895  23.592  1.00  0.00    -0.545 OA
ATOM      9  O   UNL     1       9.355  13.216  23.549  1.00  0.00    -0.545 OA
ENDBRANCH   1   7
BRANCH   4  10
ATOM     10  O   UNL     1      13.691  15.386  20.280  1.00  0.00    -0.504 OA
ATOM     11  H   UNL     1      13.937  16.022  21.030  1.00  0.00     0.293 HD
ENDBRANCH   4  10
BRANCH   5  12
ATOM     12  O   UNL     1       9.975  13.134  18.098  1.00  0.00    -0.504 OA
ATOM     13  H   UNL     1      10.365  13.276  17.174  1.00  0.00     0.293 HD
ENDBRANCH   5  12
BRANCH   6  14
ATOM     14  O   UNL     1      12.266  14.760  17.935  1.00  0.00    -0.502 OA
ATOM     15  H   UNL     1      11.892  15.612  17.534  1.00  0.00     0.293 HD
ENDBRANCH   6  14
TORSDOF 4
ENDMDL
MODEL 6
REMARK VINA RESULT:    -4.116      1.392      3.755
REMARK INTER + INTRA:          -4.765
REMARK INTER:                  -4.719
REMARK INTRA:                  -0.047
REMARK UNBOUND:                -0.048
REMARK SMILES O=C([O-])c1cc(O)c(O)c(O)c1
REMARK SMILES IDX 4 1 5 2 12 3 6 4 10 5 8 6 2 7 1 8 3 9 7 10 11 12 9 14
REMARK H PARENT 7 11 11 13 9 15
REMARK Flexibility Score: inf
ROOT
ATOM      1  C   UNL     1      10.993  13.265  21.681  1.00  0.00     0.005 A 
ATOM      2  C   UNL     1      10.302  12.940  20.501  1.00  0.00     0.060 A 
ATOM      3  C   UNL     1      12.109  14.114  21.607  1.00  0.00     0.060 A 
ATOM      4  C   UNL     1      10.718  13.452  19.267  1.00  0.00     0.162 A 
ATOM      5  C   UNL     1      12.532  14.632  20.375  1.00  0.00     0.162 A 
ATOM      6  C   UNL     1      11.836  14.301  19.199  1.00  0.00     0.200 A 
ENDROOT
BRANCH   1   7
ATOM      7  C   UNL     1      10.551  12.722  22.986  1.00  0.00     0.072 C 
ATOM      8  O   UNL     1       9.380  12.927  23.402  1.00  0.00    -0.545 OA
ATOM      9  O   UNL     1      11.424  11.977  23.770  1.00  0.00    -0.545 OA
ENDBRANCH   1   7
BRANCH   4  10
ATOM     10  O   UNL     1      10.007  13.106  18.118  1.00  0.00    -0.504 OA
ATOM     11  H   UNL     1       9.080  12.698  18.160  1.00  0.00     0.293 HD
ENDBRANCH   4  10
BRANCH   5  12
ATOM     12  O   UNL     1      13.642  15.473  20.315  1.00  0.00    -0.504 OA
ATOM     13  H   UNL     1      14.273  15.578  21.102  1.00  0.00     0.293 HD
ENDBRANCH   5  12
BRANCH   6  14
ATOM     14  O   UNL     1      12.244  14.808  17.964  1.00  0.00    -0.502 OA
ATOM     15  H   UNL     1      13.002  14.395  17.435  1.00  0.00     0.293 HD
ENDBRANCH   6  14
TORSDOF 4
ENDMDL
MODEL 7
REMARK VINA RESULT:    -3.649      1.457      2.959
REMARK INTER + INTRA:          -4.231
REMARK INTER:                  -4.185
REMARK INTRA:                  -0.046
REMARK UNBOUND:                -0.048
REMARK SMILES O=C([O-])c1cc(O)c(O)c(O)c1
REMARK SMILES IDX 4 1 5 2 12 3 6 4 10 5 8 6 2 7 1 8 3 9 7 10 11 12 9 14
REMARK H PARENT 7 11 11 13 9 15
REMARK Flexibility Score: inf
ROOT
ATOM      1  C   UNL     1      12.806  13.802  20.229  1.00  0.00     0.005 A 
ATOM      2  C   UNL     1      12.839  13.655  21.626  1.00  0.00     0.060 A 
ATOM      3  C   UNL     1      11.624  13.490  19.538  1.00  0.00     0.060 A 
ATOM      4  C   UNL     1      11.714  13.204  22.323  1.00  0.00     0.162 A 
ATOM      5  C   UNL     1      10.491  13.037  20.230  1.00  0.00     0.162 A 
ATOM      6  C   UNL     1      10.534  12.893  21.627  1.00  0.00     0.200 A 
ENDROOT
BRANCH   1   7
ATOM      7  C   UNL     1      13.998  14.280  19.492  1.00  0.00     0.072 C 
ATOM      8  O   UNL     1      14.629  13.507  18.724  1.00  0.00    -0.545 OA
ATOM      9  O   UNL     1      14.436  15.591  19.637  1.00  0.00    -0.545 OA
ENDBRANCH   1   7
BRANCH   4  10
ATOM     10  O   UNL     1      11.788  13.071  23.710  1.00  0.00    -0.504 OA
ATOM     11  H   UNL     1      11.154  13.557  24.333  1.00  0.00     0.293 HD
ENDBRANCH   4  10
BRANCH   5  12
ATOM     12  O   UNL     1       9.323  12.731  19.532  1.00  0.00    -0.504 OA
ATOM     13  H   UNL     1       9.191  13.011  18.567  1.00  0.00     0.293 HD
ENDBRANCH   5  12
BRANCH   6  14
ATOM     14  O   UNL     1       9.415  12.444  22.331  1.00  0.00    -0.502 OA
ATOM     15  H   UNL     1       8.511  12.894  22.252  1.00  0.00     0.293 HD
ENDBRANCH   6  14
TORSDOF 4
ENDMDL
MODEL 8
REMARK VINA RESULT:    -3.538      1.326      4.645
REMARK INTER + INTRA:          -4.104
REMARK INTER:                  -4.053
REMARK INTRA:                  -0.051
REMARK UNBOUND:                -0.048
REMARK SMILES O=C([O-])c1cc(O)c(O)c(O)c1
REMARK SMILES IDX 4 1 5 2 12 3 6 4 10 5 8 6 2 7 1 8 3 9 7 10 11 12 9 14
REMARK H PARENT 7 11 11 13 9 15
REMARK Flexibility Score: inf
ROOT
ATOM      1  C   UNL     1      11.619  13.817  21.563  1.00  0.00     0.005 A 
ATOM      2  C   UNL     1      12.568  14.574  22.271  1.00  0.00     0.060 A 
ATOM      3  C   UNL     1      11.568  13.922  20.164  1.00  0.00     0.060 A 
ATOM      4  C   UNL     1      13.451  15.422  21.595  1.00  0.00     0.162 A 
ATOM      5  C   UNL     1      12.450  14.769  19.478  1.00  0.00     0.162 A 
ATOM      6  C   UNL     1      13.395  15.524  20.194  1.00  0.00     0.200 A 
ENDROOT
BRANCH   1   7
ATOM      7  C   UNL     1      10.685  12.919  22.280  1.00  0.00     0.072 C 
ATOM      8  O   UNL     1      10.247  11.875  21.727  1.00  0.00    -0.545 OA
ATOM      9  O   UNL     1      10.278  13.216  23.576  1.00  0.00    -0.545 OA
ENDBRANCH   1   7
BRANCH   4  10
ATOM     10  O   UNL     1      14.379  16.157  22.333  1.00  0.00    -0.504 OA
ATOM     11  H   UNL     1      14.105  16.740  23.116  1.00  0.00     0.293 HD
ENDBRANCH   4  10
BRANCH   5  12
ATOM     12  O   UNL     1      12.389  14.865  18.089  1.00  0.00    -0.504 OA
ATOM     13  H   UNL     1      12.967  15.520  17.575  1.00  0.00     0.293 HD
ENDBRANCH   5  12
BRANCH   6  14
ATOM     14  O   UNL     1      14.281  16.372  19.528  1.00  0.00    -0.502 OA
ATOM     15  H   UNL     1      15.104  16.025  19.050  1.00  0.00     0.293 HD
ENDBRANCH   6  14
TORSDOF 4
ENDMDL
MODEL 9
REMARK VINA RESULT:    -3.512      1.192      3.966
REMARK INTER + INTRA:          -4.074
REMARK INTER:                  -4.026
REMARK INTRA:                  -0.048
REMARK UNBOUND:                -0.048
REMARK SMILES O=C([O-])c1cc(O)c(O)c(O)c1
REMARK SMILES IDX 4 1 5 2 12 3 6 4 10 5 8 6 2 7 1 8 3 9 7 10 11 12 9 14
REMARK H PARENT 7 11 11 13 9 15
REMARK Flexibility Score: inf
ROOT
ATOM      1  C   UNL     1      11.010  13.676  20.023  1.00  0.00     0.005 A 
ATOM      2  C   UNL     1      11.898  14.758  19.895  1.00  0.00     0.060 A 
ATOM      3  C   UNL     1      10.891  13.034  21.266  1.00  0.00     0.060 A 
ATOM      4  C   UNL     1      12.656  15.192  20.987  1.00  0.00     0.162 A 
ATOM      5  C   UNL     1      11.647  13.464  22.367  1.00  0.00     0.162 A 
ATOM      6  C   UNL     1      12.534  14.545  22.229  1.00  0.00     0.200 A 
ENDROOT
BRANCH   1   7
ATOM      7  C   UNL     1      10.209  13.218  18.865  1.00  0.00     0.072 C 
ATOM      8  O   UNL     1       9.530  14.037  18.191  1.00  0.00    -0.545 OA
ATOM      9  O   UNL     1      10.195  11.875  18.506  1.00  0.00    -0.545 OA
ENDBRANCH   1   7
BRANCH   4  10
ATOM     10  O   UNL     1      13.527  16.269  20.819  1.00  0.00    -0.504 OA
ATOM     11  H   UNL     1      14.528  16.143  20.722  1.00  0.00     0.293 HD
ENDBRANCH   4  10
BRANCH   5  12
ATOM     12  O   UNL     1      11.520  12.818  23.595  1.00  0.00    -0.504 OA
ATOM     13  H   UNL     1      10.654  12.843  24.123  1.00  0.00     0.293 HD
ENDBRANCH   5  12
BRANCH   6  14
ATOM     14  O   UNL     1      13.293  14.986  23.314  1.00  0.00    -0.502 OA
ATOM     15  H   UNL     1      13.933  14.375  23.808  1.00  0.00     0.293 HD
ENDBRANCH   6  14
TORSDOF 4
ENDMDL
