MODEL 1
REMARK VINA RESULT:    -6.411      0.000      0.000
REMARK INTER + INTRA:          -8.287
REMARK INTER:                  -7.910
REMARK INTRA:                  -0.377
REMARK UNBOUND:                -0.377
REMARK SMILES Oc1cc(O)c2cc(O)c(-c3cc(O)c(O)c(O)c3)[o+]c2c1
REMARK SMILES IDX 10 1 20 2 21 3 22 4 2 5 3 6 4 7 6 8 7 9 8 10 11 11 12 12
REMARK SMILES IDX 13 13 19 14 15 15 17 16 14 17 16 19 18 21 9 23 1 25 5 27
REMARK H PARENT 14 18 16 20 18 22 9 24 1 26 5 28
REMARK Flexibility Score: inf
ROOT
ATOM      1  C   UNL     1     -12.145 -16.277  32.724  1.00  0.00     0.402 A 
ATOM      2  O   UNL     1     -12.998 -15.458  33.337  1.00  0.00    -0.202 OA
ATOM      3  C   UNL     1     -12.700 -14.799  34.452  1.00  0.00     0.368 A 
ATOM      4  C   UNL     1     -13.654 -13.960  35.036  1.00  0.00     0.162 A 
ATOM      5  C   UNL     1     -13.357 -13.263  36.211  1.00  0.00     0.128 A 
ATOM      6  C   UNL     1     -12.095 -13.405  36.807  1.00  0.00     0.093 A 
ATOM      7  C   UNL     1     -11.127 -14.242  36.231  1.00  0.00     0.136 A 
ATOM      8  C   UNL     1     -11.429 -14.943  35.048  1.00  0.00     0.125 A 
ATOM      9  C   UNL     1     -10.500 -15.785  34.426  1.00  0.00     0.078 A 
ATOM     10  C   UNL     1     -10.848 -16.453  33.249  1.00  0.00     0.223 A 
ENDROOT
BRANCH   1  11
ATOM     11  C   UNL     1     -12.595 -16.964  31.492  1.00  0.00     0.091 A 
ATOM     12  C   UNL     1     -13.062 -18.286  31.520  1.00  0.00     0.068 A 
ATOM     13  C   UNL     1     -13.504 -18.910  30.347  1.00  0.00     0.162 A 
ATOM     14  C   UNL     1     -12.609 -16.262  30.278  1.00  0.00     0.068 A 
ATOM     15  C   UNL     1     -13.496 -18.214  29.129  1.00  0.00     0.200 A 
ATOM     16  C   UNL     1     -13.048 -16.872  29.097  1.00  0.00     0.162 A 
BRANCH  13  17
ATOM     17  O   UNL     1     -13.960 -20.227  30.382  1.00  0.00    -0.504 OA
ATOM     18  H   UNL     1     -13.998 -20.752  31.248  1.00  0.00     0.293 HD
ENDBRANCH  13  17
BRANCH  15  19
ATOM     19  O   UNL     1     -13.940 -18.885  27.987  1.00  0.00    -0.502 OA
ATOM     20  H   UNL     1     -14.199 -19.861  27.969  1.00  0.00     0.293 HD
ENDBRANCH  15  19
BRANCH  16  21
ATOM     21  O   UNL     1     -13.022 -16.113  27.924  1.00  0.00    -0.504 OA
ATOM     22  H   UNL     1     -12.930 -15.109  27.902  1.00  0.00     0.293 HD
ENDBRANCH  16  21
ENDBRANCH   1  11
BRANCH  10  23
ATOM     23  O   UNL     1      -9.910 -17.254  32.596  1.00  0.00    -0.500 OA
ATOM     24  H   UNL     1      -9.344 -17.927  33.099  1.00  0.00     0.294 HD
ENDBRANCH  10  23
BRANCH   5  25
ATOM     25  O   UNL     1     -14.320 -12.433  36.779  1.00  0.00    -0.507 OA
ATOM     26  H   UNL     1     -15.066 -12.032  36.225  1.00  0.00     0.293 HD
ENDBRANCH   5  25
BRANCH   7  27
ATOM     27  O   UNL     1      -9.875 -14.374  36.832  1.00  0.00    -0.507 OA
ATOM     28  H   UNL     1      -9.768 -14.388  37.839  1.00  0.00     0.293 HD
ENDBRANCH   7  27
TORSDOF 7
ENDMDL
MODEL 2
REMARK VINA RESULT:    -6.385      0.113      1.802
REMARK INTER + INTRA:          -8.255
REMARK INTER:                  -7.912
REMARK INTRA:                  -0.343
REMARK UNBOUND:                -0.377
REMARK SMILES Oc1cc(O)c2cc(O)c(-c3cc(O)c(O)c(O)c3)[o+]c2c1
REMARK SMILES IDX 10 1 20 2 21 3 22 4 2 5 3 6 4 7 6 8 7 9 8 10 11 11 12 12
REMARK SMILES IDX 13 13 19 14 15 15 17 16 14 17 16 19 18 21 9 23 1 25 5 27
REMARK H PARENT 14 18 16 20 18 22 9 24 1 26 5 28
REMARK Flexibility Score: inf
ROOT
ATOM      1  C   UNL     1     -12.220 -16.202  32.668  1.00  0.00     0.402 A 
ATOM      2  O   UNL     1     -13.050 -15.379  33.307  1.00  0.00    -0.202 OA
ATOM      3  C   UNL     1     -12.730 -14.755  34.435  1.00  0.00     0.368 A 
ATOM      4  C   UNL     1     -13.661 -13.910  35.047  1.00  0.00     0.162 A 
ATOM      5  C   UNL     1     -13.339 -13.249  36.237  1.00  0.00     0.128 A 
ATOM      6  C   UNL     1     -12.076 -13.433  36.818  1.00  0.00     0.093 A 
ATOM      7  C   UNL     1     -11.131 -14.276  36.215  1.00  0.00     0.136 A 
ATOM      8  C   UNL     1     -11.458 -14.941  35.018  1.00  0.00     0.125 A 
ATOM      9  C   UNL     1     -10.552 -15.788  34.367  1.00  0.00     0.078 A 
ATOM     10  C   UNL     1     -10.923 -16.418  33.177  1.00  0.00     0.223 A 
ENDROOT
BRANCH   1  11
ATOM     11  C   UNL     1     -12.694 -16.848  31.422  1.00  0.00     0.091 A 
ATOM     12  C   UNL     1     -12.713 -16.157  30.201  1.00  0.00     0.068 A 
ATOM     13  C   UNL     1     -13.144 -16.792  29.031  1.00  0.00     0.162 A 
ATOM     14  C   UNL     1     -13.080 -18.196  31.448  1.00  0.00     0.068 A 
ATOM     15  C   UNL     1     -13.551 -18.134  29.063  1.00  0.00     0.200 A 
ATOM     16  C   UNL     1     -13.513 -18.845  30.286  1.00  0.00     0.162 A 
BRANCH  13  17
ATOM     17  O   UNL     1     -13.167 -16.097  27.822  1.00  0.00    -0.504 OA
ATOM     18  H   UNL     1     -12.716 -15.194  27.721  1.00  0.00     0.293 HD
ENDBRANCH  13  17
BRANCH  15  19
ATOM     19  O   UNL     1     -13.979 -18.718  27.868  1.00  0.00    -0.502 OA
ATOM     20  H   UNL     1     -13.384 -19.260  27.257  1.00  0.00     0.293 HD
ENDBRANCH  15  19
BRANCH  16  21
ATOM     21  O   UNL     1     -13.893 -20.185  30.392  1.00  0.00    -0.504 OA
ATOM     22  H   UNL     1     -14.847 -20.496  30.492  1.00  0.00     0.293 HD
ENDBRANCH  16  21
ENDBRANCH   1  11
BRANCH  10  23
ATOM     23  O   UNL     1     -10.009 -17.224  32.497  1.00  0.00    -0.500 OA
ATOM     24  H   UNL     1      -9.312 -16.828  31.877  1.00  0.00     0.294 HD
ENDBRANCH  10  23
BRANCH   5  25
ATOM     25  O   UNL     1     -14.279 -12.412  36.833  1.00  0.00    -0.507 OA
ATOM     26  H   UNL     1     -15.131 -12.147  36.353  1.00  0.00     0.293 HD
ENDBRANCH   5  25
BRANCH   7  27
ATOM     27  O   UNL     1      -9.878 -14.451  36.802  1.00  0.00    -0.507 OA
ATOM     28  H   UNL     1      -9.592 -15.342  37.189  1.00  0.00     0.293 HD
ENDBRANCH   7  27
TORSDOF 7
ENDMDL
MODEL 3
REMARK VINA RESULT:    -6.351      1.043      3.151
REMARK INTER + INTRA:          -8.213
REMARK INTER:                  -7.919
REMARK INTRA:                  -0.294
REMARK UNBOUND:                -0.377
REMARK SMILES Oc1cc(O)c2cc(O)c(-c3cc(O)c(O)c(O)c3)[o+]c2c1
REMARK SMILES IDX 10 1 20 2 21 3 22 4 2 5 3 6 4 7 6 8 7 9 8 10 11 11 12 12
REMARK SMILES IDX 13 13 19 14 15 15 17 16 14 17 16 19 18 21 9 23 1 25 5 27
REMARK H PARENT 14 18 16 20 18 22 9 24 1 26 5 28
REMARK Flexibility Score: inf
ROOT
ATOM      1  C   UNL     1     -13.393 -15.811  32.503  1.00  0.00     0.402 A 
ATOM      2  O   UNL     1     -12.329 -15.774  33.303  1.00  0.00    -0.202 OA
ATOM      3  C   UNL     1     -12.270 -15.027  34.401  1.00  0.00     0.368 A 
ATOM      4  C   UNL     1     -11.113 -15.041  35.186  1.00  0.00     0.162 A 
ATOM      5  C   UNL     1     -11.035 -14.257  36.341  1.00  0.00     0.128 A 
ATOM      6  C   UNL     1     -12.122 -13.453  36.715  1.00  0.00     0.093 A 
ATOM      7  C   UNL     1     -13.290 -13.430  35.937  1.00  0.00     0.136 A 
ATOM      8  C   UNL     1     -13.366 -14.220  34.775  1.00  0.00     0.125 A 
ATOM      9  C   UNL     1     -14.508 -14.242  33.965  1.00  0.00     0.078 A 
ATOM     10  C   UNL     1     -14.535 -15.049  32.825  1.00  0.00     0.223 A 
ENDROOT
BRANCH   1  11
ATOM     11  C   UNL     1     -13.338 -16.677  31.302  1.00  0.00     0.091 A 
ATOM     12  C   UNL     1     -13.306 -16.133  30.009  1.00  0.00     0.068 A 
ATOM     13  C   UNL     1     -13.232 -16.968  28.888  1.00  0.00     0.162 A 
ATOM     14  C   UNL     1     -13.257 -18.068  31.458  1.00  0.00     0.068 A 
ATOM     15  C   UNL     1     -13.174 -18.360  29.045  1.00  0.00     0.200 A 
ATOM     16  C   UNL     1     -13.182 -18.915  30.347  1.00  0.00     0.162 A 
BRANCH  13  17
ATOM     17  O   UNL     1     -13.208 -16.420  27.606  1.00  0.00    -0.504 OA
ATOM     18  H   UNL     1     -13.590 -16.917  26.809  1.00  0.00     0.293 HD
ENDBRANCH  13  17
BRANCH  15  19
ATOM     19  O   UNL     1     -13.108 -19.148  27.893  1.00  0.00    -0.502 OA
ATOM     20  H   UNL     1     -13.434 -20.102  27.840  1.00  0.00     0.293 HD
ENDBRANCH  15  19
BRANCH  16  21
ATOM     21  O   UNL     1     -13.116 -20.291  30.581  1.00  0.00    -0.504 OA
ATOM     22  H   UNL     1     -12.583 -20.936  30.018  1.00  0.00     0.293 HD
ENDBRANCH  16  21
ENDBRANCH   1  11
BRANCH  10  23
ATOM     23  O   UNL     1     -15.688 -15.115  32.042  1.00  0.00    -0.500 OA
ATOM     24  H   UNL     1     -15.767 -15.762  31.265  1.00  0.00     0.294 HD
ENDBRANCH  10  23
BRANCH   5  25
ATOM     25  O   UNL     1      -9.875 -14.283  37.111  1.00  0.00    -0.507 OA
ATOM     26  H   UNL     1      -9.492 -13.439  37.520  1.00  0.00     0.293 HD
ENDBRANCH   5  25
BRANCH   7  27
ATOM     27  O   UNL     1     -14.364 -12.627  36.319  1.00  0.00    -0.507 OA
ATOM     28  H   UNL     1     -15.139 -12.443  35.692  1.00  0.00     0.293 HD
ENDBRANCH   7  27
TORSDOF 7
ENDMDL
MODEL 4
REMARK VINA RESULT:    -6.266      1.017      2.589
REMARK INTER + INTRA:          -8.109
REMARK INTER:                  -7.850
REMARK INTRA:                  -0.259
REMARK UNBOUND:                -0.377
REMARK SMILES Oc1cc(O)c2cc(O)c(-c3cc(O)c(O)c(O)c3)[o+]c2c1
REMARK SMILES IDX 10 1 20 2 21 3 22 4 2 5 3 6 4 7 6 8 7 9 8 10 11 11 12 12
REMARK SMILES IDX 13 13 19 14 15 15 17 16 14 17 16 19 18 21 9 23 1 25 5 27
REMARK H PARENT 14 18 16 20 18 22 9 24 1 26 5 28
REMARK Flexibility Score: inf
ROOT
ATOM      1  C   UNL     1     -13.346 -15.809  32.540  1.00  0.00     0.402 A 
ATOM      2  O   UNL     1     -12.289 -15.761  33.349  1.00  0.00    -0.202 OA
ATOM      3  C   UNL     1     -12.244 -15.007  34.443  1.00  0.00     0.368 A 
ATOM      4  C   UNL     1     -11.094 -15.009  35.238  1.00  0.00     0.162 A 
ATOM      5  C   UNL     1     -11.030 -14.218  36.390  1.00  0.00     0.128 A 
ATOM      6  C   UNL     1     -12.126 -13.420  36.750  1.00  0.00     0.093 A 
ATOM      7  C   UNL     1     -13.287 -13.409  35.963  1.00  0.00     0.136 A 
ATOM      8  C   UNL     1     -13.348 -14.206  34.804  1.00  0.00     0.125 A 
ATOM      9  C   UNL     1     -14.483 -14.240  33.986  1.00  0.00     0.078 A 
ATOM     10  C   UNL     1     -14.496 -15.054  32.849  1.00  0.00     0.223 A 
ENDROOT
BRANCH   1  11
ATOM     11  C   UNL     1     -13.275 -16.681  31.345  1.00  0.00     0.091 A 
ATOM     12  C   UNL     1     -13.255 -18.079  31.459  1.00  0.00     0.068 A 
ATOM     13  C   UNL     1     -13.210 -18.885  30.316  1.00  0.00     0.162 A 
ATOM     14  C   UNL     1     -13.285 -16.102  30.068  1.00  0.00     0.068 A 
ATOM     15  C   UNL     1     -13.197 -18.304  29.040  1.00  0.00     0.200 A 
ATOM     16  C   UNL     1     -13.240 -16.895  28.915  1.00  0.00     0.162 A 
BRANCH  13  17
ATOM     17  O   UNL     1     -13.183 -20.274  30.438  1.00  0.00    -0.504 OA
ATOM     18  H   UNL     1     -13.990 -20.794  30.764  1.00  0.00     0.293 HD
ENDBRANCH  13  17
BRANCH  15  19
ATOM     19  O   UNL     1     -13.144 -19.154  27.932  1.00  0.00    -0.502 OA
ATOM     20  H   UNL     1     -12.924 -18.850  26.995  1.00  0.00     0.293 HD
ENDBRANCH  15  19
BRANCH  16  21
ATOM     21  O   UNL     1     -13.241 -16.246  27.678  1.00  0.00    -0.504 OA
ATOM     22  H   UNL     1     -14.046 -15.783  27.283  1.00  0.00     0.293 HD
ENDBRANCH  16  21
ENDBRANCH   1  11
BRANCH  10  23
ATOM     23  O   UNL     1     -15.642 -15.132  32.057  1.00  0.00    -0.500 OA
ATOM     24  H   UNL     1     -16.123 -16.011  31.904  1.00  0.00     0.294 HD
ENDBRANCH  10  23
BRANCH   5  25
ATOM     25  O   UNL     1      -9.877 -14.232  37.168  1.00  0.00    -0.507 OA
ATOM     26  H   UNL     1      -9.490 -15.097  37.527  1.00  0.00     0.293 HD
ENDBRANCH   5  25
BRANCH   7  27
ATOM     27  O   UNL     1     -14.371 -12.613  36.332  1.00  0.00    -0.507 OA
ATOM     28  H   UNL     1     -15.327 -12.908  36.171  1.00  0.00     0.293 HD
ENDBRANCH   7  27
TORSDOF 7
ENDMDL
MODEL 5
REMARK VINA RESULT:    -5.769      1.424      7.291
REMARK INTER + INTRA:          -7.495
REMARK INTER:                  -7.305
REMARK INTRA:                  -0.190
REMARK UNBOUND:                -0.377
REMARK SMILES Oc1cc(O)c2cc(O)c(-c3cc(O)c(O)c(O)c3)[o+]c2c1
REMARK SMILES IDX 10 1 20 2 21 3 22 4 2 5 3 6 4 7 6 8 7 9 8 10 11 11 12 12
REMARK SMILES IDX 13 13 19 14 15 15 17 16 14 17 16 19 18 21 9 23 1 25 5 27
REMARK H PARENT 14 18 16 20 18 22 9 24 1 26 5 28
REMARK Flexibility Score: inf
ROOT
ATOM      1  C   UNL     1     -12.856 -16.197  32.722  1.00  0.00     0.402 A 
ATOM      2  O   UNL     1     -12.088 -16.066  31.642  1.00  0.00    -0.202 OA
ATOM      3  C   UNL     1     -12.225 -16.821  30.556  1.00  0.00     0.368 A 
ATOM      4  C   UNL     1     -11.375 -16.623  29.464  1.00  0.00     0.162 A 
ATOM      5  C   UNL     1     -11.505 -17.411  28.317  1.00  0.00     0.128 A 
ATOM      6  C   UNL     1     -12.494 -18.404  28.260  1.00  0.00     0.093 A 
ATOM      7  C   UNL     1     -13.356 -18.613  29.347  1.00  0.00     0.136 A 
ATOM      8  C   UNL     1     -13.222 -17.818  30.502  1.00  0.00     0.125 A 
ATOM      9  C   UNL     1     -14.058 -17.976  31.613  1.00  0.00     0.078 A 
ATOM     10  C   UNL     1     -13.889 -17.157  32.732  1.00  0.00     0.223 A 
ENDROOT
BRANCH   1  11
ATOM     11  C   UNL     1     -12.602 -15.303  33.876  1.00  0.00     0.091 A 
ATOM     12  C   UNL     1     -13.576 -14.404  34.334  1.00  0.00     0.068 A 
ATOM     13  C   UNL     1     -13.324 -13.584  35.440  1.00  0.00     0.162 A 
ATOM     14  C   UNL     1     -11.383 -15.396  34.564  1.00  0.00     0.068 A 
ATOM     15  C   UNL     1     -12.095 -13.661  36.112  1.00  0.00     0.200 A 
ATOM     16  C   UNL     1     -11.116 -14.582  35.671  1.00  0.00     0.162 A 
BRANCH  13  17
ATOM     17  O   UNL     1     -14.295 -12.687  35.884  1.00  0.00    -0.504 OA
ATOM     18  H   UNL     1     -14.046 -11.832  36.369  1.00  0.00     0.293 HD
ENDBRANCH  13  17
BRANCH  15  19
ATOM     19  O   UNL     1     -11.892 -12.815  37.206  1.00  0.00    -0.502 OA
ATOM     20  H   UNL     1     -12.539 -12.094  37.491  1.00  0.00     0.293 HD
ENDBRANCH  15  19
BRANCH  16  21
ATOM     21  O   UNL     1      -9.875 -14.722  36.297  1.00  0.00    -0.504 OA
ATOM     22  H   UNL     1      -9.167 -15.381  36.009  1.00  0.00     0.293 HD
ENDBRANCH  16  21
ENDBRANCH   1  11
BRANCH  10  23
ATOM     23  O   UNL     1     -14.751 -17.275  33.823  1.00  0.00    -0.500 OA
ATOM     24  H   UNL     1     -15.422 -16.550  34.051  1.00  0.00     0.294 HD
ENDBRANCH  10  23
BRANCH   5  25
ATOM     25  O   UNL     1     -10.649 -17.201  27.239  1.00  0.00    -0.507 OA
ATOM     26  H   UNL     1     -10.155 -17.968  26.797  1.00  0.00     0.293 HD
ENDBRANCH   5  25
BRANCH   7  27
ATOM     27  O   UNL     1     -14.336 -19.602  29.279  1.00  0.00    -0.507 OA
ATOM     28  H   UNL     1     -15.204 -19.526  29.796  1.00  0.00     0.293 HD
ENDBRANCH   7  27
TORSDOF 7
ENDMDL
MODEL 6
REMARK VINA RESULT:    -5.524      1.417      7.234
REMARK INTER + INTRA:          -7.193
REMARK INTER:                  -6.988
REMARK INTRA:                  -0.205
REMARK UNBOUND:                -0.377
REMARK SMILES Oc1cc(O)c2cc(O)c(-c3cc(O)c(O)c(O)c3)[o+]c2c1
REMARK SMILES IDX 10 1 20 2 21 3 22 4 2 5 3 6 4 7 6 8 7 9 8 10 11 11 12 12
REMARK SMILES IDX 13 13 19 14 15 15 17 16 14 17 16 19 18 21 9 23 1 25 5 27
REMARK H PARENT 14 18 16 20 18 22 9 24 1 26 5 28
REMARK Flexibility Score: inf
ROOT
ATOM      1  C   UNL     1     -12.812 -16.202  32.750  1.00  0.00     0.402 A 
ATOM      2  O   UNL     1     -12.054 -16.036  31.667  1.00  0.00    -0.202 OA
ATOM      3  C   UNL     1     -12.196 -16.760  30.562  1.00  0.00     0.368 A 
ATOM      4  C   UNL     1     -11.357 -16.525  29.469  1.00  0.00     0.162 A 
ATOM      5  C   UNL     1     -11.491 -17.282  28.301  1.00  0.00     0.128 A 
ATOM      6  C   UNL     1     -12.473 -18.280  28.224  1.00  0.00     0.093 A 
ATOM      7  C   UNL     1     -13.324 -18.526  29.313  1.00  0.00     0.136 A 
ATOM      8  C   UNL     1     -13.186 -17.763  30.488  1.00  0.00     0.125 A 
ATOM      9  C   UNL     1     -14.011 -17.959  31.602  1.00  0.00     0.078 A 
ATOM     10  C   UNL     1     -13.838 -17.170  32.742  1.00  0.00     0.223 A 
ENDROOT
BRANCH   1  11
ATOM     11  C   UNL     1     -12.554 -15.340  33.926  1.00  0.00     0.091 A 
ATOM     12  C   UNL     1     -11.328 -15.379  34.607  1.00  0.00     0.068 A 
ATOM     13  C   UNL     1     -11.095 -14.540  35.703  1.00  0.00     0.162 A 
ATOM     14  C   UNL     1     -13.531 -14.422  34.336  1.00  0.00     0.068 A 
ATOM     15  C   UNL     1     -12.083 -13.638  36.126  1.00  0.00     0.200 A 
ATOM     16  C   UNL     1     -13.313 -13.576  35.430  1.00  0.00     0.162 A 
BRANCH  13  17
ATOM     17  O   UNL     1      -9.877 -14.590  36.379  1.00  0.00    -0.504 OA
ATOM     18  H   UNL     1      -9.672 -13.966  37.151  1.00  0.00     0.293 HD
ENDBRANCH  13  17
BRANCH  15  19
ATOM     19  O   UNL     1     -11.802 -12.828  37.229  1.00  0.00    -0.502 OA
ATOM     20  H   UNL     1     -12.342 -12.015  37.487  1.00  0.00     0.293 HD
ENDBRANCH  15  19
BRANCH  16  21
ATOM     21  O   UNL     1     -14.338 -12.696  35.787  1.00  0.00    -0.504 OA
ATOM     22  H   UNL     1     -14.922 -12.209  35.124  1.00  0.00     0.293 HD
ENDBRANCH  16  21
ENDBRANCH   1  11
BRANCH  10  23
ATOM     23  O   UNL     1     -14.689 -17.325  33.836  1.00  0.00    -0.500 OA
ATOM     24  H   UNL     1     -15.598 -17.764  33.745  1.00  0.00     0.294 HD
ENDBRANCH  10  23
BRANCH   5  25
ATOM     25  O   UNL     1     -10.646 -17.036  27.222  1.00  0.00    -0.507 OA
ATOM     26  H   UNL     1     -10.637 -16.139  26.751  1.00  0.00     0.293 HD
ENDBRANCH   5  25
BRANCH   7  27
ATOM     27  O   UNL     1     -14.298 -19.521  29.225  1.00  0.00    -0.507 OA
ATOM     28  H   UNL     1     -15.279 -19.295  29.111  1.00  0.00     0.293 HD
ENDBRANCH   7  27
TORSDOF 7
ENDMDL
MODEL 7
REMARK VINA RESULT:    -4.346      1.485      7.011
REMARK INTER + INTRA:          -5.739
REMARK INTER:                  -5.706
REMARK INTRA:                  -0.033
REMARK UNBOUND:                -0.377
REMARK SMILES Oc1cc(O)c2cc(O)c(-c3cc(O)c(O)c(O)c3)[o+]c2c1
REMARK SMILES IDX 10 1 20 2 21 3 22 4 2 5 3 6 4 7 6 8 7 9 8 10 11 11 12 12
REMARK SMILES IDX 13 13 19 14 15 15 17 16 14 17 16 19 18 21 9 23 1 25 5 27
REMARK H PARENT 14 18 16 20 18 22 9 24 1 26 5 28
REMARK Flexibility Score: inf
ROOT
ATOM      1  C   UNL     1     -12.622 -16.187  31.987  1.00  0.00     0.402 A 
ATOM      2  O   UNL     1     -13.173 -15.485  30.998  1.00  0.00    -0.202 OA
ATOM      3  C   UNL     1     -13.380 -15.979  29.782  1.00  0.00     0.368 A 
ATOM      4  C   UNL     1     -13.960 -15.174  28.798  1.00  0.00     0.162 A 
ATOM      5  C   UNL     1     -14.180 -15.679  27.512  1.00  0.00     0.128 A 
ATOM      6  C   UNL     1     -13.819 -17.000  27.210  1.00  0.00     0.093 A 
ATOM      7  C   UNL     1     -13.237 -17.820  28.188  1.00  0.00     0.136 A 
ATOM      8  C   UNL     1     -13.016 -17.309  29.481  1.00  0.00     0.125 A 
ATOM      9  C   UNL     1     -12.446 -18.083  30.498  1.00  0.00     0.078 A 
ATOM     10  C   UNL     1     -12.254 -17.531  31.767  1.00  0.00     0.223 A 
ENDROOT
BRANCH   1  11
ATOM     11  C   UNL     1     -12.434 -15.524  33.298  1.00  0.00     0.091 A 
ATOM     12  C   UNL     1     -11.234 -15.648  34.015  1.00  0.00     0.068 A 
ATOM     13  C   UNL     1     -11.068 -14.995  35.242  1.00  0.00     0.162 A 
ATOM     14  C   UNL     1     -13.452 -14.708  33.811  1.00  0.00     0.068 A 
ATOM     15  C   UNL     1     -12.096 -14.198  35.764  1.00  0.00     0.200 A 
ATOM     16  C   UNL     1     -13.301 -14.049  35.036  1.00  0.00     0.162 A 
BRANCH  13  17
ATOM     17  O   UNL     1      -9.875 -15.129  35.952  1.00  0.00    -0.504 OA
ATOM     18  H   UNL     1      -9.824 -14.935  36.945  1.00  0.00     0.293 HD
ENDBRANCH  13  17
BRANCH  15  19
ATOM     19  O   UNL     1     -11.882 -13.574  36.996  1.00  0.00    -0.502 OA
ATOM     20  H   UNL     1     -11.289 -13.947  37.723  1.00  0.00     0.293 HD
ENDBRANCH  15  19
BRANCH  16  21
ATOM     21  O   UNL     1     -14.363 -13.263  35.488  1.00  0.00    -0.504 OA
ATOM     22  H   UNL     1     -14.278 -12.292  35.750  1.00  0.00     0.293 HD
ENDBRANCH  16  21
ENDBRANCH   1  11
BRANCH  10  23
ATOM     23  O   UNL     1     -11.734 -18.312  32.800  1.00  0.00    -0.500 OA
ATOM     24  H   UNL     1     -12.333 -18.735  33.499  1.00  0.00     0.294 HD
ENDBRANCH  10  23
BRANCH   5  25
ATOM     25  O   UNL     1     -14.759 -14.863  26.544  1.00  0.00    -0.507 OA
ATOM     26  H   UNL     1     -15.755 -14.681  26.531  1.00  0.00     0.293 HD
ENDBRANCH   5  25
BRANCH   7  27
ATOM     27  O   UNL     1     -12.883 -19.132  27.876  1.00  0.00    -0.507 OA
ATOM     28  H   UNL     1     -13.570 -19.809  27.564  1.00  0.00     0.293 HD
ENDBRANCH   7  27
TORSDOF 7
ENDMDL
MODEL 8
REMARK VINA RESULT:    -4.045      1.489      7.121
REMARK INTER + INTRA:          -5.368
REMARK INTER:                  -5.251
REMARK INTRA:                  -0.118
REMARK UNBOUND:                -0.377
REMARK SMILES Oc1cc(O)c2cc(O)c(-c3cc(O)c(O)c(O)c3)[o+]c2c1
REMARK SMILES IDX 10 1 20 2 21 3 22 4 2 5 3 6 4 7 6 8 7 9 8 10 11 11 12 12
REMARK SMILES IDX 13 13 19 14 15 15 17 16 14 17 16 19 18 21 9 23 1 25 5 27
REMARK H PARENT 14 18 16 20 18 22 9 24 1 26 5 28
REMARK Flexibility Score: inf
ROOT
ATOM      1  C   UNL     1     -12.800 -16.394  31.996  1.00  0.00     0.402 A 
ATOM      2  O   UNL     1     -13.162 -15.724  30.902  1.00  0.00    -0.202 OA
ATOM      3  C   UNL     1     -13.381 -16.310  29.730  1.00  0.00     0.368 A 
ATOM      4  C   UNL     1     -13.754 -15.535  28.628  1.00  0.00     0.162 A 
ATOM      5  C   UNL     1     -13.985 -16.137  27.387  1.00  0.00     0.128 A 
ATOM      6  C   UNL     1     -13.843 -17.525  27.247  1.00  0.00     0.093 A 
ATOM      7  C   UNL     1     -13.472 -18.316  28.344  1.00  0.00     0.136 A 
ATOM      8  C   UNL     1     -13.239 -17.708  29.592  1.00  0.00     0.125 A 
ATOM      9  C   UNL     1     -12.874 -18.448  30.723  1.00  0.00     0.078 A 
ATOM     10  C   UNL     1     -12.662 -17.796  31.941  1.00  0.00     0.223 A 
ENDROOT
BRANCH   1  11
ATOM     11  C   UNL     1     -12.575 -15.629  33.244  1.00  0.00     0.091 A 
ATOM     12  C   UNL     1     -13.576 -14.814  33.793  1.00  0.00     0.068 A 
ATOM     13  C   UNL     1     -13.350 -14.116  34.986  1.00  0.00     0.162 A 
ATOM     14  C   UNL     1     -11.357 -15.766  33.926  1.00  0.00     0.068 A 
ATOM     15  C   UNL     1     -12.123 -14.236  35.654  1.00  0.00     0.200 A 
ATOM     16  C   UNL     1     -11.117 -15.075  35.119  1.00  0.00     0.162 A 
BRANCH  13  17
ATOM     17  O   UNL     1     -14.347 -13.302  35.521  1.00  0.00    -0.504 OA
ATOM     18  H   UNL     1     -14.259 -12.292  35.531  1.00  0.00     0.293 HD
ENDBRANCH  13  17
BRANCH  15  19
ATOM     19  O   UNL     1     -11.948 -13.512  36.837  1.00  0.00    -0.502 OA
ATOM     20  H   UNL     1     -11.066 -13.119  37.134  1.00  0.00     0.293 HD
ENDBRANCH  15  19
BRANCH  16  21
ATOM     21  O   UNL     1      -9.875 -15.251  35.734  1.00  0.00    -0.504 OA
ATOM     22  H   UNL     1      -9.548 -14.701  36.514  1.00  0.00     0.293 HD
ENDBRANCH  16  21
ENDBRANCH   1  11
BRANCH  10  23
ATOM     23  O   UNL     1     -12.347 -18.533  33.083  1.00  0.00    -0.500 OA
ATOM     24  H   UNL     1     -11.759 -18.152  33.816  1.00  0.00     0.294 HD
ENDBRANCH  10  23
BRANCH   5  25
ATOM     25  O   UNL     1     -14.354 -15.349  26.300  1.00  0.00    -0.507 OA
ATOM     26  H   UNL     1     -14.185 -15.648  25.347  1.00  0.00     0.293 HD
ENDBRANCH   5  25
BRANCH   7  27
ATOM     27  O   UNL     1     -13.335 -19.696  28.194  1.00  0.00    -0.507 OA
ATOM     28  H   UNL     1     -12.582 -20.099  27.648  1.00  0.00     0.293 HD
ENDBRANCH   7  27
TORSDOF 7
ENDMDL
MODEL 9
REMARK VINA RESULT:    -4.038      1.428      7.018
REMARK INTER + INTRA:          -5.360
REMARK INTER:                  -5.185
REMARK INTRA:                  -0.174
REMARK UNBOUND:                -0.377
REMARK SMILES Oc1cc(O)c2cc(O)c(-c3cc(O)c(O)c(O)c3)[o+]c2c1
REMARK SMILES IDX 10 1 20 2 21 3 22 4 2 5 3 6 4 7 6 8 7 9 8 10 11 11 12 12
REMARK SMILES IDX 13 13 19 14 15 15 17 16 14 17 16 19 18 21 9 23 1 25 5 27
REMARK H PARENT 14 18 16 20 18 22 9 24 1 26 5 28
REMARK Flexibility Score: inf
ROOT
ATOM      1  C   UNL     1     -11.850 -16.098  32.584  1.00  0.00     0.402 A 
ATOM      2  O   UNL     1     -12.741 -17.062  32.356  1.00  0.00    -0.202 OA
ATOM      3  C   UNL     1     -12.768 -17.777  31.237  1.00  0.00     0.368 A 
ATOM      4  C   UNL     1     -13.739 -18.770  31.073  1.00  0.00     0.162 A 
ATOM      5  C   UNL     1     -13.783 -19.528  29.899  1.00  0.00     0.128 A 
ATOM      6  C   UNL     1     -12.848 -19.292  28.881  1.00  0.00     0.093 A 
ATOM      7  C   UNL     1     -11.866 -18.301  29.031  1.00  0.00     0.136 A 
ATOM      8  C   UNL     1     -11.825 -17.539  30.214  1.00  0.00     0.125 A 
ATOM      9  C   UNL     1     -10.864 -16.542  30.422  1.00  0.00     0.078 A 
ATOM     10  C   UNL     1     -10.862 -15.819  31.618  1.00  0.00     0.223 A 
ENDROOT
BRANCH   1  11
ATOM     11  C   UNL     1     -11.925 -15.363  33.868  1.00  0.00     0.091 A 
ATOM     12  C   UNL     1     -10.856 -15.366  34.777  1.00  0.00     0.068 A 
ATOM     13  C   UNL     1     -10.939 -14.647  35.975  1.00  0.00     0.162 A 
ATOM     14  C   UNL     1     -13.065 -14.599  34.159  1.00  0.00     0.068 A 
ATOM     15  C   UNL     1     -12.089 -13.902  36.275  1.00  0.00     0.200 A 
ATOM     16  C   UNL     1     -13.162 -13.875  35.353  1.00  0.00     0.162 A 
BRANCH  13  17
ATOM     17  O   UNL     1      -9.875 -14.662  36.876  1.00  0.00    -0.504 OA
ATOM     18  H   UNL     1      -9.812 -13.990  37.633  1.00  0.00     0.293 HD
ENDBRANCH  13  17
BRANCH  15  19
ATOM     19  O   UNL     1     -12.122 -13.208  37.488  1.00  0.00    -0.502 OA
ATOM     20  H   UNL     1     -11.480 -12.469  37.735  1.00  0.00     0.293 HD
ENDBRANCH  15  19
BRANCH  16  21
ATOM     21  O   UNL     1     -14.333 -13.147  35.580  1.00  0.00    -0.504 OA
ATOM     22  H   UNL     1     -15.157 -13.209  35.002  1.00  0.00     0.293 HD
ENDBRANCH  16  21
ENDBRANCH   1  11
BRANCH  10  23
ATOM     23  O   UNL     1      -9.877 -14.859  31.853  1.00  0.00    -0.500 OA
ATOM     24  H   UNL     1     -10.001 -14.129  32.546  1.00  0.00     0.294 HD
ENDBRANCH  10  23
BRANCH   5  25
ATOM     25  O   UNL     1     -14.757 -20.511  29.753  1.00  0.00    -0.507 OA
ATOM     26  H   UNL     1     -14.626 -21.446  30.122  1.00  0.00     0.293 HD
ENDBRANCH   5  25
BRANCH   7  27
ATOM     27  O   UNL     1     -10.941 -18.076  28.012  1.00  0.00    -0.507 OA
ATOM     28  H   UNL     1     -10.967 -18.601  27.146  1.00  0.00     0.293 HD
ENDBRANCH   7  27
TORSDOF 7
ENDMDL
