MODEL 1
REMARK VINA RESULT:    12.358      0.000      0.000
REMARK INTER + INTRA:          14.318
REMARK INTER:                  14.526
REMARK INTRA:                  -0.207
REMARK UNBOUND:                -0.207
REMARK SMILES O=c1c(O)c(-c2ccc(O)cc2)oc2cc(O)cc(O)c12
REMARK SMILES IDX 5 1 3 2 2 3 1 4 21 5 19 6 18 7 16 8 15 9 14 10 13 11 6 12
REMARK SMILES IDX 7 13 8 14 9 15 12 16 11 17 10 18 4 20 20 22 17 24
REMARK H PARENT 10 19 4 21 20 23 17 25
REMARK Flexibility Score: inf
ROOT
ATOM      1  C   UNL     1     -19.396  -6.858  12.071  1.00  0.00     0.180 A 
ATOM      2  C   UNL     1     -20.298  -7.589  12.864  1.00  0.00     0.208 A 
ATOM      3  C   UNL     1     -20.563  -8.928  12.536  1.00  0.00     0.238 A 
ATOM      4  O   UNL     1     -21.411  -9.561  13.217  1.00  0.00    -0.285 OA
ATOM      5  C   UNL     1     -19.911  -9.524  11.429  1.00  0.00     0.111 A 
ATOM      6  C   UNL     1     -20.073 -10.884  11.029  1.00  0.00     0.134 A 
ATOM      7  C   UNL     1     -19.480 -11.331   9.841  1.00  0.00     0.093 A 
ATOM      8  C   UNL     1     -18.678 -10.483   9.074  1.00  0.00     0.123 A 
ATOM      9  C   UNL     1     -18.465  -9.170   9.487  1.00  0.00     0.094 A 
ATOM     10  C   UNL     1     -19.072  -8.685  10.648  1.00  0.00     0.146 A 
ATOM     11  O   UNL     1     -18.853  -7.425  11.001  1.00  0.00    -0.452 OA
ENDROOT
BRANCH   1  12
ATOM     12  C   UNL     1     -19.048  -5.450  12.369  1.00  0.00     0.021 A 
ATOM     13  C   UNL     1     -19.961  -4.404  12.135  1.00  0.00     0.016 A 
ATOM     14  C   UNL     1     -19.619  -3.085  12.447  1.00  0.00     0.047 A 
ATOM     15  C   UNL     1     -18.371  -2.794  13.007  1.00  0.00     0.115 A 
ATOM     16  C   UNL     1     -17.805  -5.152  12.950  1.00  0.00     0.016 A 
ATOM     17  C   UNL     1     -17.466  -3.832  13.261  1.00  0.00     0.047 A 
BRANCH  15  18
ATOM     18  O   UNL     1     -18.044  -1.475  13.312  1.00  0.00    -0.508 OA
ATOM     19  H   UNL     1     -17.171  -1.062  13.006  1.00  0.00     0.293 HD
ENDBRANCH  15  18
ENDBRANCH   1  12
BRANCH   2  20
ATOM     20  O   UNL     1     -20.947  -6.975  13.939  1.00  0.00    -0.502 OA
ATOM     21  H   UNL     1     -21.943  -6.791  13.939  1.00  0.00     0.293 HD
ENDBRANCH   2  20
BRANCH   6  22
ATOM     22  O   UNL     1     -20.778 -11.838  11.771  1.00  0.00    -0.507 OA
ATOM     23  H   UNL     1     -21.590 -11.639  12.336  1.00  0.00     0.293 HD
ENDBRANCH   6  22
BRANCH   8  24
ATOM     24  O   UNL     1     -18.079 -10.939   7.901  1.00  0.00    -0.508 OA
ATOM     25  H   UNL     1     -17.194 -10.566   7.580  1.00  0.00     0.293 HD
ENDBRANCH   8  24
TORSDOF 5
ENDMDL
MODEL 2
REMARK VINA RESULT:    12.716      1.134      3.070
REMARK INTER + INTRA:          14.739
REMARK INTER:                  14.894
REMARK INTRA:                  -0.154
REMARK UNBOUND:                -0.207
REMARK SMILES O=c1c(O)c(-c2ccc(O)cc2)oc2cc(O)cc(O)c12
REMARK SMILES IDX 5 1 3 2 2 3 1 4 21 5 19 6 18 7 16 8 15 9 14 10 13 11 6 12
REMARK SMILES IDX 7 13 8 14 9 15 12 16 11 17 10 18 4 20 20 22 17 24
REMARK H PARENT 10 19 4 21 20 23 17 25
REMARK Flexibility Score: inf
ROOT
ATOM      1  C   UNL     1     -18.830  -6.757  11.510  1.00  0.00     0.180 A 
ATOM      2  C   UNL     1     -17.991  -7.119  10.442  1.00  0.00     0.208 A 
ATOM      3  C   UNL     1     -18.094  -8.410   9.902  1.00  0.00     0.238 A 
ATOM      4  O   UNL     1     -17.304  -8.746   8.982  1.00  0.00    -0.285 OA
ATOM      5  C   UNL     1     -19.046  -9.319  10.426  1.00  0.00     0.111 A 
ATOM      6  C   UNL     1     -19.265 -10.639   9.930  1.00  0.00     0.134 A 
ATOM      7  C   UNL     1     -20.141 -11.496  10.608  1.00  0.00     0.093 A 
ATOM      8  C   UNL     1     -20.854 -11.058  11.727  1.00  0.00     0.123 A 
ATOM      9  C   UNL     1     -20.692  -9.752  12.184  1.00  0.00     0.094 A 
ATOM     10  C   UNL     1     -19.798  -8.885  11.549  1.00  0.00     0.146 A 
ATOM     11  O   UNL     1     -19.665  -7.652  12.022  1.00  0.00    -0.452 OA
ENDROOT
BRANCH   1  12
ATOM     12  C   UNL     1     -18.797  -5.406  12.115  1.00  0.00     0.021 A 
ATOM     13  C   UNL     1     -17.675  -4.952  12.834  1.00  0.00     0.016 A 
ATOM     14  C   UNL     1     -17.656  -3.664  13.376  1.00  0.00     0.047 A 
ATOM     15  C   UNL     1     -18.748  -2.808  13.196  1.00  0.00     0.115 A 
ATOM     16  C   UNL     1     -19.880  -4.534  11.922  1.00  0.00     0.016 A 
ATOM     17  C   UNL     1     -19.859  -3.246  12.465  1.00  0.00     0.047 A 
BRANCH  15  18
ATOM     18  O   UNL     1     -18.715  -1.527  13.743  1.00  0.00    -0.508 OA
ATOM     19  H   UNL     1     -18.988  -1.355  14.704  1.00  0.00     0.293 HD
ENDBRANCH  15  18
ENDBRANCH   1  12
BRANCH   2  20
ATOM     20  O   UNL     1     -17.043  -6.214   9.954  1.00  0.00    -0.502 OA
ATOM     21  H   UNL     1     -16.840  -5.337  10.418  1.00  0.00     0.293 HD
ENDBRANCH   2  20
BRANCH   6  22
ATOM     22  O   UNL     1     -18.673 -11.145   8.768  1.00  0.00    -0.507 OA
ATOM     23  H   UNL     1     -17.939 -10.684   8.251  1.00  0.00     0.293 HD
ENDBRANCH   6  22
BRANCH   8  24
ATOM     24  O   UNL     1     -21.735 -11.911  12.387  1.00  0.00    -0.508 OA
ATOM     25  H   UNL     1     -21.468 -12.856  12.638  1.00  0.00     0.293 HD
ENDBRANCH   8  24
TORSDOF 5
ENDMDL
