MODEL 1
REMARK VINA RESULT:    -6.574      0.000      0.000
REMARK INTER + INTRA:          -8.210
REMARK INTER:                  -7.919
REMARK INTRA:                  -0.292
REMARK UNBOUND:                -0.292
REMARK SMILES O=c1c(O)c(-c2ccc(O)cc2O)oc2cc(O)cc(O)c12
REMARK SMILES IDX 5 1 3 2 2 3 1 4 22 5 20 6 19 7 17 8 16 9 15 10 14 11 6 12
REMARK SMILES IDX 8 13 7 14 9 15 11 16 12 17 10 18 13 20 4 22 21 24 18 26
REMARK H PARENT 10 19 13 21 4 23 21 25 18 27
REMARK Flexibility Score: inf
ROOT
ATOM      1  C   UNL     1      51.616  47.271  12.042  1.00  0.00     0.184 A 
ATOM      2  C   UNL     1      51.992  48.473  12.660  1.00  0.00     0.208 A 
ATOM      3  C   UNL     1      51.011  49.447  12.908  1.00  0.00     0.238 A 
ATOM      4  O   UNL     1      51.343  50.497  13.517  1.00  0.00    -0.285 OA
ATOM      5  C   UNL     1      49.673  49.215  12.508  1.00  0.00     0.111 A 
ATOM      6  C   UNL     1      48.604  50.148  12.672  1.00  0.00     0.134 A 
ATOM      7  C   UNL     1      47.297  49.763  12.350  1.00  0.00     0.093 A 
ATOM      8  C   UNL     1      47.028  48.507  11.810  1.00  0.00     0.123 A 
ATOM      9  C   UNL     1      48.072  47.609  11.590  1.00  0.00     0.094 A 
ATOM     10  C   UNL     1      49.382  47.948  11.936  1.00  0.00     0.146 A 
ATOM     11  O   UNL     1      50.345  47.059  11.724  1.00  0.00    -0.451 OA
ENDROOT
BRANCH   1  12
ATOM     12  C   UNL     1      52.609  46.219  11.736  1.00  0.00     0.063 A 
ATOM     13  C   UNL     1      53.746  44.846  10.079  1.00  0.00     0.047 A 
ATOM     14  C   UNL     1      52.854  45.873  10.396  1.00  0.00     0.020 A 
ATOM     15  C   UNL     1      54.398  44.144  11.094  1.00  0.00     0.119 A 
ATOM     16  C   UNL     1      54.160  44.478  12.434  1.00  0.00     0.093 A 
ATOM     17  C   UNL     1      53.277  45.513  12.764  1.00  0.00     0.130 A 
BRANCH  15  18
ATOM     18  O   UNL     1      55.280  43.118  10.764  1.00  0.00    -0.508 OA
ATOM     19  H   UNL     1      55.109  42.160  11.047  1.00  0.00     0.293 HD
ENDBRANCH  15  18
BRANCH  17  20
ATOM     20  O   UNL     1      53.105  45.828  14.114  1.00  0.00    -0.507 OA
ATOM     21  H   UNL     1      52.697  46.698  14.430  1.00  0.00     0.293 HD
ENDBRANCH  17  20
ENDBRANCH   1  12
BRANCH   2  22
ATOM     22  O   UNL     1      53.321  48.676  13.042  1.00  0.00    -0.502 OA
ATOM     23  H   UNL     1      53.688  48.348  13.926  1.00  0.00     0.293 HD
ENDBRANCH   2  22
BRANCH   6  24
ATOM     24  O   UNL     1      48.776  51.462  13.119  1.00  0.00    -0.507 OA
ATOM     25  H   UNL     1      49.336  51.731  13.913  1.00  0.00     0.293 HD
ENDBRANCH   6  24
BRANCH   8  26
ATOM     26  O   UNL     1      45.717  48.165  11.486  1.00  0.00    -0.508 OA
ATOM     27  H   UNL     1      45.306  48.419  10.596  1.00  0.00     0.293 HD
ENDBRANCH   8  26
TORSDOF 6
ENDMDL
MODEL 2
REMARK VINA RESULT:    -6.311      5.976      9.173
REMARK INTER + INTRA:          -7.894
REMARK INTER:                  -7.639
REMARK INTRA:                  -0.256
REMARK UNBOUND:                -0.292
REMARK SMILES O=c1c(O)c(-c2ccc(O)cc2O)oc2cc(O)cc(O)c12
REMARK SMILES IDX 5 1 3 2 2 3 1 4 22 5 20 6 19 7 17 8 16 9 15 10 14 11 6 12
REMARK SMILES IDX 8 13 7 14 9 15 11 16 12 17 10 18 13 20 4 22 21 24 18 26
REMARK H PARENT 10 19 13 21 4 23 21 25 18 27
REMARK Flexibility Score: inf
ROOT
ATOM      1  C   UNL     1      45.283  45.586   9.847  1.00  0.00     0.184 A 
ATOM      2  C   UNL     1      45.690  44.773  10.916  1.00  0.00     0.208 A 
ATOM      3  C   UNL     1      45.635  43.378  10.770  1.00  0.00     0.238 A 
ATOM      4  O   UNL     1      46.058  42.655  11.709  1.00  0.00    -0.285 OA
ATOM      5  C   UNL     1      45.145  42.815   9.567  1.00  0.00     0.111 A 
ATOM      6  C   UNL     1      45.007  41.415   9.323  1.00  0.00     0.134 A 
ATOM      7  C   UNL     1      44.628  40.970   8.050  1.00  0.00     0.093 A 
ATOM      8  C   UNL     1      44.319  41.872   7.034  1.00  0.00     0.123 A 
ATOM      9  C   UNL     1      44.393  43.243   7.277  1.00  0.00     0.094 A 
ATOM     10  C   UNL     1      44.805  43.719   8.525  1.00  0.00     0.146 A 
ATOM     11  O   UNL     1      44.877  45.032   8.711  1.00  0.00    -0.451 OA
ENDROOT
BRANCH   1  12
ATOM     12  C   UNL     1      45.298  47.061   9.951  1.00  0.00     0.063 A 
ATOM     13  C   UNL     1      46.531  49.103  10.429  1.00  0.00     0.047 A 
ATOM     14  C   UNL     1      46.500  47.716  10.269  1.00  0.00     0.020 A 
ATOM     15  C   UNL     1      45.364  49.854  10.282  1.00  0.00     0.119 A 
ATOM     16  C   UNL     1      44.159  49.212   9.967  1.00  0.00     0.093 A 
ATOM     17  C   UNL     1      44.117  47.823   9.794  1.00  0.00     0.130 A 
BRANCH  15  18
ATOM     18  O   UNL     1      45.409  51.236  10.449  1.00  0.00    -0.508 OA
ATOM     19  H   UNL     1      44.898  51.697  11.192  1.00  0.00     0.293 HD
ENDBRANCH  15  18
BRANCH  17  20
ATOM     20  O   UNL     1      42.897  47.239   9.445  1.00  0.00    -0.507 OA
ATOM     21  H   UNL     1      42.022  47.478   9.894  1.00  0.00     0.293 HD
ENDBRANCH  17  20
ENDBRANCH   1  12
BRANCH   2  22
ATOM     22  O   UNL     1      46.165  45.356  12.094  1.00  0.00    -0.502 OA
ATOM     23  H   UNL     1      46.803  46.142  12.092  1.00  0.00     0.293 HD
ENDBRANCH   2  22
BRANCH   6  24
ATOM     24  O   UNL     1      45.204  40.430  10.295  1.00  0.00    -0.507 OA
ATOM     25  H   UNL     1      44.675  40.351  11.150  1.00  0.00     0.293 HD
ENDBRANCH   6  24
BRANCH   8  26
ATOM     26  O   UNL     1      43.929  41.393   5.785  1.00  0.00    -0.508 OA
ATOM     27  H   UNL     1      42.953  41.261   5.548  1.00  0.00     0.293 HD
ENDBRANCH   8  26
TORSDOF 6
ENDMDL
MODEL 3
REMARK VINA RESULT:    -6.239      9.372     10.710
REMARK INTER + INTRA:          -7.807
REMARK INTER:                  -7.546
REMARK INTRA:                  -0.261
REMARK UNBOUND:                -0.292
REMARK SMILES O=c1c(O)c(-c2ccc(O)cc2O)oc2cc(O)cc(O)c12
REMARK SMILES IDX 5 1 3 2 2 3 1 4 22 5 20 6 19 7 17 8 16 9 15 10 14 11 6 12
REMARK SMILES IDX 8 13 7 14 9 15 11 16 12 17 10 18 13 20 4 22 21 24 18 26
REMARK H PARENT 10 19 13 21 4 23 21 25 18 27
REMARK Flexibility Score: inf
ROOT
ATOM      1  C   UNL     1      45.317  39.001  10.112  1.00  0.00     0.184 A 
ATOM      2  C   UNL     1      45.658  39.845  11.180  1.00  0.00     0.208 A 
ATOM      3  C   UNL     1      45.620  41.235  10.988  1.00  0.00     0.238 A 
ATOM      4  O   UNL     1      45.869  41.986  11.967  1.00  0.00    -0.285 OA
ATOM      5  C   UNL     1      45.269  41.762   9.723  1.00  0.00     0.111 A 
ATOM      6  C   UNL     1      45.237  43.153   9.403  1.00  0.00     0.134 A 
ATOM      7  C   UNL     1      44.756  43.564   8.154  1.00  0.00     0.093 A 
ATOM      8  C   UNL     1      44.369  42.634   7.190  1.00  0.00     0.123 A 
ATOM      9  C   UNL     1      44.452  41.270   7.469  1.00  0.00     0.094 A 
ATOM     10  C   UNL     1      44.892  40.830   8.719  1.00  0.00     0.146 A 
ATOM     11  O   UNL     1      44.942  39.523   8.950  1.00  0.00    -0.451 OA
ENDROOT
BRANCH   1  12
ATOM     12  C   UNL     1      45.361  37.530  10.248  1.00  0.00     0.063 A 
ATOM     13  C   UNL     1      46.636  35.522  10.762  1.00  0.00     0.047 A 
ATOM     14  C   UNL     1      46.549  36.913  10.677  1.00  0.00     0.020 A 
ATOM     15  C   UNL     1      45.544  34.727  10.412  1.00  0.00     0.119 A 
ATOM     16  C   UNL     1      44.355  35.330   9.981  1.00  0.00     0.093 A 
ATOM     17  C   UNL     1      44.252  36.724   9.902  1.00  0.00     0.130 A 
BRANCH  15  18
ATOM     18  O   UNL     1      45.647  33.341  10.496  1.00  0.00    -0.508 OA
ATOM     19  H   UNL     1      46.477  32.851  10.182  1.00  0.00     0.293 HD
ENDBRANCH  15  18
BRANCH  17  20
ATOM     20  O   UNL     1      43.031  37.273   9.500  1.00  0.00    -0.507 OA
ATOM     21  H   UNL     1      42.947  37.932   8.738  1.00  0.00     0.293 HD
ENDBRANCH  17  20
ENDBRANCH   1  12
BRANCH   2  22
ATOM     22  O   UNL     1      46.005  39.297  12.418  1.00  0.00    -0.502 OA
ATOM     23  H   UNL     1      46.833  38.730  12.549  1.00  0.00     0.293 HD
ENDBRANCH   2  22
BRANCH   6  24
ATOM     24  O   UNL     1      45.686  44.162  10.261  1.00  0.00    -0.507 OA
ATOM     25  H   UNL     1      46.227  44.008  11.097  1.00  0.00     0.293 HD
ENDBRANCH   6  24
BRANCH   8  26
ATOM     26  O   UNL     1      43.911  43.079   5.951  1.00  0.00    -0.508 OA
ATOM     27  H   UNL     1      43.232  42.551   5.416  1.00  0.00     0.293 HD
ENDBRANCH   8  26
TORSDOF 6
ENDMDL
MODEL 4
REMARK VINA RESULT:    -6.237      1.517      2.399
REMARK INTER + INTRA:          -7.804
REMARK INTER:                  -7.434
REMARK INTRA:                  -0.370
REMARK UNBOUND:                -0.292
REMARK SMILES O=c1c(O)c(-c2ccc(O)cc2O)oc2cc(O)cc(O)c12
REMARK SMILES IDX 5 1 3 2 2 3 1 4 22 5 20 6 19 7 17 8 16 9 15 10 14 11 6 12
REMARK SMILES IDX 8 13 7 14 9 15 11 16 12 17 10 18 13 20 4 22 21 24 18 26
REMARK H PARENT 10 19 13 21 4 23 21 25 18 27
REMARK Flexibility Score: inf
ROOT
ATOM      1  C   UNL     1      50.183  47.462  12.152  1.00  0.00     0.184 A 
ATOM      2  C   UNL     1      50.230  48.860  12.265  1.00  0.00     0.208 A 
ATOM      3  C   UNL     1      49.054  49.599  12.059  1.00  0.00     0.238 A 
ATOM      4  O   UNL     1      49.090  50.847  12.221  1.00  0.00    -0.285 OA
ATOM      5  C   UNL     1      47.855  48.931  11.715  1.00  0.00     0.111 A 
ATOM      6  C   UNL     1      46.613  49.582  11.444  1.00  0.00     0.134 A 
ATOM      7  C   UNL     1      45.462  48.813  11.234  1.00  0.00     0.093 A 
ATOM      8  C   UNL     1      45.519  47.420  11.219  1.00  0.00     0.123 A 
ATOM      9  C   UNL     1      46.737  46.774  11.424  1.00  0.00     0.094 A 
ATOM     10  C   UNL     1      47.896  47.512  11.674  1.00  0.00     0.146 A 
ATOM     11  O   UNL     1      49.034  46.858  11.879  1.00  0.00    -0.451 OA
ENDROOT
BRANCH   1  12
ATOM     12  C   UNL     1      51.394  46.634  12.336  1.00  0.00     0.063 A 
ATOM     13  C   UNL     1      53.073  45.699  13.830  1.00  0.00     0.047 A 
ATOM     14  C   UNL     1      51.900  46.431  13.632  1.00  0.00     0.020 A 
ATOM     15  C   UNL     1      53.762  45.168  12.739  1.00  0.00     0.119 A 
ATOM     16  C   UNL     1      53.269  45.364  11.442  1.00  0.00     0.093 A 
ATOM     17  C   UNL     1      52.088  46.087  11.232  1.00  0.00     0.130 A 
BRANCH  15  18
ATOM     18  O   UNL     1      54.933  44.444  12.951  1.00  0.00    -0.508 OA
ATOM     19  H   UNL     1      55.619  44.320  12.216  1.00  0.00     0.293 HD
ENDBRANCH  15  18
BRANCH  17  20
ATOM     20  O   UNL     1      51.623  46.222   9.922  1.00  0.00    -0.507 OA
ATOM     21  H   UNL     1      52.078  46.804   9.231  1.00  0.00     0.293 HD
ENDBRANCH  17  20
ENDBRANCH   1  12
BRANCH   2  22
ATOM     22  O   UNL     1      51.429  49.493  12.603  1.00  0.00    -0.502 OA
ATOM     23  H   UNL     1      52.237  48.983  12.938  1.00  0.00     0.293 HD
ENDBRANCH   2  22
BRANCH   6  24
ATOM     24  O   UNL     1      46.463  50.969  11.346  1.00  0.00    -0.507 OA
ATOM     25  H   UNL     1      45.637  51.436  11.005  1.00  0.00     0.293 HD
ENDBRANCH   6  24
BRANCH   8  26
ATOM     26  O   UNL     1      44.356  46.687  10.991  1.00  0.00    -0.508 OA
ATOM     27  H   UNL     1      43.439  47.070  11.190  1.00  0.00     0.293 HD
ENDBRANCH   8  26
TORSDOF 6
ENDMDL
MODEL 5
REMARK VINA RESULT:    -6.223      7.028     10.014
REMARK INTER + INTRA:          -7.787
REMARK INTER:                  -7.399
REMARK INTRA:                  -0.388
REMARK UNBOUND:                -0.292
REMARK SMILES O=c1c(O)c(-c2ccc(O)cc2O)oc2cc(O)cc(O)c12
REMARK SMILES IDX 5 1 3 2 2 3 1 4 22 5 20 6 19 7 17 8 16 9 15 10 14 11 6 12
REMARK SMILES IDX 8 13 7 14 9 15 11 16 12 17 10 18 13 20 4 22 21 24 18 26
REMARK H PARENT 10 19 13 21 4 23 21 25 18 27
REMARK Flexibility Score: inf
ROOT
ATOM      1  C   UNL     1      43.370  44.081   7.737  1.00  0.00     0.184 A 
ATOM      2  C   UNL     1      42.921  45.337   7.302  1.00  0.00     0.208 A 
ATOM      3  C   UNL     1      43.391  46.490   7.951  1.00  0.00     0.238 A 
ATOM      4  O   UNL     1      43.032  47.616   7.517  1.00  0.00    -0.285 OA
ATOM      5  C   UNL     1      44.281  46.368   9.045  1.00  0.00     0.111 A 
ATOM      6  C   UNL     1      44.790  47.466   9.803  1.00  0.00     0.134 A 
ATOM      7  C   UNL     1      45.760  47.235  10.786  1.00  0.00     0.093 A 
ATOM      8  C   UNL     1      46.191  45.944  11.084  1.00  0.00     0.123 A 
ATOM      9  C   UNL     1      45.658  44.857  10.391  1.00  0.00     0.094 A 
ATOM     10  C   UNL     1      44.716  45.058   9.379  1.00  0.00     0.146 A 
ATOM     11  O   UNL     1      44.244  43.998   8.732  1.00  0.00    -0.451 OA
ENDROOT
BRANCH   1  12
ATOM     12  C   UNL     1      42.892  42.832   7.107  1.00  0.00     0.063 A 
ATOM     13  C   UNL     1      41.088  41.238   6.745  1.00  0.00     0.047 A 
ATOM     14  C   UNL     1      41.553  42.440   7.283  1.00  0.00     0.020 A 
ATOM     15  C   UNL     1      41.953  40.406   6.033  1.00  0.00     0.119 A 
ATOM     16  C   UNL     1      43.290  40.785   5.852  1.00  0.00     0.093 A 
ATOM     17  C   UNL     1      43.765  41.993   6.377  1.00  0.00     0.130 A 
BRANCH  15  18
ATOM     18  O   UNL     1      41.478  39.208   5.507  1.00  0.00    -0.508 OA
ATOM     19  H   UNL     1      40.720  39.188   4.834  1.00  0.00     0.293 HD
ENDBRANCH  15  18
BRANCH  17  20
ATOM     20  O   UNL     1      45.097  42.338   6.136  1.00  0.00    -0.507 OA
ATOM     21  H   UNL     1      45.498  42.379   5.208  1.00  0.00     0.293 HD
ENDBRANCH  17  20
ENDBRANCH   1  12
BRANCH   2  22
ATOM     22  O   UNL     1      42.039  45.428   6.221  1.00  0.00    -0.502 OA
ATOM     23  H   UNL     1      42.271  45.927   5.372  1.00  0.00     0.293 HD
ENDBRANCH   2  22
BRANCH   6  24
ATOM     24  O   UNL     1      44.361  48.788   9.649  1.00  0.00    -0.507 OA
ATOM     25  H   UNL     1      44.098  49.400  10.405  1.00  0.00     0.293 HD
ENDBRANCH   6  24
BRANCH   8  26
ATOM     26  O   UNL     1      47.146  45.750  12.080  1.00  0.00    -0.508 OA
ATOM     27  H   UNL     1      47.988  45.213  11.911  1.00  0.00     0.293 HD
ENDBRANCH   8  26
TORSDOF 6
ENDMDL
MODEL 6
REMARK VINA RESULT:    -6.119      6.786      9.580
REMARK INTER + INTRA:          -7.662
REMARK INTER:                  -7.259
REMARK INTRA:                  -0.403
REMARK UNBOUND:                -0.292
REMARK SMILES O=c1c(O)c(-c2ccc(O)cc2O)oc2cc(O)cc(O)c12
REMARK SMILES IDX 5 1 3 2 2 3 1 4 22 5 20 6 19 7 17 8 16 9 15 10 14 11 6 12
REMARK SMILES IDX 8 13 7 14 9 15 11 16 12 17 10 18 13 20 4 22 21 24 18 26
REMARK H PARENT 10 19 13 21 4 23 21 25 18 27
REMARK Flexibility Score: inf
ROOT
ATOM      1  C   UNL     1      44.073  43.292   8.759  1.00  0.00     0.184 A 
ATOM      2  C   UNL     1      44.857  42.706   9.766  1.00  0.00     0.208 A 
ATOM      3  C   UNL     1      45.586  43.538  10.631  1.00  0.00     0.238 A 
ATOM      4  O   UNL     1      46.238  43.009  11.568  1.00  0.00    -0.285 OA
ATOM      5  C   UNL     1      45.544  44.942  10.458  1.00  0.00     0.111 A 
ATOM      6  C   UNL     1      46.275  45.879  11.251  1.00  0.00     0.134 A 
ATOM      7  C   UNL     1      46.061  47.251  11.069  1.00  0.00     0.093 A 
ATOM      8  C   UNL     1      45.195  47.721  10.083  1.00  0.00     0.123 A 
ATOM      9  C   UNL     1      44.521  46.817   9.264  1.00  0.00     0.094 A 
ATOM     10  C   UNL     1      44.684  45.441   9.444  1.00  0.00     0.146 A 
ATOM     11  O   UNL     1      44.012  44.613   8.653  1.00  0.00    -0.451 OA
ENDROOT
BRANCH   1  12
ATOM     12  C   UNL     1      43.302  42.466   7.805  1.00  0.00     0.063 A 
ATOM     13  C   UNL     1      41.245  41.285   7.261  1.00  0.00     0.047 A 
ATOM     14  C   UNL     1      41.979  42.109   8.117  1.00  0.00     0.020 A 
ATOM     15  C   UNL     1      41.824  40.798   6.088  1.00  0.00     0.119 A 
ATOM     16  C   UNL     1      43.143  41.146   5.767  1.00  0.00     0.093 A 
ATOM     17  C   UNL     1      43.885  41.980   6.612  1.00  0.00     0.130 A 
BRANCH  15  18
ATOM     18  O   UNL     1      41.082  39.973   5.246  1.00  0.00    -0.508 OA
ATOM     19  H   UNL     1      40.621  40.336   4.420  1.00  0.00     0.293 HD
ENDBRANCH  15  18
BRANCH  17  20
ATOM     20  O   UNL     1      45.183  42.323   6.226  1.00  0.00    -0.507 OA
ATOM     21  H   UNL     1      45.925  41.645   6.122  1.00  0.00     0.293 HD
ENDBRANCH  17  20
ENDBRANCH   1  12
BRANCH   2  22
ATOM     22  O   UNL     1      44.882  41.316   9.910  1.00  0.00    -0.502 OA
ATOM     23  H   UNL     1      45.668  40.754   9.610  1.00  0.00     0.293 HD
ENDBRANCH   2  22
BRANCH   6  24
ATOM     24  O   UNL     1      47.232  45.517  12.203  1.00  0.00    -0.507 OA
ATOM     25  H   UNL     1      47.372  44.582  12.552  1.00  0.00     0.293 HD
ENDBRANCH   6  24
BRANCH   8  26
ATOM     26  O   UNL     1      45.019  49.094   9.921  1.00  0.00    -0.508 OA
ATOM     27  H   UNL     1      44.669  49.677  10.672  1.00  0.00     0.293 HD
ENDBRANCH   8  26
TORSDOF 6
ENDMDL
MODEL 7
REMARK VINA RESULT:    -6.033      9.841     12.700
REMARK INTER + INTRA:          -7.560
REMARK INTER:                  -7.191
REMARK INTRA:                  -0.369
REMARK UNBOUND:                -0.292
REMARK SMILES O=c1c(O)c(-c2ccc(O)cc2O)oc2cc(O)cc(O)c12
REMARK SMILES IDX 5 1 3 2 2 3 1 4 22 5 20 6 19 7 17 8 16 9 15 10 14 11 6 12
REMARK SMILES IDX 8 13 7 14 9 15 11 16 12 17 10 18 13 20 4 22 21 24 18 26
REMARK H PARENT 10 19 13 21 4 23 21 25 18 27
REMARK Flexibility Score: inf
ROOT
ATOM      1  C   UNL     1      43.443  40.579   8.022  1.00  0.00     0.184 A 
ATOM      2  C   UNL     1      43.147  39.283   7.572  1.00  0.00     0.208 A 
ATOM      3  C   UNL     1      43.731  38.186   8.226  1.00  0.00     0.238 A 
ATOM      4  O   UNL     1      43.414  37.025   7.857  1.00  0.00    -0.285 OA
ATOM      5  C   UNL     1      44.624  38.402   9.302  1.00  0.00     0.111 A 
ATOM      6  C   UNL     1      45.305  37.366  10.011  1.00  0.00     0.134 A 
ATOM      7  C   UNL     1      46.071  37.691  11.138  1.00  0.00     0.093 A 
ATOM      8  C   UNL     1      46.235  39.014  11.542  1.00  0.00     0.123 A 
ATOM      9  C   UNL     1      45.623  40.040  10.822  1.00  0.00     0.094 A 
ATOM     10  C   UNL     1      44.822  39.747   9.716  1.00  0.00     0.146 A 
ATOM     11  O   UNL     1      44.244  40.750   9.066  1.00  0.00    -0.451 OA
ENDROOT
BRANCH   1  12
ATOM     12  C   UNL     1      42.876  41.773   7.359  1.00  0.00     0.063 A 
ATOM     13  C   UNL     1      40.995  43.285   7.044  1.00  0.00     0.047 A 
ATOM     14  C   UNL     1      41.577  42.194   7.694  1.00  0.00     0.020 A 
ATOM     15  C   UNL     1      41.697  43.964   6.046  1.00  0.00     0.119 A 
ATOM     16  C   UNL     1      42.991  43.552   5.703  1.00  0.00     0.093 A 
ATOM     17  C   UNL     1      43.589  42.467   6.355  1.00  0.00     0.130 A 
BRANCH  15  18
ATOM     18  O   UNL     1      41.102  45.047   5.403  1.00  0.00    -0.508 OA
ATOM     19  H   UNL     1      41.454  45.397   4.519  1.00  0.00     0.293 HD
ENDBRANCH  15  18
BRANCH  17  20
ATOM     20  O   UNL     1      44.895  42.121   5.998  1.00  0.00    -0.507 OA
ATOM     21  H   UNL     1      45.408  42.589   5.262  1.00  0.00     0.293 HD
ENDBRANCH  17  20
ENDBRANCH   1  12
BRANCH   2  22
ATOM     22  O   UNL     1      42.263  39.100   6.505  1.00  0.00    -0.502 OA
ATOM     23  H   UNL     1      42.361  39.595   5.628  1.00  0.00     0.293 HD
ENDBRANCH   2  22
BRANCH   6  24
ATOM     24  O   UNL     1      45.283  36.019   9.639  1.00  0.00    -0.507 OA
ATOM     25  H   UNL     1      44.453  35.505   9.387  1.00  0.00     0.293 HD
ENDBRANCH   6  24
BRANCH   8  26
ATOM     26  O   UNL     1      47.017  39.301  12.659  1.00  0.00    -0.508 OA
ATOM     27  H   UNL     1      47.043  38.683  13.461  1.00  0.00     0.293 HD
ENDBRANCH   8  26
TORSDOF 6
ENDMDL
MODEL 8
REMARK VINA RESULT:    -6.021      8.594     11.515
REMARK INTER + INTRA:          -7.545
REMARK INTER:                  -7.140
REMARK INTRA:                  -0.405
REMARK UNBOUND:                -0.292
REMARK SMILES O=c1c(O)c(-c2ccc(O)cc2O)oc2cc(O)cc(O)c12
REMARK SMILES IDX 5 1 3 2 2 3 1 4 22 5 20 6 19 7 17 8 16 9 15 10 14 11 6 12
REMARK SMILES IDX 8 13 7 14 9 15 11 16 12 17 10 18 13 20 4 22 21 24 18 26
REMARK H PARENT 10 19 13 21 4 23 21 25 18 27
REMARK Flexibility Score: inf
ROOT
ATOM      1  C   UNL     1      44.009  41.777   8.699  1.00  0.00     0.184 A 
ATOM      2  C   UNL     1      44.765  42.374   9.719  1.00  0.00     0.208 A 
ATOM      3  C   UNL     1      45.471  41.553  10.613  1.00  0.00     0.238 A 
ATOM      4  O   UNL     1      46.195  42.096  11.487  1.00  0.00    -0.285 OA
ATOM      5  C   UNL     1      45.387  40.146  10.491  1.00  0.00     0.111 A 
ATOM      6  C   UNL     1      46.028  39.216  11.366  1.00  0.00     0.134 A 
ATOM      7  C   UNL     1      45.975  37.847  11.076  1.00  0.00     0.093 A 
ATOM      8  C   UNL     1      45.253  37.369   9.984  1.00  0.00     0.123 A 
ATOM      9  C   UNL     1      44.574  38.263   9.157  1.00  0.00     0.094 A 
ATOM     10  C   UNL     1      44.638  39.637   9.397  1.00  0.00     0.146 A 
ATOM     11  O   UNL     1      43.990  40.456   8.576  1.00  0.00    -0.451 OA
ENDROOT
BRANCH   1  12
ATOM     12  C   UNL     1      43.228  42.590   7.743  1.00  0.00     0.063 A 
ATOM     13  C   UNL     1      41.219  43.876   7.256  1.00  0.00     0.047 A 
ATOM     14  C   UNL     1      42.005  43.150   8.154  1.00  0.00     0.020 A 
ATOM     15  C   UNL     1      41.637  44.046   5.936  1.00  0.00     0.119 A 
ATOM     16  C   UNL     1      42.853  43.493   5.514  1.00  0.00     0.093 A 
ATOM     17  C   UNL     1      43.655  42.772   6.407  1.00  0.00     0.130 A 
BRANCH  15  18
ATOM     18  O   UNL     1      40.841  44.769   5.050  1.00  0.00    -0.508 OA
ATOM     19  H   UNL     1      40.023  45.277   5.366  1.00  0.00     0.293 HD
ENDBRANCH  15  18
BRANCH  17  20
ATOM     20  O   UNL     1      44.874  42.272   5.943  1.00  0.00    -0.507 OA
ATOM     21  H   UNL     1      45.072  42.122   4.963  1.00  0.00     0.293 HD
ENDBRANCH  17  20
ENDBRANCH   1  12
BRANCH   2  22
ATOM     22  O   UNL     1      44.827  43.767   9.818  1.00  0.00    -0.502 OA
ATOM     23  H   UNL     1      44.049  44.323  10.148  1.00  0.00     0.293 HD
ENDBRANCH   2  22
BRANCH   6  24
ATOM     24  O   UNL     1      46.701  39.581  12.535  1.00  0.00    -0.507 OA
ATOM     25  H   UNL     1      46.733  39.028  13.377  1.00  0.00     0.293 HD
ENDBRANCH   6  24
BRANCH   8  26
ATOM     26  O   UNL     1      45.209  35.998   9.736  1.00  0.00    -0.508 OA
ATOM     27  H   UNL     1      45.678  35.588   8.937  1.00  0.00     0.293 HD
ENDBRANCH   8  26
TORSDOF 6
ENDMDL
MODEL 9
REMARK VINA RESULT:    -5.992     11.682     13.534
REMARK INTER + INTRA:          -7.509
REMARK INTER:                  -7.565
REMARK INTRA:                   0.056
REMARK UNBOUND:                -0.292
REMARK SMILES O=c1c(O)c(-c2ccc(O)cc2O)oc2cc(O)cc(O)c12
REMARK SMILES IDX 5 1 3 2 2 3 1 4 22 5 20 6 19 7 17 8 16 9 15 10 14 11 6 12
REMARK SMILES IDX 8 13 7 14 9 15 11 16 12 17 10 18 13 20 4 22 21 24 18 26
REMARK H PARENT 10 19 13 21 4 23 21 25 18 27
REMARK Flexibility Score: inf
ROOT
ATOM      1  C   UNL     1      43.185  37.448   8.132  1.00  0.00     0.184 A 
ATOM      2  C   UNL     1      42.406  37.427   6.965  1.00  0.00     0.208 A 
ATOM      3  C   UNL     1      42.311  38.593   6.189  1.00  0.00     0.238 A 
ATOM      4  O   UNL     1      41.661  38.550   5.112  1.00  0.00    -0.285 OA
ATOM      5  C   UNL     1      42.971  39.773   6.608  1.00  0.00     0.111 A 
ATOM      6  C   UNL     1      42.911  41.024   5.921  1.00  0.00     0.134 A 
ATOM      7  C   UNL     1      43.704  42.091   6.360  1.00  0.00     0.093 A 
ATOM      8  C   UNL     1      44.504  41.975   7.496  1.00  0.00     0.123 A 
ATOM      9  C   UNL     1      44.526  40.776   8.209  1.00  0.00     0.094 A 
ATOM     10  C   UNL     1      43.775  39.681   7.775  1.00  0.00     0.146 A 
ATOM     11  O   UNL     1      43.835  38.553   8.474  1.00  0.00    -0.451 OA
ENDROOT
BRANCH   1  12
ATOM     12  C   UNL     1      43.304  36.257   9.000  1.00  0.00     0.063 A 
ATOM     13  C   UNL     1      42.263  34.305  10.015  1.00  0.00     0.047 A 
ATOM     14  C   UNL     1      42.197  35.406   9.158  1.00  0.00     0.020 A 
ATOM     15  C   UNL     1      43.431  34.043  10.732  1.00  0.00     0.119 A 
ATOM     16  C   UNL     1      44.542  34.885  10.584  1.00  0.00     0.093 A 
ATOM     17  C   UNL     1      44.491  35.985   9.720  1.00  0.00     0.130 A 
BRANCH  15  18
ATOM     18  O   UNL     1      43.482  32.944  11.586  1.00  0.00    -0.508 OA
ATOM     19  H   UNL     1      44.279  32.319  11.598  1.00  0.00     0.293 HD
ENDBRANCH  15  18
BRANCH  17  20
ATOM     20  O   UNL     1      45.638  36.771   9.585  1.00  0.00    -0.507 OA
ATOM     21  H   UNL     1      45.772  37.426   8.826  1.00  0.00     0.293 HD
ENDBRANCH  17  20
ENDBRANCH   1  12
BRANCH   2  22
ATOM     22  O   UNL     1      41.762  36.248   6.578  1.00  0.00    -0.502 OA
ATOM     23  H   UNL     1      42.118  35.652   5.842  1.00  0.00     0.293 HD
ENDBRANCH   2  22
BRANCH   6  24
ATOM     24  O   UNL     1      42.076  41.275   4.828  1.00  0.00    -0.507 OA
ATOM     25  H   UNL     1      42.096  40.765   3.959  1.00  0.00     0.293 HD
ENDBRANCH   6  24
BRANCH   8  26
ATOM     26  O   UNL     1      45.267  43.063   7.913  1.00  0.00    -0.508 OA
ATOM     27  H   UNL     1      45.564  43.782   7.265  1.00  0.00     0.293 HD
ENDBRANCH   8  26
TORSDOF 6
ENDMDL
