MODEL 1
REMARK VINA RESULT:    -2.985      0.000      0.000
REMARK INTER + INTRA:          -4.045
REMARK INTER:                  -3.858
REMARK INTRA:                  -0.187
REMARK UNBOUND:                -0.187
REMARK SMILES CCCCCCC(=O)[O-]
REMARK SMILES IDX 5 1 6 2 7 3 8 4 9 5 4 6 3 7 2 8 1 9
REMARK H PARENT
REMARK Flexibility Score: inf
ROOT
ATOM      1  C   UNL     1      29.302  18.014  51.191  1.00  0.00     0.006 C 
ENDROOT
BRANCH   1   2
ATOM      2  C   UNL     1      28.280  16.934  51.558  1.00  0.00     0.053 C 
BRANCH   2   3
ATOM      3  C   UNL     1      26.966  17.553  51.914  1.00  0.00     0.041 C 
ATOM      4  O   UNL     1      25.979  17.434  51.141  1.00  0.00    -0.550 OA
ATOM      5  O   UNL     1      26.816  18.220  53.124  1.00  0.00    -0.550 OA
ENDBRANCH   2   3
ENDBRANCH   1   2
BRANCH   1   6
ATOM      6  C   UNL     1      30.733  17.459  51.246  1.00  0.00     0.000 C 
BRANCH   6   7
ATOM      7  C   UNL     1      31.069  16.823  52.604  1.00  0.00    -0.000 C 
BRANCH   7   8
ATOM      8  C   UNL     1      32.272  15.871  52.527  1.00  0.00    -0.003 C 
ATOM      9  C   UNL     1      32.947  15.947  51.160  1.00  0.00     0.004 C 
ENDBRANCH   7   8
ENDBRANCH   6   7
ENDBRANCH   1   6
TORSDOF 5
ENDMDL
MODEL 2
REMARK VINA RESULT:    -2.891     16.132     17.279
REMARK INTER + INTRA:          -3.923
REMARK INTER:                  -3.819
REMARK INTRA:                  -0.104
REMARK UNBOUND:                -0.187
REMARK SMILES CCCCCCC(=O)[O-]
REMARK SMILES IDX 5 1 6 2 7 3 8 4 9 5 4 6 3 7 2 8 1 9
REMARK H PARENT
REMARK Flexibility Score: inf
ROOT
ATOM      1  C   UNL     1      20.352  29.181  56.564  1.00  0.00     0.006 C 
ENDROOT
BRANCH   1   2
ATOM      2  C   UNL     1      21.363  30.102  57.254  1.00  0.00     0.053 C 
BRANCH   2   3
ATOM      3  C   UNL     1      21.149  30.102  58.735  1.00  0.00     0.041 C 
ATOM      4  O   UNL     1      21.040  29.013  59.358  1.00  0.00    -0.550 OA
ATOM      5  O   UNL     1      21.121  31.302  59.433  1.00  0.00    -0.550 OA
ENDBRANCH   2   3
ENDBRANCH   1   2
BRANCH   1   6
ATOM      6  C   UNL     1      19.846  29.803  55.255  1.00  0.00     0.000 C 
BRANCH   6   7
ATOM      7  C   UNL     1      18.660  29.032  54.652  1.00  0.00    -0.000 C 
BRANCH   7   8
ATOM      8  C   UNL     1      17.487  29.951  54.278  1.00  0.00    -0.003 C 
ATOM      9  C   UNL     1      16.195  29.493  54.949  1.00  0.00     0.004 C 
ENDBRANCH   7   8
ENDBRANCH   6   7
ENDBRANCH   1   6
TORSDOF 5
ENDMDL
MODEL 3
REMARK VINA RESULT:    -2.872     12.761     13.895
REMARK INTER + INTRA:          -3.898
REMARK INTER:                  -3.797
REMARK INTRA:                  -0.101
REMARK UNBOUND:                -0.187
REMARK SMILES CCCCCCC(=O)[O-]
REMARK SMILES IDX 5 1 6 2 7 3 8 4 9 5 4 6 3 7 2 8 1 9
REMARK H PARENT
REMARK Flexibility Score: inf
ROOT
ATOM      1  C   UNL     1      16.308  18.979  48.360  1.00  0.00     0.006 C 
ENDROOT
BRANCH   1   2
ATOM      2  C   UNL     1      16.266  18.230  47.024  1.00  0.00     0.053 C 
BRANCH   2   3
ATOM      3  C   UNL     1      14.855  17.897  46.653  1.00  0.00     0.041 C 
ATOM      4  O   UNL     1      13.968  18.790  46.673  1.00  0.00    -0.550 OA
ATOM      5  O   UNL     1      14.531  16.612  46.237  1.00  0.00    -0.550 OA
ENDBRANCH   2   3
ENDBRANCH   1   2
BRANCH   1   6
ATOM      6  C   UNL     1      17.553  18.590  49.170  1.00  0.00     0.000 C 
BRANCH   6   7
ATOM      7  C   UNL     1      17.433  18.962  50.656  1.00  0.00    -0.000 C 
BRANCH   7   8
ATOM      8  C   UNL     1      17.865  17.820  51.588  1.00  0.00    -0.003 C 
ATOM      9  C   UNL     1      16.780  17.508  52.615  1.00  0.00     0.004 C 
ENDBRANCH   7   8
ENDBRANCH   6   7
ENDBRANCH   1   6
TORSDOF 5
ENDMDL
MODEL 4
REMARK VINA RESULT:    -2.768     15.937     17.241
REMARK INTER + INTRA:          -3.765
REMARK INTER:                  -3.613
REMARK INTRA:                  -0.151
REMARK UNBOUND:                -0.187
REMARK SMILES CCCCCCC(=O)[O-]
REMARK SMILES IDX 5 1 6 2 7 3 8 4 9 5 4 6 3 7 2 8 1 9
REMARK H PARENT
REMARK Flexibility Score: inf
ROOT
ATOM      1  C   UNL     1      20.024  29.161  55.186  1.00  0.00     0.006 C 
ENDROOT
BRANCH   1   2
ATOM      2  C   UNL     1      20.787  30.232  55.973  1.00  0.00     0.053 C 
BRANCH   2   3
ATOM      3  C   UNL     1      21.118  29.738  57.346  1.00  0.00     0.041 C 
ATOM      4  O   UNL     1      22.194  30.085  57.901  1.00  0.00    -0.550 OA
ATOM      5  O   UNL     1      20.215  28.936  58.033  1.00  0.00    -0.550 OA
ENDBRANCH   2   3
ENDBRANCH   1   2
BRANCH   1   6
ATOM      6  C   UNL     1      18.656  29.686  54.728  1.00  0.00     0.000 C 
BRANCH   6   7
ATOM      7  C   UNL     1      17.485  28.915  55.358  1.00  0.00    -0.000 C 
BRANCH   7   8
ATOM      8  C   UNL     1      16.119  29.514  54.992  1.00  0.00    -0.003 C 
ATOM      9  C   UNL     1      15.172  28.439  54.463  1.00  0.00     0.004 C 
ENDBRANCH   7   8
ENDBRANCH   6   7
ENDBRANCH   1   6
TORSDOF 5
ENDMDL
MODEL 5
REMARK VINA RESULT:    -2.734     16.216     16.826
REMARK INTER + INTRA:          -3.721
REMARK INTER:                  -3.500
REMARK INTRA:                  -0.221
REMARK UNBOUND:                -0.187
REMARK SMILES CCCCCCC(=O)[O-]
REMARK SMILES IDX 5 1 6 2 7 3 8 4 9 5 4 6 3 7 2 8 1 9
REMARK H PARENT
REMARK Flexibility Score: inf
ROOT
ATOM      1  C   UNL     1      19.896  29.981  55.256  1.00  0.00     0.006 C 
ENDROOT
BRANCH   1   2
ATOM      2  C   UNL     1      18.638  29.115  55.136  1.00  0.00     0.053 C 
BRANCH   2   3
ATOM      3  C   UNL     1      17.561  29.852  54.405  1.00  0.00     0.041 C 
ATOM      4  O   UNL     1      17.833  30.497  53.358  1.00  0.00    -0.550 OA
ATOM      5  O   UNL     1      16.247  29.787  54.852  1.00  0.00    -0.550 OA
ENDBRANCH   2   3
ENDBRANCH   1   2
BRANCH   1   6
ATOM      6  C   UNL     1      20.714  29.594  56.497  1.00  0.00     0.000 C 
BRANCH   6   7
ATOM      7  C   UNL     1      20.083  28.435  57.284  1.00  0.00    -0.000 C 
BRANCH   7   8
ATOM      8  C   UNL     1      20.024  28.709  58.794  1.00  0.00    -0.003 C 
ATOM      9  C   UNL     1      20.932  29.875  59.176  1.00  0.00     0.004 C 
ENDBRANCH   7   8
ENDBRANCH   6   7
ENDBRANCH   1   6
TORSDOF 5
ENDMDL
MODEL 6
REMARK VINA RESULT:    -2.726     12.096     13.445
REMARK INTER + INTRA:          -3.710
REMARK INTER:                  -3.452
REMARK INTRA:                  -0.258
REMARK UNBOUND:                -0.187
REMARK SMILES CCCCCCC(=O)[O-]
REMARK SMILES IDX 5 1 6 2 7 3 8 4 9 5 4 6 3 7 2 8 1 9
REMARK H PARENT
REMARK Flexibility Score: inf
ROOT
ATOM      1  C   UNL     1      17.735  18.332  50.494  1.00  0.00     0.006 C 
ENDROOT
BRANCH   1   2
ATOM      2  C   UNL     1      16.353  18.990  50.409  1.00  0.00     0.053 C 
BRANCH   2   3
ATOM      3  C   UNL     1      15.869  19.011  48.994  1.00  0.00     0.041 C 
ATOM      4  O   UNL     1      16.676  18.825  48.045  1.00  0.00    -0.550 OA
ATOM      5  O   UNL     1      14.518  19.188  48.724  1.00  0.00    -0.550 OA
ENDBRANCH   2   3
ENDBRANCH   1   2
BRANCH   1   6
ATOM      6  C   UNL     1      17.970  17.726  51.885  1.00  0.00     0.000 C 
BRANCH   6   7
ATOM      7  C   UNL     1      16.661  17.474  52.651  1.00  0.00    -0.000 C 
BRANCH   7   8
ATOM      8  C   UNL     1      16.669  18.094  54.056  1.00  0.00    -0.003 C 
ATOM      9  C   UNL     1      15.646  19.221  54.166  1.00  0.00     0.004 C 
ENDBRANCH   7   8
ENDBRANCH   6   7
ENDBRANCH   1   6
TORSDOF 5
ENDMDL
MODEL 7
REMARK VINA RESULT:    -2.693     11.824     13.587
REMARK INTER + INTRA:          -3.667
REMARK INTER:                  -3.552
REMARK INTRA:                  -0.115
REMARK UNBOUND:                -0.187
REMARK SMILES CCCCCCC(=O)[O-]
REMARK SMILES IDX 5 1 6 2 7 3 8 4 9 5 4 6 3 7 2 8 1 9
REMARK H PARENT
REMARK Flexibility Score: inf
ROOT
ATOM      1  C   UNL     1      17.507  18.434  49.415  1.00  0.00     0.006 C 
ENDROOT
BRANCH   1   2
ATOM      2  C   UNL     1      16.916  18.636  50.814  1.00  0.00     0.053 C 
BRANCH   2   3
ATOM      3  C   UNL     1      17.657  17.815  51.821  1.00  0.00     0.041 C 
ATOM      4  O   UNL     1      17.065  17.382  52.845  1.00  0.00    -0.550 OA
ATOM      5  O   UNL     1      18.989  17.485  51.604  1.00  0.00    -0.550 OA
ENDBRANCH   2   3
ENDBRANCH   1   2
BRANCH   1   6
ATOM      6  C   UNL     1      16.699  19.204  48.361  1.00  0.00     0.000 C 
BRANCH   6   7
ATOM      7  C   UNL     1      16.453  18.382  47.086  1.00  0.00    -0.000 C 
BRANCH   7   8
ATOM      8  C   UNL     1      14.959  18.234  46.758  1.00  0.00    -0.003 C 
ATOM      9  C   UNL     1      14.642  16.823  46.270  1.00  0.00     0.004 C 
ENDBRANCH   7   8
ENDBRANCH   6   7
ENDBRANCH   1   6
TORSDOF 5
ENDMDL
MODEL 8
REMARK VINA RESULT:    -2.665     11.834     12.840
REMARK INTER + INTRA:          -3.632
REMARK INTER:                  -3.445
REMARK INTRA:                  -0.187
REMARK UNBOUND:                -0.187
REMARK SMILES CCCCCCC(=O)[O-]
REMARK SMILES IDX 5 1 6 2 7 3 8 4 9 5 4 6 3 7 2 8 1 9
REMARK H PARENT
REMARK Flexibility Score: inf
ROOT
ATOM      1  C   UNL     1      17.977  17.530  52.044  1.00  0.00     0.006 C 
ENDROOT
BRANCH   1   2
ATOM      2  C   UNL     1      16.582  17.467  52.675  1.00  0.00     0.053 C 
BRANCH   2   3
ATOM      3  C   UNL     1      16.448  18.491  53.757  1.00  0.00     0.041 C 
ATOM      4  O   UNL     1      15.421  19.217  53.818  1.00  0.00    -0.550 OA
ATOM      5  O   UNL     1      17.435  18.611  54.727  1.00  0.00    -0.550 OA
ENDBRANCH   2   3
ENDBRANCH   1   2
BRANCH   1   6
ATOM      6  C   UNL     1      18.083  18.704  51.062  1.00  0.00     0.000 C 
BRANCH   6   7
ATOM      7  C   UNL     1      17.065  18.611  49.914  1.00  0.00    -0.000 C 
BRANCH   7   8
ATOM      8  C   UNL     1      17.708  18.818  48.535  1.00  0.00    -0.003 C 
ATOM      9  C   UNL     1      16.719  18.505  47.415  1.00  0.00     0.004 C 
ENDBRANCH   7   8
ENDBRANCH   6   7
ENDBRANCH   1   6
TORSDOF 5
ENDMDL
MODEL 9
REMARK VINA RESULT:    -2.661     11.891     12.997
REMARK INTER + INTRA:          -3.626
REMARK INTER:                  -3.400
REMARK INTRA:                  -0.226
REMARK UNBOUND:                -0.187
REMARK SMILES CCCCCCC(=O)[O-]
REMARK SMILES IDX 5 1 6 2 7 3 8 4 9 5 4 6 3 7 2 8 1 9
REMARK H PARENT
REMARK Flexibility Score: inf
ROOT
ATOM      1  C   UNL     1      16.339  18.490  53.801  1.00  0.00     0.006 C 
ENDROOT
BRANCH   1   2
ATOM      2  C   UNL     1      16.671  17.433  52.743  1.00  0.00     0.053 C 
BRANCH   2   3
ATOM      3  C   UNL     1      17.605  17.992  51.717  1.00  0.00     0.041 C 
ATOM      4  O   UNL     1      17.241  18.951  50.986  1.00  0.00    -0.550 OA
ATOM      5  O   UNL     1      18.894  17.488  51.602  1.00  0.00    -0.550 OA
ENDBRANCH   2   3
ENDBRANCH   1   2
BRANCH   1   6
ATOM      6  C   UNL     1      17.609  18.959  54.526  1.00  0.00     0.000 C 
BRANCH   6   7
ATOM      7  C   UNL     1      17.496  18.842  56.055  1.00  0.00    -0.000 C 
BRANCH   7   8
ATOM      8  C   UNL     1      16.502  17.755  56.492  1.00  0.00    -0.003 C 
ATOM      9  C   UNL     1      16.416  17.670  58.014  1.00  0.00     0.004 C 
ENDBRANCH   7   8
ENDBRANCH   6   7
ENDBRANCH   1   6
TORSDOF 5
ENDMDL
