MODEL 1
REMARK VINA RESULT:    -4.559      0.000      0.000
REMARK INTER + INTRA:          -5.057
REMARK INTER:                  -4.959
REMARK INTRA:                  -0.098
REMARK UNBOUND:                -0.098
REMARK SMILES Cc1ccc(C(C)C)cc1O
REMARK SMILES IDX 1 1 2 2 10 3 9 4 5 5 4 6 3 7 11 8 6 10 7 11 8 12
REMARK H PARENT 11 9
REMARK Flexibility Score: inf
ROOT
ATOM      1  C   UNL     1       6.651 -23.853  17.094  1.00  0.00     0.048 C 
ATOM      2  C   UNL     1       7.655 -24.664  16.326  1.00  0.00    -0.009 A 
ATOM      3  C   UNL     1       7.716 -24.571  14.923  1.00  0.00     0.118 A 
ATOM      4  C   UNL     1       8.655 -25.330  14.211  1.00  0.00     0.050 A 
ATOM      5  C   UNL     1       9.542 -26.190  14.885  1.00  0.00    -0.042 A 
ATOM      6  C   UNL     1       9.473 -26.276  16.286  1.00  0.00     0.004 A 
ATOM      7  C   UNL     1       8.539 -25.521  16.998  1.00  0.00     0.007 A 
ENDROOT
BRANCH   3   8
ATOM      8  O   UNL     1       6.843 -23.722  14.242  1.00  0.00    -0.508 OA
ATOM      9  H   UNL     1       6.916 -23.577  13.241  1.00  0.00     0.293 HD
ENDBRANCH   3   8
BRANCH   5  10
ATOM     10  C   UNL     1      10.562 -27.017  14.124  1.00  0.00     0.013 C 
ATOM     11  C   UNL     1      11.630 -26.124  13.481  1.00  0.00     0.012 C 
ATOM     12  C   UNL     1       9.882 -27.906  13.076  1.00  0.00     0.012 C 
ENDBRANCH   5  10
TORSDOF 2
ENDMDL
MODEL 2
REMARK VINA RESULT:    -4.485      1.575      2.380
REMARK INTER + INTRA:          -4.977
REMARK INTER:                  -4.879
REMARK INTRA:                  -0.098
REMARK UNBOUND:                -0.098
REMARK SMILES Cc1ccc(C(C)C)cc1O
REMARK SMILES IDX 1 1 2 2 10 3 9 4 5 5 4 6 3 7 11 8 6 10 7 11 8 12
REMARK H PARENT 11 9
REMARK Flexibility Score: inf
ROOT
ATOM      1  C   UNL     1       6.905 -23.888  16.514  1.00  0.00     0.048 C 
ATOM      2  C   UNL     1       7.702 -24.864  15.696  1.00  0.00    -0.009 A 
ATOM      3  C   UNL     1       8.805 -25.528  16.261  1.00  0.00     0.118 A 
ATOM      4  C   UNL     1       9.545 -26.437  15.492  1.00  0.00     0.050 A 
ATOM      5  C   UNL     1       9.195 -26.696  14.153  1.00  0.00    -0.042 A 
ATOM      6  C   UNL     1       8.091 -26.029  13.598  1.00  0.00     0.004 A 
ATOM      7  C   UNL     1       7.352 -25.121  14.361  1.00  0.00     0.007 A 
ENDROOT
BRANCH   3   8
ATOM      8  O   UNL     1       9.163 -25.281  17.587  1.00  0.00    -0.508 OA
ATOM      9  H   UNL     1       8.563 -25.550  18.358  1.00  0.00     0.293 HD
ENDBRANCH   3   8
BRANCH   5  10
ATOM     10  C   UNL     1       9.990 -27.678  13.312  1.00  0.00     0.013 C 
ATOM     11  C   UNL     1       9.918 -29.093  13.899  1.00  0.00     0.012 C 
ATOM     12  C   UNL     1      11.443 -27.220  13.152  1.00  0.00     0.012 C 
ENDBRANCH   5  10
TORSDOF 2
ENDMDL
MODEL 3
REMARK VINA RESULT:    -4.437      9.808     11.784
REMARK INTER + INTRA:          -4.925
REMARK INTER:                  -4.797
REMARK INTRA:                  -0.127
REMARK UNBOUND:                -0.098
REMARK SMILES Cc1ccc(C(C)C)cc1O
REMARK SMILES IDX 1 1 2 2 10 3 9 4 5 5 4 6 3 7 11 8 6 10 7 11 8 12
REMARK H PARENT 11 9
REMARK Flexibility Score: inf
ROOT
ATOM      1  C   UNL     1       5.925 -18.714  21.390  1.00  0.00     0.048 C 
ATOM      2  C   UNL     1       7.053 -17.756  21.648  1.00  0.00    -0.009 A 
ATOM      3  C   UNL     1       8.321 -17.987  21.084  1.00  0.00     0.118 A 
ATOM      4  C   UNL     1       9.370 -17.090  21.329  1.00  0.00     0.050 A 
ATOM      5  C   UNL     1       9.170 -15.954  22.134  1.00  0.00    -0.042 A 
ATOM      6  C   UNL     1       7.901 -15.731  22.692  1.00  0.00     0.004 A 
ATOM      7  C   UNL     1       6.853 -16.624  22.451  1.00  0.00     0.007 A 
ENDROOT
BRANCH   3   8
ATOM      8  O   UNL     1       8.534 -19.110  20.283  1.00  0.00    -0.508 OA
ATOM      9  H   UNL     1       7.763 -19.622  19.871  1.00  0.00     0.293 HD
ENDBRANCH   3   8
BRANCH   5  10
ATOM     10  C   UNL     1      10.300 -14.977  22.405  1.00  0.00     0.013 C 
ATOM     11  C   UNL     1      11.416 -15.636  23.224  1.00  0.00     0.012 C 
ATOM     12  C   UNL     1       9.781 -13.711  23.097  1.00  0.00     0.012 C 
ENDBRANCH   5  10
TORSDOF 2
ENDMDL
MODEL 4
REMARK VINA RESULT:    -4.372      9.177     11.455
REMARK INTER + INTRA:          -4.853
REMARK INTER:                  -4.726
REMARK INTRA:                  -0.127
REMARK UNBOUND:                -0.098
REMARK SMILES Cc1ccc(C(C)C)cc1O
REMARK SMILES IDX 1 1 2 2 10 3 9 4 5 5 4 6 3 7 11 8 6 10 7 11 8 12
REMARK H PARENT 11 9
REMARK Flexibility Score: inf
ROOT
ATOM      1  C   UNL     1       6.944 -19.884  21.643  1.00  0.00     0.048 C 
ATOM      2  C   UNL     1       8.009 -18.945  22.133  1.00  0.00    -0.009 A 
ATOM      3  C   UNL     1       8.724 -18.147  21.222  1.00  0.00     0.118 A 
ATOM      4  C   UNL     1       9.717 -17.273  21.686  1.00  0.00     0.050 A 
ATOM      5  C   UNL     1      10.009 -17.183  23.060  1.00  0.00    -0.042 A 
ATOM      6  C   UNL     1       9.290 -17.984  23.962  1.00  0.00     0.004 A 
ATOM      7  C   UNL     1       8.300 -18.857  23.503  1.00  0.00     0.007 A 
ENDROOT
BRANCH   3   8
ATOM      8  O   UNL     1       8.444 -18.225  19.857  1.00  0.00    -0.508 OA
ATOM      9  H   UNL     1       8.371 -17.394  19.282  1.00  0.00     0.293 HD
ENDBRANCH   3   8
BRANCH   5  10
ATOM     10  C   UNL     1      11.083 -16.240  23.572  1.00  0.00     0.013 C 
ATOM     11  C   UNL     1      11.618 -16.700  24.934  1.00  0.00     0.012 C 
ATOM     12  C   UNL     1      10.566 -14.798  23.640  1.00  0.00     0.012 C 
ENDBRANCH   5  10
TORSDOF 2
ENDMDL
MODEL 5
REMARK VINA RESULT:    -4.345      1.791      2.936
REMARK INTER + INTRA:          -4.825
REMARK INTER:                  -4.696
REMARK INTRA:                  -0.128
REMARK UNBOUND:                -0.098
REMARK SMILES Cc1ccc(C(C)C)cc1O
REMARK SMILES IDX 1 1 2 2 10 3 9 4 5 5 4 6 3 7 11 8 6 10 7 11 8 12
REMARK H PARENT 11 9
REMARK Flexibility Score: inf
ROOT
ATOM      1  C   UNL     1       7.244 -24.284  14.192  1.00  0.00     0.048 C 
ATOM      2  C   UNL     1       8.192 -25.023  15.092  1.00  0.00    -0.009 A 
ATOM      3  C   UNL     1       8.225 -24.743  16.470  1.00  0.00     0.118 A 
ATOM      4  C   UNL     1       9.113 -25.436  17.305  1.00  0.00     0.050 A 
ATOM      5  C   UNL     1       9.977 -26.415  16.780  1.00  0.00    -0.042 A 
ATOM      6  C   UNL     1       9.937 -26.688  15.402  1.00  0.00     0.004 A 
ATOM      7  C   UNL     1       9.054 -25.999  14.567  1.00  0.00     0.007 A 
ENDROOT
BRANCH   3   8
ATOM      8  O   UNL     1       7.373 -23.775  17.005  1.00  0.00    -0.508 OA
ATOM      9  H   UNL     1       6.874 -23.122  16.413  1.00  0.00     0.293 HD
ENDBRANCH   3   8
BRANCH   5  10
ATOM     10  C   UNL     1      10.942 -27.170  17.675  1.00  0.00     0.013 C 
ATOM     11  C   UNL     1      12.344 -27.223  17.056  1.00  0.00     0.012 C 
ATOM     12  C   UNL     1      10.422 -28.579  17.984  1.00  0.00     0.012 C 
ENDBRANCH   5  10
TORSDOF 2
ENDMDL
MODEL 6
REMARK VINA RESULT:    -4.312      3.888      5.675
REMARK INTER + INTRA:          -4.788
REMARK INTER:                  -4.684
REMARK INTRA:                  -0.104
REMARK UNBOUND:                -0.098
REMARK SMILES Cc1ccc(C(C)C)cc1O
REMARK SMILES IDX 1 1 2 2 10 3 9 4 5 5 4 6 3 7 11 8 6 10 7 11 8 12
REMARK H PARENT 11 9
REMARK Flexibility Score: inf
ROOT
ATOM      1  C   UNL     1      10.752 -28.107  13.395  1.00  0.00     0.048 C 
ATOM      2  C   UNL     1      11.874 -27.168  13.052  1.00  0.00    -0.009 A 
ATOM      3  C   UNL     1      11.790 -25.807  13.398  1.00  0.00     0.118 A 
ATOM      4  C   UNL     1      12.839 -24.936  13.076  1.00  0.00     0.050 A 
ATOM      5  C   UNL     1      13.984 -25.408  12.405  1.00  0.00    -0.042 A 
ATOM      6  C   UNL     1      14.059 -26.768  12.064  1.00  0.00     0.004 A 
ATOM      7  C   UNL     1      13.014 -27.640  12.384  1.00  0.00     0.007 A 
ENDROOT
BRANCH   3   8
ATOM      8  O   UNL     1      10.661 -25.326  14.064  1.00  0.00    -0.508 OA
ATOM      9  H   UNL     1       9.751 -25.306  13.620  1.00  0.00     0.293 HD
ENDBRANCH   3   8
BRANCH   5  10
ATOM     10  C   UNL     1      15.125 -24.473  12.051  1.00  0.00     0.013 C 
ATOM     11  C   UNL     1      16.189 -24.456  13.155  1.00  0.00     0.012 C 
ATOM     12  C   UNL     1      14.611 -23.059  11.757  1.00  0.00     0.012 C 
ENDBRANCH   5  10
TORSDOF 2
ENDMDL
MODEL 7
REMARK VINA RESULT:    -4.287      2.255      4.635
REMARK INTER + INTRA:          -4.761
REMARK INTER:                  -4.641
REMARK INTRA:                  -0.119
REMARK UNBOUND:                -0.098
REMARK SMILES Cc1ccc(C(C)C)cc1O
REMARK SMILES IDX 1 1 2 2 10 3 9 4 5 5 4 6 3 7 11 8 6 10 7 11 8 12
REMARK H PARENT 11 9
REMARK Flexibility Score: inf
ROOT
ATOM      1  C   UNL     1      10.561 -25.907  13.786  1.00  0.00     0.048 C 
ATOM      2  C   UNL     1       9.282 -25.841  14.571  1.00  0.00    -0.009 A 
ATOM      3  C   UNL     1       9.288 -26.083  15.956  1.00  0.00     0.118 A 
ATOM      4  C   UNL     1       8.091 -26.020  16.683  1.00  0.00     0.050 A 
ATOM      5  C   UNL     1       6.876 -25.715  16.041  1.00  0.00    -0.042 A 
ATOM      6  C   UNL     1       6.881 -25.474  14.657  1.00  0.00     0.004 A 
ATOM      7  C   UNL     1       8.072 -25.536  13.929  1.00  0.00     0.007 A 
ENDROOT
BRANCH   3   8
ATOM      8  O   UNL     1      10.485 -26.386  16.607  1.00  0.00    -0.508 OA
ATOM      9  H   UNL     1      10.910 -25.742  17.263  1.00  0.00     0.293 HD
ENDBRANCH   3   8
BRANCH   5  10
ATOM     10  C   UNL     1       5.574 -25.644  16.818  1.00  0.00     0.013 C 
ATOM     11  C   UNL     1       5.796 -25.982  18.298  1.00  0.00     0.012 C 
ATOM     12  C   UNL     1       4.509 -26.555  16.197  1.00  0.00     0.012 C 
ENDBRANCH   5  10
TORSDOF 2
ENDMDL
MODEL 8
REMARK VINA RESULT:    -4.257      3.578      6.364
REMARK INTER + INTRA:          -4.728
REMARK INTER:                  -4.601
REMARK INTRA:                  -0.128
REMARK UNBOUND:                -0.098
REMARK SMILES Cc1ccc(C(C)C)cc1O
REMARK SMILES IDX 1 1 2 2 10 3 9 4 5 5 4 6 3 7 11 8 6 10 7 11 8 12
REMARK H PARENT 11 9
REMARK Flexibility Score: inf
ROOT
ATOM      1  C   UNL     1      15.137 -24.354   9.797  1.00  0.00     0.048 C 
ATOM      2  C   UNL     1      14.203 -24.872  10.853  1.00  0.00    -0.009 A 
ATOM      3  C   UNL     1      13.730 -24.015  11.864  1.00  0.00     0.118 A 
ATOM      4  C   UNL     1      12.858 -24.505  12.846  1.00  0.00     0.050 A 
ATOM      5  C   UNL     1      12.448 -25.852  12.835  1.00  0.00    -0.042 A 
ATOM      6  C   UNL     1      12.926 -26.699  11.823  1.00  0.00     0.004 A 
ATOM      7  C   UNL     1      13.795 -26.215  10.842  1.00  0.00     0.007 A 
ENDROOT
BRANCH   3   8
ATOM      8  O   UNL     1      14.127 -22.678  11.886  1.00  0.00    -0.508 OA
ATOM      9  H   UNL     1      13.953 -22.059  11.103  1.00  0.00     0.293 HD
ENDBRANCH   3   8
BRANCH   5  10
ATOM     10  C   UNL     1      11.505 -26.392  13.895  1.00  0.00     0.013 C 
ATOM     11  C   UNL     1      11.294 -27.902  13.728  1.00  0.00     0.012 C 
ATOM     12  C   UNL     1      10.169 -25.642  13.881  1.00  0.00     0.012 C 
ENDBRANCH   5  10
TORSDOF 2
ENDMDL
MODEL 9
REMARK VINA RESULT:    -4.242      2.338      4.329
REMARK INTER + INTRA:          -4.712
REMARK INTER:                  -4.600
REMARK INTRA:                  -0.111
REMARK UNBOUND:                -0.098
REMARK SMILES Cc1ccc(C(C)C)cc1O
REMARK SMILES IDX 1 1 2 2 10 3 9 4 5 5 4 6 3 7 11 8 6 10 7 11 8 12
REMARK H PARENT 11 9
REMARK Flexibility Score: inf
ROOT
ATOM      1  C   UNL     1      12.448 -27.457  16.144  1.00  0.00     0.048 C 
ATOM      2  C   UNL     1      11.081 -26.979  15.747  1.00  0.00    -0.009 A 
ATOM      3  C   UNL     1      10.062 -26.866  16.711  1.00  0.00     0.118 A 
ATOM      4  C   UNL     1       8.788 -26.420  16.334  1.00  0.00     0.050 A 
ATOM      5  C   UNL     1       8.512 -26.082  14.996  1.00  0.00    -0.042 A 
ATOM      6  C   UNL     1       9.536 -26.197  14.041  1.00  0.00     0.004 A 
ATOM      7  C   UNL     1      10.807 -26.642  14.413  1.00  0.00     0.007 A 
ENDROOT
BRANCH   3   8
ATOM      8  O   UNL     1      10.321 -27.198  18.042  1.00  0.00    -0.508 OA
ATOM      9  H   UNL     1      11.033 -26.718  18.580  1.00  0.00     0.293 HD
ENDBRANCH   3   8
BRANCH   5  10
ATOM     10  C   UNL     1       7.136 -25.598  14.577  1.00  0.00     0.013 C 
ATOM     11  C   UNL     1       7.159 -24.107  14.221  1.00  0.00     0.012 C 
ATOM     12  C   UNL     1       6.093 -25.891  15.662  1.00  0.00     0.012 C 
ENDBRANCH   5  10
TORSDOF 2
ENDMDL
