MODEL 1
REMARK VINA RESULT:    -4.419      0.000      0.000
REMARK INTER + INTRA:          -5.393
REMARK INTER:                  -5.194
REMARK INTRA:                  -0.199
REMARK UNBOUND:                -0.199
REMARK SMILES [NH3+][C@@H](CO)C(=O)[O-]
REMARK SMILES IDX 3 1 2 2 1 3 5 7 6 8 7 9 4 10
REMARK H PARENT 1 4 1 5 1 6 4 11
REMARK Flexibility Score: inf
ROOT
ATOM      1  C   UNL     1     147.229 129.325 129.969  1.00  0.00     0.227 C 
ENDROOT
BRANCH   1   2
ATOM      2  C   UNL     1     146.681 129.427 128.534  1.00  0.00     0.253 C 
BRANCH   2   3
ATOM      3  N   UNL     1     147.324 130.532 127.811  1.00  0.00    -0.348 N 
ATOM      4  H   UNL     1     146.597 131.207 127.479  1.00  0.00     0.345 HD
ATOM      5  H   UNL     1     147.976 131.042 128.449  1.00  0.00     0.345 HD
ATOM      6  H   UNL     1     147.858 130.172 126.986  1.00  0.00     0.345 HD
ENDBRANCH   2   3
BRANCH   2   7
ATOM      7  C   UNL     1     145.186 129.606 128.543  1.00  0.00     0.102 C 
ATOM      8  O   UNL     1     144.585 130.013 127.513  1.00  0.00    -0.544 OA
ATOM      9  O   UNL     1     144.461 129.335 129.696  1.00  0.00    -0.544 OA
ENDBRANCH   2   7
ENDBRANCH   1   2
BRANCH   1  10
ATOM     10  O   UNL     1     147.185 130.574 130.606  1.00  0.00    -0.390 OA
ATOM     11  H   UNL     1     147.819 130.531 131.367  1.00  0.00     0.210 HD
ENDBRANCH   1  10
TORSDOF 4
ENDMDL
MODEL 2
REMARK VINA RESULT:    -4.306      1.867      2.642
REMARK INTER + INTRA:          -5.261
REMARK INTER:                  -4.899
REMARK INTRA:                  -0.361
REMARK UNBOUND:                -0.199
REMARK SMILES [NH3+][C@@H](CO)C(=O)[O-]
REMARK SMILES IDX 3 1 2 2 1 3 5 7 6 8 7 9 4 10
REMARK H PARENT 1 4 1 5 1 6 4 11
REMARK Flexibility Score: inf
ROOT
ATOM      1  C   UNL     1     145.063 129.208 129.722  1.00  0.00     0.227 C 
ENDROOT
BRANCH   1   2
ATOM      2  C   UNL     1     146.578 129.255 129.452  1.00  0.00     0.253 C 
BRANCH   2   3
ATOM      3  N   UNL     1     147.215 130.309 130.251  1.00  0.00    -0.348 N 
ATOM      4  H   UNL     1     148.083 129.937 130.699  1.00  0.00     0.345 HD
ATOM      5  H   UNL     1     147.483 131.109 129.634  1.00  0.00     0.345 HD
ATOM      6  H   UNL     1     146.565 130.651 130.997  1.00  0.00     0.345 HD
ENDBRANCH   2   3
BRANCH   2   7
ATOM      7  C   UNL     1     146.855 129.469 127.987  1.00  0.00     0.102 C 
ATOM      8  O   UNL     1     146.968 128.485 127.207  1.00  0.00    -0.544 OA
ATOM      9  O   UNL     1     146.999 130.757 127.488  1.00  0.00    -0.544 OA
ENDBRANCH   2   7
ENDBRANCH   1   2
BRANCH   1  10
ATOM     10  O   UNL     1     144.350 129.729 128.632  1.00  0.00    -0.390 OA
ATOM     11  H   UNL     1     144.607 130.685 128.552  1.00  0.00     0.210 HD
ENDBRANCH   1  10
TORSDOF 4
ENDMDL
MODEL 3
REMARK VINA RESULT:    -4.070      2.009      2.182
REMARK INTER + INTRA:          -4.984
REMARK INTER:                  -4.731
REMARK INTRA:                  -0.252
REMARK UNBOUND:                -0.199
REMARK SMILES [NH3+][C@@H](CO)C(=O)[O-]
REMARK SMILES IDX 3 1 2 2 1 3 5 7 6 8 7 9 4 10
REMARK H PARENT 1 4 1 5 1 6 4 11
REMARK Flexibility Score: inf
ROOT
ATOM      1  C   UNL     1     146.917 129.216 129.976  1.00  0.00     0.227 C 
ENDROOT
BRANCH   1   2
ATOM      2  C   UNL     1     145.493 129.191 129.391  1.00  0.00     0.253 C 
BRANCH   2   3
ATOM      3  N   UNL     1     144.772 127.991 129.834  1.00  0.00    -0.348 N 
ATOM      4  H   UNL     1     143.933 127.839 129.228  1.00  0.00     0.345 HD
ATOM      5  H   UNL     1     145.392 127.154 129.751  1.00  0.00     0.345 HD
ATOM      6  H   UNL     1     144.461 128.093 130.829  1.00  0.00     0.345 HD
ENDBRANCH   2   3
BRANCH   2   7
ATOM      7  C   UNL     1     145.530 129.255 127.887  1.00  0.00     0.102 C 
ATOM      8  O   UNL     1     144.694 129.957 127.257  1.00  0.00    -0.544 OA
ATOM      9  O   UNL     1     146.481 128.527 127.184  1.00  0.00    -0.544 OA
ENDBRANCH   2   7
ENDBRANCH   1   2
BRANCH   1  10
ATOM     10  O   UNL     1     147.713 130.153 129.300  1.00  0.00    -0.390 OA
ATOM     11  H   UNL     1     148.360 130.511 129.962  1.00  0.00     0.210 HD
ENDBRANCH   1  10
TORSDOF 4
ENDMDL
MODEL 4
REMARK VINA RESULT:    -3.950      1.393      1.785
REMARK INTER + INTRA:          -4.843
REMARK INTER:                  -4.469
REMARK INTRA:                  -0.373
REMARK UNBOUND:                -0.199
REMARK SMILES [NH3+][C@@H](CO)C(=O)[O-]
REMARK SMILES IDX 3 1 2 2 1 3 5 7 6 8 7 9 4 10
REMARK H PARENT 1 4 1 5 1 6 4 11
REMARK Flexibility Score: inf
ROOT
ATOM      1  C   UNL     1     146.646 128.785 129.634  1.00  0.00     0.227 C 
ENDROOT
BRANCH   1   2
ATOM      2  C   UNL     1     146.277 128.656 128.146  1.00  0.00     0.253 C 
BRANCH   2   3
ATOM      3  N   UNL     1     147.457 128.304 127.347  1.00  0.00    -0.348 N 
ATOM      4  H   UNL     1     148.191 127.887 127.965  1.00  0.00     0.345 HD
ATOM      5  H   UNL     1     147.198 127.595 126.623  1.00  0.00     0.345 HD
ATOM      6  H   UNL     1     147.850 129.152 126.875  1.00  0.00     0.345 HD
ENDBRANCH   2   3
BRANCH   2   7
ATOM      7  C   UNL     1     145.659 129.930 127.634  1.00  0.00     0.102 C 
ATOM      8  O   UNL     1     144.412 130.103 127.686  1.00  0.00    -0.544 OA
ATOM      9  O   UNL     1     146.465 130.921 127.087  1.00  0.00    -0.544 OA
ENDBRANCH   2   7
ENDBRANCH   1   2
BRANCH   1  10
ATOM     10  O   UNL     1     146.579 130.124 130.046  1.00  0.00    -0.390 OA
ATOM     11  H   UNL     1     147.495 130.385 130.324  1.00  0.00     0.210 HD
ENDBRANCH   1  10
TORSDOF 4
ENDMDL
MODEL 5
REMARK VINA RESULT:    -3.942      1.737      2.575
REMARK INTER + INTRA:          -4.832
REMARK INTER:                  -4.631
REMARK INTRA:                  -0.202
REMARK UNBOUND:                -0.199
REMARK SMILES [NH3+][C@@H](CO)C(=O)[O-]
REMARK SMILES IDX 3 1 2 2 1 3 5 7 6 8 7 9 4 10
REMARK H PARENT 1 4 1 5 1 6 4 11
REMARK Flexibility Score: inf
ROOT
ATOM      1  C   UNL     1     146.533 128.889 126.730  1.00  0.00     0.227 C 
ENDROOT
BRANCH   1   2
ATOM      2  C   UNL     1     146.369 130.119 127.641  1.00  0.00     0.253 C 
BRANCH   2   3
ATOM      3  N   UNL     1     147.473 131.066 127.437  1.00  0.00    -0.348 N 
ATOM      4  H   UNL     1     147.146 131.871 126.855  1.00  0.00     0.345 HD
ATOM      5  H   UNL     1     147.796 131.439 128.359  1.00  0.00     0.345 HD
ATOM      6  H   UNL     1     148.276 130.599 126.953  1.00  0.00     0.345 HD
ENDBRANCH   2   3
BRANCH   2   7
ATOM      7  C   UNL     1     146.291 129.709 129.088  1.00  0.00     0.102 C 
ATOM      8  O   UNL     1     147.332 129.665 129.797  1.00  0.00    -0.544 OA
ATOM      9  O   UNL     1     145.067 129.364 129.646  1.00  0.00    -0.544 OA
ENDBRANCH   2   7
ENDBRANCH   1   2
BRANCH   1  10
ATOM     10  O   UNL     1     147.717 128.202 127.037  1.00  0.00    -0.390 OA
ATOM     11  H   UNL     1     147.647 127.307 126.614  1.00  0.00     0.210 HD
ENDBRANCH   1  10
TORSDOF 4
ENDMDL
MODEL 6
REMARK VINA RESULT:    -3.855      2.156      2.498
REMARK INTER + INTRA:          -4.730
REMARK INTER:                  -4.349
REMARK INTRA:                  -0.382
REMARK UNBOUND:                -0.199
REMARK SMILES [NH3+][C@@H](CO)C(=O)[O-]
REMARK SMILES IDX 3 1 2 2 1 3 5 7 6 8 7 9 4 10
REMARK H PARENT 1 4 1 5 1 6 4 11
REMARK Flexibility Score: inf
ROOT
ATOM      1  C   UNL     1     146.343 130.748 126.926  1.00  0.00     0.227 C 
ENDROOT
BRANCH   1   2
ATOM      2  C   UNL     1     145.211 129.728 127.145  1.00  0.00     0.253 C 
BRANCH   2   3
ATOM      3  N   UNL     1     143.905 130.398 127.153  1.00  0.00    -0.348 N 
ATOM      4  H   UNL     1     144.021 131.397 127.441  1.00  0.00     0.345 HD
ATOM      5  H   UNL     1     143.491 130.381 126.193  1.00  0.00     0.345 HD
ATOM      6  H   UNL     1     143.251 129.925 127.819  1.00  0.00     0.345 HD
ENDBRANCH   2   3
BRANCH   2   7
ATOM      7  C   UNL     1     145.417 128.967 128.428  1.00  0.00     0.102 C 
ATOM      8  O   UNL     1     146.083 127.897 128.437  1.00  0.00    -0.544 OA
ATOM      9  O   UNL     1     144.859 129.436 129.611  1.00  0.00    -0.544 OA
ENDBRANCH   2   7
ENDBRANCH   1   2
BRANCH   1  10
ATOM     10  O   UNL     1     147.294 130.660 127.954  1.00  0.00    -0.390 OA
ATOM     11  H   UNL     1     146.914 131.136 128.737  1.00  0.00     0.210 HD
ENDBRANCH   1  10
TORSDOF 4
ENDMDL
MODEL 7
REMARK VINA RESULT:    -3.800      1.944      2.273
REMARK INTER + INTRA:          -4.665
REMARK INTER:                  -4.421
REMARK INTRA:                  -0.245
REMARK UNBOUND:                -0.199
REMARK SMILES [NH3+][C@@H](CO)C(=O)[O-]
REMARK SMILES IDX 3 1 2 2 1 3 5 7 6 8 7 9 4 10
REMARK H PARENT 1 4 1 5 1 6 4 11
REMARK Flexibility Score: inf
ROOT
ATOM      1  C   UNL     1     146.846 129.821 127.417  1.00  0.00     0.227 C 
ENDROOT
BRANCH   1   2
ATOM      2  C   UNL     1     145.507 129.165 127.799  1.00  0.00     0.253 C 
BRANCH   2   3
ATOM      3  N   UNL     1     144.383 130.047 127.462  1.00  0.00    -0.348 N 
ATOM      4  H   UNL     1     144.265 130.088 126.423  1.00  0.00     0.345 HD
ATOM      5  H   UNL     1     143.500 129.672 127.877  1.00  0.00     0.345 HD
ATOM      6  H   UNL     1     144.551 131.015 127.824  1.00  0.00     0.345 HD
ENDBRANCH   2   3
BRANCH   2   7
ATOM      7  C   UNL     1     145.479 128.818 129.264  1.00  0.00     0.102 C 
ATOM      8  O   UNL     1     144.495 129.146 129.980  1.00  0.00    -0.544 OA
ATOM      9  O   UNL     1     146.548 128.142 129.838  1.00  0.00    -0.544 OA
ENDBRANCH   2   7
ENDBRANCH   1   2
BRANCH   1  10
ATOM     10  O   UNL     1     147.419 130.459 128.527  1.00  0.00    -0.390 OA
ATOM     11  H   UNL     1     146.689 130.604 129.183  1.00  0.00     0.210 HD
ENDBRANCH   1  10
TORSDOF 4
ENDMDL
MODEL 8
REMARK VINA RESULT:    -3.734      2.020      2.370
REMARK INTER + INTRA:          -4.589
REMARK INTER:                  -4.341
REMARK INTRA:                  -0.248
REMARK UNBOUND:                -0.199
REMARK SMILES [NH3+][C@@H](CO)C(=O)[O-]
REMARK SMILES IDX 3 1 2 2 1 3 5 7 6 8 7 9 4 10
REMARK H PARENT 1 4 1 5 1 6 4 11
REMARK Flexibility Score: inf
ROOT
ATOM      1  C   UNL     1     146.401 129.748 129.651  1.00  0.00     0.227 C 
ENDROOT
BRANCH   1   2
ATOM      2  C   UNL     1     145.742 129.323 128.326  1.00  0.00     0.253 C 
BRANCH   2   3
ATOM      3  N   UNL     1     145.874 127.875 128.124  1.00  0.00    -0.348 N 
ATOM      4  H   UNL     1     145.163 127.549 127.429  1.00  0.00     0.345 HD
ATOM      5  H   UNL     1     146.823 127.654 127.747  1.00  0.00     0.345 HD
ATOM      6  H   UNL     1     145.731 127.361 129.025  1.00  0.00     0.345 HD
ENDBRANCH   2   3
BRANCH   2   7
ATOM      7  C   UNL     1     146.342 130.071 127.165  1.00  0.00     0.102 C 
ATOM      8  O   UNL     1     145.907 131.210 126.844  1.00  0.00    -0.544 OA
ATOM      9  O   UNL     1     147.374 129.501 126.431  1.00  0.00    -0.544 OA
ENDBRANCH   2   7
ENDBRANCH   1   2
BRANCH   1  10
ATOM     10  O   UNL     1     147.750 130.075 129.450  1.00  0.00    -0.390 OA
ATOM     11  H   UNL     1     148.039 130.601 130.240  1.00  0.00     0.210 HD
ENDBRANCH   1  10
TORSDOF 4
ENDMDL
MODEL 9
REMARK VINA RESULT:    -3.567      2.348      3.342
REMARK INTER + INTRA:          -4.392
REMARK INTER:                  -4.016
REMARK INTRA:                  -0.376
REMARK UNBOUND:                -0.199
REMARK SMILES [NH3+][C@@H](CO)C(=O)[O-]
REMARK SMILES IDX 3 1 2 2 1 3 5 7 6 8 7 9 4 10
REMARK H PARENT 1 4 1 5 1 6 4 11
REMARK Flexibility Score: inf
ROOT
ATOM      1  C   UNL     1     145.260 130.818 126.254  1.00  0.00     0.227 C 
ENDROOT
BRANCH   1   2
ATOM      2  C   UNL     1     146.364 130.469 127.268  1.00  0.00     0.253 C 
BRANCH   2   3
ATOM      3  N   UNL     1     147.589 131.226 126.983  1.00  0.00    -0.348 N 
ATOM      4  H   UNL     1     147.840 131.125 125.972  1.00  0.00     0.345 HD
ATOM      5  H   UNL     1     147.435 132.240 127.182  1.00  0.00     0.345 HD
ATOM      6  H   UNL     1     148.384 130.876 127.568  1.00  0.00     0.345 HD
ENDBRANCH   2   3
BRANCH   2   7
ATOM      7  C   UNL     1     146.648 128.990 127.263  1.00  0.00     0.102 C 
ATOM      8  O   UNL     1     147.509 128.507 126.480  1.00  0.00    -0.544 OA
ATOM      9  O   UNL     1     145.950 128.146 128.117  1.00  0.00    -0.544 OA
ENDBRANCH   2   7
ENDBRANCH   1   2
BRANCH   1  10
ATOM     10  O   UNL     1     144.910 129.691 125.496  1.00  0.00    -0.390 OA
ATOM     11  H   UNL     1     145.104 128.896 126.058  1.00  0.00     0.210 HD
ENDBRANCH   1  10
TORSDOF 4
ENDMDL
