MODEL 1
REMARK VINA RESULT:    -5.134      0.000      0.000
REMARK INTER + INTRA:          -7.618
REMARK INTER:                  -7.835
REMARK INTRA:                   0.216
REMARK UNBOUND:                 0.216
REMARK SMILES CC1=CCC[C@@H](C)C(=O)C[C@@H](C(C)C)C(=O)C1
REMARK SMILES IDX 8 1 9 2 6 3 7 4 5 5 4 6 3 7 2 8 1 9 10 11 11 12 15 13 16 14
REMARK SMILES IDX 17 15 12 17 13 18 14 19
REMARK H PARENT
REMARK Flexibility Score: 70.00
ROOT
ATOM      1  C   UNL     1      26.721 -13.706  29.898  1.00  0.00     0.136 C 
ATOM      2  O   UNL     1      25.794 -14.402  29.507  1.00  0.00    -0.299 OA
ENDROOT
BRANCH   1   3
ATOM      3  C   UNL     1      27.201 -13.846  31.336  1.00  0.00     0.053 C 
ATOM      4  C   UNL     1      26.383 -14.899  32.099  1.00  0.00     0.016 C 
BRANCH   3   5
ATOM      5  C   UNL     1      27.214 -12.496  32.096  1.00  0.00     0.015 C 
BRANCH   5   6
ATOM      6  C   UNL     1      28.242 -11.464  31.573  1.00  0.00     0.028 C 
BRANCH   6   7
ATOM      7  C   UNL     1      29.664 -11.951  31.712  1.00  0.00    -0.028 C 
ATOM      8  C   UNL     1      30.569 -12.009  30.706  1.00  0.00    -0.070 CG0
ATOM      9  C   UNL     1      31.961 -12.488  31.036  1.00  0.00     0.039 C 
ATOM     10  G   UNL     1      30.243 -11.658  29.261  1.00  0.00     0.000 G0
ENDBRANCH   6   7
ENDBRANCH   5   6
ENDBRANCH   3   5
ENDBRANCH   1   3
BRANCH   1  11
ATOM     11  C   UNL     1      27.395 -12.804  28.887  1.00  0.00     0.087 C 
BRANCH  11  12
ATOM     12  C   UNL     1      28.575 -13.431  28.091  1.00  0.00     0.066 C 
BRANCH  12  13
ATOM     13  C   UNL     1      29.972 -12.913  28.448  1.00  0.00     0.140 C 
ATOM     14  O   UNL     1      30.931 -13.552  28.037  1.00  0.00    -0.299 OA
BRANCH  13  15
ATOM     15  C   UNL     1      30.259 -11.663  29.255  1.00  0.00     0.106 CG0
ATOM     16  G   UNL     1      30.577 -12.007  30.703  1.00  0.00     0.000 G0
ENDBRANCH  13  15
ENDBRANCH  12  13
BRANCH  12  17
ATOM     17  C   UNL     1      28.359 -13.332  26.545  1.00  0.00    -0.006 C 
ATOM     18  C   UNL     1      28.327 -11.882  26.030  1.00  0.00     0.008 C 
ATOM     19  C   UNL     1      27.114 -14.096  26.066  1.00  0.00     0.008 C 
ENDBRANCH  12  17
ENDBRANCH  11  12
ENDBRANCH   1  11
TORSDOF 1
ENDMDL
MODEL 2
REMARK VINA RESULT:    -5.000      1.919      3.944
REMARK INTER + INTRA:          -7.414
REMARK INTER:                  -8.063
REMARK INTRA:                   0.648
REMARK UNBOUND:                 0.216
REMARK SMILES CC1=CCC[C@@H](C)C(=O)C[C@@H](C(C)C)C(=O)C1
REMARK SMILES IDX 8 1 9 2 6 3 7 4 5 5 4 6 3 7 2 8 1 9 10 11 11 12 15 13 16 14
REMARK SMILES IDX 17 15 12 17 13 18 14 19
REMARK H PARENT
REMARK Flexibility Score: 70.00
ROOT
ATOM      1  C   UNL     1      28.540 -10.941  28.220  1.00  0.00     0.136 C 
ATOM      2  O   UNL     1      29.090  -9.967  28.715  1.00  0.00    -0.299 OA
ENDROOT
BRANCH   1   3
ATOM      3  C   UNL     1      29.295 -11.783  27.200  1.00  0.00     0.053 C 
ATOM      4  C   UNL     1      28.874 -11.434  25.764  1.00  0.00     0.016 C 
BRANCH   3   5
ATOM      5  C   UNL     1      29.159 -13.305  27.463  1.00  0.00     0.015 C 
BRANCH   5   6
ATOM      6  C   UNL     1      30.442 -13.990  27.991  1.00  0.00     0.028 C 
BRANCH   6   7
ATOM      7  C   UNL     1      31.165 -13.144  29.011  1.00  0.00    -0.028 C 
ATOM      8  C   UNL     1      30.737 -12.915  30.276  1.00  0.00    -0.070 CG0
ATOM      9  C   UNL     1      31.610 -12.073  31.174  1.00  0.00     0.039 C 
ATOM     10  G   UNL     1      29.411 -13.426  30.821  1.00  0.00     0.000 G0
ENDBRANCH   6   7
ENDBRANCH   5   6
ENDBRANCH   3   5
ENDBRANCH   1   3
BRANCH   1  11
ATOM     11  C   UNL     1      27.160 -11.299  28.725  1.00  0.00     0.087 C 
BRANCH  11  12
ATOM     12  C   UNL     1      27.107 -12.253  29.952  1.00  0.00     0.066 C 
BRANCH  12  13
ATOM     13  C   UNL     1      28.370 -12.296  30.819  1.00  0.00     0.140 C 
ATOM     14  O   UNL     1      28.555 -11.366  31.593  1.00  0.00    -0.299 OA
BRANCH  13  15
ATOM     15  C   UNL     1      29.399 -13.409  30.806  1.00  0.00     0.106 CG0
ATOM     16  G   UNL     1      30.737 -12.911  30.277  1.00  0.00     0.000 G0
ENDBRANCH  13  15
ENDBRANCH  12  13
BRANCH  12  17
ATOM     17  C   UNL     1      26.699 -13.707  29.549  1.00  0.00    -0.006 C 
ATOM     18  C   UNL     1      25.806 -13.761  28.297  1.00  0.00     0.008 C 
ATOM     19  C   UNL     1      26.048 -14.486  30.704  1.00  0.00     0.008 C 
ENDBRANCH  12  17
ENDBRANCH  11  12
ENDBRANCH   1  11
TORSDOF 1
ENDMDL
MODEL 3
REMARK VINA RESULT:    -4.874      2.214      4.712
REMARK INTER + INTRA:          -7.223
REMARK INTER:                  -7.180
REMARK INTRA:                  -0.043
REMARK UNBOUND:                 0.216
REMARK SMILES CC1=CCC[C@@H](C)C(=O)C[C@@H](C(C)C)C(=O)C1
REMARK SMILES IDX 8 1 9 2 6 3 7 4 5 5 4 6 3 7 2 8 1 9 10 11 11 12 15 13 16 14
REMARK SMILES IDX 17 15 12 17 13 18 14 19
REMARK H PARENT
REMARK Flexibility Score: 70.00
ROOT
ATOM      1  C   UNL     1      28.740 -11.211  28.244  1.00  0.00     0.136 C 
ATOM      2  O   UNL     1      28.156 -10.138  28.178  1.00  0.00    -0.299 OA
ENDROOT
BRANCH   1   3
ATOM      3  C   UNL     1      28.617 -12.198  27.091  1.00  0.00     0.053 C 
ATOM      4  C   UNL     1      28.361 -11.475  25.760  1.00  0.00     0.016 C 
BRANCH   3   5
ATOM      5  C   UNL     1      27.542 -13.285  27.347  1.00  0.00     0.015 C 
BRANCH   5   6
ATOM      6  C   UNL     1      26.422 -12.874  28.333  1.00  0.00     0.028 C 
BRANCH   6   7
ATOM      7  C   UNL     1      26.092 -13.973  29.314  1.00  0.00    -0.028 C 
ATOM      8  C   UNL     1      26.478 -13.997  30.613  1.00  0.00    -0.070 CG0
ATOM      9  C   UNL     1      26.023 -15.159  31.462  1.00  0.00     0.039 C 
ATOM     10  G   UNL     1      27.373 -12.940  31.245  1.00  0.00     0.000 G0
ENDBRANCH   6   7
ENDBRANCH   5   6
ENDBRANCH   3   5
ENDBRANCH   1   3
BRANCH   1  11
ATOM     11  C   UNL     1      29.627 -11.453  29.446  1.00  0.00     0.087 C 
BRANCH  11  12
ATOM     12  C   UNL     1      29.730 -12.926  29.933  1.00  0.00     0.066 C 
BRANCH  12  13
ATOM     13  C   UNL     1      28.844 -13.300  31.126  1.00  0.00     0.140 C 
ATOM     14  O   UNL     1      29.367 -13.917  32.045  1.00  0.00    -0.299 OA
BRANCH  13  15
ATOM     15  C   UNL     1      27.376 -12.949  31.266  1.00  0.00     0.106 CG0
ATOM     16  G   UNL     1      26.497 -14.000  30.601  1.00  0.00     0.000 G0
ENDBRANCH  13  15
ENDBRANCH  12  13
BRANCH  12  17
ATOM     17  C   UNL     1      31.208 -13.345  30.228  1.00  0.00    -0.006 C 
ATOM     18  C   UNL     1      32.003 -12.267  30.984  1.00  0.00     0.008 C 
ATOM     19  C   UNL     1      31.967 -13.782  28.964  1.00  0.00     0.008 C 
ENDBRANCH  12  17
ENDBRANCH  11  12
ENDBRANCH   1  11
TORSDOF 1
ENDMDL
MODEL 4
REMARK VINA RESULT:    -4.832      1.807      4.899
REMARK INTER + INTRA:          -7.158
REMARK INTER:                  -7.017
REMARK INTRA:                  -0.142
REMARK UNBOUND:                 0.216
REMARK SMILES CC1=CCC[C@@H](C)C(=O)C[C@@H](C(C)C)C(=O)C1
REMARK SMILES IDX 8 1 9 2 6 3 7 4 5 5 4 6 3 7 2 8 1 9 10 11 11 12 15 13 16 14
REMARK SMILES IDX 17 15 12 17 13 18 14 19
REMARK H PARENT
REMARK Flexibility Score: 70.00
ROOT
ATOM      1  C   UNL     1      29.574 -12.581  31.258  1.00  0.00     0.136 C 
ATOM      2  O   UNL     1      30.130 -13.564  31.727  1.00  0.00    -0.299 OA
ENDROOT
BRANCH   1   3
ATOM      3  C   UNL     1      30.407 -11.518  30.556  1.00  0.00     0.053 C 
ATOM      4  C   UNL     1      29.819 -10.115  30.768  1.00  0.00     0.016 C 
BRANCH   3   5
ATOM      5  C   UNL     1      30.607 -11.813  29.048  1.00  0.00     0.015 C 
BRANCH   5   6
ATOM      6  C   UNL     1      29.437 -11.370  28.138  1.00  0.00     0.028 C 
BRANCH   6   7
ATOM      7  C   UNL     1      28.888 -12.510  27.315  1.00  0.00    -0.028 C 
ATOM      8  C   UNL     1      27.660 -13.061  27.470  1.00  0.00    -0.070 CG0
ATOM      9  C   UNL     1      27.261 -14.172  26.529  1.00  0.00     0.039 C 
ATOM     10  G   UNL     1      26.684 -12.648  28.563  1.00  0.00     0.000 G0
ENDBRANCH   6   7
ENDBRANCH   5   6
ENDBRANCH   3   5
ENDBRANCH   1   3
BRANCH   1  11
ATOM     11  C   UNL     1      28.063 -12.530  31.332  1.00  0.00     0.087 C 
BRANCH  11  12
ATOM     12  C   UNL     1      27.314 -13.824  30.903  1.00  0.00     0.066 C 
BRANCH  12  13
ATOM     13  C   UNL     1      26.504 -13.729  29.606  1.00  0.00     0.140 C 
ATOM     14  O   UNL     1      25.651 -14.584  29.411  1.00  0.00    -0.299 OA
BRANCH  13  15
ATOM     15  C   UNL     1      26.664 -12.649  28.555  1.00  0.00     0.106 CG0
ATOM     16  G   UNL     1      27.657 -13.073  27.482  1.00  0.00     0.000 G0
ENDBRANCH  13  15
ENDBRANCH  12  13
BRANCH  12  17
ATOM     17  C   UNL     1      26.406 -14.383  32.047  1.00  0.00    -0.006 C 
ATOM     18  C   UNL     1      26.395 -13.492  33.301  1.00  0.00     0.008 C 
ATOM     19  C   UNL     1      26.748 -15.833  32.425  1.00  0.00     0.008 C 
ENDBRANCH  12  17
ENDBRANCH  11  12
ENDBRANCH   1  11
TORSDOF 1
ENDMDL
MODEL 5
REMARK VINA RESULT:    -4.753      1.924      3.884
REMARK INTER + INTRA:          -7.038
REMARK INTER:                  -7.223
REMARK INTRA:                   0.185
REMARK UNBOUND:                 0.216
REMARK SMILES CC1=CCC[C@@H](C)C(=O)C[C@@H](C(C)C)C(=O)C1
REMARK SMILES IDX 8 1 9 2 6 3 7 4 5 5 4 6 3 7 2 8 1 9 10 11 11 12 15 13 16 14
REMARK SMILES IDX 17 15 12 17 13 18 14 19
REMARK H PARENT
REMARK Flexibility Score: 70.00
ROOT
ATOM      1  C   UNL     1      27.493 -13.028  31.461  1.00  0.00     0.136 C 
ATOM      2  O   UNL     1      27.309 -11.997  32.095  1.00  0.00    -0.299 OA
ENDROOT
BRANCH   1   3
ATOM      3  C   UNL     1      26.343 -14.011  31.289  1.00  0.00     0.053 C 
ATOM      4  C   UNL     1      26.379 -15.108  32.364  1.00  0.00     0.016 C 
BRANCH   3   5
ATOM      5  C   UNL     1      26.291 -14.628  29.869  1.00  0.00     0.015 C 
BRANCH   5   6
ATOM      6  C   UNL     1      25.765 -13.679  28.766  1.00  0.00     0.028 C 
BRANCH   6   7
ATOM      7  C   UNL     1      26.799 -13.411  27.699  1.00  0.00    -0.028 C 
ATOM      8  C   UNL     1      27.655 -12.361  27.692  1.00  0.00    -0.070 CG0
ATOM      9  C   UNL     1      28.652 -12.272  26.562  1.00  0.00     0.039 C 
ATOM     10  G   UNL     1      27.637 -11.253  28.736  1.00  0.00     0.000 G0
ENDBRANCH   6   7
ENDBRANCH   5   6
ENDBRANCH   3   5
ENDBRANCH   1   3
BRANCH   1  11
ATOM     11  C   UNL     1      28.845 -13.217  30.810  1.00  0.00     0.087 C 
BRANCH  11  12
ATOM     12  C   UNL     1      29.623 -11.916  30.462  1.00  0.00     0.066 C 
BRANCH  12  13
ATOM     13  C   UNL     1      29.008 -11.042  29.365  1.00  0.00     0.140 C 
ATOM     14  O   UNL     1      29.685 -10.117  28.936  1.00  0.00    -0.299 OA
BRANCH  13  15
ATOM     15  C   UNL     1      27.635 -11.244  28.756  1.00  0.00     0.106 CG0
ATOM     16  G   UNL     1      27.659 -12.343  27.703  1.00  0.00     0.000 G0
ENDBRANCH  13  15
ENDBRANCH  12  13
BRANCH  12  17
ATOM     17  C   UNL     1      31.123 -12.202  30.124  1.00  0.00    -0.006 C 
ATOM     18  C   UNL     1      31.308 -13.327  29.091  1.00  0.00     0.008 C 
ATOM     19  C   UNL     1      31.974 -12.480  31.374  1.00  0.00     0.008 C 
ENDBRANCH  12  17
ENDBRANCH  11  12
ENDBRANCH   1  11
TORSDOF 1
ENDMDL
MODEL 6
REMARK VINA RESULT:    -4.510      1.894      2.991
REMARK INTER + INTRA:          -6.667
REMARK INTER:                  -7.184
REMARK INTRA:                   0.517
REMARK UNBOUND:                 0.216
REMARK SMILES CC1=CCC[C@@H](C)C(=O)C[C@@H](C(C)C)C(=O)C1
REMARK SMILES IDX 8 1 9 2 6 3 7 4 5 5 4 6 3 7 2 8 1 9 10 11 11 12 15 13 16 14
REMARK SMILES IDX 17 15 12 17 13 18 14 19
REMARK H PARENT
REMARK Flexibility Score: 70.00
ROOT
ATOM      1  C   UNL     1      27.966 -12.555  31.256  1.00  0.00     0.136 C 
ATOM      2  O   UNL     1      28.644 -13.488  31.665  1.00  0.00    -0.299 OA
ENDROOT
BRANCH   1   3
ATOM      3  C   UNL     1      28.327 -11.135  31.670  1.00  0.00     0.053 C 
ATOM      4  C   UNL     1      27.379 -10.108  31.032  1.00  0.00     0.016 C 
BRANCH   3   5
ATOM      5  C   UNL     1      29.807 -10.783  31.373  1.00  0.00     0.015 C 
BRANCH   5   6
ATOM      6  C   UNL     1      30.198 -10.827  29.876  1.00  0.00     0.028 C 
BRANCH   6   7
ATOM      7  C   UNL     1      30.788 -12.158  29.478  1.00  0.00    -0.028 C 
ATOM      8  C   UNL     1      30.472 -12.845  28.353  1.00  0.00    -0.070 CG0
ATOM      9  C   UNL     1      31.191 -14.146  28.095  1.00  0.00     0.039 C 
ATOM     10  G   UNL     1      29.405 -12.394  27.365  1.00  0.00     0.000 G0
ENDBRANCH   6   7
ENDBRANCH   5   6
ENDBRANCH   3   5
ENDBRANCH   1   3
BRANCH   1  11
ATOM     11  C   UNL     1      26.852 -12.873  30.283  1.00  0.00     0.087 C 
BRANCH  11  12
ATOM     12  C   UNL     1      27.293 -13.263  28.843  1.00  0.00     0.066 C 
BRANCH  12  13
ATOM     13  C   UNL     1      28.053 -12.185  28.063  1.00  0.00     0.140 C 
ATOM     14  O   UNL     1      27.553 -11.069  28.011  1.00  0.00    -0.299 OA
BRANCH  13  15
ATOM     15  C   UNL     1      29.383 -12.388  27.365  1.00  0.00     0.106 CG0
ATOM     16  G   UNL     1      30.453 -12.841  28.348  1.00  0.00     0.000 G0
ENDBRANCH  13  15
ENDBRANCH  12  13
BRANCH  12  17
ATOM     17  C   UNL     1      26.096 -13.785  27.983  1.00  0.00    -0.006 C 
ATOM     18  C   UNL     1      25.202 -14.786  28.734  1.00  0.00     0.008 C 
ATOM     19  C   UNL     1      26.543 -14.375  26.636  1.00  0.00     0.008 C 
ENDBRANCH  12  17
ENDBRANCH  11  12
ENDBRANCH   1  11
TORSDOF 1
ENDMDL
MODEL 7
REMARK VINA RESULT:    -4.495      2.034      4.015
REMARK INTER + INTRA:          -6.643
REMARK INTER:                  -6.907
REMARK INTRA:                   0.264
REMARK UNBOUND:                 0.216
REMARK SMILES CC1=CCC[C@@H](C)C(=O)C[C@@H](C(C)C)C(=O)C1
REMARK SMILES IDX 8 1 9 2 6 3 7 4 5 5 4 6 3 7 2 8 1 9 10 11 11 12 15 13 16 14
REMARK SMILES IDX 17 15 12 17 13 18 14 19
REMARK H PARENT
REMARK Flexibility Score: 70.00
ROOT
ATOM      1  C   UNL     1      29.058 -13.286  31.574  1.00  0.00     0.136 C 
ATOM      2  O   UNL     1      28.961 -14.368  32.136  1.00  0.00    -0.299 OA
ENDROOT
BRANCH   1   3
ATOM      3  C   UNL     1      30.441 -12.710  31.302  1.00  0.00     0.053 C 
ATOM      4  C   UNL     1      30.394 -11.179  31.173  1.00  0.00     0.016 C 
BRANCH   3   5
ATOM      5  C   UNL     1      31.123 -13.350  30.066  1.00  0.00     0.015 C 
BRANCH   5   6
ATOM      6  C   UNL     1      30.976 -12.545  28.753  1.00  0.00     0.028 C 
BRANCH   6   7
ATOM      7  C   UNL     1      30.149 -13.276  27.723  1.00  0.00    -0.028 C 
ATOM      8  C   UNL     1      29.014 -12.800  27.155  1.00  0.00    -0.070 CG0
ATOM      9  C   UNL     1      28.336 -13.653  26.112  1.00  0.00     0.039 C 
ATOM     10  G   UNL     1      28.371 -11.475  27.544  1.00  0.00     0.000 G0
ENDBRANCH   6   7
ENDBRANCH   5   6
ENDBRANCH   3   5
ENDBRANCH   1   3
BRANCH   1  11
ATOM     11  C   UNL     1      27.781 -12.624  31.105  1.00  0.00     0.087 C 
BRANCH  11  12
ATOM     12  C   UNL     1      27.371 -12.900  29.630  1.00  0.00     0.066 C 
BRANCH  12  13
ATOM     13  C   UNL     1      27.391 -11.688  28.693  1.00  0.00     0.140 C 
ATOM     14  O   UNL     1      26.569 -10.805  28.895  1.00  0.00    -0.299 OA
BRANCH  13  15
ATOM     15  C   UNL     1      28.362 -11.489  27.545  1.00  0.00     0.106 CG0
ATOM     16  G   UNL     1      29.009 -12.806  27.141  1.00  0.00     0.000 G0
ENDBRANCH  13  15
ENDBRANCH  12  13
BRANCH  12  17
ATOM     17  C   UNL     1      25.984 -13.615  29.530  1.00  0.00    -0.006 C 
ATOM     18  C   UNL     1      25.824 -14.769  30.536  1.00  0.00     0.008 C 
ATOM     19  C   UNL     1      25.664 -14.099  28.107  1.00  0.00     0.008 C 
ENDBRANCH  12  17
ENDBRANCH  11  12
ENDBRANCH   1  11
TORSDOF 1
ENDMDL
MODEL 8
REMARK VINA RESULT:    -4.462      2.063      4.975
REMARK INTER + INTRA:          -6.593
REMARK INTER:                  -7.233
REMARK INTRA:                   0.639
REMARK UNBOUND:                 0.216
REMARK SMILES CC1=CCC[C@@H](C)C(=O)C[C@@H](C(C)C)C(=O)C1
REMARK SMILES IDX 8 1 9 2 6 3 7 4 5 5 4 6 3 7 2 8 1 9 10 11 11 12 15 13 16 14
REMARK SMILES IDX 17 15 12 17 13 18 14 19
REMARK H PARENT
REMARK Flexibility Score: 70.00
ROOT
ATOM      1  C   UNL     1      30.404 -13.042  30.477  1.00  0.00     0.136 C 
ATOM      2  O   UNL     1      31.507 -12.757  30.924  1.00  0.00    -0.299 OA
ENDROOT
BRANCH   1   3
ATOM      3  C   UNL     1      30.247 -13.283  28.982  1.00  0.00     0.053 C 
ATOM      4  C   UNL     1      31.366 -14.186  28.440  1.00  0.00     0.016 C 
BRANCH   3   5
ATOM      5  C   UNL     1      30.154 -11.967  28.170  1.00  0.00     0.015 C 
BRANCH   5   6
ATOM      6  C   UNL     1      29.133 -11.990  27.008  1.00  0.00     0.028 C 
BRANCH   6   7
ATOM      7  C   UNL     1      28.046 -13.016  27.220  1.00  0.00    -0.028 C 
ATOM      8  C   UNL     1      26.972 -12.856  28.029  1.00  0.00    -0.070 CG0
ATOM      9  C   UNL     1      25.962 -13.975  28.090  1.00  0.00     0.039 C 
ATOM     10  G   UNL     1      26.753 -11.629  28.904  1.00  0.00     0.000 G0
ENDBRANCH   6   7
ENDBRANCH   5   6
ENDBRANCH   3   5
ENDBRANCH   1   3
BRANCH   1  11
ATOM     11  C   UNL     1      29.274 -13.222  31.466  1.00  0.00     0.087 C 
BRANCH  11  12
ATOM     12  C   UNL     1      27.835 -13.161  30.876  1.00  0.00     0.066 C 
BRANCH  12  13
ATOM     13  C   UNL     1      27.417 -11.817  30.272  1.00  0.00     0.140 C 
ATOM     14  O   UNL     1      27.655 -10.808  30.923  1.00  0.00    -0.299 OA
BRANCH  13  15
ATOM     15  C   UNL     1      26.748 -11.637  28.924  1.00  0.00     0.106 CG0
ATOM     16  G   UNL     1      26.965 -12.856  28.038  1.00  0.00     0.000 G0
ENDBRANCH  13  15
ENDBRANCH  12  13
BRANCH  12  17
ATOM     17  C   UNL     1      26.757 -13.629  31.909  1.00  0.00    -0.006 C 
ATOM     18  C   UNL     1      26.865 -12.909  33.264  1.00  0.00     0.008 C 
ATOM     19  C   UNL     1      26.748 -15.152  32.112  1.00  0.00     0.008 C 
ENDBRANCH  12  17
ENDBRANCH  11  12
ENDBRANCH   1  11
TORSDOF 1
ENDMDL
MODEL 9
REMARK VINA RESULT:    -4.211      1.595      4.071
REMARK INTER + INTRA:          -6.211
REMARK INTER:                  -6.565
REMARK INTRA:                   0.355
REMARK UNBOUND:                 0.216
REMARK SMILES CC1=CCC[C@@H](C)C(=O)C[C@@H](C(C)C)C(=O)C1
REMARK SMILES IDX 8 1 9 2 6 3 7 4 5 5 4 6 3 7 2 8 1 9 10 11 11 12 15 13 16 14
REMARK SMILES IDX 17 15 12 17 13 18 14 19
REMARK H PARENT
REMARK Flexibility Score: 70.00
ROOT
ATOM      1  C   UNL     1      26.851 -12.489  28.703  1.00  0.00     0.136 C 
ATOM      2  O   UNL     1      26.788 -11.302  28.991  1.00  0.00    -0.299 OA
ENDROOT
BRANCH   1   3
ATOM      3  C   UNL     1      26.742 -12.908  27.243  1.00  0.00     0.053 C 
ATOM      4  C   UNL     1      26.426 -14.406  27.113  1.00  0.00     0.016 C 
BRANCH   3   5
ATOM      5  C   UNL     1      27.998 -12.533  26.417  1.00  0.00     0.015 C 
BRANCH   5   6
ATOM      6  C   UNL     1      29.069 -11.727  27.191  1.00  0.00     0.028 C 
BRANCH   6   7
ATOM      7  C   UNL     1      30.232 -12.587  27.622  1.00  0.00    -0.028 C 
ATOM      8  C   UNL     1      30.686 -12.703  28.894  1.00  0.00    -0.070 CG0
ATOM      9  C   UNL     1      31.840 -13.641  29.148  1.00  0.00     0.039 C 
ATOM     10  G   UNL     1      30.122 -11.909  30.064  1.00  0.00     0.000 G0
ENDBRANCH   6   7
ENDBRANCH   5   6
ENDBRANCH   3   5
ENDBRANCH   1   3
BRANCH   1  11
ATOM     11  C   UNL     1      27.124 -13.468  29.824  1.00  0.00     0.087 C 
BRANCH  11  12
ATOM     12  C   UNL     1      27.823 -12.884  31.085  1.00  0.00     0.066 C 
BRANCH  12  13
ATOM     13  C   UNL     1      29.351 -12.796  31.023  1.00  0.00     0.140 C 
ATOM     14  O   UNL     1      29.988 -13.508  31.787  1.00  0.00    -0.299 OA
BRANCH  13  15
ATOM     15  C   UNL     1      30.136 -11.910  30.076  1.00  0.00     0.106 CG0
ATOM     16  G   UNL     1      30.687 -12.713  28.906  1.00  0.00     0.000 G0
ENDBRANCH  13  15
ENDBRANCH  12  13
BRANCH  12  17
ATOM     17  C   UNL     1      27.395 -13.629  32.392  1.00  0.00    -0.006 C 
ATOM     18  C   UNL     1      26.487 -14.842  32.127  1.00  0.00     0.008 C 
ATOM     19  C   UNL     1      26.748 -12.693  33.427  1.00  0.00     0.008 C 
ENDBRANCH  12  17
ENDBRANCH  11  12
ENDBRANCH   1  11
TORSDOF 1
ENDMDL
