MODEL 1
REMARK VINA RESULT:    -8.170      0.000      0.000
REMARK INTER + INTRA:         -10.909
REMARK INTER:                 -10.796
REMARK INTRA:                  -0.113
REMARK UNBOUND:                -0.113
REMARK SMILES CC[C@H](C=C[C@@H](C)[C@@H]1CC[C@@H]2[C@H]3CC[C@@H]4C[C@@H](O)CC[C@]4(C)[C@@H]3CC[C@@]21C)C(C)C
REMARK SMILES IDX 6 1 7 2 5 3 4 4 3 5 2 6 1 7 28 8 29 9 30 10 8 11 9 12 26 13
REMARK SMILES IDX 10 14 11 15 25 16 27 17 12 18 24 19 23 20 13 21 21 22 14 23
REMARK SMILES IDX 15 24 20 25 22 26 16 27 19 28 17 29 18 30
REMARK H PARENT 18 31
REMARK Flexibility Score: inf
ROOT
ATOM      1  C   UNL     1      -2.716  18.657  48.764  1.00  0.00     0.012 C 
ATOM      2  C   UNL     1      -3.898  19.416  48.133  1.00  0.00     0.012 C 
ENDROOT
BRANCH   1   3
ATOM      3  C   UNL     1      -1.822  19.657  49.468  1.00  0.00    -0.028 C 
ATOM      4  C   UNL     1      -2.179  20.947  49.588  1.00  0.00    -0.027 C 
BRANCH   4   5
ATOM      5  C   UNL     1      -1.330  21.989  50.295  1.00  0.00     0.014 C 
BRANCH   5   6
ATOM      6  C   UNL     1      -0.853  23.084  49.307  1.00  0.00     0.004 C 
ATOM      7  C   UNL     1      -1.385  22.888  47.887  1.00  0.00     0.004 C 
ENDBRANCH   5   6
BRANCH   5   8
ATOM      8  C   UNL     1      -1.994  22.532  51.602  1.00  0.00    -0.011 C 
ATOM      9  C   UNL     1      -3.240  23.375  51.284  1.00  0.00     0.008 C 
ATOM     10  C   UNL     1      -1.047  23.325  52.517  1.00  0.00     0.008 C 
ENDBRANCH   5   8
ENDBRANCH   4   5
ENDBRANCH   1   3
BRANCH   1  11
ATOM     11  C   UNL     1      -1.871  17.784  47.768  1.00  0.00     0.002 C 
ATOM     12  C   UNL     1      -1.506  16.387  48.247  1.00  0.00     0.005 C 
ATOM     13  C   UNL     1      -0.543  18.385  47.219  1.00  0.00    -0.026 C 
ATOM     14  C   UNL     1      -0.508  15.892  47.216  1.00  0.00     0.005 C 
ATOM     15  C   UNL     1       0.227  17.138  46.670  1.00  0.00    -0.001 C 
ATOM     16  C   UNL     1       0.295  19.082  48.319  1.00  0.00     0.007 C 
ATOM     17  C   UNL     1      -0.863  19.391  46.081  1.00  0.00     0.012 C 
ATOM     18  C   UNL     1       1.754  17.089  47.014  1.00  0.00    -0.004 C 
ATOM     19  C   UNL     1       1.667  19.548  47.812  1.00  0.00     0.005 C 
ATOM     20  C   UNL     1       2.418  18.493  46.938  1.00  0.00    -0.001 C 
ATOM     21  C   UNL     1       2.456  16.119  46.043  1.00  0.00     0.004 C 
ATOM     22  C   UNL     1       3.988  18.469  47.173  1.00  0.00    -0.026 C 
ATOM     23  C   UNL     1       3.941  16.013  46.347  1.00  0.00     0.004 C 
ATOM     24  C   UNL     1       4.638  17.388  46.236  1.00  0.00    -0.002 C 
ATOM     25  C   UNL     1       4.372  18.153  48.658  1.00  0.00     0.010 C 
ATOM     26  C   UNL     1       4.531  19.875  46.785  1.00  0.00     0.012 C 
ATOM     27  C   UNL     1       6.160  17.222  46.478  1.00  0.00     0.036 C 
ATOM     28  C   UNL     1       5.887  17.988  48.876  1.00  0.00     0.032 C 
ATOM     29  C   UNL     1       6.501  16.933  47.951  1.00  0.00     0.114 C 
BRANCH  29  30
ATOM     30  O   UNL     1       7.893  16.934  48.123  1.00  0.00    -0.393 OA
ATOM     31  H   UNL     1       8.063  16.822  49.095  1.00  0.00     0.210 HD
ENDBRANCH  29  30
ENDBRANCH   1  11
TORSDOF 6
ENDMDL
MODEL 2
REMARK VINA RESULT:    -8.110      2.561      5.392
REMARK INTER + INTRA:         -10.831
REMARK INTER:                  -9.653
REMARK INTRA:                  -1.177
REMARK UNBOUND:                -0.113
REMARK SMILES CC[C@H](C=C[C@@H](C)[C@@H]1CC[C@@H]2[C@H]3CC[C@@H]4C[C@@H](O)CC[C@]4(C)[C@@H]3CC[C@@]21C)C(C)C
REMARK SMILES IDX 6 1 7 2 5 3 4 4 3 5 2 6 1 7 28 8 29 9 30 10 8 11 9 12 26 13
REMARK SMILES IDX 10 14 11 15 25 16 27 17 12 18 24 19 23 20 13 21 21 22 14 23
REMARK SMILES IDX 15 24 20 25 22 26 16 27 19 28 17 29 18 30
REMARK H PARENT 18 31
REMARK Flexibility Score: inf
ROOT
ATOM      1  C   UNL     1       2.148  20.343  47.894  1.00  0.00     0.012 C 
ATOM      2  C   UNL     1       2.077  21.696  48.627  1.00  0.00     0.012 C 
ENDROOT
BRANCH   1   3
ATOM      3  C   UNL     1       0.855  19.594  48.141  1.00  0.00    -0.028 C 
ATOM      4  C   UNL     1       0.003  19.323  47.137  1.00  0.00    -0.027 C 
BRANCH   4   5
ATOM      5  C   UNL     1      -1.299  18.564  47.324  1.00  0.00     0.014 C 
BRANCH   5   6
ATOM      6  C   UNL     1      -1.170  17.104  46.819  1.00  0.00     0.004 C 
ATOM      7  C   UNL     1      -0.508  16.997  45.445  1.00  0.00     0.004 C 
ENDBRANCH   5   6
BRANCH   5   8
ATOM      8  C   UNL     1      -1.887  18.708  48.765  1.00  0.00    -0.011 C 
ATOM      9  C   UNL     1      -2.710  17.470  49.157  1.00  0.00     0.008 C 
ATOM     10  C   UNL     1      -2.720  19.981  48.990  1.00  0.00     0.008 C 
ENDBRANCH   5   8
ENDBRANCH   4   5
ENDBRANCH   1   3
BRANCH   1  11
ATOM     11  C   UNL     1       3.377  19.440  48.270  1.00  0.00     0.002 C 
ATOM     12  C   UNL     1       4.592  20.164  48.831  1.00  0.00     0.005 C 
ATOM     13  C   UNL     1       3.942  18.486  47.176  1.00  0.00    -0.026 C 
ATOM     14  C   UNL     1       5.674  19.101  48.861  1.00  0.00     0.005 C 
ATOM     15  C   UNL     1       5.365  18.115  47.710  1.00  0.00    -0.001 C 
ATOM     16  C   UNL     1       4.058  19.170  45.791  1.00  0.00     0.007 C 
ATOM     17  C   UNL     1       3.038  17.229  47.071  1.00  0.00     0.012 C 
ATOM     18  C   UNL     1       6.506  18.124  46.637  1.00  0.00    -0.004 C 
ATOM     19  C   UNL     1       4.747  18.280  44.748  1.00  0.00     0.005 C 
ATOM     20  C   UNL     1       6.030  17.558  45.270  1.00  0.00    -0.001 C 
ATOM     21  C   UNL     1       7.697  17.300  47.165  1.00  0.00     0.004 C 
ATOM     22  C   UNL     1       7.186  17.448  44.188  1.00  0.00    -0.026 C 
ATOM     23  C   UNL     1       8.847  17.294  46.171  1.00  0.00     0.004 C 
ATOM     24  C   UNL     1       8.416  16.695  44.813  1.00  0.00    -0.002 C 
ATOM     25  C   UNL     1       7.660  18.847  43.664  1.00  0.00     0.010 C 
ATOM     26  C   UNL     1       6.625  16.613  43.000  1.00  0.00     0.012 C 
ATOM     27  C   UNL     1       9.634  16.638  43.858  1.00  0.00     0.036 C 
ATOM     28  C   UNL     1       8.873  18.768  42.720  1.00  0.00     0.032 C 
ATOM     29  C   UNL     1      10.057  18.028  43.348  1.00  0.00     0.114 C 
BRANCH  29  30
ATOM     30  O   UNL     1      11.068  17.891  42.385  1.00  0.00    -0.393 OA
ATOM     31  H   UNL     1      10.809  18.459  41.613  1.00  0.00     0.210 HD
ENDBRANCH  29  30
ENDBRANCH   1  11
TORSDOF 6
ENDMDL
MODEL 3
REMARK VINA RESULT:    -7.861      3.831      8.691
REMARK INTER + INTRA:         -10.502
REMARK INTER:                  -9.050
REMARK INTRA:                  -1.453
REMARK UNBOUND:                -0.113
REMARK SMILES CC[C@H](C=C[C@@H](C)[C@@H]1CC[C@@H]2[C@H]3CC[C@@H]4C[C@@H](O)CC[C@]4(C)[C@@H]3CC[C@@]21C)C(C)C
REMARK SMILES IDX 6 1 7 2 5 3 4 4 3 5 2 6 1 7 28 8 29 9 30 10 8 11 9 12 26 13
REMARK SMILES IDX 10 14 11 15 25 16 27 17 12 18 24 19 23 20 13 21 21 22 14 23
REMARK SMILES IDX 15 24 20 25 22 26 16 27 19 28 17 29 18 30
REMARK H PARENT 18 31
REMARK Flexibility Score: inf
ROOT
ATOM      1  C   UNL     1       1.156  20.341  47.595  1.00  0.00     0.012 C 
ATOM      2  C   UNL     1       2.306  20.715  46.642  1.00  0.00     0.012 C 
ENDROOT
BRANCH   1   3
ATOM      3  C   UNL     1       0.670  18.952  47.240  1.00  0.00    -0.028 C 
ATOM      4  C   UNL     1      -0.506  18.761  46.617  1.00  0.00    -0.027 C 
BRANCH   4   5
ATOM      5  C   UNL     1      -1.036  17.393  46.226  1.00  0.00     0.014 C 
BRANCH   5   6
ATOM      6  C   UNL     1       0.114  16.461  45.765  1.00  0.00     0.004 C 
ATOM      7  C   UNL     1      -0.097  15.892  44.362  1.00  0.00     0.004 C 
ENDBRANCH   5   6
BRANCH   5   8
ATOM      8  C   UNL     1      -1.986  16.776  47.303  1.00  0.00    -0.011 C 
ATOM      9  C   UNL     1      -2.878  17.854  47.940  1.00  0.00     0.008 C 
ATOM     10  C   UNL     1      -1.270  15.975  48.402  1.00  0.00     0.008 C 
ENDBRANCH   5   8
ENDBRANCH   4   5
ENDBRANCH   1   3
BRANCH   1  11
ATOM     11  C   UNL     1      -0.051  21.347  47.616  1.00  0.00     0.002 C 
ATOM     12  C   UNL     1       0.102  22.592  46.756  1.00  0.00     0.005 C 
ATOM     13  C   UNL     1      -0.542  21.867  49.000  1.00  0.00    -0.026 C 
ATOM     14  C   UNL     1      -1.069  23.469  47.163  1.00  0.00     0.005 C 
ATOM     15  C   UNL     1      -1.386  23.134  48.639  1.00  0.00    -0.001 C 
ATOM     16  C   UNL     1       0.627  22.258  49.938  1.00  0.00     0.007 C 
ATOM     17  C   UNL     1      -1.422  20.782  49.675  1.00  0.00     0.012 C 
ATOM     18  C   UNL     1      -1.154  24.378  49.562  1.00  0.00    -0.004 C 
ATOM     19  C   UNL     1       0.146  22.905  51.244  1.00  0.00     0.005 C 
ATOM     20  C   UNL     1      -0.974  23.977  51.053  1.00  0.00    -0.001 C 
ATOM     21  C   UNL     1      -2.347  25.342  49.414  1.00  0.00     0.004 C 
ATOM     22  C   UNL     1      -0.846  25.217  52.036  1.00  0.00    -0.026 C 
ATOM     23  C   UNL     1      -2.163  26.583  50.272  1.00  0.00     0.004 C 
ATOM     24  C   UNL     1      -2.026  26.219  51.768  1.00  0.00    -0.002 C 
ATOM     25  C   UNL     1       0.514  25.978  51.875  1.00  0.00     0.010 C 
ATOM     26  C   UNL     1      -0.963  24.666  53.487  1.00  0.00     0.012 C 
ATOM     27  C   UNL     1      -1.918  27.514  52.612  1.00  0.00     0.036 C 
ATOM     28  C   UNL     1       0.600  27.263  52.719  1.00  0.00     0.032 C 
ATOM     29  C   UNL     1      -0.561  28.222  52.444  1.00  0.00     0.114 C 
BRANCH  29  30
ATOM     30  O   UNL     1      -0.478  29.302  53.337  1.00  0.00    -0.393 OA
ATOM     31  H   UNL     1      -1.352  29.355  53.806  1.00  0.00     0.210 HD
ENDBRANCH  29  30
ENDBRANCH   1  11
TORSDOF 6
ENDMDL
MODEL 4
REMARK VINA RESULT:    -7.792      7.660     11.623
REMARK INTER + INTRA:         -10.411
REMARK INTER:                  -9.025
REMARK INTRA:                  -1.386
REMARK UNBOUND:                -0.113
REMARK SMILES CC[C@H](C=C[C@@H](C)[C@@H]1CC[C@@H]2[C@H]3CC[C@@H]4C[C@@H](O)CC[C@]4(C)[C@@H]3CC[C@@]21C)C(C)C
REMARK SMILES IDX 6 1 7 2 5 3 4 4 3 5 2 6 1 7 28 8 29 9 30 10 8 11 9 12 26 13
REMARK SMILES IDX 10 14 11 15 25 16 27 17 12 18 24 19 23 20 13 21 21 22 14 23
REMARK SMILES IDX 15 24 20 25 22 26 16 27 19 28 17 29 18 30
REMARK H PARENT 18 31
REMARK Flexibility Score: inf
ROOT
ATOM      1  C   UNL     1       8.088  20.520  42.641  1.00  0.00     0.012 C 
ATOM      2  C   UNL     1       9.413  21.223  42.290  1.00  0.00     0.012 C 
ENDROOT
BRANCH   1   3
ATOM      3  C   UNL     1       8.403  19.134  43.163  1.00  0.00    -0.028 C 
ATOM      4  C   UNL     1       7.639  18.076  42.841  1.00  0.00    -0.027 C 
BRANCH   4   5
ATOM      5  C   UNL     1       7.916  16.663  43.323  1.00  0.00     0.014 C 
BRANCH   5   6
ATOM      6  C   UNL     1       9.440  16.388  43.397  1.00  0.00     0.004 C 
ATOM      7  C   UNL     1      10.024  15.875  42.080  1.00  0.00     0.004 C 
ENDBRANCH   5   6
BRANCH   5   8
ATOM      8  C   UNL     1       7.122  16.294  44.618  1.00  0.00    -0.011 C 
ATOM      9  C   UNL     1       5.746  16.981  44.641  1.00  0.00     0.008 C 
ATOM     10  C   UNL     1       7.870  16.582  45.930  1.00  0.00     0.008 C 
ENDBRANCH   5   8
ENDBRANCH   4   5
ENDBRANCH   1   3
BRANCH   1  11
ATOM     11  C   UNL     1       7.044  20.432  41.471  1.00  0.00     0.002 C 
ATOM     12  C   UNL     1       7.553  20.821  40.091  1.00  0.00     0.005 C 
ATOM     13  C   UNL     1       5.697  21.196  41.637  1.00  0.00    -0.026 C 
ATOM     14  C   UNL     1       6.298  20.882  39.238  1.00  0.00     0.005 C 
ATOM     15  C   UNL     1       5.136  21.278  40.179  1.00  0.00    -0.001 C 
ATOM     16  C   UNL     1       5.888  22.622  42.212  1.00  0.00     0.007 C 
ATOM     17  C   UNL     1       4.751  20.378  42.556  1.00  0.00     0.012 C 
ATOM     18  C   UNL     1       4.528  22.663  39.772  1.00  0.00    -0.004 C 
ATOM     19  C   UNL     1       4.582  23.428  42.242  1.00  0.00     0.005 C 
ATOM     20  C   UNL     1       3.732  23.319  40.935  1.00  0.00    -0.001 C 
ATOM     21  C   UNL     1       3.611  22.468  38.549  1.00  0.00     0.004 C 
ATOM     22  C   UNL     1       3.008  24.672  40.530  1.00  0.00    -0.026 C 
ATOM     23  C   UNL     1       3.010  23.787  38.094  1.00  0.00     0.004 C 
ATOM     24  C   UNL     1       2.175  24.443  39.217  1.00  0.00    -0.002 C 
ATOM     25  C   UNL     1       4.014  25.849  40.295  1.00  0.00     0.010 C 
ATOM     26  C   UNL     1       2.040  25.040  41.691  1.00  0.00     0.012 C 
ATOM     27  C   UNL     1       1.520  25.744  38.687  1.00  0.00     0.036 C 
ATOM     28  C   UNL     1       3.344  27.130  39.765  1.00  0.00     0.032 C 
ATOM     29  C   UNL     1       2.535  26.883  38.489  1.00  0.00     0.114 C 
BRANCH  29  30
ATOM     30  O   UNL     1       1.859  28.064  38.146  1.00  0.00    -0.393 OA
ATOM     31  H   UNL     1       0.889  27.881  38.252  1.00  0.00     0.210 HD
ENDBRANCH  29  30
ENDBRANCH   1  11
TORSDOF 6
ENDMDL
MODEL 5
REMARK VINA RESULT:    -7.736      7.285     11.476
REMARK INTER + INTRA:         -10.337
REMARK INTER:                  -9.106
REMARK INTRA:                  -1.231
REMARK UNBOUND:                -0.113
REMARK SMILES CC[C@H](C=C[C@@H](C)[C@@H]1CC[C@@H]2[C@H]3CC[C@@H]4C[C@@H](O)CC[C@]4(C)[C@@H]3CC[C@@]21C)C(C)C
REMARK SMILES IDX 6 1 7 2 5 3 4 4 3 5 2 6 1 7 28 8 29 9 30 10 8 11 9 12 26 13
REMARK SMILES IDX 10 14 11 15 25 16 27 17 12 18 24 19 23 20 13 21 21 22 14 23
REMARK SMILES IDX 15 24 20 25 22 26 16 27 19 28 17 29 18 30
REMARK H PARENT 18 31
REMARK Flexibility Score: inf
ROOT
ATOM      1  C   UNL     1       8.090  20.556  42.677  1.00  0.00     0.012 C 
ATOM      2  C   UNL     1       9.550  20.511  42.187  1.00  0.00     0.012 C 
ENDROOT
BRANCH   1   3
ATOM      3  C   UNL     1       7.893  19.458  43.701  1.00  0.00    -0.028 C 
ATOM      4  C   UNL     1       7.327  18.285  43.366  1.00  0.00    -0.027 C 
BRANCH   4   5
ATOM      5  C   UNL     1       7.117  17.145  44.347  1.00  0.00     0.014 C 
BRANCH   5   6
ATOM      6  C   UNL     1       5.630  16.709  44.386  1.00  0.00     0.004 C 
ATOM      7  C   UNL     1       4.734  17.690  45.142  1.00  0.00     0.004 C 
ENDBRANCH   5   6
BRANCH   5   8
ATOM      8  C   UNL     1       8.137  15.977  44.151  1.00  0.00    -0.011 C 
ATOM      9  C   UNL     1       9.136  15.909  45.317  1.00  0.00     0.008 C 
ATOM     10  C   UNL     1       8.896  16.011  42.815  1.00  0.00     0.008 C 
ENDBRANCH   5   8
ENDBRANCH   4   5
ENDBRANCH   1   3
BRANCH   1  11
ATOM     11  C   UNL     1       7.001  20.447  41.550  1.00  0.00     0.002 C 
ATOM     12  C   UNL     1       7.467  20.759  40.136  1.00  0.00     0.005 C 
ATOM     13  C   UNL     1       5.682  21.256  41.731  1.00  0.00    -0.026 C 
ATOM     14  C   UNL     1       6.184  20.818  39.328  1.00  0.00     0.005 C 
ATOM     15  C   UNL     1       5.070  21.290  40.291  1.00  0.00    -0.001 C 
ATOM     16  C   UNL     1       5.934  22.700  42.233  1.00  0.00     0.007 C 
ATOM     17  C   UNL     1       4.749  20.508  42.719  1.00  0.00     0.012 C 
ATOM     18  C   UNL     1       4.484  22.672  39.844  1.00  0.00    -0.004 C 
ATOM     19  C   UNL     1       4.652  23.544  42.273  1.00  0.00     0.005 C 
ATOM     20  C   UNL     1       3.752  23.402  41.005  1.00  0.00    -0.001 C 
ATOM     21  C   UNL     1       3.518  22.450  38.665  1.00  0.00     0.004 C 
ATOM     22  C   UNL     1       3.050  24.756  40.565  1.00  0.00    -0.026 C 
ATOM     23  C   UNL     1       2.936  23.764  38.173  1.00  0.00     0.004 C 
ATOM     24  C   UNL     1       2.162  24.494  39.295  1.00  0.00    -0.002 C 
ATOM     25  C   UNL     1       4.079  25.892  40.240  1.00  0.00     0.010 C 
ATOM     26  C   UNL     1       2.138  25.204  41.743  1.00  0.00     0.012 C 
ATOM     27  C   UNL     1       1.524  25.788  38.731  1.00  0.00     0.036 C 
ATOM     28  C   UNL     1       3.425  27.167  39.678  1.00  0.00     0.032 C 
ATOM     29  C   UNL     1       2.562  26.888  38.444  1.00  0.00     0.114 C 
BRANCH  29  30
ATOM     30  O   UNL     1       1.906  28.072  38.072  1.00  0.00    -0.393 OA
ATOM     31  H   UNL     1       1.698  28.561  38.911  1.00  0.00     0.210 HD
ENDBRANCH  29  30
ENDBRANCH   1  11
TORSDOF 6
ENDMDL
MODEL 6
REMARK VINA RESULT:    -7.699      3.369      8.425
REMARK INTER + INTRA:         -10.288
REMARK INTER:                  -9.716
REMARK INTRA:                  -0.572
REMARK UNBOUND:                -0.113
REMARK SMILES CC[C@H](C=C[C@@H](C)[C@@H]1CC[C@@H]2[C@H]3CC[C@@H]4C[C@@H](O)CC[C@]4(C)[C@@H]3CC[C@@]21C)C(C)C
REMARK SMILES IDX 6 1 7 2 5 3 4 4 3 5 2 6 1 7 28 8 29 9 30 10 8 11 9 12 26 13
REMARK SMILES IDX 10 14 11 15 25 16 27 17 12 18 24 19 23 20 13 21 21 22 14 23
REMARK SMILES IDX 15 24 20 25 22 26 16 27 19 28 17 29 18 30
REMARK H PARENT 18 31
REMARK Flexibility Score: inf
ROOT
ATOM      1  C   UNL     1       7.050  17.004  46.180  1.00  0.00     0.012 C 
ATOM      2  C   UNL     1       7.669  18.072  47.101  1.00  0.00     0.012 C 
ENDROOT
BRANCH   1   3
ATOM      3  C   UNL     1       7.063  17.529  44.759  1.00  0.00    -0.028 C 
ATOM      4  C   UNL     1       7.481  18.776  44.480  1.00  0.00    -0.027 C 
BRANCH   4   5
ATOM      5  C   UNL     1       7.528  19.349  43.075  1.00  0.00     0.014 C 
BRANCH   5   6
ATOM      6  C   UNL     1       8.493  18.537  42.173  1.00  0.00     0.004 C 
ATOM      7  C   UNL     1       9.725  19.330  41.741  1.00  0.00     0.004 C 
ENDBRANCH   5   6
BRANCH   5   8
ATOM      8  C   UNL     1       6.108  19.588  42.466  1.00  0.00    -0.011 C 
ATOM      9  C   UNL     1       6.198  20.317  41.115  1.00  0.00     0.008 C 
ATOM     10  C   UNL     1       5.132  20.328  43.394  1.00  0.00     0.008 C 
ENDBRANCH   5   8
ENDBRANCH   4   5
ENDBRANCH   1   3
BRANCH   1  11
ATOM     11  C   UNL     1       5.603  16.538  46.571  1.00  0.00     0.002 C 
ATOM     12  C   UNL     1       4.701  16.117  45.420  1.00  0.00     0.005 C 
ATOM     13  C   UNL     1       4.735  17.501  47.435  1.00  0.00    -0.026 C 
ATOM     14  C   UNL     1       3.332  15.968  46.058  1.00  0.00     0.005 C 
ATOM     15  C   UNL     1       3.280  16.959  47.243  1.00  0.00    -0.001 C 
ATOM     16  C   UNL     1       4.820  18.972  46.954  1.00  0.00     0.007 C 
ATOM     17  C   UNL     1       5.179  17.404  48.919  1.00  0.00     0.012 C 
ATOM     18  C   UNL     1       2.182  18.054  47.016  1.00  0.00    -0.004 C 
ATOM     19  C   UNL     1       3.858  19.898  47.710  1.00  0.00     0.005 C 
ATOM     20  C   UNL     1       2.420  19.314  47.894  1.00  0.00    -0.001 C 
ATOM     21  C   UNL     1       0.799  17.448  47.324  1.00  0.00     0.004 C 
ATOM     22  C   UNL     1       1.270  20.401  47.774  1.00  0.00    -0.026 C 
ATOM     23  C   UNL     1      -0.310  18.461  47.097  1.00  0.00     0.004 C 
ATOM     24  C   UNL     1      -0.125  19.709  47.990  1.00  0.00    -0.002 C 
ATOM     25  C   UNL     1       1.267  21.129  46.387  1.00  0.00     0.010 C 
ATOM     26  C   UNL     1       1.504  21.444  48.906  1.00  0.00     0.012 C 
ATOM     27  C   UNL     1      -1.315  20.680  47.782  1.00  0.00     0.036 C 
ATOM     28  C   UNL     1       0.075  22.085  46.199  1.00  0.00     0.032 C 
ATOM     29  C   UNL     1      -1.272  21.391  46.418  1.00  0.00     0.114 C 
BRANCH  29  30
ATOM     30  O   UNL     1      -2.293  22.352  46.354  1.00  0.00    -0.393 OA
ATOM     31  H   UNL     1      -2.228  22.895  47.182  1.00  0.00     0.210 HD
ENDBRANCH  29  30
ENDBRANCH   1  11
TORSDOF 6
ENDMDL
MODEL 7
REMARK VINA RESULT:    -7.636      3.518      8.552
REMARK INTER + INTRA:         -10.204
REMARK INTER:                  -8.968
REMARK INTRA:                  -1.236
REMARK UNBOUND:                -0.113
REMARK SMILES CC[C@H](C=C[C@@H](C)[C@@H]1CC[C@@H]2[C@H]3CC[C@@H]4C[C@@H](O)CC[C@]4(C)[C@@H]3CC[C@@]21C)C(C)C
REMARK SMILES IDX 6 1 7 2 5 3 4 4 3 5 2 6 1 7 28 8 29 9 30 10 8 11 9 12 26 13
REMARK SMILES IDX 10 14 11 15 25 16 27 17 12 18 24 19 23 20 13 21 21 22 14 23
REMARK SMILES IDX 15 24 20 25 22 26 16 27 19 28 17 29 18 30
REMARK H PARENT 18 31
REMARK Flexibility Score: inf
ROOT
ATOM      1  C   UNL     1       0.131  18.764  46.886  1.00  0.00     0.012 C 
ATOM      2  C   UNL     1      -0.869  18.200  45.860  1.00  0.00     0.012 C 
ENDROOT
BRANCH   1   3
ATOM      3  C   UNL     1       1.187  17.713  47.158  1.00  0.00    -0.028 C 
ATOM      4  C   UNL     1       2.489  18.038  47.247  1.00  0.00    -0.027 C 
BRANCH   4   5
ATOM      5  C   UNL     1       3.586  17.028  47.532  1.00  0.00     0.014 C 
BRANCH   5   6
ATOM      6  C   UNL     1       4.177  16.460  46.216  1.00  0.00     0.004 C 
ATOM      7  C   UNL     1       4.387  17.526  45.140  1.00  0.00     0.004 C 
ENDBRANCH   5   6
BRANCH   5   8
ATOM      8  C   UNL     1       4.648  17.554  48.551  1.00  0.00    -0.011 C 
ATOM      9  C   UNL     1       4.710  19.090  48.547  1.00  0.00     0.008 C 
ATOM     10  C   UNL     1       6.059  16.974  48.359  1.00  0.00     0.008 C 
ENDBRANCH   5   8
ENDBRANCH   4   5
ENDBRANCH   1   3
BRANCH   1  11
ATOM     11  C   UNL     1      -0.500  19.258  48.237  1.00  0.00     0.002 C 
ATOM     12  C   UNL     1      -2.015  19.159  48.343  1.00  0.00     0.005 C 
ATOM     13  C   UNL     1      -0.153  20.698  48.720  1.00  0.00    -0.026 C 
ATOM     14  C   UNL     1      -2.347  19.920  49.613  1.00  0.00     0.005 C 
ATOM     15  C   UNL     1      -1.262  21.008  49.780  1.00  0.00    -0.001 C 
ATOM     16  C   UNL     1      -0.208  21.740  47.576  1.00  0.00     0.007 C 
ATOM     17  C   UNL     1       1.257  20.698  49.368  1.00  0.00     0.012 C 
ATOM     18  C   UNL     1      -1.884  22.444  49.698  1.00  0.00    -0.004 C 
ATOM     19  C   UNL     1      -0.009  23.178  48.075  1.00  0.00     0.005 C 
ATOM     20  C   UNL     1      -0.819  23.526  49.364  1.00  0.00    -0.001 C 
ATOM     21  C   UNL     1      -2.569  22.771  51.039  1.00  0.00     0.004 C 
ATOM     22  C   UNL     1      -1.390  25.007  49.379  1.00  0.00    -0.026 C 
ATOM     23  C   UNL     1      -3.213  24.147  51.008  1.00  0.00     0.004 C 
ATOM     24  C   UNL     1      -2.170  25.251  50.722  1.00  0.00    -0.002 C 
ATOM     25  C   UNL     1      -2.347  25.299  48.174  1.00  0.00     0.010 C 
ATOM     26  C   UNL     1      -0.168  25.970  49.316  1.00  0.00     0.012 C 
ATOM     27  C   UNL     1      -2.854  26.640  50.774  1.00  0.00     0.036 C 
ATOM     28  C   UNL     1      -3.019  26.682  48.248  1.00  0.00     0.032 C 
ATOM     29  C   UNL     1      -3.770  26.899  49.565  1.00  0.00     0.114 C 
BRANCH  29  30
ATOM     30  O   UNL     1      -4.243  28.220  49.604  1.00  0.00    -0.393 OA
ATOM     31  H   UNL     1      -5.232  28.169  49.681  1.00  0.00     0.210 HD
ENDBRANCH  29  30
ENDBRANCH   1  11
TORSDOF 6
ENDMDL
MODEL 8
REMARK VINA RESULT:    -7.546      2.630      5.093
REMARK INTER + INTRA:         -10.085
REMARK INTER:                  -9.127
REMARK INTRA:                  -0.958
REMARK UNBOUND:                -0.113
REMARK SMILES CC[C@H](C=C[C@@H](C)[C@@H]1CC[C@@H]2[C@H]3CC[C@@H]4C[C@@H](O)CC[C@]4(C)[C@@H]3CC[C@@]21C)C(C)C
REMARK SMILES IDX 6 1 7 2 5 3 4 4 3 5 2 6 1 7 28 8 29 9 30 10 8 11 9 12 26 13
REMARK SMILES IDX 10 14 11 15 25 16 27 17 12 18 24 19 23 20 13 21 21 22 14 23
REMARK SMILES IDX 15 24 20 25 22 26 16 27 19 28 17 29 18 30
REMARK H PARENT 18 31
REMARK Flexibility Score: inf
ROOT
ATOM      1  C   UNL     1       2.473  21.130  48.029  1.00  0.00     0.012 C 
ATOM      2  C   UNL     1       2.841  22.626  48.029  1.00  0.00     0.012 C 
ENDROOT
BRANCH   1   3
ATOM      3  C   UNL     1       1.289  20.926  48.952  1.00  0.00    -0.028 C 
ATOM      4  C   UNL     1       0.897  21.887  49.806  1.00  0.00    -0.027 C 
BRANCH   4   5
ATOM      5  C   UNL     1      -0.290  21.743  50.742  1.00  0.00     0.014 C 
BRANCH   5   6
ATOM      6  C   UNL     1      -0.108  22.615  52.011  1.00  0.00     0.004 C 
ATOM      7  C   UNL     1       0.594  21.879  53.153  1.00  0.00     0.004 C 
ENDBRANCH   5   6
BRANCH   5   8
ATOM      8  C   UNL     1      -1.663  21.920  50.018  1.00  0.00    -0.011 C 
ATOM      9  C   UNL     1      -2.660  22.692  50.898  1.00  0.00     0.008 C 
ATOM     10  C   UNL     1      -2.302  20.609  49.533  1.00  0.00     0.008 C 
ENDBRANCH   5   8
ENDBRANCH   4   5
ENDBRANCH   1   3
BRANCH   1  11
ATOM     11  C   UNL     1       3.638  20.153  48.420  1.00  0.00     0.002 C 
ATOM     12  C   UNL     1       4.931  20.805  48.886  1.00  0.00     0.005 C 
ATOM     13  C   UNL     1       4.077  19.086  47.373  1.00  0.00    -0.026 C 
ATOM     14  C   UNL     1       5.923  19.659  48.947  1.00  0.00     0.005 C 
ATOM     15  C   UNL     1       5.486  18.631  47.878  1.00  0.00    -0.001 C 
ATOM     16  C   UNL     1       4.190  19.668  45.941  1.00  0.00     0.007 C 
ATOM     17  C   UNL     1       3.069  17.906  47.386  1.00  0.00     0.012 C 
ATOM     18  C   UNL     1       6.578  18.474  46.765  1.00  0.00    -0.004 C 
ATOM     19  C   UNL     1       4.759  18.658  44.936  1.00  0.00     0.005 C 
ATOM     20  C   UNL     1       6.000  17.864  45.458  1.00  0.00    -0.001 C 
ATOM     21  C   UNL     1       7.718  17.589  47.303  1.00  0.00     0.004 C 
ATOM     22  C   UNL     1       7.096  17.589  44.344  1.00  0.00    -0.026 C 
ATOM     23  C   UNL     1       8.821  17.422  46.271  1.00  0.00     0.004 C 
ATOM     24  C   UNL     1       8.285  16.776  44.973  1.00  0.00    -0.002 C 
ATOM     25  C   UNL     1       7.660  18.906  43.710  1.00  0.00     0.010 C 
ATOM     26  C   UNL     1       6.419  16.729  43.237  1.00  0.00     0.012 C 
ATOM     27  C   UNL     1       9.454  16.555  43.980  1.00  0.00     0.036 C 
ATOM     28  C   UNL     1       8.822  18.665  42.730  1.00  0.00     0.032 C 
ATOM     29  C   UNL     1       9.967  17.869  43.363  1.00  0.00     0.114 C 
BRANCH  29  30
ATOM     30  O   UNL     1      10.922  17.585  42.375  1.00  0.00    -0.393 OA
ATOM     31  H   UNL     1      11.702  17.180  42.837  1.00  0.00     0.210 HD
ENDBRANCH  29  30
ENDBRANCH   1  11
TORSDOF 6
ENDMDL
MODEL 9
REMARK VINA RESULT:    -7.321      4.122      9.170
REMARK INTER + INTRA:          -9.787
REMARK INTER:                  -8.569
REMARK INTRA:                  -1.219
REMARK UNBOUND:                -0.113
REMARK SMILES CC[C@H](C=C[C@@H](C)[C@@H]1CC[C@@H]2[C@H]3CC[C@@H]4C[C@@H](O)CC[C@]4(C)[C@@H]3CC[C@@]21C)C(C)C
REMARK SMILES IDX 6 1 7 2 5 3 4 4 3 5 2 6 1 7 28 8 29 9 30 10 8 11 9 12 26 13
REMARK SMILES IDX 10 14 11 15 25 16 27 17 12 18 24 19 23 20 13 21 21 22 14 23
REMARK SMILES IDX 15 24 20 25 22 26 16 27 19 28 17 29 18 30
REMARK H PARENT 18 31
REMARK Flexibility Score: inf
ROOT
ATOM      1  C   UNL     1       0.129  20.544  47.707  1.00  0.00     0.012 C 
ATOM      2  C   UNL     1      -0.695  20.857  46.444  1.00  0.00     0.012 C 
ENDROOT
BRANCH   1   3
ATOM      3  C   UNL     1       0.433  19.061  47.728  1.00  0.00    -0.028 C 
ATOM      4  C   UNL     1      -0.526  18.148  47.494  1.00  0.00    -0.027 C 
BRANCH   4   5
ATOM      5  C   UNL     1      -0.274  16.651  47.488  1.00  0.00     0.014 C 
BRANCH   5   6
ATOM      6  C   UNL     1      -1.248  15.918  48.447  1.00  0.00     0.004 C 
ATOM      7  C   UNL     1      -2.181  16.867  49.200  1.00  0.00     0.004 C 
ENDBRANCH   5   6
BRANCH   5   8
ATOM      8  C   UNL     1      -0.200  16.051  46.047  1.00  0.00    -0.011 C 
ATOM      9  C   UNL     1       1.227  16.140  45.481  1.00  0.00     0.008 C 
ATOM     10  C   UNL     1      -1.196  16.663  45.049  1.00  0.00     0.008 C 
ENDBRANCH   5   8
ENDBRANCH   4   5
ENDBRANCH   1   3
BRANCH   1  11
ATOM     11  C   UNL     1      -0.533  20.980  49.064  1.00  0.00     0.002 C 
ATOM     12  C   UNL     1      -2.040  21.188  49.036  1.00  0.00     0.005 C 
ATOM     13  C   UNL     1       0.038  22.238  49.782  1.00  0.00    -0.026 C 
ATOM     14  C   UNL     1      -2.349  21.830  50.376  1.00  0.00     0.005 C 
ATOM     15  C   UNL     1      -1.094  22.634  50.788  1.00  0.00    -0.001 C 
ATOM     16  C   UNL     1       0.311  23.409  48.805  1.00  0.00     0.007 C 
ATOM     17  C   UNL     1       1.343  21.858  50.530  1.00  0.00     0.012 C 
ATOM     18  C   UNL     1      -1.408  24.166  50.873  1.00  0.00    -0.004 C 
ATOM     19  C   UNL     1       0.736  24.695  49.528  1.00  0.00     0.005 C 
ATOM     20  C   UNL     1      -0.122  25.035  50.788  1.00  0.00    -0.001 C 
ATOM     21  C   UNL     1      -2.154  24.453  52.191  1.00  0.00     0.004 C 
ATOM     22  C   UNL     1      -0.387  26.588  50.980  1.00  0.00    -0.026 C 
ATOM     23  C   UNL     1      -2.507  25.925  52.316  1.00  0.00     0.004 C 
ATOM     24  C   UNL     1      -1.242  26.813  52.280  1.00  0.00    -0.002 C 
ATOM     25  C   UNL     1      -1.135  27.229  49.762  1.00  0.00     0.010 C 
ATOM     26  C   UNL     1       1.000  27.272  51.156  1.00  0.00     0.012 C 
ATOM     27  C   UNL     1      -1.641  28.297  52.486  1.00  0.00     0.036 C 
ATOM     28  C   UNL     1      -1.525  28.701  49.989  1.00  0.00     0.032 C 
ATOM     29  C   UNL     1      -2.354  28.898  51.262  1.00  0.00     0.114 C 
BRANCH  29  30
ATOM     30  O   UNL     1      -2.558  30.272  51.461  1.00  0.00    -0.393 OA
ATOM     31  H   UNL     1      -2.384  30.718  50.591  1.00  0.00     0.210 HD
ENDBRANCH  29  30
ENDBRANCH   1  11
TORSDOF 6
ENDMDL
