MODEL 1
REMARK VINA RESULT:    -3.816      0.000      0.000
REMARK INTER + INTRA:         -10.143
REMARK INTER:                  -7.385
REMARK INTRA:                  -2.758
REMARK UNBOUND:                -2.758
REMARK SMILES CCCCCCCCCCCCCCCCCC(=O)[O-]
REMARK SMILES IDX 10 1 11 2 12 3 13 4 14 5 15 6 16 7 17 8 18 9 19 10 20 11
REMARK SMILES IDX 9 12 8 13 7 14 6 15 5 16 4 17 3 18 2 19 1 20
REMARK H PARENT
REMARK Flexibility Score: inf
ROOT
ATOM      1  C   UNL     1       3.511   3.969  -3.360  1.00  0.00     0.000 C 
ENDROOT
BRANCH   1   2
ATOM      2  C   UNL     1       2.823   2.874  -4.205  1.00  0.00     0.000 C 
BRANCH   2   3
ATOM      3  C   UNL     1       2.693   3.237  -5.694  1.00  0.00     0.000 C 
BRANCH   3   4
ATOM      4  C   UNL     1       2.713   2.009  -6.614  1.00  0.00     0.000 C 
BRANCH   4   5
ATOM      5  C   UNL     1       2.366   0.733  -5.838  1.00  0.00     0.000 C 
BRANCH   5   6
ATOM      6  C   UNL     1       1.808  -0.346  -6.778  1.00  0.00     0.000 C 
BRANCH   6   7
ATOM      7  C   UNL     1       0.530  -1.010  -6.232  1.00  0.00     0.006 C 
BRANCH   7   8
ATOM      8  C   UNL     1       0.675  -1.589  -4.815  1.00  0.00     0.053 C 
BRANCH   8   9
ATOM      9  C   UNL     1      -0.203  -0.884  -3.828  1.00  0.00     0.041 C 
ATOM     10  O   UNL     1      -0.545  -1.457  -2.760  1.00  0.00    -0.550 OA
ATOM     11  O   UNL     1      -0.675   0.393  -4.104  1.00  0.00    -0.550 OA
ENDBRANCH   8   9
ENDBRANCH   7   8
ENDBRANCH   6   7
ENDBRANCH   5   6
ENDBRANCH   4   5
ENDBRANCH   3   4
ENDBRANCH   2   3
ENDBRANCH   1   2
BRANCH   1  12
ATOM     12  C   UNL     1       3.770   5.250  -4.173  1.00  0.00     0.000 C 
BRANCH  12  13
ATOM     13  C   UNL     1       5.260   5.622  -4.235  1.00  0.00    -0.000 C 
BRANCH  13  14
ATOM     14  C   UNL     1       5.947   5.109  -5.510  1.00  0.00    -0.000 C 
BRANCH  14  15
ATOM     15  C   UNL     1       6.766   3.843  -5.222  1.00  0.00    -0.000 C 
BRANCH  15  16
ATOM     16  C   UNL     1       6.314   2.632  -6.059  1.00  0.00    -0.000 C 
BRANCH  16  17
ATOM     17  C   UNL     1       6.127   1.324  -5.266  1.00  0.00    -0.000 C 
BRANCH  17  18
ATOM     18  C   UNL     1       6.176   1.477  -3.734  1.00  0.00    -0.000 C 
BRANCH  18  19
ATOM     19  C   UNL     1       5.320   0.439  -2.978  1.00  0.00    -0.003 C 
ATOM     20  C   UNL     1       5.003  -0.793  -3.824  1.00  0.00     0.004 C 
ENDBRANCH  18  19
ENDBRANCH  17  18
ENDBRANCH  16  17
ENDBRANCH  15  16
ENDBRANCH  14  15
ENDBRANCH  13  14
ENDBRANCH  12  13
ENDBRANCH   1  12
TORSDOF 16
ENDMDL
MODEL 2
REMARK VINA RESULT:    -3.747      1.535      3.551
REMARK INTER + INTRA:         -10.009
REMARK INTER:                  -7.200
REMARK INTRA:                  -2.809
REMARK UNBOUND:                -2.758
REMARK SMILES CCCCCCCCCCCCCCCCCC(=O)[O-]
REMARK SMILES IDX 10 1 11 2 12 3 13 4 14 5 15 6 16 7 17 8 18 9 19 10 20 11
REMARK SMILES IDX 9 12 8 13 7 14 6 15 5 16 4 17 3 18 2 19 1 20
REMARK H PARENT
REMARK Flexibility Score: inf
ROOT
ATOM      1  C   UNL     1       5.717  -0.049  -3.745  1.00  0.00     0.000 C 
ENDROOT
BRANCH   1   2
ATOM      2  C   UNL     1       4.251  -0.350  -4.128  1.00  0.00     0.000 C 
BRANCH   2   3
ATOM      3  C   UNL     1       3.928  -0.056  -5.602  1.00  0.00     0.000 C 
BRANCH   3   4
ATOM      4  C   UNL     1       2.819   0.991  -5.775  1.00  0.00     0.000 C 
BRANCH   4   5
ATOM      5  C   UNL     1       2.390   1.569  -4.421  1.00  0.00     0.000 C 
BRANCH   5   6
ATOM      6  C   UNL     1       0.861   1.546  -4.273  1.00  0.00     0.000 C 
BRANCH   6   7
ATOM      7  C   UNL     1       0.199   0.429  -5.101  1.00  0.00     0.006 C 
BRANCH   7   8
ATOM      8  C   UNL     1      -0.162  -0.828  -4.292  1.00  0.00     0.053 C 
BRANCH   8   9
ATOM      9  C   UNL     1       0.845  -1.921  -4.476  1.00  0.00     0.041 C 
ATOM     10  O   UNL     1       1.396  -2.451  -3.475  1.00  0.00    -0.550 OA
ATOM     11  O   UNL     1       1.202  -2.330  -5.754  1.00  0.00    -0.550 OA
ENDBRANCH   8   9
ENDBRANCH   7   8
ENDBRANCH   6   7
ENDBRANCH   5   6
ENDBRANCH   4   5
ENDBRANCH   3   4
ENDBRANCH   2   3
ENDBRANCH   1   2
BRANCH   1  12
ATOM     12  C   UNL     1       5.887   1.375  -3.185  1.00  0.00     0.000 C 
BRANCH  12  13
ATOM     13  C   UNL     1       6.799   2.251  -4.057  1.00  0.00    -0.000 C 
BRANCH  13  14
ATOM     14  C   UNL     1       7.119   1.606  -5.415  1.00  0.00    -0.000 C 
BRANCH  14  15
ATOM     15  C   UNL     1       6.509   2.418  -6.567  1.00  0.00    -0.000 C 
BRANCH  15  16
ATOM     16  C   UNL     1       6.018   3.810  -6.126  1.00  0.00    -0.000 C 
BRANCH  16  17
ATOM     17  C   UNL     1       4.542   4.112  -6.443  1.00  0.00    -0.000 C 
BRANCH  17  18
ATOM     18  C   UNL     1       3.809   4.966  -5.391  1.00  0.00    -0.000 C 
BRANCH  18  19
ATOM     19  C   UNL     1       4.729   5.498  -4.271  1.00  0.00    -0.003 C 
ATOM     20  C   UNL     1       3.967   6.277  -3.202  1.00  0.00     0.004 C 
ENDBRANCH  18  19
ENDBRANCH  17  18
ENDBRANCH  16  17
ENDBRANCH  15  16
ENDBRANCH  14  15
ENDBRANCH  13  14
ENDBRANCH  12  13
ENDBRANCH   1  12
TORSDOF 16
ENDMDL
MODEL 3
REMARK VINA RESULT:    -3.720      1.016      1.720
REMARK INTER + INTRA:          -9.958
REMARK INTER:                  -7.196
REMARK INTRA:                  -2.762
REMARK UNBOUND:                -2.758
REMARK SMILES CCCCCCCCCCCCCCCCCC(=O)[O-]
REMARK SMILES IDX 10 1 11 2 12 3 13 4 14 5 15 6 16 7 17 8 18 9 19 10 20 11
REMARK SMILES IDX 9 12 8 13 7 14 6 15 5 16 4 17 3 18 2 19 1 20
REMARK H PARENT
REMARK Flexibility Score: inf
ROOT
ATOM      1  C   UNL     1       3.758   4.962  -4.083  1.00  0.00     0.000 C 
ENDROOT
BRANCH   1   2
ATOM      2  C   UNL     1       3.488   3.559  -3.495  1.00  0.00     0.000 C 
BRANCH   2   3
ATOM      3  C   UNL     1       2.753   2.618  -4.464  1.00  0.00     0.000 C 
BRANCH   3   4
ATOM      4  C   UNL     1       2.510   3.247  -5.843  1.00  0.00     0.000 C 
BRANCH   4   5
ATOM      5  C   UNL     1       2.337   2.168  -6.918  1.00  0.00     0.000 C 
BRANCH   5   6
ATOM      6  C   UNL     1       1.293   1.126  -6.488  1.00  0.00     0.000 C 
BRANCH   6   7
ATOM      7  C   UNL     1       1.731  -0.318  -6.792  1.00  0.00     0.006 C 
BRANCH   7   8
ATOM      8  C   UNL     1       0.863  -1.396  -6.122  1.00  0.00     0.053 C 
BRANCH   8   9
ATOM      9  C   UNL     1       1.101  -1.471  -4.646  1.00  0.00     0.041 C 
ATOM     10  O   UNL     1       2.104  -2.086  -4.196  1.00  0.00    -0.550 OA
ATOM     11  O   UNL     1       0.194  -0.896  -3.765  1.00  0.00    -0.550 OA
ENDBRANCH   8   9
ENDBRANCH   7   8
ENDBRANCH   6   7
ENDBRANCH   5   6
ENDBRANCH   4   5
ENDBRANCH   3   4
ENDBRANCH   2   3
ENDBRANCH   1   2
BRANCH   1  12
ATOM     12  C   UNL     1       5.263   5.256  -4.212  1.00  0.00     0.000 C 
BRANCH  12  13
ATOM     13  C   UNL     1       5.831   4.856  -5.582  1.00  0.00    -0.000 C 
BRANCH  13  14
ATOM     14  C   UNL     1       6.616   3.537  -5.538  1.00  0.00    -0.000 C 
BRANCH  14  15
ATOM     15  C   UNL     1       6.130   2.570  -6.628  1.00  0.00    -0.000 C 
BRANCH  15  16
ATOM     16  C   UNL     1       6.465   1.099  -6.319  1.00  0.00    -0.000 C 
BRANCH  16  17
ATOM     17  C   UNL     1       5.296   0.268  -5.758  1.00  0.00    -0.000 C 
BRANCH  17  18
ATOM     18  C   UNL     1       5.651  -0.632  -4.560  1.00  0.00    -0.000 C 
BRANCH  18  19
ATOM     19  C   UNL     1       5.040  -0.159  -3.224  1.00  0.00    -0.003 C 
ATOM     20  C   UNL     1       5.839   0.972  -2.577  1.00  0.00     0.004 C 
ENDBRANCH  18  19
ENDBRANCH  17  18
ENDBRANCH  16  17
ENDBRANCH  15  16
ENDBRANCH  14  15
ENDBRANCH  13  14
ENDBRANCH  12  13
ENDBRANCH   1  12
TORSDOF 16
ENDMDL
MODEL 4
REMARK VINA RESULT:    -3.692      1.721      3.070
REMARK INTER + INTRA:          -9.903
REMARK INTER:                  -7.093
REMARK INTRA:                  -2.809
REMARK UNBOUND:                -2.758
REMARK SMILES CCCCCCCCCCCCCCCCCC(=O)[O-]
REMARK SMILES IDX 10 1 11 2 12 3 13 4 14 5 15 6 16 7 17 8 18 9 19 10 20 11
REMARK SMILES IDX 9 12 8 13 7 14 6 15 5 16 4 17 3 18 2 19 1 20
REMARK H PARENT
REMARK Flexibility Score: inf
ROOT
ATOM      1  C   UNL     1       4.103   0.959  -4.134  1.00  0.00     0.000 C 
ENDROOT
BRANCH   1   2
ATOM      2  C   UNL     1       4.392   0.634  -5.615  1.00  0.00     0.000 C 
BRANCH   2   3
ATOM      3  C   UNL     1       3.749   1.626  -6.599  1.00  0.00     0.000 C 
BRANCH   3   4
ATOM      4  C   UNL     1       2.273   1.315  -6.886  1.00  0.00     0.000 C 
BRANCH   4   5
ATOM      5  C   UNL     1       1.357   2.395  -6.299  1.00  0.00     0.000 C 
BRANCH   5   6
ATOM      6  C   UNL     1       0.145   1.764  -5.597  1.00  0.00     0.000 C 
BRANCH   6   7
ATOM      7  C   UNL     1       0.541   0.893  -4.390  1.00  0.00     0.006 C 
BRANCH   7   8
ATOM      8  C   UNL     1       0.029  -0.556  -4.462  1.00  0.00     0.053 C 
BRANCH   8   9
ATOM      9  C   UNL     1       1.085  -1.501  -4.945  1.00  0.00     0.041 C 
ATOM     10  O   UNL     1       1.045  -1.949  -6.122  1.00  0.00    -0.550 OA
ATOM     11  O   UNL     1       2.093  -1.918  -4.085  1.00  0.00    -0.550 OA
ENDBRANCH   8   9
ENDBRANCH   7   8
ENDBRANCH   6   7
ENDBRANCH   5   6
ENDBRANCH   4   5
ENDBRANCH   3   4
ENDBRANCH   2   3
ENDBRANCH   1   2
BRANCH   1  12
ATOM     12  C   UNL     1       4.581   2.371  -3.748  1.00  0.00     0.000 C 
BRANCH  12  13
ATOM     13  C   UNL     1       3.419   3.346  -3.507  1.00  0.00    -0.000 C 
BRANCH  13  14
ATOM     14  C   UNL     1       3.782   4.798  -3.854  1.00  0.00    -0.000 C 
BRANCH  14  15
ATOM     15  C   UNL     1       4.618   4.863  -5.141  1.00  0.00    -0.000 C 
BRANCH  15  16
ATOM     16  C   UNL     1       5.930   5.651  -4.965  1.00  0.00    -0.000 C 
BRANCH  16  17
ATOM     17  C   UNL     1       7.179   4.983  -5.570  1.00  0.00    -0.000 C 
BRANCH  17  18
ATOM     18  C   UNL     1       6.923   3.635  -6.270  1.00  0.00    -0.000 C 
BRANCH  18  19
ATOM     19  C   UNL     1       7.651   2.444  -5.612  1.00  0.00    -0.003 C 
ATOM     20  C   UNL     1       8.692   2.884  -4.584  1.00  0.00     0.004 C 
ENDBRANCH  18  19
ENDBRANCH  17  18
ENDBRANCH  16  17
ENDBRANCH  15  16
ENDBRANCH  14  15
ENDBRANCH  13  14
ENDBRANCH  12  13
ENDBRANCH   1  12
TORSDOF 16
ENDMDL
MODEL 5
REMARK VINA RESULT:    -3.614      1.523      3.466
REMARK INTER + INTRA:          -9.753
REMARK INTER:                  -7.061
REMARK INTRA:                  -2.692
REMARK UNBOUND:                -2.758
REMARK SMILES CCCCCCCCCCCCCCCCCC(=O)[O-]
REMARK SMILES IDX 10 1 11 2 12 3 13 4 14 5 15 6 16 7 17 8 18 9 19 10 20 11
REMARK SMILES IDX 9 12 8 13 7 14 6 15 5 16 4 17 3 18 2 19 1 20
REMARK H PARENT
REMARK Flexibility Score: inf
ROOT
ATOM      1  C   UNL     1       4.045   0.188  -4.501  1.00  0.00     0.000 C 
ENDROOT
BRANCH   1   2
ATOM      2  C   UNL     1       3.883   0.270  -6.035  1.00  0.00     0.000 C 
BRANCH   2   3
ATOM      3  C   UNL     1       3.443   1.657  -6.533  1.00  0.00     0.000 C 
BRANCH   3   4
ATOM      4  C   UNL     1       1.985   1.688  -7.012  1.00  0.00     0.000 C 
BRANCH   4   5
ATOM      5  C   UNL     1       1.096   2.448  -6.021  1.00  0.00     0.000 C 
BRANCH   5   6
ATOM      6  C   UNL     1      -0.065   1.566  -5.536  1.00  0.00     0.000 C 
BRANCH   6   7
ATOM      7  C   UNL     1       0.290   0.753  -4.278  1.00  0.00     0.006 C 
BRANCH   7   8
ATOM      8  C   UNL     1      -0.196  -0.706  -4.310  1.00  0.00     0.053 C 
BRANCH   8   9
ATOM      9  C   UNL     1       0.878  -1.645  -4.763  1.00  0.00     0.041 C 
ATOM     10  O   UNL     1       1.061  -1.855  -5.992  1.00  0.00    -0.550 OA
ATOM     11  O   UNL     1       1.653  -2.320  -3.828  1.00  0.00    -0.550 OA
ENDBRANCH   8   9
ENDBRANCH   7   8
ENDBRANCH   6   7
ENDBRANCH   5   6
ENDBRANCH   4   5
ENDBRANCH   3   4
ENDBRANCH   2   3
ENDBRANCH   1   2
BRANCH   1  12
ATOM     12  C   UNL     1       5.507   0.389  -4.063  1.00  0.00     0.000 C 
BRANCH  12  13
ATOM     13  C   UNL     1       6.501   0.237  -5.224  1.00  0.00    -0.000 C 
BRANCH  13  14
ATOM     14  C   UNL     1       7.271   1.533  -5.521  1.00  0.00    -0.000 C 
BRANCH  14  15
ATOM     15  C   UNL     1       6.781   2.680  -4.624  1.00  0.00    -0.000 C 
BRANCH  15  16
ATOM     16  C   UNL     1       6.964   4.066  -5.270  1.00  0.00    -0.000 C 
BRANCH  16  17
ATOM     17  C   UNL     1       5.997   5.154  -4.765  1.00  0.00    -0.000 C 
BRANCH  17  18
ATOM     18  C   UNL     1       4.547   5.023  -5.268  1.00  0.00    -0.000 C 
BRANCH  18  19
ATOM     19  C   UNL     1       3.497   4.994  -4.137  1.00  0.00    -0.003 C 
ATOM     20  C   UNL     1       3.482   3.666  -3.380  1.00  0.00     0.004 C 
ENDBRANCH  18  19
ENDBRANCH  17  18
ENDBRANCH  16  17
ENDBRANCH  15  16
ENDBRANCH  14  15
ENDBRANCH  13  14
ENDBRANCH  12  13
ENDBRANCH   1  12
TORSDOF 16
ENDMDL
MODEL 6
REMARK VINA RESULT:    -3.587      2.654      5.904
REMARK INTER + INTRA:          -9.700
REMARK INTER:                  -6.989
REMARK INTRA:                  -2.711
REMARK UNBOUND:                -2.758
REMARK SMILES CCCCCCCCCCCCCCCCCC(=O)[O-]
REMARK SMILES IDX 10 1 11 2 12 3 13 4 14 5 15 6 16 7 17 8 18 9 19 10 20 11
REMARK SMILES IDX 9 12 8 13 7 14 6 15 5 16 4 17 3 18 2 19 1 20
REMARK H PARENT
REMARK Flexibility Score: inf
ROOT
ATOM      1  C   UNL     1       4.952  -0.841  -4.420  1.00  0.00     0.000 C 
ENDROOT
BRANCH   1   2
ATOM      2  C   UNL     1       5.055  -0.146  -3.045  1.00  0.00     0.000 C 
BRANCH   2   3
ATOM      3  C   UNL     1       5.849   1.170  -3.078  1.00  0.00     0.000 C 
BRANCH   3   4
ATOM      4  C   UNL     1       5.025   2.354  -3.603  1.00  0.00     0.000 C 
BRANCH   4   5
ATOM      5  C   UNL     1       5.857   3.229  -4.548  1.00  0.00     0.000 C 
BRANCH   5   6
ATOM      6  C   UNL     1       5.003   4.358  -5.145  1.00  0.00     0.000 C 
BRANCH   6   7
ATOM      7  C   UNL     1       5.102   5.669  -4.343  1.00  0.00     0.006 C 
BRANCH   7   8
ATOM      8  C   UNL     1       3.908   5.931  -3.410  1.00  0.00     0.053 C 
BRANCH   8   9
ATOM      9  C   UNL     1       2.778   6.608  -4.122  1.00  0.00     0.041 C 
ATOM     10  O   UNL     1       2.390   7.749  -3.755  1.00  0.00    -0.550 OA
ATOM     11  O   UNL     1       2.127   5.963  -5.166  1.00  0.00    -0.550 OA
ENDBRANCH   8   9
ENDBRANCH   7   8
ENDBRANCH   6   7
ENDBRANCH   5   6
ENDBRANCH   4   5
ENDBRANCH   3   4
ENDBRANCH   2   3
ENDBRANCH   1   2
BRANCH   1  12
ATOM     12  C   UNL     1       6.167  -0.536  -5.314  1.00  0.00     0.000 C 
BRANCH  12  13
ATOM     13  C   UNL     1       5.765  -0.069  -6.722  1.00  0.00    -0.000 C 
BRANCH  13  14
ATOM     14  C   UNL     1       4.242   0.029  -6.902  1.00  0.00    -0.000 C 
BRANCH  14  15
ATOM     15  C   UNL     1       3.801   1.491  -7.067  1.00  0.00    -0.000 C 
BRANCH  15  16
ATOM     16  C   UNL     1       2.290   1.689  -6.844  1.00  0.00    -0.000 C 
BRANCH  16  17
ATOM     17  C   UNL     1       1.908   2.336  -5.499  1.00  0.00    -0.000 C 
BRANCH  17  18
ATOM     18  C   UNL     1       1.548   1.344  -4.377  1.00  0.00    -0.000 C 
BRANCH  18  19
ATOM     19  C   UNL     1       0.592   0.217  -4.826  1.00  0.00    -0.003 C 
ATOM     20  C   UNL     1       1.268  -1.152  -4.858  1.00  0.00     0.004 C 
ENDBRANCH  18  19
ENDBRANCH  17  18
ENDBRANCH  16  17
ENDBRANCH  15  16
ENDBRANCH  14  15
ENDBRANCH  13  14
ENDBRANCH  12  13
ENDBRANCH   1  12
TORSDOF 16
ENDMDL
MODEL 7
REMARK VINA RESULT:    -3.514      1.192      3.426
REMARK INTER + INTRA:          -9.558
REMARK INTER:                  -7.204
REMARK INTRA:                  -2.355
REMARK UNBOUND:                -2.758
REMARK SMILES CCCCCCCCCCCCCCCCCC(=O)[O-]
REMARK SMILES IDX 10 1 11 2 12 3 13 4 14 5 15 6 16 7 17 8 18 9 19 10 20 11
REMARK SMILES IDX 9 12 8 13 7 14 6 15 5 16 4 17 3 18 2 19 1 20
REMARK H PARENT
REMARK Flexibility Score: inf
ROOT
ATOM      1  C   UNL     1       5.731   1.675  -3.360  1.00  0.00     0.000 C 
ENDROOT
BRANCH   1   2
ATOM      2  C   UNL     1       5.459   0.156  -3.395  1.00  0.00     0.000 C 
BRANCH   2   3
ATOM      3  C   UNL     1       4.136  -0.217  -4.085  1.00  0.00     0.000 C 
BRANCH   3   4
ATOM      4  C   UNL     1       3.274   1.006  -4.428  1.00  0.00     0.000 C 
BRANCH   4   5
ATOM      5  C   UNL     1       3.189   1.211  -5.946  1.00  0.00     0.000 C 
BRANCH   5   6
ATOM      6  C   UNL     1       1.764   0.945  -6.456  1.00  0.00     0.000 C 
BRANCH   6   7
ATOM      7  C   UNL     1       1.588  -0.477  -7.019  1.00  0.00     0.006 C 
BRANCH   7   8
ATOM      8  C   UNL     1       0.470  -1.290  -6.345  1.00  0.00     0.053 C 
BRANCH   8   9
ATOM      9  C   UNL     1       0.843  -1.716  -4.959  1.00  0.00     0.041 C 
ATOM     10  O   UNL     1       1.565  -2.734  -4.781  1.00  0.00    -0.550 OA
ATOM     11  O   UNL     1       0.363  -1.013  -3.862  1.00  0.00    -0.550 OA
ENDBRANCH   8   9
ENDBRANCH   7   8
ENDBRANCH   6   7
ENDBRANCH   5   6
ENDBRANCH   4   5
ENDBRANCH   3   4
ENDBRANCH   2   3
ENDBRANCH   1   2
BRANCH   1  12
ATOM     12  C   UNL     1       6.923   2.071  -4.249  1.00  0.00     0.000 C 
BRANCH  12  13
ATOM     13  C   UNL     1       6.957   1.296  -5.575  1.00  0.00    -0.000 C 
BRANCH  13  14
ATOM     14  C   UNL     1       7.080   2.217  -6.798  1.00  0.00    -0.000 C 
BRANCH  14  15
ATOM     15  C   UNL     1       6.037   3.344  -6.745  1.00  0.00    -0.000 C 
BRANCH  15  16
ATOM     16  C   UNL     1       6.657   4.743  -6.919  1.00  0.00    -0.000 C 
BRANCH  16  17
ATOM     17  C   UNL     1       6.009   5.854  -6.071  1.00  0.00    -0.000 C 
BRANCH  17  18
ATOM     18  C   UNL     1       5.782   5.496  -4.590  1.00  0.00    -0.000 C 
BRANCH  18  19
ATOM     19  C   UNL     1       4.361   5.821  -4.082  1.00  0.00    -0.003 C 
ATOM     20  C   UNL     1       3.614   4.583  -3.588  1.00  0.00     0.004 C 
ENDBRANCH  18  19
ENDBRANCH  17  18
ENDBRANCH  16  17
ENDBRANCH  15  16
ENDBRANCH  14  15
ENDBRANCH  13  14
ENDBRANCH  12  13
ENDBRANCH   1  12
TORSDOF 16
ENDMDL
MODEL 8
REMARK VINA RESULT:    -3.369      2.357      4.334
REMARK INTER + INTRA:          -9.278
REMARK INTER:                  -6.539
REMARK INTRA:                  -2.739
REMARK UNBOUND:                -2.758
REMARK SMILES CCCCCCCCCCCCCCCCCC(=O)[O-]
REMARK SMILES IDX 10 1 11 2 12 3 13 4 14 5 15 6 16 7 17 8 18 9 19 10 20 11
REMARK SMILES IDX 9 12 8 13 7 14 6 15 5 16 4 17 3 18 2 19 1 20
REMARK H PARENT
REMARK Flexibility Score: inf
ROOT
ATOM      1  C   UNL     1       3.506   4.209  -3.375  1.00  0.00     0.000 C 
ENDROOT
BRANCH   1   2
ATOM      2  C   UNL     1       4.482   3.060  -3.708  1.00  0.00     0.000 C 
BRANCH   2   3
ATOM      3  C   UNL     1       5.575   3.454  -4.715  1.00  0.00     0.000 C 
BRANCH   3   4
ATOM      4  C   UNL     1       6.889   2.689  -4.504  1.00  0.00     0.000 C 
BRANCH   4   5
ATOM      5  C   UNL     1       7.292   1.924  -5.770  1.00  0.00     0.000 C 
BRANCH   5   6
ATOM      6  C   UNL     1       6.069   1.647  -6.656  1.00  0.00     0.000 C 
BRANCH   6   7
ATOM      7  C   UNL     1       5.595   0.184  -6.579  1.00  0.00     0.006 C 
BRANCH   7   8
ATOM      8  C   UNL     1       4.442  -0.056  -5.591  1.00  0.00     0.053 C 
BRANCH   8   9
ATOM      9  C   UNL     1       4.914  -0.691  -4.320  1.00  0.00     0.041 C 
ATOM     10  O   UNL     1       6.145  -0.870  -4.120  1.00  0.00    -0.550 OA
ATOM     11  O   UNL     1       3.994  -1.119  -3.372  1.00  0.00    -0.550 OA
ENDBRANCH   8   9
ENDBRANCH   7   8
ENDBRANCH   6   7
ENDBRANCH   5   6
ENDBRANCH   4   5
ENDBRANCH   3   4
ENDBRANCH   2   3
ENDBRANCH   1   2
BRANCH   1  12
ATOM     12  C   UNL     1       3.976   5.554  -3.957  1.00  0.00     0.000 C 
BRANCH  12  13
ATOM     13  C   UNL     1       2.904   6.233  -4.824  1.00  0.00    -0.000 C 
BRANCH  13  14
ATOM     14  C   UNL     1       3.345   6.406  -6.285  1.00  0.00    -0.000 C 
BRANCH  14  15
ATOM     15  C   UNL     1       3.430   5.049  -6.999  1.00  0.00    -0.000 C 
BRANCH  15  16
ATOM     16  C   UNL     1       2.101   4.271  -6.969  1.00  0.00    -0.000 C 
BRANCH  16  17
ATOM     17  C   UNL     1       2.215   2.802  -6.520  1.00  0.00    -0.000 C 
BRANCH  17  18
ATOM     18  C   UNL     1       0.952   2.223  -5.855  1.00  0.00    -0.000 C 
BRANCH  18  19
ATOM     19  C   UNL     1       1.244   1.379  -4.596  1.00  0.00    -0.003 C 
ATOM     20  C   UNL     1       0.029   0.582  -4.125  1.00  0.00     0.004 C 
ENDBRANCH  18  19
ENDBRANCH  17  18
ENDBRANCH  16  17
ENDBRANCH  15  16
ENDBRANCH  14  15
ENDBRANCH  13  14
ENDBRANCH  12  13
ENDBRANCH   1  12
TORSDOF 16
ENDMDL
MODEL 9
REMARK VINA RESULT:    -3.364      1.684      3.903
REMARK INTER + INTRA:          -9.268
REMARK INTER:                  -6.661
REMARK INTRA:                  -2.607
REMARK UNBOUND:                -2.758
REMARK SMILES CCCCCCCCCCCCCCCCCC(=O)[O-]
REMARK SMILES IDX 10 1 11 2 12 3 13 4 14 5 15 6 16 7 17 8 18 9 19 10 20 11
REMARK SMILES IDX 9 12 8 13 7 14 6 15 5 16 4 17 3 18 2 19 1 20
REMARK H PARENT
REMARK Flexibility Score: inf
ROOT
ATOM      1  C   UNL     1       5.098   0.171  -3.111  1.00  0.00     0.000 C 
ENDROOT
BRANCH   1   2
ATOM      2  C   UNL     1       5.570   1.616  -3.386  1.00  0.00     0.000 C 
BRANCH   2   3
ATOM      3  C   UNL     1       4.417   2.627  -3.504  1.00  0.00     0.000 C 
BRANCH   3   4
ATOM      4  C   UNL     1       4.070   2.973  -4.958  1.00  0.00     0.000 C 
BRANCH   4   5
ATOM      5  C   UNL     1       2.718   2.373  -5.360  1.00  0.00     0.000 C 
BRANCH   5   6
ATOM      6  C   UNL     1       2.001   1.771  -4.142  1.00  0.00     0.000 C 
BRANCH   6   7
ATOM      7  C   UNL     1       0.683   1.067  -4.513  1.00  0.00     0.006 C 
BRANCH   7   8
ATOM      8  C   UNL     1       0.837  -0.056  -5.553  1.00  0.00     0.053 C 
BRANCH   8   9
ATOM      9  C   UNL     1       0.850  -1.412  -4.918  1.00  0.00     0.041 C 
ATOM     10  O   UNL     1       1.208  -2.420  -5.582  1.00  0.00    -0.550 OA
ATOM     11  O   UNL     1       0.430  -1.568  -3.603  1.00  0.00    -0.550 OA
ENDBRANCH   8   9
ENDBRANCH   7   8
ENDBRANCH   6   7
ENDBRANCH   5   6
ENDBRANCH   4   5
ENDBRANCH   3   4
ENDBRANCH   2   3
ENDBRANCH   1   2
BRANCH   1  12
ATOM     12  C   UNL     1       5.491  -0.792  -4.245  1.00  0.00     0.000 C 
BRANCH  12  13
ATOM     13  C   UNL     1       4.743  -0.502  -5.555  1.00  0.00    -0.000 C 
BRANCH  13  14
ATOM     14  C   UNL     1       5.678  -0.040  -6.683  1.00  0.00    -0.000 C 
BRANCH  14  15
ATOM     15  C   UNL     1       7.111  -0.543  -6.449  1.00  0.00    -0.000 C 
BRANCH  15  16
ATOM     16  C   UNL     1       8.161   0.581  -6.525  1.00  0.00    -0.000 C 
BRANCH  16  17
ATOM     17  C   UNL     1       7.592   2.011  -6.458  1.00  0.00    -0.000 C 
BRANCH  17  18
ATOM     18  C   UNL     1       8.210   2.910  -5.371  1.00  0.00    -0.000 C 
BRANCH  18  19
ATOM     19  C   UNL     1       8.121   4.418  -5.686  1.00  0.00    -0.003 C 
ATOM     20  C   UNL     1       6.980   5.110  -4.942  1.00  0.00     0.004 C 
ENDBRANCH  18  19
ENDBRANCH  17  18
ENDBRANCH  16  17
ENDBRANCH  15  16
ENDBRANCH  14  15
ENDBRANCH  13  14
ENDBRANCH  12  13
ENDBRANCH   1  12
TORSDOF 16
ENDMDL
