MODEL 1
REMARK VINA RESULT:    28.907      0.000      0.000
REMARK INTER + INTRA:          33.743
REMARK INTER:                  33.977
REMARK INTRA:                  -0.234
REMARK UNBOUND:                -0.234
REMARK SMILES O=c1c(O)c(-c2ccc(O)c(O)c2)oc2cc(O)ccc12
REMARK SMILES IDX 5 1 3 2 2 3 1 4 21 5 15 6 14 7 16 8 17 9 19 10 20 11 6 12
REMARK SMILES IDX 7 13 8 14 9 15 13 16 11 17 10 18 12 20 4 22 18 24
REMARK H PARENT 10 19 12 21 4 23 18 25
REMARK Flexibility Score: inf
ROOT
ATOM      1  C   UNL     1       9.722   2.217   8.373  1.00  0.00     0.180 A 
ATOM      2  C   UNL     1       9.673   3.506   7.802  1.00  0.00     0.208 A 
ATOM      3  C   UNL     1      10.645   3.865   6.856  1.00  0.00     0.235 A 
ATOM      4  O   UNL     1      10.627   5.016   6.340  1.00  0.00    -0.285 OA
ATOM      5  C   UNL     1      11.625   2.931   6.485  1.00  0.00     0.069 A 
ATOM      6  C   UNL     1      11.592   1.653   7.084  1.00  0.00     0.142 A 
ATOM      7  O   UNL     1      10.661   1.356   7.982  1.00  0.00    -0.452 OA
ATOM      8  C   UNL     1      12.546   0.692   6.733  1.00  0.00     0.094 A 
ATOM      9  C   UNL     1      13.537   0.991   5.791  1.00  0.00     0.119 A 
ATOM     10  C   UNL     1      13.573   2.258   5.196  1.00  0.00     0.047 A 
ATOM     11  C   UNL     1      12.624   3.226   5.538  1.00  0.00     0.020 A 
ENDROOT
BRANCH   1  12
ATOM     12  C   UNL     1       8.745   1.769   9.391  1.00  0.00     0.025 A 
ATOM     13  C   UNL     1       7.412   1.484   9.051  1.00  0.00     0.016 A 
ATOM     14  C   UNL     1       6.501   1.086  10.033  1.00  0.00     0.051 A 
ATOM     15  C   UNL     1       6.906   0.979  11.369  1.00  0.00     0.157 A 
ATOM     16  C   UNL     1       9.140   1.681  10.736  1.00  0.00     0.062 A 
ATOM     17  C   UNL     1       8.227   1.281  11.722  1.00  0.00     0.158 A 
BRANCH  15  18
ATOM     18  O   UNL     1       6.002   0.581  12.352  1.00  0.00    -0.504 OA
ATOM     19  H   UNL     1       5.901  -0.392  12.617  1.00  0.00     0.293 HD
ENDBRANCH  15  18
BRANCH  17  20
ATOM     20  O   UNL     1       8.626   1.182  13.054  1.00  0.00    -0.504 OA
ATOM     21  H   UNL     1       9.596   1.286  13.326  1.00  0.00     0.293 HD
ENDBRANCH  17  20
ENDBRANCH   1  12
BRANCH   2  22
ATOM     22  O   UNL     1       8.656   4.397   8.155  1.00  0.00    -0.502 OA
ATOM     23  H   UNL     1       7.677   4.192   7.996  1.00  0.00     0.293 HD
ENDBRANCH   2  22
BRANCH   9  24
ATOM     24  O   UNL     1      14.478   0.021   5.454  1.00  0.00    -0.508 OA
ATOM     25  H   UNL     1      14.750  -0.703   6.107  1.00  0.00     0.293 HD
ENDBRANCH   9  24
TORSDOF 5
ENDMDL
MODEL 2
REMARK VINA RESULT:    29.603      4.525      7.090
REMARK INTER + INTRA:          34.561
REMARK INTER:                  34.775
REMARK INTRA:                  -0.214
REMARK UNBOUND:                -0.234
REMARK SMILES O=c1c(O)c(-c2ccc(O)c(O)c2)oc2cc(O)ccc12
REMARK SMILES IDX 5 1 3 2 2 3 1 4 21 5 15 6 14 7 16 8 17 9 19 10 20 11 6 12
REMARK SMILES IDX 7 13 8 14 9 15 13 16 11 17 10 18 12 20 4 22 18 24
REMARK H PARENT 10 19 12 21 4 23 18 25
REMARK Flexibility Score: inf
ROOT
ATOM      1  C   UNL     1      14.757   2.975   8.317  1.00  0.00     0.180 A 
ATOM      2  C   UNL     1      14.801   1.709   7.696  1.00  0.00     0.208 A 
ATOM      3  C   UNL     1      13.794   1.369   6.781  1.00  0.00     0.235 A 
ATOM      4  O   UNL     1      13.807   0.238   6.221  1.00  0.00    -0.285 OA
ATOM      5  C   UNL     1      12.782   2.297   6.490  1.00  0.00     0.069 A 
ATOM      6  C   UNL     1      12.821   3.553   7.135  1.00  0.00     0.142 A 
ATOM      7  O   UNL     1      13.787   3.833   8.002  1.00  0.00    -0.452 OA
ATOM      8  C   UNL     1      11.837   4.509   6.865  1.00  0.00     0.094 A 
ATOM      9  C   UNL     1      10.810   4.228   5.957  1.00  0.00     0.119 A 
ATOM     10  C   UNL     1      10.767   2.983   5.316  1.00  0.00     0.047 A 
ATOM     11  C   UNL     1      11.747   2.020   5.578  1.00  0.00     0.020 A 
ENDROOT
BRANCH   1  12
ATOM     12  C   UNL     1      15.772   3.402   9.307  1.00  0.00     0.025 A 
ATOM     13  C   UNL     1      17.094   3.685   8.925  1.00  0.00     0.016 A 
ATOM     14  C   UNL     1      18.041   4.063   9.880  1.00  0.00     0.051 A 
ATOM     15  C   UNL     1      17.683   4.151  11.232  1.00  0.00     0.157 A 
ATOM     16  C   UNL     1      15.424   3.471  10.666  1.00  0.00     0.062 A 
ATOM     17  C   UNL     1      16.374   3.852  11.626  1.00  0.00     0.158 A 
BRANCH  15  18
ATOM     18  O   UNL     1      18.624   4.529  12.188  1.00  0.00    -0.504 OA
ATOM     19  H   UNL     1      19.145   5.394  12.105  1.00  0.00     0.293 HD
ENDBRANCH  15  18
BRANCH  17  20
ATOM     20  O   UNL     1      16.022   3.933  12.972  1.00  0.00    -0.504 OA
ATOM     21  H   UNL     1      16.057   3.123  13.579  1.00  0.00     0.293 HD
ENDBRANCH  17  20
ENDBRANCH   1  12
BRANCH   2  22
ATOM     22  O   UNL     1      15.848   0.824   7.969  1.00  0.00    -0.502 OA
ATOM     23  H   UNL     1      15.687  -0.141   8.229  1.00  0.00     0.293 HD
ENDBRANCH   2  22
BRANCH   9  24
ATOM     24  O   UNL     1       9.838   5.192   5.700  1.00  0.00    -0.508 OA
ATOM     25  H   UNL     1       9.279   5.168   4.855  1.00  0.00     0.293 HD
ENDBRANCH   9  24
TORSDOF 5
ENDMDL
