MODEL 1
REMARK VINA RESULT:    -3.760      0.000      0.000
REMARK INTER + INTRA:          -4.868
REMARK INTER:                  -5.078
REMARK INTRA:                   0.211
REMARK UNBOUND:                 0.211
REMARK SMILES C=C1CCC=C(C)CC[C@H]2[C@@H]1CC2(C)C
REMARK SMILES IDX 11 1 12 2 13 3 10 4 14 5 15 6 9 7 8 8 6 9 7 10 5 11 2 13
REMARK SMILES IDX 1 14 3 15 4 16
REMARK H PARENT
REMARK Flexibility Score: 70.00
ROOT
ATOM      1  C   UNL     1     134.191 134.436 131.101  1.00  0.00     0.018 C 
ATOM      2  C   UNL     1     133.025 134.851 130.197  1.00  0.00     0.015 C 
ATOM      3  C   UNL     1     134.016 135.169 129.061  1.00  0.00    -0.031 C 
ATOM      4  C   UNL     1     135.201 134.801 129.997  1.00  0.00     0.002 C 
ATOM      5  C   UNL     1     133.917 136.631 128.576  1.00  0.00     0.011 C 
ATOM      6  C   UNL     1     133.883 134.191 127.880  1.00  0.00     0.011 C 
ENDROOT
BRANCH   4   7
ATOM      7  C   UNL     1     136.261 135.906 130.266  1.00  0.00     0.009 C 
BRANCH   7   8
ATOM      8  C   UNL     1     137.724 135.427 130.411  1.00  0.00     0.030 C 
BRANCH   8   9
ATOM      9  C   UNL     1     137.894 134.107 131.145  1.00  0.00    -0.077 C 
ATOM     10  C   UNL     1     138.624 132.991 130.446  1.00  0.00     0.039 C 
ATOM     11  C   UNL     1     137.427 133.884 132.398  1.00  0.00    -0.028 CG0
ATOM     12  G   UNL     1     136.694 134.889 133.262  1.00  0.00     0.000 G0
ENDBRANCH   8   9
ENDBRANCH   7   8
ENDBRANCH   4   7
BRANCH   1  13
ATOM     13  C   UNL     1     134.296 135.135 132.454  1.00  0.00    -0.074 C 
ATOM     14  C   UNL     1     133.606 136.250 132.754  1.00  0.00     0.008 C 
BRANCH  13  15
ATOM     15  C   UNL     1     135.213 134.531 133.495  1.00  0.00     0.035 C 
BRANCH  15  16
ATOM     16  C   UNL     1     136.687 134.899 133.270  1.00  0.00     0.032 CG0
ATOM     17  G   UNL     1     137.414 133.891 132.404  1.00  0.00     0.000 G0
ENDBRANCH  15  16
ENDBRANCH  13  15
ENDBRANCH   1  13
TORSDOF 0
ENDMDL
MODEL 2
REMARK VINA RESULT:    -3.750      2.757      4.214
REMARK INTER + INTRA:          -4.855
REMARK INTER:                  -5.020
REMARK INTRA:                   0.165
REMARK UNBOUND:                 0.211
REMARK SMILES C=C1CCC=C(C)CC[C@H]2[C@@H]1CC2(C)C
REMARK SMILES IDX 11 1 12 2 13 3 10 4 14 5 15 6 9 7 8 8 6 9 7 10 5 11 2 13
REMARK SMILES IDX 1 14 3 15 4 16
REMARK H PARENT
REMARK Flexibility Score: 70.00
ROOT
ATOM      1  C   UNL     1     134.286 139.203 131.227  1.00  0.00     0.018 C 
ATOM      2  C   UNL     1     134.757 140.399 130.392  1.00  0.00     0.015 C 
ATOM      3  C   UNL     1     135.206 139.442 129.271  1.00  0.00    -0.031 C 
ATOM      4  C   UNL     1     134.778 138.227 130.141  1.00  0.00     0.002 C 
ATOM      5  C   UNL     1     136.704 139.583 128.930  1.00  0.00     0.011 C 
ATOM      6  C   UNL     1     134.341 139.581 128.004  1.00  0.00     0.011 C 
ENDROOT
BRANCH   4   7
ATOM      7  C   UNL     1     135.878 137.186 130.492  1.00  0.00     0.009 C 
BRANCH   7   8
ATOM      8  C   UNL     1     135.390 135.742 130.755  1.00  0.00     0.030 C 
BRANCH   8   9
ATOM      9  C   UNL     1     133.949 135.630 131.223  1.00  0.00    -0.077 C 
ATOM     10  C   UNL     1     132.948 134.984 130.302  1.00  0.00     0.039 C 
ATOM     11  C   UNL     1     133.519 136.077 132.429  1.00  0.00    -0.028 CG0
ATOM     12  G   UNL     1     134.379 136.728 133.491  1.00  0.00     0.000 G0
ENDBRANCH   8   9
ENDBRANCH   7   8
ENDBRANCH   4   7
BRANCH   1  13
ATOM     13  C   UNL     1     134.856 139.082 132.637  1.00  0.00    -0.074 C 
ATOM     14  C   UNL     1     135.993 139.691 133.019  1.00  0.00     0.008 C 
BRANCH  13  15
ATOM     15  C   UNL     1     134.093 138.244 133.641  1.00  0.00     0.035 C 
BRANCH  15  16
ATOM     16  C   UNL     1     134.380 136.742 133.496  1.00  0.00     0.032 CG0
ATOM     17  G   UNL     1     133.534 136.087 132.425  1.00  0.00     0.000 G0
ENDBRANCH  15  16
ENDBRANCH  13  15
ENDBRANCH   1  13
TORSDOF 0
ENDMDL
MODEL 3
REMARK VINA RESULT:    -3.704      3.054      4.535
REMARK INTER + INTRA:          -4.793
REMARK INTER:                  -5.022
REMARK INTRA:                   0.229
REMARK UNBOUND:                 0.211
REMARK SMILES C=C1CCC=C(C)CC[C@H]2[C@@H]1CC2(C)C
REMARK SMILES IDX 11 1 12 2 13 3 10 4 14 5 15 6 9 7 8 8 6 9 7 10 5 11 2 13
REMARK SMILES IDX 1 14 3 15 4 16
REMARK H PARENT
REMARK Flexibility Score: 70.00
ROOT
ATOM      1  C   UNL     1     139.499 134.522 131.248  1.00  0.00     0.018 C 
ATOM      2  C   UNL     1     139.122 133.273 130.444  1.00  0.00     0.015 C 
ATOM      3  C   UNL     1     138.686 134.161 129.263  1.00  0.00    -0.031 C 
ATOM      4  C   UNL     1     139.017 135.429 130.099  1.00  0.00     0.002 C 
ATOM      5  C   UNL     1     137.214 133.936 128.859  1.00  0.00     0.011 C 
ATOM      6  C   UNL     1     139.617 134.010 128.045  1.00  0.00     0.011 C 
ENDROOT
BRANCH   4   7
ATOM      7  C   UNL     1     137.857 136.432 130.353  1.00  0.00     0.009 C 
BRANCH   7   8
ATOM      8  C   UNL     1     138.272 137.873 130.731  1.00  0.00     0.030 C 
BRANCH   8   9
ATOM      9  C   UNL     1     139.717 138.025 131.176  1.00  0.00    -0.077 C 
ATOM     10  C   UNL     1     140.696 138.647 130.216  1.00  0.00     0.039 C 
ATOM     11  C   UNL     1     140.169 137.635 132.393  1.00  0.00    -0.028 CG0
ATOM     12  G   UNL     1     139.331 137.015 133.492  1.00  0.00     0.000 G0
ENDBRANCH   8   9
ENDBRANCH   7   8
ENDBRANCH   4   7
BRANCH   1  13
ATOM     13  C   UNL     1     138.856 134.675 132.624  1.00  0.00    -0.074 C 
ATOM     14  C   UNL     1     137.683 134.103 132.949  1.00  0.00     0.008 C 
BRANCH  13  15
ATOM     15  C   UNL     1     139.586 135.503 133.660  1.00  0.00     0.035 C 
BRANCH  15  16
ATOM     16  C   UNL     1     139.332 137.008 133.500  1.00  0.00     0.032 CG0
ATOM     17  G   UNL     1     140.160 137.627 132.394  1.00  0.00     0.000 G0
ENDBRANCH  15  16
ENDBRANCH  13  15
ENDBRANCH   1  13
TORSDOF 0
ENDMDL
MODEL 4
REMARK VINA RESULT:    -3.684      3.739      4.839
REMARK INTER + INTRA:          -4.765
REMARK INTER:                  -4.756
REMARK INTRA:                  -0.009
REMARK UNBOUND:                 0.211
REMARK SMILES C=C1CCC=C(C)CC[C@H]2[C@@H]1CC2(C)C
REMARK SMILES IDX 11 1 12 2 13 3 10 4 14 5 15 6 9 7 8 8 6 9 7 10 5 11 2 13
REMARK SMILES IDX 1 14 3 15 4 16
REMARK H PARENT
REMARK Flexibility Score: 70.00
ROOT
ATOM      1  C   UNL     1     135.025 139.049 132.302  1.00  0.00     0.018 C 
ATOM      2  C   UNL     1     133.618 138.497 132.050  1.00  0.00     0.015 C 
ATOM      3  C   UNL     1     134.195 137.073 131.930  1.00  0.00    -0.031 C 
ATOM      4  C   UNL     1     135.628 137.641 132.130  1.00  0.00     0.002 C 
ATOM      5  C   UNL     1     133.873 136.412 130.573  1.00  0.00     0.011 C 
ATOM      6  C   UNL     1     133.761 136.167 133.097  1.00  0.00     0.011 C 
ENDROOT
BRANCH   4   7
ATOM      7  C   UNL     1     136.657 137.384 130.994  1.00  0.00     0.009 C 
BRANCH   7   8
ATOM      8  C   UNL     1     138.146 137.367 131.414  1.00  0.00     0.030 C 
BRANCH   8   9
ATOM      9  C   UNL     1     138.962 138.548 130.916  1.00  0.00    -0.077 C 
ATOM     10  C   UNL     1     140.000 138.299 129.854  1.00  0.00     0.039 C 
ATOM     11  C   UNL     1     138.802 139.813 131.374  1.00  0.00    -0.028 CG0
ATOM     12  G   UNL     1     137.798 140.257 132.418  1.00  0.00     0.000 G0
ENDBRANCH   8   9
ENDBRANCH   7   8
ENDBRANCH   4   7
BRANCH   1  13
ATOM     13  C   UNL     1     135.500 140.169 131.381  1.00  0.00    -0.074 C 
ATOM     14  C   UNL     1     134.959 140.397 130.171  1.00  0.00     0.008 C 
BRANCH  13  15
ATOM     15  C   UNL     1     136.624 141.059 131.867  1.00  0.00     0.035 C 
BRANCH  15  16
ATOM     16  C   UNL     1     137.802 140.261 132.444  1.00  0.00     0.032 CG0
ATOM     17  G   UNL     1     138.788 139.825 131.381  1.00  0.00     0.000 G0
ENDBRANCH  15  16
ENDBRANCH  13  15
ENDBRANCH   1  13
TORSDOF 0
ENDMDL
MODEL 5
REMARK VINA RESULT:    -3.670      3.457      5.189
REMARK INTER + INTRA:          -4.747
REMARK INTER:                  -4.710
REMARK INTRA:                  -0.037
REMARK UNBOUND:                 0.211
REMARK SMILES C=C1CCC=C(C)CC[C@H]2[C@@H]1CC2(C)C
REMARK SMILES IDX 11 1 12 2 13 3 10 4 14 5 15 6 9 7 8 8 6 9 7 10 5 11 2 13
REMARK SMILES IDX 1 14 3 15 4 16
REMARK H PARENT
REMARK Flexibility Score: 70.00
ROOT
ATOM      1  C   UNL     1     139.032 138.786 132.377  1.00  0.00     0.018 C 
ATOM      2  C   UNL     1     138.520 140.213 132.153  1.00  0.00     0.015 C 
ATOM      3  C   UNL     1     137.072 139.689 132.104  1.00  0.00    -0.031 C 
ATOM      4  C   UNL     1     137.597 138.235 132.276  1.00  0.00     0.002 C 
ATOM      5  C   UNL     1     136.356 140.037 130.783  1.00  0.00     0.011 C 
ATOM      6  C   UNL     1     136.242 140.153 133.316  1.00  0.00     0.011 C 
ENDROOT
BRANCH   4   7
ATOM      7  C   UNL     1     137.246 137.219 131.154  1.00  0.00     0.009 C 
BRANCH   7   8
ATOM      8  C   UNL     1     137.276 135.725 131.554  1.00  0.00     0.030 C 
BRANCH   8   9
ATOM      9  C   UNL     1     138.416 134.925 130.948  1.00  0.00    -0.077 C 
ATOM     10  C   UNL     1     138.100 133.968 129.829  1.00  0.00     0.039 C 
ATOM     11  C   UNL     1     139.704 135.031 131.357  1.00  0.00    -0.028 CG0
ATOM     12  G   UNL     1     140.214 135.952 132.446  1.00  0.00     0.000 G0
ENDBRANCH   8   9
ENDBRANCH   7   8
ENDBRANCH   4   7
BRANCH   1  13
ATOM     13  C   UNL     1     140.087 138.272 131.401  1.00  0.00    -0.074 C 
ATOM     14  C   UNL     1     140.237 138.771 130.161  1.00  0.00     0.008 C 
BRANCH  13  15
ATOM     15  C   UNL     1     141.001 137.159 131.866  1.00  0.00     0.035 C 
BRANCH  15  16
ATOM     16  C   UNL     1     140.231 135.961 132.439  1.00  0.00     0.032 CG0
ATOM     17  G   UNL     1     139.713 135.031 131.362  1.00  0.00     0.000 G0
ENDBRANCH  15  16
ENDBRANCH  13  15
ENDBRANCH   1  13
TORSDOF 0
ENDMDL
MODEL 6
REMARK VINA RESULT:    -3.643      4.376      6.422
REMARK INTER + INTRA:          -4.710
REMARK INTER:                  -4.696
REMARK INTRA:                  -0.014
REMARK UNBOUND:                 0.211
REMARK SMILES C=C1CCC=C(C)CC[C@H]2[C@@H]1CC2(C)C
REMARK SMILES IDX 11 1 12 2 13 3 10 4 14 5 15 6 9 7 8 8 6 9 7 10 5 11 2 13
REMARK SMILES IDX 1 14 3 15 4 16
REMARK H PARENT
REMARK Flexibility Score: 70.00
ROOT
ATOM      1  C   UNL     1     138.608 139.195 132.187  1.00  0.00     0.018 C 
ATOM      2  C   UNL     1     139.553 138.062 132.601  1.00  0.00     0.015 C 
ATOM      3  C   UNL     1     139.877 137.788 131.119  1.00  0.00    -0.031 C 
ATOM      4  C   UNL     1     138.877 138.901 130.699  1.00  0.00     0.002 C 
ATOM      5  C   UNL     1     139.553 136.340 130.696  1.00  0.00     0.011 C 
ATOM      6  C   UNL     1     141.332 138.150 130.764  1.00  0.00     0.011 C 
ENDROOT
BRANCH   4   7
ATOM      7  C   UNL     1     137.697 138.481 129.778  1.00  0.00     0.009 C 
BRANCH   7   8
ATOM      8  C   UNL     1     137.081 139.601 128.906  1.00  0.00     0.030 C 
BRANCH   8   9
ATOM      9  C   UNL     1     135.687 140.039 129.322  1.00  0.00    -0.077 C 
ATOM     10  C   UNL     1     134.526 139.645 128.449  1.00  0.00     0.039 C 
ATOM     11  C   UNL     1     135.434 140.762 130.441  1.00  0.00    -0.028 CG0
ATOM     12  G   UNL     1     136.466 141.227 131.447  1.00  0.00     0.000 G0
ENDBRANCH   8   9
ENDBRANCH   7   8
ENDBRANCH   4   7
BRANCH   1  13
ATOM     13  C   UNL     1     137.174 139.119 132.703  1.00  0.00    -0.074 C 
ATOM     14  C   UNL     1     136.605 137.969 133.107  1.00  0.00     0.008 C 
BRANCH  13  15
ATOM     15  C   UNL     1     136.374 140.402 132.767  1.00  0.00     0.035 C 
BRANCH  15  16
ATOM     16  C   UNL     1     136.455 141.215 131.467  1.00  0.00     0.032 CG0
ATOM     17  G   UNL     1     135.438 140.769 130.436  1.00  0.00     0.000 G0
ENDBRANCH  15  16
ENDBRANCH  13  15
ENDBRANCH   1  13
TORSDOF 0
ENDMDL
MODEL 7
REMARK VINA RESULT:    -3.584      3.926      5.983
REMARK INTER + INTRA:          -4.631
REMARK INTER:                  -4.826
REMARK INTRA:                   0.195
REMARK UNBOUND:                 0.211
REMARK SMILES C=C1CCC=C(C)CC[C@H]2[C@@H]1CC2(C)C
REMARK SMILES IDX 11 1 12 2 13 3 10 4 14 5 15 6 9 7 8 8 6 9 7 10 5 11 2 13
REMARK SMILES IDX 1 14 3 15 4 16
REMARK H PARENT
REMARK Flexibility Score: 70.00
ROOT
ATOM      1  C   UNL     1     139.449 139.137 131.312  1.00  0.00     0.018 C 
ATOM      2  C   UNL     1     140.672 138.835 130.439  1.00  0.00     0.015 C 
ATOM      3  C   UNL     1     139.746 138.417 129.281  1.00  0.00    -0.031 C 
ATOM      4  C   UNL     1     138.507 138.670 130.186  1.00  0.00     0.002 C 
ATOM      5  C   UNL     1     139.999 136.970 128.807  1.00  0.00     0.011 C 
ATOM      6  C   UNL     1     139.811 139.400 128.097  1.00  0.00     0.011 C 
ENDROOT
BRANCH   4   7
ATOM      7  C   UNL     1     137.554 137.468 130.435  1.00  0.00     0.009 C 
BRANCH   7   8
ATOM      8  C   UNL     1     136.096 137.820 130.812  1.00  0.00     0.030 C 
BRANCH   8   9
ATOM      9  C   UNL     1     135.902 139.220 131.368  1.00  0.00    -0.077 C 
ATOM     10  C   UNL     1     135.189 140.234 130.513  1.00  0.00     0.039 C 
ATOM     11  C   UNL     1     136.331 139.603 132.596  1.00  0.00    -0.028 CG0
ATOM     12  G   UNL     1     137.042 138.720 133.600  1.00  0.00     0.000 G0
ENDBRANCH   8   9
ENDBRANCH   7   8
ENDBRANCH   4   7
BRANCH   1  13
ATOM     13  C   UNL     1     139.379 138.434 132.665  1.00  0.00    -0.074 C 
ATOM     14  C   UNL     1     140.042 137.294 132.930  1.00  0.00     0.008 C 
BRANCH  13  15
ATOM     15  C   UNL     1     138.532 139.065 133.749  1.00  0.00     0.035 C 
BRANCH  15  16
ATOM     16  C   UNL     1     137.042 138.720 133.610  1.00  0.00     0.032 CG0
ATOM     17  G   UNL     1     136.329 139.602 132.606  1.00  0.00     0.000 G0
ENDBRANCH  15  16
ENDBRANCH  13  15
ENDBRANCH   1  13
TORSDOF 0
ENDMDL
MODEL 8
REMARK VINA RESULT:    -3.545      2.118      3.679
REMARK INTER + INTRA:          -4.578
REMARK INTER:                  -4.550
REMARK INTRA:                  -0.028
REMARK UNBOUND:                 0.211
REMARK SMILES C=C1CCC=C(C)CC[C@H]2[C@@H]1CC2(C)C
REMARK SMILES IDX 11 1 12 2 13 3 10 4 14 5 15 6 9 7 8 8 6 9 7 10 5 11 2 13
REMARK SMILES IDX 1 14 3 15 4 16
REMARK H PARENT
REMARK Flexibility Score: 70.00
ROOT
ATOM      1  C   UNL     1     135.700 134.516 130.811  1.00  0.00     0.018 C 
ATOM      2  C   UNL     1     134.486 134.038 131.614  1.00  0.00     0.015 C 
ATOM      3  C   UNL     1     134.374 135.425 132.276  1.00  0.00    -0.031 C 
ATOM      4  C   UNL     1     135.639 135.892 131.503  1.00  0.00     0.002 C 
ATOM      5  C   UNL     1     134.462 135.360 133.815  1.00  0.00     0.011 C 
ATOM      6  C   UNL     1     133.109 136.183 131.832  1.00  0.00     0.011 C 
ENDROOT
BRANCH   4   7
ATOM      7  C   UNL     1     136.849 136.376 132.350  1.00  0.00     0.009 C 
BRANCH   7   8
ATOM      8  C   UNL     1     137.833 137.339 131.646  1.00  0.00     0.030 C 
BRANCH   8   9
ATOM      9  C   UNL     1     139.194 136.742 131.330  1.00  0.00    -0.077 C 
ATOM     10  C   UNL     1     140.377 137.196 132.144  1.00  0.00     0.039 C 
ATOM     11  C   UNL     1     139.398 135.819 130.359  1.00  0.00    -0.028 CG0
ATOM     12  G   UNL     1     138.332 135.230 129.459  1.00  0.00     0.000 G0
ENDBRANCH   8   9
ENDBRANCH   7   8
ENDBRANCH   4   7
BRANCH   1  13
ATOM     13  C   UNL     1     136.976 133.689 130.934  1.00  0.00    -0.074 C 
ATOM     14  C   UNL     1     137.228 132.888 131.985  1.00  0.00     0.008 C 
BRANCH  13  15
ATOM     15  C   UNL     1     137.989 133.776 129.813  1.00  0.00     0.035 C 
BRANCH  15  16
ATOM     16  C   UNL     1     138.338 135.225 129.443  1.00  0.00     0.032 CG0
ATOM     17  G   UNL     1     139.391 135.823 130.353  1.00  0.00     0.000 G0
ENDBRANCH  15  16
ENDBRANCH  13  15
ENDBRANCH   1  13
TORSDOF 0
ENDMDL
MODEL 9
REMARK VINA RESULT:    -3.540      3.874      6.081
REMARK INTER + INTRA:          -4.572
REMARK INTER:                  -4.530
REMARK INTRA:                  -0.041
REMARK UNBOUND:                 0.211
REMARK SMILES C=C1CCC=C(C)CC[C@H]2[C@@H]1CC2(C)C
REMARK SMILES IDX 11 1 12 2 13 3 10 4 14 5 15 6 9 7 8 8 6 9 7 10 5 11 2 13
REMARK SMILES IDX 1 14 3 15 4 16
REMARK H PARENT
REMARK Flexibility Score: 70.00
ROOT
ATOM      1  C   UNL     1     137.942 139.483 130.819  1.00  0.00     0.018 C 
ATOM      2  C   UNL     1     139.420 139.568 131.216  1.00  0.00     0.015 C 
ATOM      3  C   UNL     1     139.447 138.045 131.449  1.00  0.00    -0.031 C 
ATOM      4  C   UNL     1     137.934 137.968 131.100  1.00  0.00     0.002 C 
ATOM      5  C   UNL     1     139.868 137.669 132.886  1.00  0.00     0.011 C 
ATOM      6  C   UNL     1     140.320 137.311 130.414  1.00  0.00     0.011 C 
ENDROOT
BRANCH   4   7
ATOM      7  C   UNL     1     136.984 137.399 132.191  1.00  0.00     0.009 C 
BRANCH   7   8
ATOM      8  C   UNL     1     135.605 136.898 131.700  1.00  0.00     0.030 C 
BRANCH   8   9
ATOM      9  C   UNL     1     134.425 137.749 132.137  1.00  0.00    -0.077 C 
ATOM     10  C   UNL     1     133.574 137.255 133.277  1.00  0.00     0.039 C 
ATOM     11  C   UNL     1     134.102 138.932 131.560  1.00  0.00    -0.028 CG0
ATOM     12  G   UNL     1     134.851 139.597 130.424  1.00  0.00     0.000 G0
ENDBRANCH   8   9
ENDBRANCH   7   8
ENDBRANCH   4   7
BRANCH   1  13
ATOM     13  C   UNL     1     136.972 140.377 131.586  1.00  0.00    -0.074 C 
ATOM     14  C   UNL     1     137.207 140.802 132.840  1.00  0.00     0.008 C 
BRANCH  13  15
ATOM     15  C   UNL     1     135.699 140.805 130.887  1.00  0.00     0.035 C 
BRANCH  15  16
ATOM     16  C   UNL     1     134.854 139.613 130.417  1.00  0.00     0.032 CG0
ATOM     17  G   UNL     1     134.111 138.939 131.552  1.00  0.00     0.000 G0
ENDBRANCH  15  16
ENDBRANCH  13  15
ENDBRANCH   1  13
TORSDOF 0
ENDMDL
