MODEL 1
REMARK VINA RESULT:     0.000      0.000      0.000
REMARK INTER + INTRA:          -3.598
REMARK INTER:                   0.000
REMARK INTRA:                  -3.598
REMARK UNBOUND:                -3.598
REMARK SMILES CCCCCC=CCC=CCCCCCCCC(=O)[O-]
REMARK SMILES IDX 11 1 12 2 13 3 14 4 15 5 16 6 17 7 18 8 19 9 20 10 10 11
REMARK SMILES IDX 9 12 8 13 7 14 6 15 5 16 4 17 3 18 2 19 1 20
REMARK H PARENT
REMARK Flexibility Score: inf
ROOT
ATOM      1  C   UNL     1      -1.049  -3.591  -5.791  1.00  0.00     0.027 C 
ENDROOT
BRANCH   1   2
ATOM      2  C   UNL     1      -2.105  -2.559  -6.236  1.00  0.00     0.004 C 
BRANCH   2   3
ATOM      3  C   UNL     1      -2.617  -1.662  -5.097  1.00  0.00     0.000 C 
BRANCH   3   4
ATOM      4  C   UNL     1      -4.103  -1.305  -5.240  1.00  0.00     0.000 C 
BRANCH   4   5
ATOM      5  C   UNL     1      -4.876  -1.636  -3.955  1.00  0.00     0.000 C 
BRANCH   5   6
ATOM      6  C   UNL     1      -3.958  -2.099  -2.813  1.00  0.00     0.006 C 
BRANCH   6   7
ATOM      7  C   UNL     1      -4.685  -2.980  -1.789  1.00  0.00     0.053 C 
BRANCH   7   8
ATOM      8  C   UNL     1      -3.699  -3.652  -0.887  1.00  0.00     0.041 C 
ATOM      9  O   UNL     1      -3.903  -4.830  -0.492  1.00  0.00    -0.550 OA
ATOM     10  O   UNL     1      -2.531  -2.995  -0.520  1.00  0.00    -0.550 OA
ENDBRANCH   7   8
ENDBRANCH   6   7
ENDBRANCH   5   6
ENDBRANCH   4   5
ENDBRANCH   3   4
ENDBRANCH   2   3
ENDBRANCH   1   2
BRANCH   1  11
ATOM     11  C   UNL     1      -0.917  -3.665  -4.288  1.00  0.00    -0.031 C 
ATOM     12  C   UNL     1      -1.345  -4.699  -3.539  1.00  0.00    -0.027 C 
BRANCH  12  13
ATOM     13  C   UNL     1      -2.073  -5.902  -4.081  1.00  0.00     0.054 C 
BRANCH  13  14
ATOM     14  C   UNL     1      -3.563  -5.725  -3.979  1.00  0.00    -0.027 C 
ATOM     15  C   UNL     1      -4.271  -5.276  -5.024  1.00  0.00    -0.031 C 
BRANCH  15  16
ATOM     16  C   UNL     1      -5.761  -5.078  -4.943  1.00  0.00     0.027 C 
BRANCH  16  17
ATOM     17  C   UNL     1      -6.320  -4.334  -6.166  1.00  0.00     0.004 C 
BRANCH  17  18
ATOM     18  C   UNL     1      -5.289  -4.237  -7.304  1.00  0.00     0.000 C 
BRANCH  18  19
ATOM     19  C   UNL     1      -5.520  -3.014  -8.205  1.00  0.00    -0.003 C 
ATOM     20  C   UNL     1      -6.714  -2.168  -7.761  1.00  0.00     0.004 C 
ENDBRANCH  18  19
ENDBRANCH  17  18
ENDBRANCH  16  17
ENDBRANCH  15  16
ENDBRANCH  13  14
ENDBRANCH  12  13
ENDBRANCH   1  11
TORSDOF 14
ENDMDL
MODEL 2
REMARK VINA RESULT:     0.001      7.241      9.785
REMARK INTER + INTRA:          -3.595
REMARK INTER:                   0.000
REMARK INTRA:                  -3.595
REMARK UNBOUND:                -3.598
REMARK SMILES CCCCCC=CCC=CCCCCCCCC(=O)[O-]
REMARK SMILES IDX 11 1 12 2 13 3 14 4 15 5 16 6 17 7 18 8 19 9 20 10 10 11
REMARK SMILES IDX 9 12 8 13 7 14 6 15 5 16 4 17 3 18 2 19 1 20
REMARK H PARENT
REMARK Flexibility Score: inf
ROOT
ATOM      1  C   UNL     1      -0.174  -1.865 -13.796  1.00  0.00     0.027 C 
ENDROOT
BRANCH   1   2
ATOM      2  C   UNL     1      -1.240  -2.796 -14.404  1.00  0.00     0.004 C 
BRANCH   2   3
ATOM      3  C   UNL     1      -2.181  -2.097 -15.401  1.00  0.00     0.000 C 
BRANCH   3   4
ATOM      4  C   UNL     1      -3.645  -2.101 -14.942  1.00  0.00     0.000 C 
BRANCH   4   5
ATOM      5  C   UNL     1      -3.824  -2.953 -13.676  1.00  0.00     0.000 C 
BRANCH   5   6
ATOM      6  C   UNL     1      -4.527  -2.191 -12.543  1.00  0.00     0.006 C 
BRANCH   6   7
ATOM      7  C   UNL     1      -3.858  -2.409 -11.179  1.00  0.00     0.053 C 
BRANCH   7   8
ATOM      8  C   UNL     1      -3.992  -1.183 -10.331  1.00  0.00     0.041 C 
ATOM      9  O   UNL     1      -5.042  -0.492 -10.378  1.00  0.00    -0.550 OA
ATOM     10  O   UNL     1      -2.975  -0.833  -9.450  1.00  0.00    -0.550 OA
ENDBRANCH   7   8
ENDBRANCH   6   7
ENDBRANCH   5   6
ENDBRANCH   4   5
ENDBRANCH   3   4
ENDBRANCH   2   3
ENDBRANCH   1   2
BRANCH   1  11
ATOM     11  C   UNL     1      -0.618  -1.261 -12.485  1.00  0.00    -0.031 C 
ATOM     12  C   UNL     1      -1.019   0.016 -12.334  1.00  0.00    -0.027 C 
BRANCH  12  13
ATOM     13  C   UNL     1      -1.023   1.044 -13.436  1.00  0.00     0.054 C 
BRANCH  13  14
ATOM     14  C   UNL     1      -2.416   1.279 -13.952  1.00  0.00    -0.027 C 
ATOM     15  C   UNL     1      -3.470   1.208 -13.129  1.00  0.00    -0.031 C 
BRANCH  15  16
ATOM     16  C   UNL     1      -4.876   1.426 -13.625  1.00  0.00     0.027 C 
BRANCH  16  17
ATOM     17  C   UNL     1      -4.962   1.433 -15.159  1.00  0.00     0.004 C 
BRANCH  17  18
ATOM     18  C   UNL     1      -6.133   0.579 -15.675  1.00  0.00     0.000 C 
BRANCH  18  19
ATOM     19  C   UNL     1      -6.902  -0.114 -14.540  1.00  0.00    -0.003 C 
ATOM     20  C   UNL     1      -7.364  -1.523 -14.912  1.00  0.00     0.004 C 
ENDBRANCH  18  19
ENDBRANCH  17  18
ENDBRANCH  16  17
ENDBRANCH  15  16
ENDBRANCH  13  14
ENDBRANCH  12  13
ENDBRANCH   1  11
TORSDOF 14
ENDMDL
MODEL 3
REMARK VINA RESULT:     0.004      4.677      7.438
REMARK INTER + INTRA:          -3.591
REMARK INTER:                   0.000
REMARK INTRA:                  -3.591
REMARK UNBOUND:                -3.598
REMARK SMILES CCCCCC=CCC=CCCCCCCCC(=O)[O-]
REMARK SMILES IDX 11 1 12 2 13 3 14 4 15 5 16 6 17 7 18 8 19 9 20 10 10 11
REMARK SMILES IDX 9 12 8 13 7 14 6 15 5 16 4 17 3 18 2 19 1 20
REMARK H PARENT
REMARK Flexibility Score: inf
ROOT
ATOM      1  C   UNL     1      -0.569  -3.363  -3.366  1.00  0.00     0.027 C 
ENDROOT
BRANCH   1   2
ATOM      2  C   UNL     1       0.911  -3.000  -3.130  1.00  0.00     0.004 C 
BRANCH   2   3
ATOM      3  C   UNL     1       1.158  -1.494  -2.937  1.00  0.00     0.000 C 
BRANCH   3   4
ATOM      4  C   UNL     1       2.105  -0.905  -3.990  1.00  0.00     0.000 C 
BRANCH   4   5
ATOM      5  C   UNL     1       2.383  -1.918  -5.111  1.00  0.00     0.000 C 
BRANCH   5   6
ATOM      6  C   UNL     1       2.443  -1.265  -6.500  1.00  0.00     0.006 C 
BRANCH   6   7
ATOM      7  C   UNL     1       1.522  -1.950  -7.517  1.00  0.00     0.053 C 
BRANCH   7   8
ATOM      8  C   UNL     1       1.973  -3.355  -7.766  1.00  0.00     0.041 C 
ATOM      9  O   UNL     1       1.153  -4.306  -7.689  1.00  0.00    -0.550 OA
ATOM     10  O   UNL     1       3.290  -3.608  -8.130  1.00  0.00    -0.550 OA
ENDBRANCH   7   8
ENDBRANCH   6   7
ENDBRANCH   5   6
ENDBRANCH   4   5
ENDBRANCH   3   4
ENDBRANCH   2   3
ENDBRANCH   1   2
BRANCH   1  11
ATOM     11  C   UNL     1      -0.854  -3.705  -4.809  1.00  0.00    -0.031 C 
ATOM     12  C   UNL     1      -1.528  -2.908  -5.660  1.00  0.00    -0.027 C 
BRANCH  12  13
ATOM     13  C   UNL     1      -2.149  -1.588  -5.281  1.00  0.00     0.054 C 
BRANCH  13  14
ATOM     14  C   UNL     1      -1.256  -0.440  -5.661  1.00  0.00    -0.027 C 
ATOM     15  C   UNL     1      -1.145   0.632  -4.866  1.00  0.00    -0.031 C 
BRANCH  15  16
ATOM     16  C   UNL     1      -0.267   1.800  -5.231  1.00  0.00     0.027 C 
BRANCH  16  17
ATOM     17  C   UNL     1       0.219   1.734  -6.687  1.00  0.00     0.004 C 
BRANCH  17  18
ATOM     18  C   UNL     1       1.641   2.301  -6.847  1.00  0.00     0.000 C 
BRANCH  18  19
ATOM     19  C   UNL     1       2.346   2.514  -5.499  1.00  0.00    -0.003 C 
ATOM     20  C   UNL     1       3.812   2.084  -5.523  1.00  0.00     0.004 C 
ENDBRANCH  18  19
ENDBRANCH  17  18
ENDBRANCH  16  17
ENDBRANCH  15  16
ENDBRANCH  13  14
ENDBRANCH  12  13
ENDBRANCH   1  11
TORSDOF 14
ENDMDL
MODEL 4
REMARK VINA RESULT:     0.009      6.123      7.903
REMARK INTER + INTRA:          -3.582
REMARK INTER:                   0.000
REMARK INTRA:                  -3.582
REMARK UNBOUND:                -3.598
REMARK SMILES CCCCCC=CCC=CCCCCCCCC(=O)[O-]
REMARK SMILES IDX 11 1 12 2 13 3 14 4 15 5 16 6 17 7 18 8 19 9 20 10 10 11
REMARK SMILES IDX 9 12 8 13 7 14 6 15 5 16 4 17 3 18 2 19 1 20
REMARK H PARENT
REMARK Flexibility Score: inf
ROOT
ATOM      1  C   UNL     1      -2.206  -3.173  -8.955  1.00  0.00     0.027 C 
ENDROOT
BRANCH   1   2
ATOM      2  C   UNL     1      -3.673  -2.846  -8.615  1.00  0.00     0.004 C 
BRANCH   2   3
ATOM      3  C   UNL     1      -4.383  -1.995  -9.682  1.00  0.00     0.000 C 
BRANCH   3   4
ATOM      4  C   UNL     1      -5.881  -2.306  -9.793  1.00  0.00     0.000 C 
BRANCH   4   5
ATOM      5  C   UNL     1      -6.236  -2.814 -11.198  1.00  0.00     0.000 C 
BRANCH   5   6
ATOM      6  C   UNL     1      -5.117  -2.560 -12.220  1.00  0.00     0.006 C 
BRANCH   6   7
ATOM      7  C   UNL     1      -5.241  -3.448 -13.465  1.00  0.00     0.053 C 
BRANCH   7   8
ATOM      8  C   UNL     1      -3.974  -3.409 -14.262  1.00  0.00     0.041 C 
ATOM      9  O   UNL     1      -3.556  -4.447 -14.837  1.00  0.00    -0.550 OA
ATOM     10  O   UNL     1      -3.282  -2.213 -14.408  1.00  0.00    -0.550 OA
ENDBRANCH   7   8
ENDBRANCH   6   7
ENDBRANCH   5   6
ENDBRANCH   4   5
ENDBRANCH   3   4
ENDBRANCH   2   3
ENDBRANCH   1   2
BRANCH   1  11
ATOM     11  C   UNL     1      -1.861  -2.848 -10.388  1.00  0.00    -0.031 C 
ATOM     12  C   UNL     1      -1.693  -3.768 -11.357  1.00  0.00    -0.027 C 
BRANCH  12  13
ATOM     13  C   UNL     1      -1.763  -5.259 -11.139  1.00  0.00     0.054 C 
BRANCH  13  14
ATOM     14  C   UNL     1      -3.104  -5.803 -11.545  1.00  0.00    -0.027 C 
ATOM     15  C   UNL     1      -4.106  -5.882 -10.660  1.00  0.00    -0.031 C 
BRANCH  15  16
ATOM     16  C   UNL     1      -5.454  -6.435 -11.038  1.00  0.00     0.027 C 
BRANCH  16  17
ATOM     17  C   UNL     1      -6.475  -6.324  -9.895  1.00  0.00     0.004 C 
BRANCH  17  18
ATOM     18  C   UNL     1      -5.814  -5.910  -8.569  1.00  0.00     0.000 C 
BRANCH  18  19
ATOM     19  C   UNL     1      -6.781  -5.162  -7.638  1.00  0.00    -0.003 C 
ATOM     20  C   UNL     1      -8.131  -4.874  -8.293  1.00  0.00     0.004 C 
ENDBRANCH  18  19
ENDBRANCH  17  18
ENDBRANCH  16  17
ENDBRANCH  15  16
ENDBRANCH  13  14
ENDBRANCH  12  13
ENDBRANCH   1  11
TORSDOF 14
ENDMDL
MODEL 5
REMARK VINA RESULT:     0.009      4.070      5.756
REMARK INTER + INTRA:          -3.580
REMARK INTER:                   0.000
REMARK INTRA:                  -3.580
REMARK UNBOUND:                -3.598
REMARK SMILES CCCCCC=CCC=CCCCCCCCC(=O)[O-]
REMARK SMILES IDX 11 1 12 2 13 3 14 4 15 5 16 6 17 7 18 8 19 9 20 10 10 11
REMARK SMILES IDX 9 12 8 13 7 14 6 15 5 16 4 17 3 18 2 19 1 20
REMARK H PARENT
REMARK Flexibility Score: inf
ROOT
ATOM      1  C   UNL     1       2.750  -2.607  -7.271  1.00  0.00     0.027 C 
ENDROOT
BRANCH   1   2
ATOM      2  C   UNL     1       1.901  -1.769  -8.246  1.00  0.00     0.004 C 
BRANCH   2   3
ATOM      3  C   UNL     1       0.416  -2.168  -8.280  1.00  0.00     0.000 C 
BRANCH   3   4
ATOM      4  C   UNL     1      -0.520  -1.020  -7.881  1.00  0.00     0.000 C 
BRANCH   4   5
ATOM      5  C   UNL     1       0.276   0.176  -7.337  1.00  0.00     0.000 C 
BRANCH   5   6
ATOM      6  C   UNL     1      -0.399   0.834  -6.124  1.00  0.00     0.006 C 
BRANCH   6   7
ATOM      7  C   UNL     1       0.535   0.938  -4.911  1.00  0.00     0.053 C 
BRANCH   7   8
ATOM      8  C   UNL     1       1.649   1.897  -5.191  1.00  0.00     0.041 C 
ATOM      9  O   UNL     1       2.845   1.543  -5.024  1.00  0.00    -0.550 OA
ATOM     10  O   UNL     1       1.367   3.165  -5.684  1.00  0.00    -0.550 OA
ENDBRANCH   7   8
ENDBRANCH   6   7
ENDBRANCH   5   6
ENDBRANCH   4   5
ENDBRANCH   3   4
ENDBRANCH   2   3
ENDBRANCH   1   2
BRANCH   1  11
ATOM     11  C   UNL     1       3.066  -1.862  -5.996  1.00  0.00    -0.031 C 
ATOM     12  C   UNL     1       2.549  -2.165  -4.791  1.00  0.00    -0.027 C 
BRANCH  12  13
ATOM     13  C   UNL     1       1.532  -3.251  -4.547  1.00  0.00     0.054 C 
BRANCH  13  14
ATOM     14  C   UNL     1       0.135  -2.695  -4.545  1.00  0.00    -0.027 C 
ATOM     15  C   UNL     1      -0.882  -3.398  -5.060  1.00  0.00    -0.031 C 
BRANCH  15  16
ATOM     16  C   UNL     1      -2.287  -2.858  -5.081  1.00  0.00     0.027 C 
BRANCH  16  17
ATOM     17  C   UNL     1      -2.450  -1.617  -4.190  1.00  0.00     0.004 C 
BRANCH  17  18
ATOM     18  C   UNL     1      -3.477  -0.625  -4.763  1.00  0.00     0.000 C 
BRANCH  18  19
ATOM     19  C   UNL     1      -3.874  -0.958  -6.210  1.00  0.00    -0.003 C 
ATOM     20  C   UNL     1      -3.969   0.283  -7.098  1.00  0.00     0.004 C 
ENDBRANCH  18  19
ENDBRANCH  17  18
ENDBRANCH  16  17
ENDBRANCH  15  16
ENDBRANCH  13  14
ENDBRANCH  12  13
ENDBRANCH   1  11
TORSDOF 14
ENDMDL
MODEL 6
REMARK VINA RESULT:     0.010      2.263      3.943
REMARK INTER + INTRA:          -3.580
REMARK INTER:                   0.000
REMARK INTRA:                  -3.580
REMARK UNBOUND:                -3.598
REMARK SMILES CCCCCC=CCC=CCCCCCCCC(=O)[O-]
REMARK SMILES IDX 11 1 12 2 13 3 14 4 15 5 16 6 17 7 18 8 19 9 20 10 10 11
REMARK SMILES IDX 9 12 8 13 7 14 6 15 5 16 4 17 3 18 2 19 1 20
REMARK H PARENT
REMARK Flexibility Score: inf
ROOT
ATOM      1  C   UNL     1      -0.636  -4.540  -7.039  1.00  0.00     0.027 C 
ENDROOT
BRANCH   1   2
ATOM      2  C   UNL     1      -2.083  -4.564  -7.568  1.00  0.00     0.004 C 
BRANCH   2   3
ATOM      3  C   UNL     1      -3.150  -4.446  -6.466  1.00  0.00     0.000 C 
BRANCH   3   4
ATOM      4  C   UNL     1      -4.405  -3.694  -6.928  1.00  0.00     0.000 C 
BRANCH   4   5
ATOM      5  C   UNL     1      -4.689  -2.487  -6.022  1.00  0.00     0.000 C 
BRANCH   5   6
ATOM      6  C   UNL     1      -3.818  -2.478  -4.756  1.00  0.00     0.006 C 
BRANCH   6   7
ATOM      7  C   UNL     1      -3.658  -1.074  -4.158  1.00  0.00     0.053 C 
BRANCH   7   8
ATOM      8  C   UNL     1      -2.580  -1.069  -3.120  1.00  0.00     0.041 C 
ATOM      9  O   UNL     1      -1.821  -0.073  -3.001  1.00  0.00    -0.550 OA
ATOM     10  O   UNL     1      -2.445  -2.146  -2.252  1.00  0.00    -0.550 OA
ENDBRANCH   7   8
ENDBRANCH   6   7
ENDBRANCH   5   6
ENDBRANCH   4   5
ENDBRANCH   3   4
ENDBRANCH   2   3
ENDBRANCH   1   2
BRANCH   1  11
ATOM     11  C   UNL     1      -0.562  -4.139  -5.585  1.00  0.00    -0.031 C 
ATOM     12  C   UNL     1      -0.121  -2.944  -5.148  1.00  0.00    -0.027 C 
BRANCH  12  13
ATOM     13  C   UNL     1       0.421  -1.856  -6.040  1.00  0.00     0.054 C 
BRANCH  13  14
ATOM     14  C   UNL     1      -0.619  -0.802  -6.301  1.00  0.00    -0.027 C 
ATOM     15  C   UNL     1      -1.492  -0.936  -7.307  1.00  0.00    -0.031 C 
BRANCH  15  16
ATOM     16  C   UNL     1      -2.534   0.112  -7.596  1.00  0.00     0.027 C 
BRANCH  16  17
ATOM     17  C   UNL     1      -3.415  -0.255  -8.800  1.00  0.00     0.004 C 
BRANCH  17  18
ATOM     18  C   UNL     1      -2.873  -1.476  -9.562  1.00  0.00     0.000 C 
BRANCH  18  19
ATOM     19  C   UNL     1      -3.979  -2.256 -10.290  1.00  0.00    -0.003 C 
ATOM     20  C   UNL     1      -5.380  -1.738  -9.966  1.00  0.00     0.004 C 
ENDBRANCH  18  19
ENDBRANCH  17  18
ENDBRANCH  16  17
ENDBRANCH  15  16
ENDBRANCH  13  14
ENDBRANCH  12  13
ENDBRANCH   1  11
TORSDOF 14
ENDMDL
MODEL 7
REMARK VINA RESULT:     0.012      6.079      8.900
REMARK INTER + INTRA:          -3.576
REMARK INTER:                   0.000
REMARK INTRA:                  -3.576
REMARK UNBOUND:                -3.598
REMARK SMILES CCCCCC=CCC=CCCCCCCCC(=O)[O-]
REMARK SMILES IDX 11 1 12 2 13 3 14 4 15 5 16 6 17 7 18 8 19 9 20 10 10 11
REMARK SMILES IDX 9 12 8 13 7 14 6 15 5 16 4 17 3 18 2 19 1 20
REMARK H PARENT
REMARK Flexibility Score: inf
ROOT
ATOM      1  C   UNL     1       1.105  -1.516  -5.804  1.00  0.00     0.027 C 
ENDROOT
BRANCH   1   2
ATOM      2  C   UNL     1       1.129  -2.069  -4.366  1.00  0.00     0.004 C 
BRANCH   2   3
ATOM      3  C   UNL     1       0.299  -1.243  -3.368  1.00  0.00     0.000 C 
BRANCH   3   4
ATOM      4  C   UNL     1       1.127  -0.734  -2.180  1.00  0.00     0.000 C 
BRANCH   4   5
ATOM      5  C   UNL     1       2.478  -1.461  -2.099  1.00  0.00     0.000 C 
BRANCH   5   6
ATOM      6  C   UNL     1       3.669  -0.493  -2.042  1.00  0.00     0.006 C 
BRANCH   6   7
ATOM      7  C   UNL     1       4.562  -0.579  -3.287  1.00  0.00     0.053 C 
BRANCH   7   8
ATOM      8  C   UNL     1       5.065  -1.976  -3.473  1.00  0.00     0.041 C 
ATOM      9  O   UNL     1       4.809  -2.606  -4.531  1.00  0.00    -0.550 OA
ATOM     10  O   UNL     1       5.859  -2.564  -2.495  1.00  0.00    -0.550 OA
ENDBRANCH   7   8
ENDBRANCH   6   7
ENDBRANCH   5   6
ENDBRANCH   4   5
ENDBRANCH   3   4
ENDBRANCH   2   3
ENDBRANCH   1   2
BRANCH   1  11
ATOM     11  C   UNL     1       2.309  -0.657  -6.110  1.00  0.00    -0.031 C 
ATOM     12  C   UNL     1       2.300   0.689  -6.114  1.00  0.00    -0.027 C 
BRANCH  12  13
ATOM     13  C   UNL     1       1.075   1.535  -5.875  1.00  0.00     0.054 C 
BRANCH  13  14
ATOM     14  C   UNL     1       1.112   2.167  -4.511  1.00  0.00    -0.027 C 
ATOM     15  C   UNL     1       2.277   2.378  -3.887  1.00  0.00    -0.031 C 
BRANCH  15  16
ATOM     16  C   UNL     1       2.339   2.998  -2.515  1.00  0.00     0.027 C 
BRANCH  16  17
ATOM     17  C   UNL     1       0.945   3.203  -1.903  1.00  0.00     0.004 C 
BRANCH  17  18
ATOM     18  C   UNL     1       0.830   2.572  -0.504  1.00  0.00     0.000 C 
BRANCH  18  19
ATOM     19  C   UNL     1       2.195   2.178   0.079  1.00  0.00    -0.003 C 
ATOM     20  C   UNL     1       2.110   0.989   1.035  1.00  0.00     0.004 C 
ENDBRANCH  18  19
ENDBRANCH  17  18
ENDBRANCH  16  17
ENDBRANCH  15  16
ENDBRANCH  13  14
ENDBRANCH  12  13
ENDBRANCH   1  11
TORSDOF 14
ENDMDL
MODEL 8
REMARK VINA RESULT:     0.016      6.406      9.012
REMARK INTER + INTRA:          -3.568
REMARK INTER:                   0.000
REMARK INTRA:                  -3.568
REMARK UNBOUND:                -3.598
REMARK SMILES CCCCCC=CCC=CCCCCCCCC(=O)[O-]
REMARK SMILES IDX 11 1 12 2 13 3 14 4 15 5 16 6 17 7 18 8 19 9 20 10 10 11
REMARK SMILES IDX 9 12 8 13 7 14 6 15 5 16 4 17 3 18 2 19 1 20
REMARK H PARENT
REMARK Flexibility Score: inf
ROOT
ATOM      1  C   UNL     1      -0.181  -2.228  -7.584  1.00  0.00     0.027 C 
ENDROOT
BRANCH   1   2
ATOM      2  C   UNL     1      -0.357  -3.742  -7.356  1.00  0.00     0.004 C 
BRANCH   2   3
ATOM      3  C   UNL     1      -1.499  -4.365  -8.177  1.00  0.00     0.000 C 
BRANCH   3   4
ATOM      4  C   UNL     1      -1.004  -5.387  -9.208  1.00  0.00     0.000 C 
BRANCH   4   5
ATOM      5  C   UNL     1      -1.398  -4.968 -10.632  1.00  0.00     0.000 C 
BRANCH   5   6
ATOM      6  C   UNL     1      -0.932  -5.974 -11.696  1.00  0.00     0.006 C 
BRANCH   6   7
ATOM      7  C   UNL     1      -0.480  -7.309 -11.090  1.00  0.00     0.053 C 
BRANCH   7   8
ATOM      8  C   UNL     1       0.571  -7.942 -11.947  1.00  0.00     0.041 C 
ATOM      9  O   UNL     1       0.835  -7.465 -13.081  1.00  0.00    -0.550 OA
ATOM     10  O   UNL     1       1.294  -9.030 -11.472  1.00  0.00    -0.550 OA
ENDBRANCH   7   8
ENDBRANCH   6   7
ENDBRANCH   5   6
ENDBRANCH   4   5
ENDBRANCH   3   4
ENDBRANCH   2   3
ENDBRANCH   1   2
BRANCH   1  11
ATOM     11  C   UNL     1      -0.955  -1.732  -8.782  1.00  0.00    -0.031 C 
ATOM     12  C   UNL     1      -0.399  -1.406  -9.964  1.00  0.00    -0.027 C 
BRANCH  12  13
ATOM     13  C   UNL     1       1.082  -1.428 -10.245  1.00  0.00     0.054 C 
BRANCH  13  14
ATOM     14  C   UNL     1       1.492  -2.725 -10.886  1.00  0.00    -0.027 C 
ATOM     15  C   UNL     1       2.136  -3.663 -10.180  1.00  0.00    -0.031 C 
BRANCH  15  16
ATOM     16  C   UNL     1       2.569  -4.964 -10.802  1.00  0.00     0.027 C 
BRANCH  16  17
ATOM     17  C   UNL     1       2.867  -6.045  -9.752  1.00  0.00     0.004 C 
BRANCH  17  18
ATOM     18  C   UNL     1       2.687  -5.521  -8.317  1.00  0.00     0.000 C 
BRANCH  18  19
ATOM     19  C   UNL     1       2.073  -6.572  -7.379  1.00  0.00    -0.003 C 
ATOM     20  C   UNL     1       1.656  -7.848  -8.111  1.00  0.00     0.004 C 
ENDBRANCH  18  19
ENDBRANCH  17  18
ENDBRANCH  16  17
ENDBRANCH  15  16
ENDBRANCH  13  14
ENDBRANCH  12  13
ENDBRANCH   1  11
TORSDOF 14
ENDMDL
MODEL 9
REMARK VINA RESULT:     0.019      4.843      8.030
REMARK INTER + INTRA:          -3.563
REMARK INTER:                   0.000
REMARK INTRA:                  -3.563
REMARK UNBOUND:                -3.598
REMARK SMILES CCCCCC=CCC=CCCCCCCCC(=O)[O-]
REMARK SMILES IDX 11 1 12 2 13 3 14 4 15 5 16 6 17 7 18 8 19 9 20 10 10 11
REMARK SMILES IDX 9 12 8 13 7 14 6 15 5 16 4 17 3 18 2 19 1 20
REMARK H PARENT
REMARK Flexibility Score: inf
ROOT
ATOM      1  C   UNL     1      -2.562  -2.145  -5.737  1.00  0.00     0.027 C 
ENDROOT
BRANCH   1   2
ATOM      2  C   UNL     1      -1.195  -2.848  -5.858  1.00  0.00     0.004 C 
BRANCH   2   3
ATOM      3  C   UNL     1      -0.679  -2.960  -7.303  1.00  0.00     0.000 C 
BRANCH   3   4
ATOM      4  C   UNL     1       0.845  -2.814  -7.405  1.00  0.00     0.000 C 
BRANCH   4   5
ATOM      5  C   UNL     1       1.226  -1.546  -8.183  1.00  0.00     0.000 C 
BRANCH   5   6
ATOM      6  C   UNL     1       0.101  -1.059  -9.110  1.00  0.00     0.006 C 
BRANCH   6   7
ATOM      7  C   UNL     1       0.284   0.401  -9.546  1.00  0.00     0.053 C 
BRANCH   7   8
ATOM      8  C   UNL     1      -0.954   0.904 -10.219  1.00  0.00     0.041 C 
ATOM      9  O   UNL     1      -1.511   1.957  -9.815  1.00  0.00    -0.550 OA
ATOM     10  O   UNL     1      -1.465   0.234 -11.325  1.00  0.00    -0.550 OA
ENDBRANCH   7   8
ENDBRANCH   6   7
ENDBRANCH   5   6
ENDBRANCH   4   5
ENDBRANCH   3   4
ENDBRANCH   2   3
ENDBRANCH   1   2
BRANCH   1  11
ATOM     11  C   UNL     1      -2.992  -1.498  -7.031  1.00  0.00    -0.031 C 
ATOM     12  C   UNL     1      -3.003  -0.169  -7.249  1.00  0.00    -0.027 C 
BRANCH  12  13
ATOM     13  C   UNL     1      -2.647   0.868  -6.214  1.00  0.00     0.054 C 
BRANCH  13  14
ATOM     14  C   UNL     1      -1.211   1.293  -6.344  1.00  0.00    -0.027 C 
ATOM     15  C   UNL     1      -0.262   0.737  -5.580  1.00  0.00    -0.031 C 
BRANCH  15  16
ATOM     16  C   UNL     1       1.181   1.154  -5.683  1.00  0.00     0.027 C 
BRANCH  16  17
ATOM     17  C   UNL     1       2.127   0.168  -4.980  1.00  0.00     0.004 C 
BRANCH  17  18
ATOM     18  C   UNL     1       1.367  -0.820  -4.079  1.00  0.00     0.000 C 
BRANCH  18  19
ATOM     19  C   UNL     1       2.058  -2.189  -3.991  1.00  0.00    -0.003 C 
ATOM     20  C   UNL     1       3.397  -2.226  -4.727  1.00  0.00     0.004 C 
ENDBRANCH  18  19
ENDBRANCH  17  18
ENDBRANCH  16  17
ENDBRANCH  15  16
ENDBRANCH  13  14
ENDBRANCH  12  13
ENDBRANCH   1  11
TORSDOF 14
ENDMDL
