MODEL 1
REMARK VINA RESULT:    -4.504      0.000      0.000
REMARK INTER + INTRA:          -7.444
REMARK INTER:                  -7.006
REMARK INTRA:                  -0.438
REMARK UNBOUND:                -0.438
REMARK SMILES COc1cc(CNC(=O)CCCCC=CC(C)C)ccc1O
REMARK SMILES IDX 11 1 12 2 13 3 14 4 15 5 16 6 17 7 18 8 10 9 8 10 9 11 7 12
REMARK SMILES IDX 6 14 5 15 4 16 19 17 3 18 20 19 21 20 2 21 1 22 22 23
REMARK H PARENT 7 13 22 24
REMARK Flexibility Score: inf
ROOT
ATOM      1  C   UNL     1      75.147  34.393  52.723  1.00  0.00     0.010 C 
ENDROOT
BRANCH   1   2
ATOM      2  C   UNL     1      73.627  34.176  52.674  1.00  0.00     0.005 C 
BRANCH   2   3
ATOM      3  C   UNL     1      73.164  33.091  53.657  1.00  0.00     0.027 C 
BRANCH   3   4
ATOM      4  C   UNL     1      72.767  33.652  54.997  1.00  0.00    -0.031 C 
ATOM      5  C   UNL     1      71.551  33.438  55.523  1.00  0.00    -0.028 C 
BRANCH   5   6
ATOM      6  C   UNL     1      71.170  34.004  56.872  1.00  0.00     0.005 C 
ATOM      7  C   UNL     1      69.665  34.303  56.924  1.00  0.00     0.012 C 
ATOM      8  C   UNL     1      71.557  33.035  57.996  1.00  0.00     0.012 C 
ENDBRANCH   5   6
ENDBRANCH   3   4
ENDBRANCH   2   3
ENDBRANCH   1   2
BRANCH   1   9
ATOM      9  C   UNL     1      75.506  35.857  52.461  1.00  0.00     0.100 C 
BRANCH   9  10
ATOM     10  C   UNL     1      76.864  35.959  51.834  1.00  0.00     0.220 C 
ATOM     11  O   UNL     1      76.974  35.898  50.581  1.00  0.00    -0.275 OA
ATOM     12  N   UNL     1      78.033  36.070  52.660  1.00  0.00    -0.352 N 
ATOM     13  H   UNL     1      77.922  36.071  53.698  1.00  0.00     0.163 HD
BRANCH  12  14
ATOM     14  C   UNL     1      79.384  36.124  52.106  1.00  0.00     0.151 C 
BRANCH  14  15
ATOM     15  C   UNL     1      79.719  34.831  51.412  1.00  0.00    -0.025 A 
ATOM     16  C   UNL     1      79.552  33.610  52.084  1.00  0.00     0.056 A 
ATOM     17  C   UNL     1      80.222  34.836  50.105  1.00  0.00     0.009 A 
ATOM     18  C   UNL     1      79.882  32.393  51.452  1.00  0.00     0.160 A 
ATOM     19  C   UNL     1      80.553  33.635  49.474  1.00  0.00     0.050 A 
ATOM     20  C   UNL     1      80.387  32.416  50.139  1.00  0.00     0.157 A 
BRANCH  18  21
ATOM     21  O   UNL     1      79.719  31.154  52.092  1.00  0.00    -0.493 OA
ATOM     22  C   UNL     1      79.967  30.920  53.477  1.00  0.00     0.278 C 
ENDBRANCH  18  21
BRANCH  20  23
ATOM     23  O   UNL     1      80.733  31.237  49.478  1.00  0.00    -0.504 OA
ATOM     24  H   UNL     1      81.572  31.161  48.914  1.00  0.00     0.293 HD
ENDBRANCH  20  23
ENDBRANCH  14  15
ENDBRANCH  12  14
ENDBRANCH   9  10
ENDBRANCH   1   9
TORSDOF 10
ENDMDL
MODEL 2
REMARK VINA RESULT:    -4.030     14.493     17.738
REMARK INTER + INTRA:          -6.706
REMARK INTER:                  -6.642
REMARK INTRA:                  -0.065
REMARK UNBOUND:                -0.438
REMARK SMILES COc1cc(CNC(=O)CCCCC=CC(C)C)ccc1O
REMARK SMILES IDX 11 1 12 2 13 3 14 4 15 5 16 6 17 7 18 8 10 9 8 10 9 11 7 12
REMARK SMILES IDX 6 14 5 15 4 16 19 17 3 18 20 19 21 20 2 21 1 22 22 23
REMARK H PARENT 7 13 22 24
REMARK Flexibility Score: inf
ROOT
ATOM      1  C   UNL     1      86.732  26.550  64.132  1.00  0.00     0.010 C 
ENDROOT
BRANCH   1   2
ATOM      2  C   UNL     1      86.585  25.312  63.235  1.00  0.00     0.005 C 
BRANCH   2   3
ATOM      3  C   UNL     1      87.886  24.502  63.146  1.00  0.00     0.027 C 
BRANCH   3   4
ATOM      4  C   UNL     1      88.125  23.935  61.772  1.00  0.00    -0.031 C 
ATOM      5  C   UNL     1      87.767  24.597  60.660  1.00  0.00    -0.028 C 
BRANCH   5   6
ATOM      6  C   UNL     1      88.018  24.017  59.287  1.00  0.00     0.005 C 
ATOM      7  C   UNL     1      87.956  22.485  59.330  1.00  0.00     0.012 C 
ATOM      8  C   UNL     1      87.001  24.561  58.276  1.00  0.00     0.012 C 
ENDBRANCH   5   6
ENDBRANCH   3   4
ENDBRANCH   2   3
ENDBRANCH   1   2
BRANCH   1   9
ATOM      9  C   UNL     1      88.122  27.174  63.993  1.00  0.00     0.100 C 
BRANCH   9  10
ATOM     10  C   UNL     1      88.118  28.583  64.506  1.00  0.00     0.220 C 
ATOM     11  O   UNL     1      88.068  28.790  65.748  1.00  0.00    -0.275 OA
ATOM     12  N   UNL     1      88.115  29.685  63.587  1.00  0.00    -0.352 N 
ATOM     13  H   UNL     1      88.108  29.490  62.562  1.00  0.00     0.163 HD
BRANCH  12  14
ATOM     14  C   UNL     1      88.062  31.076  64.029  1.00  0.00     0.151 C 
BRANCH  14  15
ATOM     15  C   UNL     1      86.962  31.265  65.039  1.00  0.00    -0.025 A 
ATOM     16  C   UNL     1      85.636  30.956  64.699  1.00  0.00     0.056 A 
ATOM     17  C   UNL     1      87.246  31.773  66.314  1.00  0.00     0.009 A 
ATOM     18  C   UNL     1      84.593  31.147  65.629  1.00  0.00     0.160 A 
ATOM     19  C   UNL     1      86.219  31.968  67.239  1.00  0.00     0.050 A 
ATOM     20  C   UNL     1      84.897  31.659  66.904  1.00  0.00     0.157 A 
BRANCH  18  21
ATOM     21  O   UNL     1      83.257  30.841  65.324  1.00  0.00    -0.493 OA
ATOM     22  C   UNL     1      82.849  29.882  64.350  1.00  0.00     0.278 C 
ENDBRANCH  18  21
BRANCH  20  23
ATOM     23  O   UNL     1      83.896  31.871  67.853  1.00  0.00    -0.504 OA
ATOM     24  H   UNL     1      83.571  31.134  68.468  1.00  0.00     0.293 HD
ENDBRANCH  20  23
ENDBRANCH  14  15
ENDBRANCH  12  14
ENDBRANCH   9  10
ENDBRANCH   1   9
TORSDOF 10
ENDMDL
MODEL 3
REMARK VINA RESULT:    -3.520      1.266      1.716
REMARK INTER + INTRA:          -5.913
REMARK INTER:                  -5.261
REMARK INTRA:                  -0.652
REMARK UNBOUND:                -0.438
REMARK SMILES COc1cc(CNC(=O)CCCCC=CC(C)C)ccc1O
REMARK SMILES IDX 11 1 12 2 13 3 14 4 15 5 16 6 17 7 18 8 10 9 8 10 9 11 7 12
REMARK SMILES IDX 6 14 5 15 4 16 19 17 3 18 20 19 21 20 2 21 1 22 22 23
REMARK H PARENT 7 13 22 24
REMARK Flexibility Score: inf
ROOT
ATOM      1  C   UNL     1      73.716  33.766  52.698  1.00  0.00     0.010 C 
ENDROOT
BRANCH   1   2
ATOM      2  C   UNL     1      72.533  33.755  53.677  1.00  0.00     0.005 C 
BRANCH   2   3
ATOM      3  C   UNL     1      72.779  34.656  54.896  1.00  0.00     0.027 C 
BRANCH   3   4
ATOM      4  C   UNL     1      71.975  34.238  56.099  1.00  0.00    -0.031 C 
ATOM      5  C   UNL     1      72.181  33.064  56.716  1.00  0.00    -0.028 C 
BRANCH   5   6
ATOM      6  C   UNL     1      71.369  32.661  57.925  1.00  0.00     0.005 C 
ATOM      7  C   UNL     1      72.102  33.044  59.218  1.00  0.00     0.012 C 
ATOM      8  C   UNL     1      69.982  33.315  57.889  1.00  0.00     0.012 C 
ENDBRANCH   5   6
ENDBRANCH   3   4
ENDBRANCH   2   3
ENDBRANCH   1   2
BRANCH   1   9
ATOM      9  C   UNL     1      73.923  35.157  52.094  1.00  0.00     0.100 C 
BRANCH   9  10
ATOM     10  C   UNL     1      75.313  35.646  52.371  1.00  0.00     0.220 C 
ATOM     11  O   UNL     1      75.588  36.125  53.503  1.00  0.00    -0.275 OA
ATOM     12  N   UNL     1      76.306  35.617  51.335  1.00  0.00    -0.352 N 
ATOM     13  H   UNL     1      76.044  35.260  50.390  1.00  0.00     0.163 HD
BRANCH  12  14
ATOM     14  C   UNL     1      77.662  36.125  51.533  1.00  0.00     0.151 C 
BRANCH  14  15
ATOM     15  C   UNL     1      78.673  35.141  51.009  1.00  0.00    -0.025 A 
ATOM     16  C   UNL     1      78.918  33.947  51.707  1.00  0.00     0.056 A 
ATOM     17  C   UNL     1      79.395  35.416  49.841  1.00  0.00     0.009 A 
ATOM     18  C   UNL     1      79.877  33.026  51.238  1.00  0.00     0.160 A 
ATOM     19  C   UNL     1      80.348  34.510  49.372  1.00  0.00     0.050 A 
ATOM     20  C   UNL     1      80.594  33.320  50.063  1.00  0.00     0.157 A 
BRANCH  18  21
ATOM     21  O   UNL     1      80.141  31.820  51.907  1.00  0.00    -0.493 OA
ATOM     22  C   UNL     1      79.411  31.345  53.036  1.00  0.00     0.278 C 
ENDBRANCH  18  21
BRANCH  20  23
ATOM     23  O   UNL     1      81.557  32.441  49.566  1.00  0.00    -0.504 OA
ATOM     24  H   UNL     1      81.630  31.483  49.888  1.00  0.00     0.293 HD
ENDBRANCH  20  23
ENDBRANCH  14  15
ENDBRANCH  12  14
ENDBRANCH   9  10
ENDBRANCH   1   9
TORSDOF 10
ENDMDL
MODEL 4
REMARK VINA RESULT:    -3.487      3.347      8.715
REMARK INTER + INTRA:          -5.861
REMARK INTER:                  -5.422
REMARK INTRA:                  -0.439
REMARK UNBOUND:                -0.438
REMARK SMILES COc1cc(CNC(=O)CCCCC=CC(C)C)ccc1O
REMARK SMILES IDX 11 1 12 2 13 3 14 4 15 5 16 6 17 7 18 8 10 9 8 10 9 11 7 12
REMARK SMILES IDX 6 14 5 15 4 16 19 17 3 18 20 19 21 20 2 21 1 22 22 23
REMARK H PARENT 7 13 22 24
REMARK Flexibility Score: inf
ROOT
ATOM      1  C   UNL     1      77.348  36.125  51.633  1.00  0.00     0.010 C 
ENDROOT
BRANCH   1   2
ATOM      2  C   UNL     1      77.725  35.988  50.151  1.00  0.00     0.005 C 
BRANCH   2   3
ATOM      3  C   UNL     1      79.246  35.986  49.936  1.00  0.00     0.027 C 
BRANCH   3   4
ATOM      4  C   UNL     1      79.854  34.619  50.100  1.00  0.00    -0.031 C 
ATOM      5  C   UNL     1      79.955  34.027  51.300  1.00  0.00    -0.028 C 
BRANCH   5   6
ATOM      6  C   UNL     1      80.563  32.651  51.448  1.00  0.00     0.005 C 
ATOM      7  C   UNL     1      79.771  31.818  52.464  1.00  0.00     0.012 C 
ATOM      8  C   UNL     1      80.610  31.932  50.094  1.00  0.00     0.012 C 
ENDBRANCH   5   6
ENDBRANCH   3   4
ENDBRANCH   2   3
ENDBRANCH   1   2
BRANCH   1   9
ATOM      9  C   UNL     1      75.842  35.947  51.841  1.00  0.00     0.100 C 
BRANCH   9  10
ATOM     10  C   UNL     1      75.549  34.596  52.419  1.00  0.00     0.220 C 
ATOM     11  O   UNL     1      76.301  33.625  52.138  1.00  0.00    -0.275 OA
ATOM     12  N   UNL     1      74.389  34.400  53.241  1.00  0.00    -0.352 N 
ATOM     13  H   UNL     1      73.752  35.208  53.421  1.00  0.00     0.163 HD
BRANCH  12  14
ATOM     14  C   UNL     1      74.026  33.096  53.791  1.00  0.00     0.151 C 
BRANCH  14  15
ATOM     15  C   UNL     1      72.966  33.248  54.848  1.00  0.00    -0.025 A 
ATOM     16  C   UNL     1      73.186  32.748  56.141  1.00  0.00     0.056 A 
ATOM     17  C   UNL     1      71.744  33.863  54.546  1.00  0.00     0.009 A 
ATOM     18  C   UNL     1      72.192  32.866  57.134  1.00  0.00     0.160 A 
ATOM     19  C   UNL     1      70.754  33.981  55.523  1.00  0.00     0.050 A 
ATOM     20  C   UNL     1      70.970  33.486  56.813  1.00  0.00     0.157 A 
BRANCH  18  21
ATOM     21  O   UNL     1      72.383  32.384  58.439  1.00  0.00    -0.493 OA
ATOM     22  C   UNL     1      72.731  33.196  59.559  1.00  0.00     0.278 C 
ENDBRANCH  18  21
BRANCH  20  23
ATOM     23  O   UNL     1      69.956  33.618  57.762  1.00  0.00    -0.504 OA
ATOM     24  H   UNL     1      69.970  33.111  58.640  1.00  0.00     0.293 HD
ENDBRANCH  20  23
ENDBRANCH  14  15
ENDBRANCH  12  14
ENDBRANCH   9  10
ENDBRANCH   1   9
TORSDOF 10
ENDMDL
MODEL 5
REMARK VINA RESULT:    -3.261      3.390      8.705
REMARK INTER + INTRA:          -5.511
REMARK INTER:                  -5.095
REMARK INTRA:                  -0.416
REMARK UNBOUND:                -0.438
REMARK SMILES COc1cc(CNC(=O)CCCCC=CC(C)C)ccc1O
REMARK SMILES IDX 11 1 12 2 13 3 14 4 15 5 16 6 17 7 18 8 10 9 8 10 9 11 7 12
REMARK SMILES IDX 6 14 5 15 4 16 19 17 3 18 20 19 21 20 2 21 1 22 22 23
REMARK H PARENT 7 13 22 24
REMARK Flexibility Score: inf
ROOT
ATOM      1  C   UNL     1      78.256  31.931  51.869  1.00  0.00     0.010 C 
ENDROOT
BRANCH   1   2
ATOM      2  C   UNL     1      79.502  31.737  52.746  1.00  0.00     0.005 C 
BRANCH   2   3
ATOM      3  C   UNL     1      80.559  32.824  52.502  1.00  0.00     0.027 C 
BRANCH   3   4
ATOM      4  C   UNL     1      80.226  33.704  51.327  1.00  0.00    -0.031 C 
ATOM      5  C   UNL     1      79.844  34.981  51.484  1.00  0.00    -0.028 C 
BRANCH   5   6
ATOM      6  C   UNL     1      79.518  35.854  50.293  1.00  0.00     0.005 C 
ATOM      7  C   UNL     1      80.004  35.197  48.994  1.00  0.00     0.012 C 
ATOM      8  C   UNL     1      78.010  36.125  50.218  1.00  0.00     0.012 C 
ENDBRANCH   5   6
ENDBRANCH   3   4
ENDBRANCH   2   3
ENDBRANCH   1   2
BRANCH   1   9
ATOM      9  C   UNL     1      76.975  31.629  52.651  1.00  0.00     0.100 C 
BRANCH   9  10
ATOM     10  C   UNL     1      76.052  32.810  52.617  1.00  0.00     0.220 C 
ATOM     11  O   UNL     1      76.417  33.866  52.037  1.00  0.00    -0.275 OA
ATOM     12  N   UNL     1      74.785  32.752  53.289  1.00  0.00    -0.352 N 
ATOM     13  H   UNL     1      74.523  31.884  53.805  1.00  0.00     0.163 HD
BRANCH  12  14
ATOM     14  C   UNL     1      73.866  33.888  53.331  1.00  0.00     0.151 C 
BRANCH  14  15
ATOM     15  C   UNL     1      72.917  33.752  54.491  1.00  0.00    -0.025 A 
ATOM     16  C   UNL     1      73.344  33.143  55.682  1.00  0.00     0.056 A 
ATOM     17  C   UNL     1      71.595  34.207  54.386  1.00  0.00     0.009 A 
ATOM     18  C   UNL     1      72.459  32.992  56.769  1.00  0.00     0.160 A 
ATOM     19  C   UNL     1      70.712  34.058  55.457  1.00  0.00     0.050 A 
ATOM     20  C   UNL     1      71.136  33.454  56.645  1.00  0.00     0.157 A 
BRANCH  18  21
ATOM     21  O   UNL     1      72.857  32.395  57.976  1.00  0.00    -0.493 OA
ATOM     22  C   UNL     1      72.787  33.026  59.253  1.00  0.00     0.278 C 
ENDBRANCH  18  21
BRANCH  20  23
ATOM     23  O   UNL     1      70.224  33.318  57.692  1.00  0.00    -0.504 OA
ATOM     24  H   UNL     1      70.302  33.854  58.549  1.00  0.00     0.293 HD
ENDBRANCH  20  23
ENDBRANCH  14  15
ENDBRANCH  12  14
ENDBRANCH   9  10
ENDBRANCH   1   9
TORSDOF 10
ENDMDL
MODEL 6
REMARK VINA RESULT:    -2.898      3.346      8.639
REMARK INTER + INTRA:          -4.945
REMARK INTER:                  -4.437
REMARK INTRA:                  -0.507
REMARK UNBOUND:                -0.438
REMARK SMILES COc1cc(CNC(=O)CCCCC=CC(C)C)ccc1O
REMARK SMILES IDX 11 1 12 2 13 3 14 4 15 5 16 6 17 7 18 8 10 9 8 10 9 11 7 12
REMARK SMILES IDX 6 14 5 15 4 16 19 17 3 18 20 19 21 20 2 21 1 22 22 23
REMARK H PARENT 7 13 22 24
REMARK Flexibility Score: inf
ROOT
ATOM      1  C   UNL     1      76.885  32.381  52.731  1.00  0.00     0.010 C 
ENDROOT
BRANCH   1   2
ATOM      2  C   UNL     1      77.945  31.521  52.026  1.00  0.00     0.005 C 
BRANCH   2   3
ATOM      3  C   UNL     1      79.370  31.864  52.483  1.00  0.00     0.027 C 
BRANCH   3   4
ATOM      4  C   UNL     1      79.694  33.326  52.327  1.00  0.00    -0.031 C 
ATOM      5  C   UNL     1      79.923  33.877  51.125  1.00  0.00    -0.028 C 
BRANCH   5   6
ATOM      6  C   UNL     1      80.242  35.348  50.984  1.00  0.00     0.005 C 
ATOM      7  C   UNL     1      79.500  35.947  49.782  1.00  0.00     0.012 C 
ATOM      8  C   UNL     1      79.876  36.106  52.266  1.00  0.00     0.012 C 
ENDBRANCH   5   6
ENDBRANCH   3   4
ENDBRANCH   2   3
ENDBRANCH   1   2
BRANCH   1   9
ATOM      9  C   UNL     1      76.632  33.684  51.969  1.00  0.00     0.100 C 
BRANCH   9  10
ATOM     10  C   UNL     1      75.342  34.307  52.411  1.00  0.00     0.220 C 
ATOM     11  O   UNL     1      75.329  35.512  52.776  1.00  0.00    -0.275 OA
ATOM     12  N   UNL     1      74.145  33.519  52.469  1.00  0.00    -0.352 N 
ATOM     13  H   UNL     1      74.188  32.509  52.208  1.00  0.00     0.163 HD
BRANCH  12  14
ATOM     14  C   UNL     1      72.871  34.059  52.938  1.00  0.00     0.151 C 
BRANCH  14  15
ATOM     15  C   UNL     1      72.627  33.663  54.369  1.00  0.00    -0.025 A 
ATOM     16  C   UNL     1      71.566  34.238  55.087  1.00  0.00     0.056 A 
ATOM     17  C   UNL     1      73.468  32.741  55.005  1.00  0.00     0.009 A 
ATOM     18  C   UNL     1      71.339  33.890  56.434  1.00  0.00     0.160 A 
ATOM     19  C   UNL     1      73.251  32.394  56.340  1.00  0.00     0.050 A 
ATOM     20  C   UNL     1      72.194  32.963  57.057  1.00  0.00     0.157 A 
BRANCH  18  21
ATOM     21  O   UNL     1      70.282  34.440  57.177  1.00  0.00    -0.493 OA
ATOM     22  C   UNL     1      68.925  34.488  56.741  1.00  0.00     0.278 C 
ENDBRANCH  18  21
BRANCH  20  23
ATOM     23  O   UNL     1      72.012  32.595  58.390  1.00  0.00    -0.504 OA
ATOM     24  H   UNL     1      71.187  32.863  58.916  1.00  0.00     0.293 HD
ENDBRANCH  20  23
ENDBRANCH  14  15
ENDBRANCH  12  14
ENDBRANCH   9  10
ENDBRANCH   1   9
TORSDOF 10
ENDMDL
MODEL 7
REMARK VINA RESULT:    -2.634     13.861     17.364
REMARK INTER + INTRA:          -4.535
REMARK INTER:                  -4.464
REMARK INTRA:                  -0.071
REMARK UNBOUND:                -0.438
REMARK SMILES COc1cc(CNC(=O)CCCCC=CC(C)C)ccc1O
REMARK SMILES IDX 11 1 12 2 13 3 14 4 15 5 16 6 17 7 18 8 10 9 8 10 9 11 7 12
REMARK SMILES IDX 6 14 5 15 4 16 19 17 3 18 20 19 21 20 2 21 1 22 22 23
REMARK H PARENT 7 13 22 24
REMARK Flexibility Score: inf
ROOT
ATOM      1  C   UNL     1      88.117  26.823  63.484  1.00  0.00     0.010 C 
ENDROOT
BRANCH   1   2
ATOM      2  C   UNL     1      87.014  25.769  63.310  1.00  0.00     0.005 C 
BRANCH   2   3
ATOM      3  C   UNL     1      87.586  24.362  63.084  1.00  0.00     0.027 C 
BRANCH   3   4
ATOM      4  C   UNL     1      88.125  24.171  61.691  1.00  0.00    -0.031 C 
ATOM      5  C   UNL     1      87.318  23.951  60.642  1.00  0.00    -0.028 C 
BRANCH   5   6
ATOM      6  C   UNL     1      87.874  23.767  59.249  1.00  0.00     0.005 C 
ATOM      7  C   UNL     1      87.935  22.277  58.885  1.00  0.00     0.012 C 
ATOM      8  C   UNL     1      87.028  24.529  58.222  1.00  0.00     0.012 C 
ENDBRANCH   5   6
ENDBRANCH   3   4
ENDBRANCH   2   3
ENDBRANCH   1   2
BRANCH   1   9
ATOM      9  C   UNL     1      88.122  27.391  64.906  1.00  0.00     0.100 C 
BRANCH   9  10
ATOM     10  C   UNL     1      87.919  28.876  64.877  1.00  0.00     0.220 C 
ATOM     11  O   UNL     1      87.665  29.446  63.783  1.00  0.00    -0.275 OA
ATOM     12  N   UNL     1      88.068  29.647  66.078  1.00  0.00    -0.352 N 
ATOM     13  H   UNL     1      88.326  29.160  66.965  1.00  0.00     0.163 HD
BRANCH  12  14
ATOM     14  C   UNL     1      87.930  31.101  66.101  1.00  0.00     0.151 C 
BRANCH  14  15
ATOM     15  C   UNL     1      86.557  31.506  65.635  1.00  0.00    -0.025 A 
ATOM     16  C   UNL     1      86.399  32.169  64.408  1.00  0.00     0.056 A 
ATOM     17  C   UNL     1      85.432  31.250  66.429  1.00  0.00     0.009 A 
ATOM     18  C   UNL     1      85.121  32.572  63.969  1.00  0.00     0.160 A 
ATOM     19  C   UNL     1      84.164  31.648  66.003  1.00  0.00     0.050 A 
ATOM     20  C   UNL     1      84.002  32.307  64.781  1.00  0.00     0.157 A 
BRANCH  18  21
ATOM     21  O   UNL     1      84.927  33.229  62.744  1.00  0.00    -0.493 OA
ATOM     22  C   UNL     1      84.776  34.640  62.597  1.00  0.00     0.278 C 
ENDBRANCH  18  21
BRANCH  20  23
ATOM     23  O   UNL     1      82.720  32.693  64.390  1.00  0.00    -0.504 OA
ATOM     24  H   UNL     1      81.927  32.648  65.020  1.00  0.00     0.293 HD
ENDBRANCH  20  23
ENDBRANCH  14  15
ENDBRANCH  12  14
ENDBRANCH   9  10
ENDBRANCH   1   9
TORSDOF 10
ENDMDL
MODEL 8
REMARK VINA RESULT:    -1.732      2.762      7.696
REMARK INTER + INTRA:          -3.132
REMARK INTER:                  -3.061
REMARK INTRA:                  -0.071
REMARK UNBOUND:                -0.438
REMARK SMILES COc1cc(CNC(=O)CCCCC=CC(C)C)ccc1O
REMARK SMILES IDX 11 1 12 2 13 3 14 4 15 5 16 6 17 7 18 8 10 9 8 10 9 11 7 12
REMARK SMILES IDX 6 14 5 15 4 16 19 17 3 18 20 19 21 20 2 21 1 22 22 23
REMARK H PARENT 7 13 22 24
REMARK Flexibility Score: inf
ROOT
ATOM      1  C   UNL     1      79.761  31.251  51.734  1.00  0.00     0.010 C 
ENDROOT
BRANCH   1   2
ATOM      2  C   UNL     1      80.592  32.378  51.103  1.00  0.00     0.005 C 
BRANCH   2   3
ATOM      3  C   UNL     1      81.011  33.438  52.132  1.00  0.00     0.027 C 
BRANCH   3   4
ATOM      4  C   UNL     1      80.023  34.570  52.234  1.00  0.00    -0.031 C 
ATOM      5  C   UNL     1      79.314  34.990  51.175  1.00  0.00    -0.028 C 
BRANCH   5   6
ATOM      6  C   UNL     1      78.323  36.125  51.295  1.00  0.00     0.005 C 
ATOM      7  C   UNL     1      77.258  36.029  50.194  1.00  0.00     0.012 C 
ATOM      8  C   UNL     1      77.658  36.119  52.677  1.00  0.00     0.012 C 
ENDBRANCH   5   6
ENDBRANCH   3   4
ENDBRANCH   2   3
ENDBRANCH   1   2
BRANCH   1   9
ATOM      9  C   UNL     1      78.862  31.784  52.852  1.00  0.00     0.100 C 
BRANCH   9  10
ATOM     10  C   UNL     1      77.439  31.865  52.386  1.00  0.00     0.220 C 
ATOM     11  O   UNL     1      76.910  30.865  51.833  1.00  0.00    -0.275 OA
ATOM     12  N   UNL     1      76.706  33.091  52.522  1.00  0.00    -0.352 N 
ATOM     13  H   UNL     1      77.179  33.922  52.939  1.00  0.00     0.163 HD
BRANCH  12  14
ATOM     14  C   UNL     1      75.334  33.242  52.042  1.00  0.00     0.151 C 
BRANCH  14  15
ATOM     15  C   UNL     1      74.464  33.834  53.118  1.00  0.00    -0.025 A 
ATOM     16  C   UNL     1      73.790  32.993  54.018  1.00  0.00     0.056 A 
ATOM     17  C   UNL     1      74.297  35.222  53.216  1.00  0.00     0.009 A 
ATOM     18  C   UNL     1      72.956  33.534  55.018  1.00  0.00     0.160 A 
ATOM     19  C   UNL     1      73.471  35.764  54.202  1.00  0.00     0.050 A 
ATOM     20  C   UNL     1      72.800  34.929  55.101  1.00  0.00     0.157 A 
BRANCH  18  21
ATOM     21  O   UNL     1      72.274  32.721  55.939  1.00  0.00    -0.493 OA
ATOM     22  C   UNL     1      72.025  33.072  57.298  1.00  0.00     0.278 C 
ENDBRANCH  18  21
BRANCH  20  23
ATOM     23  O   UNL     1      71.979  35.508  56.069  1.00  0.00    -0.504 OA
ATOM     24  H   UNL     1      72.099  36.466  56.378  1.00  0.00     0.293 HD
ENDBRANCH  20  23
ENDBRANCH  14  15
ENDBRANCH  12  14
ENDBRANCH   9  10
ENDBRANCH   1   9
TORSDOF 10
ENDMDL
