MODEL 1
REMARK VINA RESULT:    -5.085      0.000      0.000
REMARK INTER + INTRA:          -9.360
REMARK INTER:                  -8.652
REMARK INTRA:                  -0.708
REMARK UNBOUND:                -0.708
REMARK SMILES CCCCCCCCCCCCCC(=O)[O-]
REMARK SMILES IDX 8 1 9 2 10 3 11 4 12 5 13 6 14 7 15 8 16 9 7 10 6 11 5 12
REMARK SMILES IDX 4 13 3 14 2 15 1 16
REMARK H PARENT
REMARK Flexibility Score: inf
ROOT
ATOM      1  C   UNL     1     -18.463  37.115  83.371  1.00  0.00     0.000 C 
ENDROOT
BRANCH   1   2
ATOM      2  C   UNL     1     -18.833  37.135  84.868  1.00  0.00     0.000 C 
BRANCH   2   3
ATOM      3  C   UNL     1     -19.817  38.243  85.277  1.00  0.00     0.000 C 
BRANCH   3   4
ATOM      4  C   UNL     1     -19.991  38.352  86.800  1.00  0.00     0.000 C 
BRANCH   4   5
ATOM      5  C   UNL     1     -20.992  39.457  87.158  1.00  0.00     0.006 C 
BRANCH   5   6
ATOM      6  C   UNL     1     -20.273  40.777  87.446  1.00  0.00     0.053 C 
BRANCH   6   7
ATOM      7  C   UNL     1     -19.960  40.898  88.904  1.00  0.00     0.041 C 
ATOM      8  O   UNL     1     -18.877  40.443  89.359  1.00  0.00    -0.550 OA
ATOM      9  O   UNL     1     -20.888  41.463  89.770  1.00  0.00    -0.550 OA
ENDBRANCH   6   7
ENDBRANCH   5   6
ENDBRANCH   4   5
ENDBRANCH   3   4
ENDBRANCH   2   3
ENDBRANCH   1   2
BRANCH   1  10
ATOM     10  C   UNL     1     -16.973  37.410  83.094  1.00  0.00     0.000 C 
BRANCH  10  11
ATOM     11  C   UNL     1     -16.227  36.182  82.548  1.00  0.00    -0.000 C 
BRANCH  11  12
ATOM     12  C   UNL     1     -17.175  35.064  82.083  1.00  0.00    -0.000 C 
BRANCH  12  13
ATOM     13  C   UNL     1     -17.132  34.816  80.560  1.00  0.00    -0.000 C 
BRANCH  13  14
ATOM     14  C   UNL     1     -18.376  35.377  79.848  1.00  0.00    -0.000 C 
BRANCH  14  15
ATOM     15  C   UNL     1     -18.341  36.907  79.716  1.00  0.00    -0.003 C 
ATOM     16  C   UNL     1     -18.731  37.388  78.319  1.00  0.00     0.004 C 
ENDBRANCH  14  15
ENDBRANCH  13  14
ENDBRANCH  12  13
ENDBRANCH  11  12
ENDBRANCH  10  11
ENDBRANCH   1  10
TORSDOF 12
ENDMDL
MODEL 2
REMARK VINA RESULT:    -4.986      4.125      8.367
REMARK INTER + INTRA:          -9.192
REMARK INTER:                  -8.301
REMARK INTRA:                  -0.891
REMARK UNBOUND:                -0.708
REMARK SMILES CCCCCCCCCCCCCC(=O)[O-]
REMARK SMILES IDX 8 1 9 2 10 3 11 4 12 5 13 6 14 7 15 8 16 9 7 10 6 11 5 12
REMARK SMILES IDX 4 13 3 14 2 15 1 16
REMARK H PARENT
REMARK Flexibility Score: inf
ROOT
ATOM      1  C   UNL     1     -19.190  38.240  85.571  1.00  0.00     0.000 C 
ENDROOT
BRANCH   1   2
ATOM      2  C   UNL     1     -19.210  37.472  84.234  1.00  0.00     0.000 C 
BRANCH   2   3
ATOM      3  C   UNL     1     -17.873  37.459  83.475  1.00  0.00     0.000 C 
BRANCH   3   4
ATOM      4  C   UNL     1     -17.224  36.067  83.437  1.00  0.00     0.000 C 
BRANCH   4   5
ATOM      5  C   UNL     1     -16.732  35.732  82.024  1.00  0.00     0.006 C 
BRANCH   5   6
ATOM      6  C   UNL     1     -17.214  36.775  81.012  1.00  0.00     0.053 C 
BRANCH   6   7
ATOM      7  C   UNL     1     -18.194  36.169  80.059  1.00  0.00     0.041 C 
ATOM      8  O   UNL     1     -18.387  34.924  80.056  1.00  0.00    -0.550 OA
ATOM      9  O   UNL     1     -18.856  36.971  79.138  1.00  0.00    -0.550 OA
ENDBRANCH   6   7
ENDBRANCH   5   6
ENDBRANCH   4   5
ENDBRANCH   3   4
ENDBRANCH   2   3
ENDBRANCH   1   2
BRANCH   1  10
ATOM     10  C   UNL     1     -20.583  38.397  86.219  1.00  0.00     0.000 C 
BRANCH  10  11
ATOM     11  C   UNL     1     -20.717  39.714  87.002  1.00  0.00    -0.000 C 
BRANCH  11  12
ATOM     12  C   UNL     1     -19.482  40.024  87.865  1.00  0.00    -0.000 C 
BRANCH  12  13
ATOM     13  C   UNL     1     -19.797  40.124  89.374  1.00  0.00    -0.000 C 
BRANCH  13  14
ATOM     14  C   UNL     1     -20.009  38.739  90.012  1.00  0.00    -0.000 C 
BRANCH  14  15
ATOM     15  C   UNL     1     -18.707  37.931  90.117  1.00  0.00    -0.003 C 
ATOM     16  C   UNL     1     -18.686  36.722  89.183  1.00  0.00     0.004 C 
ENDBRANCH  14  15
ENDBRANCH  13  14
ENDBRANCH  12  13
ENDBRANCH  11  12
ENDBRANCH  10  11
ENDBRANCH   1  10
TORSDOF 12
ENDMDL
MODEL 3
REMARK VINA RESULT:    -4.983      4.205      8.426
REMARK INTER + INTRA:          -9.187
REMARK INTER:                  -8.596
REMARK INTRA:                  -0.590
REMARK UNBOUND:                -0.708
REMARK SMILES CCCCCCCCCCCCCC(=O)[O-]
REMARK SMILES IDX 8 1 9 2 10 3 11 4 12 5 13 6 14 7 15 8 16 9 7 10 6 11 5 12
REMARK SMILES IDX 4 13 3 14 2 15 1 16
REMARK H PARENT
REMARK Flexibility Score: inf
ROOT
ATOM      1  C   UNL     1     -18.372  36.894  84.233  1.00  0.00     0.000 C 
ENDROOT
BRANCH   1   2
ATOM      2  C   UNL     1     -17.286  37.556  83.360  1.00  0.00     0.000 C 
BRANCH   2   3
ATOM      3  C   UNL     1     -16.228  36.592  82.800  1.00  0.00     0.000 C 
BRANCH   3   4
ATOM      4  C   UNL     1     -16.755  35.741  81.635  1.00  0.00     0.000 C 
BRANCH   4   5
ATOM      5  C   UNL     1     -17.269  36.632  80.497  1.00  0.00     0.006 C 
BRANCH   5   6
ATOM      6  C   UNL     1     -18.723  36.300  80.153  1.00  0.00     0.053 C 
BRANCH   6   7
ATOM      7  C   UNL     1     -19.234  37.221  79.091  1.00  0.00     0.041 C 
ATOM      8  O   UNL     1     -20.428  37.620  79.120  1.00  0.00    -0.550 OA
ATOM      9  O   UNL     1     -18.408  37.596  78.039  1.00  0.00    -0.550 OA
ENDBRANCH   6   7
ENDBRANCH   5   6
ENDBRANCH   4   5
ENDBRANCH   3   4
ENDBRANCH   2   3
ENDBRANCH   1   2
BRANCH   1  10
ATOM     10  C   UNL     1     -19.493  37.861  84.671  1.00  0.00     0.000 C 
BRANCH  10  11
ATOM     11  C   UNL     1     -19.600  37.976  86.200  1.00  0.00    -0.000 C 
BRANCH  11  12
ATOM     12  C   UNL     1     -20.205  39.314  86.658  1.00  0.00    -0.000 C 
BRANCH  12  13
ATOM     13  C   UNL     1     -21.030  39.202  87.958  1.00  0.00    -0.000 C 
BRANCH  13  14
ATOM     14  C   UNL     1     -20.169  39.440  89.211  1.00  0.00    -0.000 C 
BRANCH  14  15
ATOM     15  C   UNL     1     -19.660  38.132  89.836  1.00  0.00    -0.003 C 
ATOM     16  C   UNL     1     -18.334  38.307  90.574  1.00  0.00     0.004 C 
ENDBRANCH  14  15
ENDBRANCH  13  14
ENDBRANCH  12  13
ENDBRANCH  11  12
ENDBRANCH  10  11
ENDBRANCH   1  10
TORSDOF 12
ENDMDL
MODEL 4
REMARK VINA RESULT:    -4.979      4.070      7.866
REMARK INTER + INTRA:          -9.179
REMARK INTER:                  -8.463
REMARK INTRA:                  -0.716
REMARK UNBOUND:                -0.708
REMARK SMILES CCCCCCCCCCCCCC(=O)[O-]
REMARK SMILES IDX 8 1 9 2 10 3 11 4 12 5 13 6 14 7 15 8 16 9 7 10 6 11 5 12
REMARK SMILES IDX 4 13 3 14 2 15 1 16
REMARK H PARENT
REMARK Flexibility Score: inf
ROOT
ATOM      1  C   UNL     1     -17.722  36.190  84.147  1.00  0.00     0.000 C 
ENDROOT
BRANCH   1   2
ATOM      2  C   UNL     1     -16.508  36.640  83.311  1.00  0.00     0.000 C 
BRANCH   2   3
ATOM      3  C   UNL     1     -16.285  35.847  82.013  1.00  0.00     0.000 C 
BRANCH   3   4
ATOM      4  C   UNL     1     -17.504  35.001  81.616  1.00  0.00     0.000 C 
BRANCH   4   5
ATOM      5  C   UNL     1     -18.077  35.466  80.272  1.00  0.00     0.006 C 
BRANCH   5   6
ATOM      6  C   UNL     1     -18.658  36.878  80.381  1.00  0.00     0.053 C 
BRANCH   6   7
ATOM      7  C   UNL     1     -19.304  37.281  79.094  1.00  0.00     0.041 C 
ATOM      8  O   UNL     1     -18.637  37.286  78.026  1.00  0.00    -0.550 OA
ATOM      9  O   UNL     1     -20.627  37.704  79.082  1.00  0.00    -0.550 OA
ENDBRANCH   6   7
ENDBRANCH   5   6
ENDBRANCH   4   5
ENDBRANCH   3   4
ENDBRANCH   2   3
ENDBRANCH   1   2
BRANCH   1  10
ATOM     10  C   UNL     1     -18.968  37.085  83.969  1.00  0.00     0.000 C 
BRANCH  10  11
ATOM     11  C   UNL     1     -19.008  38.239  84.984  1.00  0.00    -0.000 C 
BRANCH  11  12
ATOM     12  C   UNL     1     -20.280  38.230  85.848  1.00  0.00    -0.000 C 
BRANCH  12  13
ATOM     13  C   UNL     1     -19.994  38.119  87.361  1.00  0.00    -0.000 C 
BRANCH  13  14
ATOM     14  C   UNL     1     -20.726  39.206  88.169  1.00  0.00    -0.000 C 
BRANCH  14  15
ATOM     15  C   UNL     1     -21.193  40.379  87.293  1.00  0.00    -0.003 C 
ATOM     16  C   UNL     1     -20.244  41.575  87.355  1.00  0.00     0.004 C 
ENDBRANCH  14  15
ENDBRANCH  13  14
ENDBRANCH  12  13
ENDBRANCH  11  12
ENDBRANCH  10  11
ENDBRANCH   1  10
TORSDOF 12
ENDMDL
MODEL 5
REMARK VINA RESULT:    -4.949      8.024     10.289
REMARK INTER + INTRA:          -9.128
REMARK INTER:                  -8.442
REMARK INTRA:                  -0.687
REMARK UNBOUND:                -0.708
REMARK SMILES CCCCCCCCCCCCCC(=O)[O-]
REMARK SMILES IDX 8 1 9 2 10 3 11 4 12 5 13 6 14 7 15 8 16 9 7 10 6 11 5 12
REMARK SMILES IDX 4 13 3 14 2 15 1 16
REMARK H PARENT
REMARK Flexibility Score: inf
ROOT
ATOM      1  C   UNL     1     -23.933  44.902  87.895  1.00  0.00     0.000 C 
ENDROOT
BRANCH   1   2
ATOM      2  C   UNL     1     -25.182  45.636  87.366  1.00  0.00     0.000 C 
BRANCH   2   3
ATOM      3  C   UNL     1     -26.167  46.103  88.451  1.00  0.00     0.000 C 
BRANCH   3   4
ATOM      4  C   UNL     1     -25.803  45.581  89.849  1.00  0.00     0.000 C 
BRANCH   4   5
ATOM      5  C   UNL     1     -27.060  45.152  90.616  1.00  0.00     0.006 C 
BRANCH   5   6
ATOM      6  C   UNL     1     -26.967  43.685  91.044  1.00  0.00     0.053 C 
BRANCH   6   7
ATOM      7  C   UNL     1     -28.151  42.917  90.548  1.00  0.00     0.041 C 
ATOM      8  O   UNL     1     -29.083  42.611  91.337  1.00  0.00    -0.550 OA
ATOM      9  O   UNL     1     -28.201  42.494  89.226  1.00  0.00    -0.550 OA
ENDBRANCH   6   7
ENDBRANCH   5   6
ENDBRANCH   4   5
ENDBRANCH   3   4
ENDBRANCH   2   3
ENDBRANCH   1   2
BRANCH   1  10
ATOM     10  C   UNL     1     -22.604  45.609  87.552  1.00  0.00     0.000 C 
BRANCH  10  11
ATOM     11  C   UNL     1     -22.570  46.115  86.101  1.00  0.00    -0.000 C 
BRANCH  11  12
ATOM     12  C   UNL     1     -21.347  45.606  85.319  1.00  0.00    -0.000 C 
BRANCH  12  13
ATOM     13  C   UNL     1     -20.288  44.924  86.212  1.00  0.00    -0.000 C 
BRANCH  13  14
ATOM     14  C   UNL     1     -19.239  44.161  85.384  1.00  0.00    -0.000 C 
BRANCH  14  15
ATOM     15  C   UNL     1     -17.859  44.835  85.411  1.00  0.00    -0.003 C 
ATOM     16  C   UNL     1     -17.709  45.916  84.341  1.00  0.00     0.004 C 
ENDBRANCH  14  15
ENDBRANCH  13  14
ENDBRANCH  12  13
ENDBRANCH  11  12
ENDBRANCH  10  11
ENDBRANCH   1  10
TORSDOF 12
ENDMDL
MODEL 6
REMARK VINA RESULT:    -4.935      5.980      8.372
REMARK INTER + INTRA:          -9.104
REMARK INTER:                  -7.766
REMARK INTRA:                  -1.338
REMARK UNBOUND:                -0.708
REMARK SMILES CCCCCCCCCCCCCC(=O)[O-]
REMARK SMILES IDX 8 1 9 2 10 3 11 4 12 5 13 6 14 7 15 8 16 9 7 10 6 11 5 12
REMARK SMILES IDX 4 13 3 14 2 15 1 16
REMARK H PARENT
REMARK Flexibility Score: inf
ROOT
ATOM      1  C   UNL     1     -21.044  45.928  86.566  1.00  0.00     0.000 C 
ENDROOT
BRANCH   1   2
ATOM      2  C   UNL     1     -20.513  44.577  87.085  1.00  0.00     0.000 C 
BRANCH   2   3
ATOM      3  C   UNL     1     -20.558  43.428  86.064  1.00  0.00     0.000 C 
BRANCH   3   4
ATOM      4  C   UNL     1     -19.585  42.290  86.405  1.00  0.00     0.000 C 
BRANCH   4   5
ATOM      5  C   UNL     1     -20.346  41.032  86.839  1.00  0.00     0.006 C 
BRANCH   5   6
ATOM      6  C   UNL     1     -19.557  40.247  87.890  1.00  0.00     0.053 C 
BRANCH   6   7
ATOM      7  C   UNL     1     -20.337  39.057  88.352  1.00  0.00     0.041 C 
ATOM      8  O   UNL     1     -21.036  38.402  87.535  1.00  0.00    -0.550 OA
ATOM      9  O   UNL     1     -20.336  38.704  89.696  1.00  0.00    -0.550 OA
ENDBRANCH   6   7
ENDBRANCH   5   6
ENDBRANCH   4   5
ENDBRANCH   3   4
ENDBRANCH   2   3
ENDBRANCH   1   2
BRANCH   1  10
ATOM     10  C   UNL     1     -21.661  45.854  85.153  1.00  0.00     0.000 C 
BRANCH  10  11
ATOM     11  C   UNL     1     -21.227  47.030  84.263  1.00  0.00    -0.000 C 
BRANCH  11  12
ATOM     12  C   UNL     1     -20.747  46.581  82.872  1.00  0.00    -0.000 C 
BRANCH  12  13
ATOM     13  C   UNL     1     -19.265  46.913  82.597  1.00  0.00    -0.000 C 
BRANCH  13  14
ATOM     14  C   UNL     1     -18.395  46.758  83.857  1.00  0.00    -0.000 C 
BRANCH  14  15
ATOM     15  C   UNL     1     -17.949  45.307  84.093  1.00  0.00    -0.003 C 
ATOM     16  C   UNL     1     -17.149  45.137  85.384  1.00  0.00     0.004 C 
ENDBRANCH  14  15
ENDBRANCH  13  14
ENDBRANCH  12  13
ENDBRANCH  11  12
ENDBRANCH  10  11
ENDBRANCH   1  10
TORSDOF 12
ENDMDL
MODEL 7
REMARK VINA RESULT:    -4.921      5.347      7.770
REMARK INTER + INTRA:          -9.082
REMARK INTER:                  -7.752
REMARK INTRA:                  -1.329
REMARK UNBOUND:                -0.708
REMARK SMILES CCCCCCCCCCCCCC(=O)[O-]
REMARK SMILES IDX 8 1 9 2 10 3 11 4 12 5 13 6 14 7 15 8 16 9 7 10 6 11 5 12
REMARK SMILES IDX 4 13 3 14 2 15 1 16
REMARK H PARENT
REMARK Flexibility Score: inf
ROOT
ATOM      1  C   UNL     1     -20.795  44.712  86.980  1.00  0.00     0.000 C 
ENDROOT
BRANCH   1   2
ATOM      2  C   UNL     1     -21.933  44.052  87.784  1.00  0.00     0.000 C 
BRANCH   2   3
ATOM      3  C   UNL     1     -21.759  42.546  88.038  1.00  0.00     0.000 C 
BRANCH   3   4
ATOM      4  C   UNL     1     -20.532  42.228  88.907  1.00  0.00     0.000 C 
BRANCH   4   5
ATOM      5  C   UNL     1     -20.158  40.744  88.801  1.00  0.00     0.006 C 
BRANCH   5   6
ATOM      6  C   UNL     1     -19.540  40.430  87.436  1.00  0.00     0.053 C 
BRANCH   6   7
ATOM      7  C   UNL     1     -20.275  39.308  86.773  1.00  0.00     0.041 C 
ATOM      8  O   UNL     1     -21.476  39.076  87.069  1.00  0.00    -0.550 OA
ATOM      9  O   UNL     1     -19.617  38.485  85.868  1.00  0.00    -0.550 OA
ENDBRANCH   6   7
ENDBRANCH   5   6
ENDBRANCH   4   5
ENDBRANCH   3   4
ENDBRANCH   2   3
ENDBRANCH   1   2
BRANCH   1  10
ATOM     10  C   UNL     1     -20.524  44.040  85.617  1.00  0.00     0.000 C 
BRANCH  10  11
ATOM     11  C   UNL     1     -19.062  43.590  85.467  1.00  0.00    -0.000 C 
BRANCH  11  12
ATOM     12  C   UNL     1     -18.070  44.765  85.490  1.00  0.00    -0.000 C 
BRANCH  12  13
ATOM     13  C   UNL     1     -17.833  45.396  84.101  1.00  0.00    -0.000 C 
BRANCH  13  14
ATOM     14  C   UNL     1     -18.531  46.761  83.960  1.00  0.00    -0.000 C 
BRANCH  14  15
ATOM     15  C   UNL     1     -19.304  46.896  82.640  1.00  0.00    -0.003 C 
ATOM     16  C   UNL     1     -20.659  46.190  82.674  1.00  0.00     0.004 C 
ENDBRANCH  14  15
ENDBRANCH  13  14
ENDBRANCH  12  13
ENDBRANCH  11  12
ENDBRANCH  10  11
ENDBRANCH   1  10
TORSDOF 12
ENDMDL
MODEL 8
REMARK VINA RESULT:    -4.837      6.111      7.717
REMARK INTER + INTRA:          -8.937
REMARK INTER:                  -7.501
REMARK INTRA:                  -1.436
REMARK UNBOUND:                -0.708
REMARK SMILES CCCCCCCCCCCCCC(=O)[O-]
REMARK SMILES IDX 8 1 9 2 10 3 11 4 12 5 13 6 14 7 15 8 16 9 7 10 6 11 5 12
REMARK SMILES IDX 4 13 3 14 2 15 1 16
REMARK H PARENT
REMARK Flexibility Score: inf
ROOT
ATOM      1  C   UNL     1     -21.126  44.523  87.760  1.00  0.00     0.000 C 
ENDROOT
BRANCH   1   2
ATOM      2  C   UNL     1     -22.264  43.487  87.859  1.00  0.00     0.000 C 
BRANCH   2   3
ATOM      3  C   UNL     1     -21.859  42.137  88.474  1.00  0.00     0.000 C 
BRANCH   3   4
ATOM      4  C   UNL     1     -20.336  41.938  88.522  1.00  0.00     0.000 C 
BRANCH   4   5
ATOM      5  C   UNL     1     -19.915  40.738  87.666  1.00  0.00     0.006 C 
BRANCH   5   6
ATOM      6  C   UNL     1     -20.898  39.575  87.827  1.00  0.00     0.053 C 
BRANCH   6   7
ATOM      7  C   UNL     1     -20.373  38.576  88.808  1.00  0.00     0.041 C 
ATOM      8  O   UNL     1     -19.699  37.590  88.410  1.00  0.00    -0.550 OA
ATOM      9  O   UNL     1     -20.675  38.704  90.159  1.00  0.00    -0.550 OA
ENDBRANCH   6   7
ENDBRANCH   5   6
ENDBRANCH   4   5
ENDBRANCH   3   4
ENDBRANCH   2   3
ENDBRANCH   1   2
BRANCH   1  10
ATOM     10  C   UNL     1     -21.004  45.183  86.369  1.00  0.00     0.000 C 
BRANCH  10  11
ATOM     11  C   UNL     1     -20.526  44.194  85.293  1.00  0.00    -0.000 C 
BRANCH  11  12
ATOM     12  C   UNL     1     -19.085  43.710  85.525  1.00  0.00    -0.000 C 
BRANCH  12  13
ATOM     13  C   UNL     1     -18.042  44.847  85.489  1.00  0.00    -0.000 C 
BRANCH  13  14
ATOM     14  C   UNL     1     -17.771  45.338  84.056  1.00  0.00    -0.000 C 
BRANCH  14  15
ATOM     15  C   UNL     1     -18.225  46.789  83.832  1.00  0.00    -0.003 C 
ATOM     16  C   UNL     1     -19.399  46.897  82.860  1.00  0.00     0.004 C 
ENDBRANCH  14  15
ENDBRANCH  13  14
ENDBRANCH  12  13
ENDBRANCH  11  12
ENDBRANCH  10  11
ENDBRANCH   1  10
TORSDOF 12
ENDMDL
MODEL 9
REMARK VINA RESULT:    -4.799      5.522      7.333
REMARK INTER + INTRA:          -8.873
REMARK INTER:                  -7.637
REMARK INTRA:                  -1.236
REMARK UNBOUND:                -0.708
REMARK SMILES CCCCCCCCCCCCCC(=O)[O-]
REMARK SMILES IDX 8 1 9 2 10 3 11 4 12 5 13 6 14 7 15 8 16 9 7 10 6 11 5 12
REMARK SMILES IDX 4 13 3 14 2 15 1 16
REMARK H PARENT
REMARK Flexibility Score: inf
ROOT
ATOM      1  C   UNL     1     -20.558  41.889  88.426  1.00  0.00     0.000 C 
ENDROOT
BRANCH   1   2
ATOM      2  C   UNL     1     -19.590  40.946  87.683  1.00  0.00     0.000 C 
BRANCH   2   3
ATOM      3  C   UNL     1     -20.266  39.790  86.927  1.00  0.00     0.000 C 
BRANCH   3   4
ATOM      4  C   UNL     1     -20.897  38.752  87.867  1.00  0.00     0.000 C 
BRANCH   4   5
ATOM      5  C   UNL     1     -19.815  37.970  88.621  1.00  0.00     0.006 C 
BRANCH   5   6
ATOM      6  C   UNL     1     -19.941  38.176  90.133  1.00  0.00     0.053 C 
BRANCH   6   7
ATOM      7  C   UNL     1     -18.898  39.130  90.621  1.00  0.00     0.041 C 
ATOM      8  O   UNL     1     -17.686  38.947  90.331  1.00  0.00    -0.550 OA
ATOM      9  O   UNL     1     -19.257  40.193  91.442  1.00  0.00    -0.550 OA
ENDBRANCH   6   7
ENDBRANCH   5   6
ENDBRANCH   4   5
ENDBRANCH   3   4
ENDBRANCH   2   3
ENDBRANCH   1   2
BRANCH   1  10
ATOM     10  C   UNL     1     -21.773  42.327  87.580  1.00  0.00     0.000 C 
BRANCH  10  11
ATOM     11  C   UNL     1     -21.965  43.852  87.579  1.00  0.00    -0.000 C 
BRANCH  11  12
ATOM     12  C   UNL     1     -20.730  44.609  87.064  1.00  0.00    -0.000 C 
BRANCH  12  13
ATOM     13  C   UNL     1     -20.397  44.307  85.587  1.00  0.00    -0.000 C 
BRANCH  13  14
ATOM     14  C   UNL     1     -18.983  43.724  85.421  1.00  0.00    -0.000 C 
BRANCH  14  15
ATOM     15  C   UNL     1     -17.892  44.806  85.427  1.00  0.00    -0.003 C 
ATOM     16  C   UNL     1     -17.893  45.652  84.154  1.00  0.00     0.004 C 
ENDBRANCH  14  15
ENDBRANCH  13  14
ENDBRANCH  12  13
ENDBRANCH  11  12
ENDBRANCH  10  11
ENDBRANCH   1  10
TORSDOF 12
ENDMDL
