MODEL 1
REMARK VINA RESULT:    -6.803      0.000      0.000
REMARK INTER + INTRA:          -8.688
REMARK INTER:                  -8.196
REMARK INTRA:                  -0.493
REMARK UNBOUND:                -0.493
REMARK SMILES Oc1cc(O)c2c(c1)O[C@@H](c1ccc(O)c(O)c1)[C@H](O)C2
REMARK SMILES IDX 21 1 19 2 10 3 9 4 7 5 8 6 2 7 3 8 4 9 6 10 20 11 11 13
REMARK SMILES IDX 18 14 12 15 16 16 13 17 14 18 17 19 15 21 5 23 1 25
REMARK H PARENT 20 12 17 20 15 22 5 24 1 26
REMARK Flexibility Score: inf
ROOT
ATOM      1  C   UNL     1      17.674 -45.920  69.665  1.00  0.00     0.079 C 
ATOM      2  C   UNL     1      16.779 -45.068  68.748  1.00  0.00     0.164 C 
ATOM      3  C   UNL     1      15.723 -45.946  68.041  1.00  0.00     0.232 C 
ATOM      4  O   UNL     1      16.349 -47.049  67.379  1.00  0.00    -0.482 OA
ATOM      5  C   UNL     1      17.519 -47.662  67.845  1.00  0.00     0.131 A 
ATOM      6  C   UNL     1      17.999 -48.793  67.179  1.00  0.00     0.093 A 
ATOM      7  C   UNL     1      19.144 -49.448  67.635  1.00  0.00     0.122 A 
ATOM      8  C   UNL     1      19.807 -48.977  68.774  1.00  0.00     0.092 A 
ATOM      9  C   UNL     1      19.338 -47.850  69.457  1.00  0.00     0.126 A 
ATOM     10  C   UNL     1      18.205 -47.154  68.969  1.00  0.00     0.039 A 
ENDROOT
BRANCH   2  11
ATOM     11  O   UNL     1      17.584 -44.431  67.788  1.00  0.00    -0.389 OA
ATOM     12  H   UNL     1      18.094 -45.144  67.322  1.00  0.00     0.211 HD
ENDBRANCH   2  11
BRANCH   3  13
ATOM     13  C   UNL     1      14.639 -46.404  69.001  1.00  0.00    -0.001 A 
ATOM     14  C   UNL     1      13.919 -45.439  69.728  1.00  0.00     0.057 A 
ATOM     15  C   UNL     1      14.366 -47.766  69.225  1.00  0.00     0.012 A 
ATOM     16  C   UNL     1      12.933 -45.825  70.647  1.00  0.00     0.157 A 
ATOM     17  C   UNL     1      13.383 -48.150  70.140  1.00  0.00     0.050 A 
ATOM     18  C   UNL     1      12.664 -47.182  70.852  1.00  0.00     0.157 A 
BRANCH  16  19
ATOM     19  O   UNL     1      12.220 -44.864  71.360  1.00  0.00    -0.504 OA
ATOM     20  H   UNL     1      11.680 -45.106  72.183  1.00  0.00     0.293 HD
ENDBRANCH  16  19
BRANCH  18  21
ATOM     21  O   UNL     1      11.683 -47.563  71.765  1.00  0.00    -0.504 OA
ATOM     22  H   UNL     1      10.897 -48.141  71.490  1.00  0.00     0.293 HD
ENDBRANCH  18  21
ENDBRANCH   3  13
BRANCH   9  23
ATOM     23  O   UNL     1      20.011 -47.458  70.616  1.00  0.00    -0.507 OA
ATOM     24  H   UNL     1      20.749 -46.767  70.626  1.00  0.00     0.293 HD
ENDBRANCH   9  23
BRANCH   7  25
ATOM     25  O   UNL     1      19.609 -50.573  66.957  1.00  0.00    -0.508 OA
ATOM     26  H   UNL     1      20.586 -50.840  66.984  1.00  0.00     0.293 HD
ENDBRANCH   7  25
TORSDOF 6
ENDMDL
MODEL 2
REMARK VINA RESULT:    -6.788      2.227      4.042
REMARK INTER + INTRA:          -8.669
REMARK INTER:                  -8.224
REMARK INTRA:                  -0.445
REMARK UNBOUND:                -0.493
REMARK SMILES Oc1cc(O)c2c(c1)O[C@@H](c1ccc(O)c(O)c1)[C@H](O)C2
REMARK SMILES IDX 21 1 19 2 10 3 9 4 7 5 8 6 2 7 3 8 4 9 6 10 20 11 11 13
REMARK SMILES IDX 18 14 12 15 16 16 13 17 14 18 17 19 15 21 5 23 1 25
REMARK H PARENT 20 12 17 20 15 22 5 24 1 26
REMARK Flexibility Score: inf
ROOT
ATOM      1  C   UNL     1      15.544 -47.840  67.936  1.00  0.00     0.079 C 
ATOM      2  C   UNL     1      16.240 -48.316  69.223  1.00  0.00     0.164 C 
ATOM      3  C   UNL     1      16.098 -47.266  70.345  1.00  0.00     0.232 C 
ATOM      4  O   UNL     1      16.536 -45.982  69.891  1.00  0.00    -0.482 OA
ATOM      5  C   UNL     1      16.416 -45.555  68.562  1.00  0.00     0.131 A 
ATOM      6  C   UNL     1      16.789 -44.248  68.237  1.00  0.00     0.093 A 
ATOM      7  C   UNL     1      16.653 -43.779  66.930  1.00  0.00     0.122 A 
ATOM      8  C   UNL     1      16.128 -44.619  65.941  1.00  0.00     0.092 A 
ATOM      9  C   UNL     1      15.745 -45.930  66.249  1.00  0.00     0.126 A 
ATOM     10  C   UNL     1      15.927 -46.425  67.562  1.00  0.00     0.039 A 
ENDROOT
BRANCH   2  11
ATOM     11  O   UNL     1      17.600 -48.538  68.950  1.00  0.00    -0.389 OA
ATOM     12  H   UNL     1      17.662 -48.812  67.999  1.00  0.00     0.211 HD
ENDBRANCH   2  11
BRANCH   3  13
ATOM     13  C   UNL     1      14.683 -47.218  70.895  1.00  0.00    -0.001 A 
ATOM     14  C   UNL     1      13.965 -46.010  70.827  1.00  0.00     0.057 A 
ATOM     15  C   UNL     1      14.085 -48.329  71.518  1.00  0.00     0.012 A 
ATOM     16  C   UNL     1      12.668 -45.918  71.352  1.00  0.00     0.157 A 
ATOM     17  C   UNL     1      12.792 -48.237  72.041  1.00  0.00     0.050 A 
ATOM     18  C   UNL     1      12.081 -47.033  71.959  1.00  0.00     0.157 A 
BRANCH  16  19
ATOM     19  O   UNL     1      11.961 -44.720  71.276  1.00  0.00    -0.504 OA
ATOM     20  H   UNL     1      11.629 -44.355  70.391  1.00  0.00     0.293 HD
ENDBRANCH  16  19
BRANCH  18  21
ATOM     21  O   UNL     1      10.792 -46.939  72.480  1.00  0.00    -0.504 OA
ATOM     22  H   UNL     1      10.135 -47.707  72.412  1.00  0.00     0.293 HD
ENDBRANCH  18  21
ENDBRANCH   3  13
BRANCH   9  23
ATOM     23  O   UNL     1      15.180 -46.704  65.232  1.00  0.00    -0.507 OA
ATOM     24  H   UNL     1      15.577 -47.576  64.910  1.00  0.00     0.293 HD
ENDBRANCH   9  23
BRANCH   7  25
ATOM     25  O   UNL     1      17.031 -42.474  66.624  1.00  0.00    -0.508 OA
ATOM     26  H   UNL     1      17.964 -42.257  66.292  1.00  0.00     0.293 HD
ENDBRANCH   7  25
TORSDOF 6
ENDMDL
MODEL 3
REMARK VINA RESULT:    -6.778      2.474      5.801
REMARK INTER + INTRA:          -8.657
REMARK INTER:                  -8.146
REMARK INTRA:                  -0.511
REMARK UNBOUND:                -0.493
REMARK SMILES Oc1cc(O)c2c(c1)O[C@@H](c1ccc(O)c(O)c1)[C@H](O)C2
REMARK SMILES IDX 21 1 19 2 10 3 9 4 7 5 8 6 2 7 3 8 4 9 6 10 20 11 11 13
REMARK SMILES IDX 18 14 12 15 16 16 13 17 14 18 17 19 15 21 5 23 1 25
REMARK H PARENT 20 12 17 20 15 22 5 24 1 26
REMARK Flexibility Score: inf
ROOT
ATOM      1  C   UNL     1      18.955 -47.908  70.453  1.00  0.00     0.079 C 
ATOM      2  C   UNL     1      19.303 -48.073  68.963  1.00  0.00     0.164 C 
ATOM      3  C   UNL     1      18.376 -47.207  68.083  1.00  0.00     0.232 C 
ATOM      4  O   UNL     1      17.003 -47.469  68.390  1.00  0.00    -0.482 OA
ATOM      5  C   UNL     1      16.557 -47.834  69.667  1.00  0.00     0.131 A 
ATOM      6  C   UNL     1      15.185 -47.977  69.888  1.00  0.00     0.093 A 
ATOM      7  C   UNL     1      14.703 -48.309  71.155  1.00  0.00     0.122 A 
ATOM      8  C   UNL     1      15.600 -48.486  72.214  1.00  0.00     0.092 A 
ATOM      9  C   UNL     1      16.978 -48.343  72.014  1.00  0.00     0.126 A 
ATOM     10  C   UNL     1      17.473 -48.054  70.719  1.00  0.00     0.039 A 
ENDROOT
BRANCH   2  11
ATOM     11  O   UNL     1      19.164 -49.426  68.609  1.00  0.00    -0.389 OA
ATOM     12  H   UNL     1      18.283 -49.724  68.955  1.00  0.00     0.211 HD
ENDBRANCH   2  11
BRANCH   3  13
ATOM     13  C   UNL     1      18.708 -45.730  68.199  1.00  0.00    -0.001 A 
ATOM     14  C   UNL     1      20.054 -45.326  68.138  1.00  0.00     0.057 A 
ATOM     15  C   UNL     1      17.717 -44.755  68.418  1.00  0.00     0.012 A 
ATOM     16  C   UNL     1      20.403 -43.975  68.272  1.00  0.00     0.157 A 
ATOM     17  C   UNL     1      18.065 -43.409  68.552  1.00  0.00     0.050 A 
ATOM     18  C   UNL     1      19.407 -43.015  68.479  1.00  0.00     0.157 A 
BRANCH  16  19
ATOM     19  O   UNL     1      21.738 -43.581  68.205  1.00  0.00    -0.504 OA
ATOM     20  H   UNL     1      22.174 -43.054  68.953  1.00  0.00     0.293 HD
ENDBRANCH  16  19
BRANCH  18  21
ATOM     21  O   UNL     1      19.756 -41.673  68.612  1.00  0.00    -0.504 OA
ATOM     22  H   UNL     1      20.397 -41.224  67.967  1.00  0.00     0.293 HD
ENDBRANCH  18  21
ENDBRANCH   3  13
BRANCH   9  23
ATOM     23  O   UNL     1      17.820 -48.482  73.120  1.00  0.00    -0.507 OA
ATOM     24  H   UNL     1      18.136 -49.375  73.471  1.00  0.00     0.293 HD
ENDBRANCH   9  23
BRANCH   7  25
ATOM     25  O   UNL     1      13.332 -48.449  71.355  1.00  0.00    -0.508 OA
ATOM     26  H   UNL     1      12.819 -47.821  71.962  1.00  0.00     0.293 HD
ENDBRANCH   7  25
TORSDOF 6
ENDMDL
MODEL 4
REMARK VINA RESULT:    -6.641      3.388      5.105
REMARK INTER + INTRA:          -8.493
REMARK INTER:                  -7.971
REMARK INTRA:                  -0.522
REMARK UNBOUND:                -0.493
REMARK SMILES Oc1cc(O)c2c(c1)O[C@@H](c1ccc(O)c(O)c1)[C@H](O)C2
REMARK SMILES IDX 21 1 19 2 10 3 9 4 7 5 8 6 2 7 3 8 4 9 6 10 20 11 11 13
REMARK SMILES IDX 18 14 12 15 16 16 13 17 14 18 17 19 15 21 5 23 1 25
REMARK H PARENT 20 12 17 20 15 22 5 24 1 26
REMARK Flexibility Score: inf
ROOT
ATOM      1  C   UNL     1      19.260 -44.514  67.562  1.00  0.00     0.079 C 
ATOM      2  C   UNL     1      19.214 -45.907  66.912  1.00  0.00     0.164 C 
ATOM      3  C   UNL     1      19.608 -47.001  67.928  1.00  0.00     0.232 C 
ATOM      4  O   UNL     1      20.862 -46.689  68.542  1.00  0.00    -0.482 OA
ATOM      5  C   UNL     1      21.300 -45.378  68.772  1.00  0.00     0.131 A 
ATOM      6  C   UNL     1      22.498 -45.179  69.462  1.00  0.00     0.093 A 
ATOM      7  C   UNL     1      22.949 -43.887  69.738  1.00  0.00     0.122 A 
ATOM      8  C   UNL     1      22.188 -42.785  69.331  1.00  0.00     0.092 A 
ATOM      9  C   UNL     1      20.983 -42.965  68.643  1.00  0.00     0.126 A 
ATOM     10  C   UNL     1      20.547 -44.272  68.319  1.00  0.00     0.039 A 
ENDROOT
BRANCH   2  11
ATOM     11  O   UNL     1      20.101 -45.932  65.822  1.00  0.00    -0.389 OA
ATOM     12  H   UNL     1      19.743 -45.300  65.146  1.00  0.00     0.211 HD
ENDBRANCH   2  11
BRANCH   3  13
ATOM     13  C   UNL     1      18.517 -47.230  68.959  1.00  0.00    -0.001 A 
ATOM     14  C   UNL     1      18.873 -47.362  70.313  1.00  0.00     0.057 A 
ATOM     15  C   UNL     1      17.163 -47.367  68.598  1.00  0.00     0.012 A 
ATOM     16  C   UNL     1      17.898 -47.605  71.290  1.00  0.00     0.157 A 
ATOM     17  C   UNL     1      16.191 -47.609  69.571  1.00  0.00     0.050 A 
ATOM     18  C   UNL     1      16.554 -47.728  70.918  1.00  0.00     0.157 A 
BRANCH  16  19
ATOM     19  O   UNL     1      18.257 -47.729  72.630  1.00  0.00    -0.504 OA
ATOM     20  H   UNL     1      18.513 -46.922  73.188  1.00  0.00     0.293 HD
ENDBRANCH  16  19
BRANCH  18  21
ATOM     21  O   UNL     1      15.587 -47.970  71.891  1.00  0.00    -0.504 OA
ATOM     22  H   UNL     1      15.473 -47.358  72.691  1.00  0.00     0.293 HD
ENDBRANCH  18  21
ENDBRANCH   3  13
BRANCH   9  23
ATOM     23  O   UNL     1      20.242 -41.829  68.309  1.00  0.00    -0.507 OA
ATOM     24  H   UNL     1      20.216 -41.435  67.378  1.00  0.00     0.293 HD
ENDBRANCH   9  23
BRANCH   7  25
ATOM     25  O   UNL     1      24.147 -43.708  70.425  1.00  0.00    -0.508 OA
ATOM     26  H   UNL     1      24.904 -44.378  70.352  1.00  0.00     0.293 HD
ENDBRANCH   7  25
TORSDOF 6
ENDMDL
MODEL 5
REMARK VINA RESULT:    -6.637      2.164      3.232
REMARK INTER + INTRA:          -8.488
REMARK INTER:                  -7.965
REMARK INTRA:                  -0.522
REMARK UNBOUND:                -0.493
REMARK SMILES Oc1cc(O)c2c(c1)O[C@@H](c1ccc(O)c(O)c1)[C@H](O)C2
REMARK SMILES IDX 21 1 19 2 10 3 9 4 7 5 8 6 2 7 3 8 4 9 6 10 20 11 11 13
REMARK SMILES IDX 18 14 12 15 16 16 13 17 14 18 17 19 15 21 5 23 1 25
REMARK H PARENT 20 12 17 20 15 22 5 24 1 26
REMARK Flexibility Score: inf
ROOT
ATOM      1  C   UNL     1      17.507 -48.524  70.329  1.00  0.00     0.079 C 
ATOM      2  C   UNL     1      17.006 -47.706  71.531  1.00  0.00     0.164 C 
ATOM      3  C   UNL     1      16.696 -46.251  71.116  1.00  0.00     0.232 C 
ATOM      4  O   UNL     1      17.820 -45.670  70.447  1.00  0.00    -0.482 OA
ATOM      5  C   UNL     1      18.714 -46.409  69.663  1.00  0.00     0.131 A 
ATOM      6  C   UNL     1      19.726 -45.734  68.974  1.00  0.00     0.093 A 
ATOM      7  C   UNL     1      20.615 -46.435  68.158  1.00  0.00     0.122 A 
ATOM      8  C   UNL     1      20.484 -47.822  68.019  1.00  0.00     0.092 A 
ATOM      9  C   UNL     1      19.475 -48.515  68.697  1.00  0.00     0.126 A 
ATOM     10  C   UNL     1      18.601 -47.814  69.563  1.00  0.00     0.039 A 
ENDROOT
BRANCH   2  11
ATOM     11  O   UNL     1      17.993 -47.712  72.531  1.00  0.00    -0.389 OA
ATOM     12  H   UNL     1      18.422 -46.818  72.518  1.00  0.00     0.211 HD
ENDBRANCH   2  11
BRANCH   3  13
ATOM     13  C   UNL     1      15.433 -46.162  70.279  1.00  0.00    -0.001 A 
ATOM     14  C   UNL     1      15.430 -45.351  69.130  1.00  0.00     0.057 A 
ATOM     15  C   UNL     1      14.246 -46.825  70.644  1.00  0.00     0.012 A 
ATOM     16  C   UNL     1      14.273 -45.219  68.349  1.00  0.00     0.157 A 
ATOM     17  C   UNL     1      13.093 -46.693  69.866  1.00  0.00     0.050 A 
ATOM     18  C   UNL     1      13.103 -45.892  68.717  1.00  0.00     0.157 A 
BRANCH  16  19
ATOM     19  O   UNL     1      14.280 -44.418  67.209  1.00  0.00    -0.504 OA
ATOM     20  H   UNL     1      14.271 -43.406  67.271  1.00  0.00     0.293 HD
ENDBRANCH  16  19
BRANCH  18  21
ATOM     21  O   UNL     1      11.955 -45.759  67.940  1.00  0.00    -0.504 OA
ATOM     22  H   UNL     1      11.637 -46.503  67.330  1.00  0.00     0.293 HD
ENDBRANCH  18  21
ENDBRANCH   3  13
BRANCH   9  23
ATOM     23  O   UNL     1      19.362 -49.889  68.478  1.00  0.00    -0.507 OA
ATOM     24  H   UNL     1      19.994 -50.571  68.876  1.00  0.00     0.293 HD
ENDBRANCH   9  23
BRANCH   7  25
ATOM     25  O   UNL     1      21.618 -45.745  67.482  1.00  0.00    -0.508 OA
ATOM     26  H   UNL     1      21.518 -45.486  66.508  1.00  0.00     0.293 HD
ENDBRANCH   7  25
TORSDOF 6
ENDMDL
MODEL 6
REMARK VINA RESULT:    -6.631      2.227      5.169
REMARK INTER + INTRA:          -8.480
REMARK INTER:                  -8.158
REMARK INTRA:                  -0.322
REMARK UNBOUND:                -0.493
REMARK SMILES Oc1cc(O)c2c(c1)O[C@@H](c1ccc(O)c(O)c1)[C@H](O)C2
REMARK SMILES IDX 21 1 19 2 10 3 9 4 7 5 8 6 2 7 3 8 4 9 6 10 20 11 11 13
REMARK SMILES IDX 18 14 12 15 16 16 13 17 14 18 17 19 15 21 5 23 1 25
REMARK H PARENT 20 12 17 20 15 22 5 24 1 26
REMARK Flexibility Score: inf
ROOT
ATOM      1  C   UNL     1      17.088 -47.803  69.927  1.00  0.00     0.079 C 
ATOM      2  C   UNL     1      17.125 -47.899  68.392  1.00  0.00     0.164 C 
ATOM      3  C   UNL     1      15.988 -47.065  67.762  1.00  0.00     0.232 C 
ATOM      4  O   UNL     1      14.726 -47.422  68.335  1.00  0.00    -0.482 OA
ATOM      5  C   UNL     1      14.579 -47.855  69.659  1.00  0.00     0.131 A 
ATOM      6  C   UNL     1      13.293 -48.091  70.153  1.00  0.00     0.093 A 
ATOM      7  C   UNL     1      13.107 -48.492  71.477  1.00  0.00     0.122 A 
ATOM      8  C   UNL     1      14.214 -48.647  72.318  1.00  0.00     0.092 A 
ATOM      9  C   UNL     1      15.509 -48.411  71.843  1.00  0.00     0.126 A 
ATOM     10  C   UNL     1      15.706 -48.051  70.488  1.00  0.00     0.039 A 
ENDROOT
BRANCH   2  11
ATOM     11  O   UNL     1      16.989 -49.245  68.015  1.00  0.00    -0.389 OA
ATOM     12  H   UNL     1      16.513 -49.253  67.144  1.00  0.00     0.211 HD
ENDBRANCH   2  11
BRANCH   3  13
ATOM     13  C   UNL     1      16.256 -45.574  67.872  1.00  0.00    -0.001 A 
ATOM     14  C   UNL     1      15.224 -44.670  67.562  1.00  0.00     0.057 A 
ATOM     15  C   UNL     1      17.521 -45.066  68.223  1.00  0.00     0.012 A 
ATOM     16  C   UNL     1      15.443 -43.287  67.622  1.00  0.00     0.157 A 
ATOM     17  C   UNL     1      17.738 -43.687  68.283  1.00  0.00     0.050 A 
ATOM     18  C   UNL     1      16.702 -42.795  67.983  1.00  0.00     0.157 A 
BRANCH  16  19
ATOM     19  O   UNL     1      14.415 -42.397  67.319  1.00  0.00    -0.504 OA
ATOM     20  H   UNL     1      13.536 -42.715  66.927  1.00  0.00     0.293 HD
ENDBRANCH  16  19
BRANCH  18  21
ATOM     21  O   UNL     1      16.917 -41.419  68.041  1.00  0.00    -0.504 OA
ATOM     22  H   UNL     1      16.158 -40.770  68.215  1.00  0.00     0.293 HD
ENDBRANCH  18  21
ENDBRANCH   3  13
BRANCH   9  23
ATOM     23  O   UNL     1      16.570 -48.532  72.743  1.00  0.00    -0.507 OA
ATOM     24  H   UNL     1      16.597 -49.218  73.485  1.00  0.00     0.293 HD
ENDBRANCH   9  23
BRANCH   7  25
ATOM     25  O   UNL     1      11.817 -48.724  71.950  1.00  0.00    -0.508 OA
ATOM     26  H   UNL     1      11.562 -48.522  72.909  1.00  0.00     0.293 HD
ENDBRANCH   7  25
TORSDOF 6
ENDMDL
MODEL 7
REMARK VINA RESULT:    -6.508      3.783      6.890
REMARK INTER + INTRA:          -8.333
REMARK INTER:                  -7.961
REMARK INTRA:                  -0.372
REMARK UNBOUND:                -0.493
REMARK SMILES Oc1cc(O)c2c(c1)O[C@@H](c1ccc(O)c(O)c1)[C@H](O)C2
REMARK SMILES IDX 21 1 19 2 10 3 9 4 7 5 8 6 2 7 3 8 4 9 6 10 20 11 11 13
REMARK SMILES IDX 18 14 12 15 16 16 13 17 14 18 17 19 15 21 5 23 1 25
REMARK H PARENT 20 12 17 20 15 22 5 24 1 26
REMARK Flexibility Score: inf
ROOT
ATOM      1  C   UNL     1      19.384 -45.334  66.534  1.00  0.00     0.079 C 
ATOM      2  C   UNL     1      19.092 -43.843  66.774  1.00  0.00     0.164 C 
ATOM      3  C   UNL     1      19.199 -43.497  68.275  1.00  0.00     0.232 C 
ATOM      4  O   UNL     1      18.386 -44.379  69.054  1.00  0.00    -0.482 OA
ATOM      5  C   UNL     1      18.133 -45.710  68.694  1.00  0.00     0.131 A 
ATOM      6  C   UNL     1      17.403 -46.518  69.569  1.00  0.00     0.093 A 
ATOM      7  C   UNL     1      17.160 -47.857  69.258  1.00  0.00     0.122 A 
ATOM      8  C   UNL     1      17.663 -48.396  68.069  1.00  0.00     0.092 A 
ATOM      9  C   UNL     1      18.401 -47.603  67.182  1.00  0.00     0.126 A 
ATOM     10  C   UNL     1      18.608 -46.233  67.471  1.00  0.00     0.039 A 
ENDROOT
BRANCH   2  11
ATOM     11  O   UNL     1      17.797 -43.551  66.313  1.00  0.00    -0.389 OA
ATOM     12  H   UNL     1      17.852 -42.685  65.831  1.00  0.00     0.211 HD
ENDBRANCH   2  11
BRANCH   3  13
ATOM     13  C   UNL     1      20.642 -43.493  68.750  1.00  0.00    -0.001 A 
ATOM     14  C   UNL     1      21.489 -42.442  68.351  1.00  0.00     0.057 A 
ATOM     15  C   UNL     1      21.174 -44.534  69.533  1.00  0.00     0.012 A 
ATOM     16  C   UNL     1      22.834 -42.420  68.744  1.00  0.00     0.157 A 
ATOM     17  C   UNL     1      22.515 -44.511  69.924  1.00  0.00     0.050 A 
ATOM     18  C   UNL     1      23.348 -43.456  69.532  1.00  0.00     0.157 A 
BRANCH  16  19
ATOM     19  O   UNL     1      23.666 -41.374  68.350  1.00  0.00    -0.504 OA
ATOM     20  H   UNL     1      24.311 -40.936  68.998  1.00  0.00     0.293 HD
ENDBRANCH  16  19
BRANCH  18  21
ATOM     21  O   UNL     1      24.686 -43.432  69.920  1.00  0.00    -0.504 OA
ATOM     22  H   UNL     1      25.326 -42.725  69.576  1.00  0.00     0.293 HD
ENDBRANCH  18  21
ENDBRANCH   3  13
BRANCH   9  23
ATOM     23  O   UNL     1      18.920 -48.210  66.037  1.00  0.00    -0.507 OA
ATOM     24  H   UNL     1      18.992 -47.743  65.142  1.00  0.00     0.293 HD
ENDBRANCH   9  23
BRANCH   7  25
ATOM     25  O   UNL     1      16.428 -48.647  70.142  1.00  0.00    -0.508 OA
ATOM     26  H   UNL     1      15.442 -48.481  70.307  1.00  0.00     0.293 HD
ENDBRANCH   7  25
TORSDOF 6
ENDMDL
MODEL 8
REMARK VINA RESULT:    -6.482      6.824      9.009
REMARK INTER + INTRA:          -8.301
REMARK INTER:                  -7.855
REMARK INTRA:                  -0.446
REMARK UNBOUND:                -0.493
REMARK SMILES Oc1cc(O)c2c(c1)O[C@@H](c1ccc(O)c(O)c1)[C@H](O)C2
REMARK SMILES IDX 21 1 19 2 10 3 9 4 7 5 8 6 2 7 3 8 4 9 6 10 20 11 11 13
REMARK SMILES IDX 18 14 12 15 16 16 13 17 14 18 17 19 15 21 5 23 1 25
REMARK H PARENT 20 12 17 20 15 22 5 24 1 26
REMARK Flexibility Score: inf
ROOT
ATOM      1  C   UNL     1      17.700 -40.440  63.397  1.00  0.00     0.079 C 
ATOM      2  C   UNL     1      17.379 -38.968  63.709  1.00  0.00     0.164 C 
ATOM      3  C   UNL     1      16.822 -38.819  65.141  1.00  0.00     0.232 C 
ATOM      4  O   UNL     1      15.721 -39.708  65.348  1.00  0.00    -0.482 OA
ATOM      5  C   UNL     1      15.612 -40.955  64.719  1.00  0.00     0.131 A 
ATOM      6  C   UNL     1      14.544 -41.791  65.059  1.00  0.00     0.093 A 
ATOM      7  C   UNL     1      14.422 -43.053  64.476  1.00  0.00     0.122 A 
ATOM      8  C   UNL     1      15.382 -43.489  63.555  1.00  0.00     0.092 A 
ATOM      9  C   UNL     1      16.460 -42.668  63.206  1.00  0.00     0.126 A 
ATOM     10  C   UNL     1      16.561 -41.369  63.759  1.00  0.00     0.039 A 
ENDROOT
BRANCH   2  11
ATOM     11  O   UNL     1      16.432 -38.501  62.782  1.00  0.00    -0.389 OA
ATOM     12  H   UNL     1      16.555 -39.032  61.953  1.00  0.00     0.211 HD
ENDBRANCH   2  11
BRANCH   3  13
ATOM     13  C   UNL     1      17.906 -39.008  66.188  1.00  0.00    -0.001 A 
ATOM     14  C   UNL     1      17.758 -40.027  67.147  1.00  0.00     0.057 A 
ATOM     15  C   UNL     1      19.029 -38.164  66.264  1.00  0.00     0.012 A 
ATOM     16  C   UNL     1      18.721 -40.213  68.148  1.00  0.00     0.157 A 
ATOM     17  C   UNL     1      19.989 -38.349  67.262  1.00  0.00     0.050 A 
ATOM     18  C   UNL     1      19.839 -39.373  68.205  1.00  0.00     0.157 A 
BRANCH  16  19
ATOM     19  O   UNL     1      18.571 -41.228  69.091  1.00  0.00    -0.504 OA
ATOM     20  H   UNL     1      18.911 -41.124  70.041  1.00  0.00     0.293 HD
ENDBRANCH  16  19
BRANCH  18  21
ATOM     21  O   UNL     1      20.795 -39.560  69.201  1.00  0.00    -0.504 OA
ATOM     22  H   UNL     1      20.752 -40.348  69.837  1.00  0.00     0.293 HD
ENDBRANCH  18  21
ENDBRANCH   3  13
BRANCH   9  23
ATOM     23  O   UNL     1      17.414 -43.178  62.322  1.00  0.00    -0.507 OA
ATOM     24  H   UNL     1      17.964 -44.005  62.511  1.00  0.00     0.293 HD
ENDBRANCH   9  23
BRANCH   7  25
ATOM     25  O   UNL     1      13.350 -43.871  64.825  1.00  0.00    -0.508 OA
ATOM     26  H   UNL     1      12.512 -43.492  65.250  1.00  0.00     0.293 HD
ENDBRANCH   7  25
TORSDOF 6
ENDMDL
MODEL 9
REMARK VINA RESULT:    -6.392      2.526      3.788
REMARK INTER + INTRA:          -8.193
REMARK INTER:                  -7.667
REMARK INTRA:                  -0.525
REMARK UNBOUND:                -0.493
REMARK SMILES Oc1cc(O)c2c(c1)O[C@@H](c1ccc(O)c(O)c1)[C@H](O)C2
REMARK SMILES IDX 21 1 19 2 10 3 9 4 7 5 8 6 2 7 3 8 4 9 6 10 20 11 11 13
REMARK SMILES IDX 18 14 12 15 16 16 13 17 14 18 17 19 15 21 5 23 1 25
REMARK H PARENT 20 12 17 20 15 22 5 24 1 26
REMARK Flexibility Score: inf
ROOT
ATOM      1  C   UNL     1      16.660 -44.510  68.294  1.00  0.00     0.079 C 
ATOM      2  C   UNL     1      16.004 -45.616  67.449  1.00  0.00     0.164 C 
ATOM      3  C   UNL     1      16.580 -47.001  67.816  1.00  0.00     0.232 C 
ATOM      4  O   UNL     1      18.009 -46.987  67.744  1.00  0.00    -0.482 OA
ATOM      5  C   UNL     1      18.781 -45.851  68.021  1.00  0.00     0.131 A 
ATOM      6  C   UNL     1      20.174 -45.964  68.014  1.00  0.00     0.093 A 
ATOM      7  C   UNL     1      20.974 -44.861  68.318  1.00  0.00     0.122 A 
ATOM      8  C   UNL     1      20.376 -43.639  68.644  1.00  0.00     0.092 A 
ATOM      9  C   UNL     1      18.983 -43.507  68.661  1.00  0.00     0.126 A 
ATOM     10  C   UNL     1      18.169 -44.610  68.306  1.00  0.00     0.039 A 
ENDROOT
BRANCH   2  11
ATOM     11  O   UNL     1      16.238 -45.351  66.089  1.00  0.00    -0.389 OA
ATOM     12  H   UNL     1      16.717 -44.483  66.044  1.00  0.00     0.211 HD
ENDBRANCH   2  11
BRANCH   3  13
ATOM     13  C   UNL     1      16.087 -47.473  69.173  1.00  0.00    -0.001 A 
ATOM     14  C   UNL     1      16.979 -48.149  70.025  1.00  0.00     0.057 A 
ATOM     15  C   UNL     1      14.753 -47.303  69.585  1.00  0.00     0.012 A 
ATOM     16  C   UNL     1      16.553 -48.628  71.272  1.00  0.00     0.157 A 
ATOM     17  C   UNL     1      14.328 -47.780  70.827  1.00  0.00     0.050 A 
ATOM     18  C   UNL     1      15.226 -48.442  71.674  1.00  0.00     0.157 A 
BRANCH  16  19
ATOM     19  O   UNL     1      17.443 -49.292  72.114  1.00  0.00    -0.504 OA
ATOM     20  H   UNL     1      18.446 -49.181  72.019  1.00  0.00     0.293 HD
ENDBRANCH  16  19
BRANCH  18  21
ATOM     21  O   UNL     1      14.805 -48.919  72.913  1.00  0.00    -0.504 OA
ATOM     22  H   UNL     1      15.012 -49.863  73.217  1.00  0.00     0.293 HD
ENDBRANCH  18  21
ENDBRANCH   3  13
BRANCH   9  23
ATOM     23  O   UNL     1      18.445 -42.277  69.044  1.00  0.00    -0.507 OA
ATOM     24  H   UNL     1      17.462 -42.134  69.235  1.00  0.00     0.293 HD
ENDBRANCH   9  23
BRANCH   7  25
ATOM     25  O   UNL     1      22.360 -44.993  68.303  1.00  0.00    -0.508 OA
ATOM     26  H   UNL     1      22.968 -44.204  68.487  1.00  0.00     0.293 HD
ENDBRANCH   7  25
TORSDOF 6
ENDMDL
