MODEL 1
REMARK VINA RESULT:    -3.020      0.000      0.000
REMARK INTER + INTRA:          -4.625
REMARK INTER:                  -4.609
REMARK INTRA:                  -0.016
REMARK UNBOUND:                -0.016
REMARK SMILES CC1=CCC[C@H](C)C(=O)C[C@@H](C(C)C)C(=O)C1
REMARK SMILES IDX 8 1 9 2 6 3 7 4 5 5 4 6 3 7 2 8 1 9 10 11 11 12 15 13 16 14
REMARK SMILES IDX 17 15 12 17 13 18 14 19
REMARK H PARENT
REMARK Flexibility Score: 70.00
ROOT
ATOM      1  C   UNL     1     101.119   5.373  75.800  1.00  0.00     0.136 C 
ATOM      2  O   UNL     1     101.062   5.458  74.581  1.00  0.00    -0.299 OA
ENDROOT
BRANCH   1   3
ATOM      3  C   UNL     1     102.459   5.468  76.494  1.00  0.00     0.053 C 
ATOM      4  C   UNL     1     103.595   4.997  75.577  1.00  0.00     0.016 C 
BRANCH   3   5
ATOM      5  C   UNL     1     102.679   6.926  76.968  1.00  0.00     0.015 C 
BRANCH   5   6
ATOM      6  C   UNL     1     101.969   7.323  78.277  1.00  0.00     0.028 C 
BRANCH   6   7
ATOM      7  C   UNL     1     101.127   8.581  78.252  1.00  0.00    -0.028 C 
ATOM      8  C   UNL     1      99.782   8.659  78.104  1.00  0.00    -0.070 CG0
ATOM      9  C   UNL     1      99.170  10.033  77.992  1.00  0.00     0.039 C 
ATOM     10  G   UNL     1      98.850   7.460  78.131  1.00  0.00     0.000 G0
ENDBRANCH   6   7
ENDBRANCH   5   6
ENDBRANCH   3   5
ENDBRANCH   1   3
BRANCH   1  11
ATOM     11  C   UNL     1      99.838   5.250  76.592  1.00  0.00     0.087 C 
BRANCH  11  12
ATOM     12  C   UNL     1      98.650   6.008  75.927  1.00  0.00     0.066 C 
BRANCH  12  13
ATOM     13  C   UNL     1      98.213   7.194  76.777  1.00  0.00     0.140 C 
ATOM     14  O   UNL     1      97.374   7.968  76.335  1.00  0.00    -0.299 OA
BRANCH  13  15
ATOM     15  C   UNL     1      98.808   7.470  78.144  1.00  0.00     0.106 CG0
ATOM     16  G   UNL     1      99.777   8.638  78.085  1.00  0.00     0.000 G0
ENDBRANCH  13  15
ENDBRANCH  12  13
BRANCH  12  17
ATOM     17  C   UNL     1      97.428   5.090  75.601  1.00  0.00    -0.006 C 
ATOM     18  C   UNL     1      97.778   4.042  74.531  1.00  0.00     0.008 C 
ATOM     19  C   UNL     1      96.815   4.399  76.832  1.00  0.00     0.008 C 
ENDBRANCH  12  17
ENDBRANCH  11  12
ENDBRANCH   1  11
TORSDOF 1
ENDMDL
MODEL 2
REMARK VINA RESULT:    -2.930      1.694      4.136
REMARK INTER + INTRA:          -4.487
REMARK INTER:                  -4.361
REMARK INTRA:                  -0.127
REMARK UNBOUND:                -0.016
REMARK SMILES CC1=CCC[C@H](C)C(=O)C[C@@H](C(C)C)C(=O)C1
REMARK SMILES IDX 8 1 9 2 6 3 7 4 5 5 4 6 3 7 2 8 1 9 10 11 11 12 15 13 16 14
REMARK SMILES IDX 17 15 12 17 13 18 14 19
REMARK H PARENT
REMARK Flexibility Score: 70.00
ROOT
ATOM      1  C   UNL     1     102.412   6.789  76.804  1.00  0.00     0.136 C 
ATOM      2  O   UNL     1     103.163   6.955  77.754  1.00  0.00    -0.299 OA
ENDROOT
BRANCH   1   3
ATOM      3  C   UNL     1     102.539   5.541  75.959  1.00  0.00     0.053 C 
ATOM      4  C   UNL     1     103.979   5.015  75.957  1.00  0.00     0.016 C 
BRANCH   3   5
ATOM      5  C   UNL     1     101.544   4.476  76.482  1.00  0.00     0.015 C 
BRANCH   5   6
ATOM      6  C   UNL     1     100.541   3.926  75.448  1.00  0.00     0.028 C 
BRANCH   6   7
ATOM      7  C   UNL     1      99.074   3.970  75.819  1.00  0.00    -0.028 C 
ATOM      8  C   UNL     1      98.312   5.076  75.999  1.00  0.00    -0.070 CG0
ATOM      9  C   UNL     1      96.896   4.879  76.482  1.00  0.00     0.039 C 
ATOM     10  G   UNL     1      98.763   6.488  75.665  1.00  0.00     0.000 G0
ENDBRANCH   6   7
ENDBRANCH   5   6
ENDBRANCH   3   5
ENDBRANCH   1   3
BRANCH   1  11
ATOM     11  C   UNL     1     101.322   7.802  76.539  1.00  0.00     0.087 C 
BRANCH  11  12
ATOM     12  C   UNL     1     100.152   7.701  77.563  1.00  0.00     0.066 C 
BRANCH  12  13
ATOM     13  C   UNL     1      98.833   7.401  76.861  1.00  0.00     0.140 C 
ATOM     14  O   UNL     1      97.798   7.875  77.309  1.00  0.00    -0.299 OA
BRANCH  13  15
ATOM     15  C   UNL     1      98.755   6.504  75.642  1.00  0.00     0.106 CG0
ATOM     16  G   UNL     1      98.301   5.106  76.028  1.00  0.00     0.000 G0
ENDBRANCH  13  15
ENDBRANCH  12  13
BRANCH  12  17
ATOM     17  C   UNL     1     100.010   8.963  78.474  1.00  0.00    -0.006 C 
ATOM     18  C   UNL     1     100.718   8.767  79.824  1.00  0.00     0.008 C 
ATOM     19  C   UNL     1     100.486  10.271  77.816  1.00  0.00     0.008 C 
ENDBRANCH  12  17
ENDBRANCH  11  12
ENDBRANCH   1  11
TORSDOF 1
ENDMDL
MODEL 3
REMARK VINA RESULT:    -2.919      1.909      5.098
REMARK INTER + INTRA:          -4.470
REMARK INTER:                  -4.191
REMARK INTRA:                  -0.279
REMARK UNBOUND:                -0.016
REMARK SMILES CC1=CCC[C@H](C)C(=O)C[C@@H](C(C)C)C(=O)C1
REMARK SMILES IDX 8 1 9 2 6 3 7 4 5 5 4 6 3 7 2 8 1 9 10 11 11 12 15 13 16 14
REMARK SMILES IDX 17 15 12 17 13 18 14 19
REMARK H PARENT
REMARK Flexibility Score: 70.00
ROOT
ATOM      1  C   UNL     1      98.224   7.126  76.857  1.00  0.00     0.136 C 
ATOM      2  O   UNL     1      97.392   7.987  76.609  1.00  0.00    -0.299 OA
ENDROOT
BRANCH   1   3
ATOM      3  C   UNL     1      98.309   5.894  75.984  1.00  0.00     0.053 C 
ATOM      4  C   UNL     1      97.041   5.040  76.103  1.00  0.00     0.016 C 
BRANCH   3   5
ATOM      5  C   UNL     1      98.565   6.331  74.521  1.00  0.00     0.015 C 
BRANCH   5   6
ATOM      6  C   UNL     1     100.043   6.527  74.125  1.00  0.00     0.028 C 
BRANCH   6   7
ATOM      7  C   UNL     1     101.053   5.582  74.739  1.00  0.00    -0.028 C 
ATOM      8  C   UNL     1     102.102   5.912  75.531  1.00  0.00    -0.070 CG0
ATOM      9  C   UNL     1     103.049   4.808  75.933  1.00  0.00     0.039 C 
ATOM     10  G   UNL     1     102.335   7.299  76.104  1.00  0.00     0.000 G0
ENDBRANCH   6   7
ENDBRANCH   5   6
ENDBRANCH   3   5
ENDBRANCH   1   3
BRANCH   1  11
ATOM     11  C   UNL     1      99.200   7.347  77.990  1.00  0.00     0.087 C 
BRANCH  11  12
ATOM     12  C   UNL     1     100.375   8.289  77.589  1.00  0.00     0.066 C 
BRANCH  12  13
ATOM     13  C   UNL     1     101.675   7.510  77.438  1.00  0.00     0.140 C 
ATOM     14  O   UNL     1     102.213   7.048  78.435  1.00  0.00    -0.299 OA
BRANCH  13  15
ATOM     15  C   UNL     1     102.348   7.317  76.093  1.00  0.00     0.106 CG0
ATOM     16  G   UNL     1     102.090   5.919  75.556  1.00  0.00     0.000 G0
ENDBRANCH  13  15
ENDBRANCH  12  13
BRANCH  12  17
ATOM     17  C   UNL     1     100.571   9.493  78.567  1.00  0.00    -0.006 C 
ATOM     18  C   UNL     1     101.799  10.336  78.186  1.00  0.00     0.008 C 
ATOM     19  C   UNL     1      99.334  10.399  78.705  1.00  0.00     0.008 C 
ENDBRANCH  12  17
ENDBRANCH  11  12
ENDBRANCH   1  11
TORSDOF 1
ENDMDL
MODEL 4
REMARK VINA RESULT:    -2.913      2.295      5.550
REMARK INTER + INTRA:          -4.461
REMARK INTER:                  -4.073
REMARK INTRA:                  -0.387
REMARK UNBOUND:                -0.016
REMARK SMILES CC1=CCC[C@H](C)C(=O)C[C@@H](C(C)C)C(=O)C1
REMARK SMILES IDX 8 1 9 2 6 3 7 4 5 5 4 6 3 7 2 8 1 9 10 11 11 12 15 13 16 14
REMARK SMILES IDX 17 15 12 17 13 18 14 19
REMARK H PARENT
REMARK Flexibility Score: 70.00
ROOT
ATOM      1  C   UNL     1      98.283   7.190  77.004  1.00  0.00     0.136 C 
ATOM      2  O   UNL     1      98.276   8.359  77.362  1.00  0.00    -0.299 OA
ENDROOT
BRANCH   1   3
ATOM      3  C   UNL     1      97.224   6.695  76.045  1.00  0.00     0.053 C 
ATOM      4  C   UNL     1      97.559   7.080  74.600  1.00  0.00     0.016 C 
BRANCH   3   5
ATOM      5  C   UNL     1      97.076   5.162  76.206  1.00  0.00     0.015 C 
BRANCH   5   6
ATOM      6  C   UNL     1      97.641   4.306  75.055  1.00  0.00     0.028 C 
BRANCH   6   7
ATOM      7  C   UNL     1      98.539   3.147  75.433  1.00  0.00    -0.028 C 
ATOM      8  C   UNL     1      99.889   3.096  75.330  1.00  0.00    -0.070 CG0
ATOM      9  C   UNL     1     100.566   1.788  75.659  1.00  0.00     0.039 C 
ATOM     10  G   UNL     1     100.766   4.289  74.989  1.00  0.00     0.000 G0
ENDBRANCH   6   7
ENDBRANCH   5   6
ENDBRANCH   3   5
ENDBRANCH   1   3
BRANCH   1  11
ATOM     11  C   UNL     1      99.397   6.281  77.471  1.00  0.00     0.087 C 
BRANCH  11  12
ATOM     12  C   UNL     1     100.680   6.412  76.596  1.00  0.00     0.066 C 
BRANCH  12  13
ATOM     13  C   UNL     1     101.235   5.042  76.227  1.00  0.00     0.140 C 
ATOM     14  O   UNL     1     102.085   4.531  76.943  1.00  0.00    -0.299 OA
BRANCH  13  15
ATOM     15  C   UNL     1     100.792   4.301  74.981  1.00  0.00     0.106 CG0
ATOM     16  G   UNL     1      99.906   3.121  75.339  1.00  0.00     0.000 G0
ENDBRANCH  13  15
ENDBRANCH  12  13
BRANCH  12  17
ATOM     17  C   UNL     1     101.793   7.293  77.249  1.00  0.00    -0.006 C 
ATOM     18  C   UNL     1     102.009   8.600  76.468  1.00  0.00     0.008 C 
ATOM     19  C   UNL     1     101.557   7.604  78.738  1.00  0.00     0.008 C 
ENDBRANCH  12  17
ENDBRANCH  11  12
ENDBRANCH   1  11
TORSDOF 1
ENDMDL
MODEL 5
REMARK VINA RESULT:    -2.897      1.981      3.958
REMARK INTER + INTRA:          -4.436
REMARK INTER:                  -4.218
REMARK INTRA:                  -0.218
REMARK UNBOUND:                -0.016
REMARK SMILES CC1=CCC[C@H](C)C(=O)C[C@@H](C(C)C)C(=O)C1
REMARK SMILES IDX 8 1 9 2 6 3 7 4 5 5 4 6 3 7 2 8 1 9 10 11 11 12 15 13 16 14
REMARK SMILES IDX 17 15 12 17 13 18 14 19
REMARK H PARENT
REMARK Flexibility Score: 70.00
ROOT
ATOM      1  C   UNL     1      98.379   3.816  75.207  1.00  0.00     0.136 C 
ATOM      2  O   UNL     1      98.081   2.754  74.679  1.00  0.00    -0.299 OA
ENDROOT
BRANCH   1   3
ATOM      3  C   UNL     1      97.296   4.678  75.816  1.00  0.00     0.053 C 
ATOM      4  C   UNL     1      97.068   4.323  77.291  1.00  0.00     0.016 C 
BRANCH   3   5
ATOM      5  C   UNL     1      97.681   6.168  75.643  1.00  0.00     0.015 C 
BRANCH   5   6
ATOM      6  C   UNL     1      97.935   6.954  76.945  1.00  0.00     0.028 C 
BRANCH   6   7
ATOM      7  C   UNL     1      99.118   7.900  76.960  1.00  0.00    -0.028 C 
ATOM      8  C   UNL     1     100.323   7.687  77.541  1.00  0.00    -0.070 CG0
ATOM      9  C   UNL     1     101.315   8.824  77.528  1.00  0.00     0.039 C 
ATOM     10  G   UNL     1     100.768   6.356  78.123  1.00  0.00     0.000 G0
ENDBRANCH   6   7
ENDBRANCH   5   6
ENDBRANCH   3   5
ENDBRANCH   1   3
BRANCH   1  11
ATOM     11  C   UNL     1      99.835   4.210  75.302  1.00  0.00     0.087 C 
BRANCH  11  12
ATOM     12  C   UNL     1     100.375   4.147  76.762  1.00  0.00     0.066 C 
BRANCH  12  13
ATOM     13  C   UNL     1     101.201   5.384  77.095  1.00  0.00     0.140 C 
ATOM     14  O   UNL     1     102.261   5.567  76.512  1.00  0.00    -0.299 OA
BRANCH  13  15
ATOM     15  C   UNL     1     100.770   6.381  78.152  1.00  0.00     0.106 CG0
ATOM     16  G   UNL     1     100.314   7.682  77.514  1.00  0.00     0.000 G0
ENDBRANCH  13  15
ENDBRANCH  12  13
BRANCH  12  17
ATOM     17  C   UNL     1     101.188   2.849  77.071  1.00  0.00    -0.006 C 
ATOM     18  C   UNL     1     100.399   1.890  77.977  1.00  0.00     0.008 C 
ATOM     19  C   UNL     1     101.681   2.102  75.818  1.00  0.00     0.008 C 
ENDBRANCH  12  17
ENDBRANCH  11  12
ENDBRANCH   1  11
TORSDOF 1
ENDMDL
MODEL 6
REMARK VINA RESULT:    -2.874      1.888      3.963
REMARK INTER + INTRA:          -4.401
REMARK INTER:                  -4.228
REMARK INTRA:                  -0.173
REMARK UNBOUND:                -0.016
REMARK SMILES CC1=CCC[C@H](C)C(=O)C[C@@H](C(C)C)C(=O)C1
REMARK SMILES IDX 8 1 9 2 6 3 7 4 5 5 4 6 3 7 2 8 1 9 10 11 11 12 15 13 16 14
REMARK SMILES IDX 17 15 12 17 13 18 14 19
REMARK H PARENT
REMARK Flexibility Score: 70.00
ROOT
ATOM      1  C   UNL     1      99.501   7.907  77.710  1.00  0.00     0.136 C 
ATOM      2  O   UNL     1      98.514   8.189  78.375  1.00  0.00    -0.299 OA
ENDROOT
BRANCH   1   3
ATOM      3  C   UNL     1     100.880   8.204  78.255  1.00  0.00     0.053 C 
ATOM      4  C   UNL     1     101.235   7.261  79.411  1.00  0.00     0.016 C 
BRANCH   3   5
ATOM      5  C   UNL     1     101.910   8.104  77.103  1.00  0.00     0.015 C 
BRANCH   5   6
ATOM      6  C   UNL     1     103.062   7.102  77.315  1.00  0.00     0.028 C 
BRANCH   6   7
ATOM      7  C   UNL     1     103.368   6.151  76.177  1.00  0.00    -0.028 C 
ATOM      8  C   UNL     1     102.753   4.974  75.911  1.00  0.00    -0.070 CG0
ATOM      9  C   UNL     1     103.306   4.134  74.786  1.00  0.00     0.039 C 
ATOM     10  G   UNL     1     101.496   4.489  76.614  1.00  0.00     0.000 G0
ENDBRANCH   6   7
ENDBRANCH   5   6
ENDBRANCH   3   5
ENDBRANCH   1   3
BRANCH   1  11
ATOM     11  C   UNL     1      99.322   7.201  76.386  1.00  0.00     0.087 C 
BRANCH  11  12
ATOM     12  C   UNL     1      99.116   5.665  76.553  1.00  0.00     0.066 C 
BRANCH  12  13
ATOM     13  C   UNL     1     100.234   4.885  75.873  1.00  0.00     0.140 C 
ATOM     14  O   UNL     1     100.111   4.567  74.698  1.00  0.00    -0.299 OA
BRANCH  13  15
ATOM     15  C   UNL     1     101.485   4.456  76.615  1.00  0.00     0.106 CG0
ATOM     16  G   UNL     1     102.731   4.967  75.914  1.00  0.00     0.000 G0
ENDBRANCH  13  15
ENDBRANCH  12  13
BRANCH  12  17
ATOM     17  C   UNL     1      97.722   5.166  76.054  1.00  0.00    -0.006 C 
ATOM     18  C   UNL     1      97.274   3.900  76.804  1.00  0.00     0.008 C 
ATOM     19  C   UNL     1      96.613   6.232  76.114  1.00  0.00     0.008 C 
ENDBRANCH  12  17
ENDBRANCH  11  12
ENDBRANCH   1  11
TORSDOF 1
ENDMDL
MODEL 7
REMARK VINA RESULT:    -2.822      2.198      4.439
REMARK INTER + INTRA:          -4.322
REMARK INTER:                  -4.081
REMARK INTRA:                  -0.241
REMARK UNBOUND:                -0.016
REMARK SMILES CC1=CCC[C@H](C)C(=O)C[C@@H](C(C)C)C(=O)C1
REMARK SMILES IDX 8 1 9 2 6 3 7 4 5 5 4 6 3 7 2 8 1 9 10 11 11 12 15 13 16 14
REMARK SMILES IDX 17 15 12 17 13 18 14 19
REMARK H PARENT
REMARK Flexibility Score: 70.00
ROOT
ATOM      1  C   UNL     1      99.630   8.496  77.871  1.00  0.00     0.136 C 
ATOM      2  O   UNL     1      98.528   8.150  78.274  1.00  0.00    -0.299 OA
ENDROOT
BRANCH   1   3
ATOM      3  C   UNL     1     100.301   9.708  78.477  1.00  0.00     0.053 C 
ATOM      4  C   UNL     1     101.172   9.319  79.677  1.00  0.00     0.016 C 
BRANCH   3   5
ATOM      5  C   UNL     1     101.128  10.426  77.382  1.00  0.00     0.015 C 
BRANCH   5   6
ATOM      6  C   UNL     1     102.660  10.344  77.533  1.00  0.00     0.028 C 
BRANCH   6   7
ATOM      7  C   UNL     1     103.421   9.603  76.454  1.00  0.00    -0.028 C 
ATOM      8  C   UNL     1     103.849   8.318  76.495  1.00  0.00    -0.070 CG0
ATOM      9  C   UNL     1     104.694   7.826  75.345  1.00  0.00     0.039 C 
ATOM     10  G   UNL     1     103.465   7.324  77.577  1.00  0.00     0.000 G0
ENDBRANCH   6   7
ENDBRANCH   5   6
ENDBRANCH   3   5
ENDBRANCH   1   3
BRANCH   1  11
ATOM     11  C   UNL     1     100.331   7.658  76.826  1.00  0.00     0.087 C 
BRANCH  11  12
ATOM     12  C   UNL     1     100.978   6.374  77.426  1.00  0.00     0.066 C 
BRANCH  12  13
ATOM     13  C   UNL     1     102.462   6.299  77.087  1.00  0.00     0.140 C 
ATOM     14  O   UNL     1     102.872   5.364  76.414  1.00  0.00    -0.299 OA
BRANCH  13  15
ATOM     15  C   UNL     1     103.456   7.327  77.587  1.00  0.00     0.106 CG0
ATOM     16  G   UNL     1     103.828   8.301  76.482  1.00  0.00     0.000 G0
ENDBRANCH  13  15
ENDBRANCH  12  13
BRANCH  12  17
ATOM     17  C   UNL     1     100.254   5.055  77.003  1.00  0.00    -0.006 C 
ATOM     18  C   UNL     1      99.926   4.175  78.221  1.00  0.00     0.008 C 
ATOM     19  C   UNL     1      98.986   5.277  76.158  1.00  0.00     0.008 C 
ENDBRANCH  12  17
ENDBRANCH  11  12
ENDBRANCH   1  11
TORSDOF 1
ENDMDL
MODEL 8
REMARK VINA RESULT:    -2.746      5.298      7.916
REMARK INTER + INTRA:          -4.206
REMARK INTER:                  -4.032
REMARK INTRA:                  -0.174
REMARK UNBOUND:                -0.016
REMARK SMILES CC1=CCC[C@H](C)C(=O)C[C@@H](C(C)C)C(=O)C1
REMARK SMILES IDX 8 1 9 2 6 3 7 4 5 5 4 6 3 7 2 8 1 9 10 11 11 12 15 13 16 14
REMARK SMILES IDX 17 15 12 17 13 18 14 19
REMARK H PARENT
REMARK Flexibility Score: 70.00
ROOT
ATOM      1  C   UNL     1      98.775   7.336  70.603  1.00  0.00     0.136 C 
ATOM      2  O   UNL     1      99.970   7.552  70.457  1.00  0.00    -0.299 OA
ENDROOT
BRANCH   1   3
ATOM      3  C   UNL     1      97.802   7.757  69.524  1.00  0.00     0.053 C 
ATOM      4  C   UNL     1      98.205   9.102  68.908  1.00  0.00     0.016 C 
BRANCH   3   5
ATOM      5  C   UNL     1      97.723   6.641  68.453  1.00  0.00     0.015 C 
BRANCH   5   6
ATOM      6  C   UNL     1      96.599   5.604  68.643  1.00  0.00     0.028 C 
BRANCH   6   7
ATOM      7  C   UNL     1      97.010   4.150  68.742  1.00  0.00    -0.028 C 
ATOM      8  C   UNL     1      97.259   3.449  69.873  1.00  0.00    -0.070 CG0
ATOM      9  C   UNL     1      97.770   2.037  69.723  1.00  0.00     0.039 C 
ATOM     10  G   UNL     1      96.977   3.962  71.275  1.00  0.00     0.000 G0
ENDBRANCH   6   7
ENDBRANCH   5   6
ENDBRANCH   3   5
ENDBRANCH   1   3
BRANCH   1  11
ATOM     11  C   UNL     1      98.305   6.584  71.827  1.00  0.00     0.087 C 
BRANCH  11  12
ATOM     12  C   UNL     1      99.148   5.303  72.101  1.00  0.00     0.066 C 
BRANCH  12  13
ATOM     13  C   UNL     1      98.270   4.058  72.097  1.00  0.00     0.140 C 
ATOM     14  O   UNL     1      98.621   3.080  72.743  1.00  0.00    -0.299 OA
BRANCH  13  15
ATOM     15  C   UNL     1      96.989   3.976  71.291  1.00  0.00     0.106 CG0
ATOM     16  G   UNL     1      97.264   3.451  69.892  1.00  0.00     0.000 G0
ENDBRANCH  13  15
ENDBRANCH  12  13
BRANCH  12  17
ATOM     17  C   UNL     1      99.985   5.377  73.419  1.00  0.00    -0.006 C 
ATOM     18  C   UNL     1     101.331   6.086  73.194  1.00  0.00     0.008 C 
ATOM     19  C   UNL     1      99.241   6.025  74.600  1.00  0.00     0.008 C 
ENDBRANCH  12  17
ENDBRANCH  11  12
ENDBRANCH   1  11
TORSDOF 1
ENDMDL
MODEL 9
REMARK VINA RESULT:    -2.603      3.316      5.853
REMARK INTER + INTRA:          -3.988
REMARK INTER:                  -3.721
REMARK INTRA:                  -0.267
REMARK UNBOUND:                -0.016
REMARK SMILES CC1=CCC[C@H](C)C(=O)C[C@@H](C(C)C)C(=O)C1
REMARK SMILES IDX 8 1 9 2 6 3 7 4 5 5 4 6 3 7 2 8 1 9 10 11 11 12 15 13 16 14
REMARK SMILES IDX 17 15 12 17 13 18 14 19
REMARK H PARENT
REMARK Flexibility Score: 70.00
ROOT
ATOM      1  C   UNL     1      99.729   4.518  77.306  1.00  0.00     0.136 C 
ATOM      2  O   UNL     1     100.757   4.760  77.923  1.00  0.00    -0.299 OA
ENDROOT
BRANCH   1   3
ATOM      3  C   UNL     1      98.866   5.659  76.814  1.00  0.00     0.053 C 
ATOM      4  C   UNL     1      99.177   6.956  77.569  1.00  0.00     0.016 C 
BRANCH   3   5
ATOM      5  C   UNL     1      99.072   5.825  75.289  1.00  0.00     0.015 C 
BRANCH   5   6
ATOM      6  C   UNL     1      97.847   5.512  74.406  1.00  0.00     0.028 C 
BRANCH   6   7
ATOM      7  C   UNL     1      98.086   4.680  73.164  1.00  0.00    -0.028 C 
ATOM      8  C   UNL     1      98.231   3.334  73.101  1.00  0.00    -0.070 CG0
ATOM      9  C   UNL     1      98.578   2.731  71.762  1.00  0.00     0.039 C 
ATOM     10  G   UNL     1      97.983   2.393  74.267  1.00  0.00     0.000 G0
ENDBRANCH   6   7
ENDBRANCH   5   6
ENDBRANCH   3   5
ENDBRANCH   1   3
BRANCH   1  11
ATOM     11  C   UNL     1      99.382   3.083  76.983  1.00  0.00     0.087 C 
BRANCH  11  12
ATOM     12  C   UNL     1     100.175   2.539  75.757  1.00  0.00     0.066 C 
BRANCH  12  13
ATOM     13  C   UNL     1      99.256   1.790  74.800  1.00  0.00     0.140 C 
ATOM     14  O   UNL     1      99.577   0.673  74.416  1.00  0.00    -0.299 OA
BRANCH  13  15
ATOM     15  C   UNL     1      97.969   2.396  74.276  1.00  0.00     0.106 CG0
ATOM     16  G   UNL     1      98.245   3.320  73.103  1.00  0.00     0.000 G0
ENDBRANCH  13  15
ENDBRANCH  12  13
BRANCH  12  17
ATOM     17  C   UNL     1     101.397   1.648  76.149  1.00  0.00    -0.006 C 
ATOM     18  C   UNL     1     102.714   2.440  76.094  1.00  0.00     0.008 C 
ATOM     19  C   UNL     1     101.258   0.955  77.516  1.00  0.00     0.008 C 
ENDBRANCH  12  17
ENDBRANCH  11  12
ENDBRANCH   1  11
TORSDOF 1
ENDMDL
