MODEL 1
REMARK VINA RESULT:    -7.540      0.000      0.000
REMARK INTER + INTRA:         -11.335
REMARK INTER:                 -10.184
REMARK INTRA:                  -1.150
REMARK UNBOUND:                -1.150
REMARK SMILES CC[C@@H](CC[C@@H](C)[C@H]1CC[C@H]2[C@@H]3CC(=O)C4=CC(=O)CC[C@@]4(C)[C@H]3CC[C@]12C)C(C)C
REMARK SMILES IDX 4 1 3 2 2 3 1 4 29 5 30 6 31 7 5 8 6 9 7 10 8 11 9 12 27 13
REMARK SMILES IDX 10 14 11 15 26 16 28 17 12 18 25 19 24 20 13 21 22 22 14 23
REMARK SMILES IDX 16 24 21 25 23 26 15 27 17 28 20 29 18 30 19 31
REMARK H PARENT
REMARK Flexibility Score: inf
ROOT
ATOM      1  C   UNL     1     -57.473 -76.578 216.442  1.00  0.00     0.004 C 
ENDROOT
BRANCH   1   2
ATOM      2  C   UNL     1     -57.754 -75.766 215.140  1.00  0.00    -0.009 C 
BRANCH   2   3
ATOM      3  C   UNL     1     -56.530 -75.756 214.178  1.00  0.00     0.000 C 
ATOM      4  C   UNL     1     -56.489 -76.940 213.207  1.00  0.00     0.004 C 
ENDBRANCH   2   3
BRANCH   2   5
ATOM      5  C   UNL     1     -58.277 -74.310 215.415  1.00  0.00    -0.014 C 
ATOM      6  C   UNL     1     -58.235 -73.960 216.916  1.00  0.00     0.007 C 
ATOM      7  C   UNL     1     -57.475 -73.247 214.638  1.00  0.00     0.007 C 
ENDBRANCH   2   5
ENDBRANCH   1   2
BRANCH   1   8
ATOM      8  C   UNL     1     -58.391 -77.805 216.638  1.00  0.00     0.004 C 
BRANCH   8   9
ATOM      9  C   UNL     1     -58.521 -78.226 218.129  1.00  0.00    -0.011 C 
ATOM     10  C   UNL     1     -57.139 -78.161 218.815  1.00  0.00     0.008 C 
BRANCH   9  11
ATOM     11  C   UNL     1     -59.563 -77.398 218.967  1.00  0.00    -0.002 C 
ATOM     12  C   UNL     1     -60.486 -76.426 218.187  1.00  0.00     0.005 C 
ATOM     13  C   UNL     1     -60.525 -78.183 219.899  1.00  0.00    -0.026 C 
ATOM     14  C   UNL     1     -61.773 -76.293 219.025  1.00  0.00     0.005 C 
ATOM     15  C   UNL     1     -61.473 -77.053 220.316  1.00  0.00    -0.001 C 
ATOM     16  C   UNL     1     -59.867 -78.726 221.189  1.00  0.00     0.007 C 
ATOM     17  C   UNL     1     -61.247 -79.330 219.127  1.00  0.00     0.012 C 
ATOM     18  C   UNL     1     -62.651 -77.531 221.196  1.00  0.00     0.004 C 
ATOM     19  C   UNL     1     -60.933 -79.241 222.183  1.00  0.00     0.005 C 
ATOM     20  C   UNL     1     -62.084 -78.219 222.481  1.00  0.00     0.003 C 
ATOM     21  C   UNL     1     -63.508 -76.317 221.607  1.00  0.00     0.085 C 
ATOM     22  C   UNL     1     -63.233 -78.787 223.429  1.00  0.00    -0.000 C 
ATOM     23  C   UNL     1     -64.565 -76.698 222.592  1.00  0.00     0.159 C 
ATOM     24  C   UNL     1     -64.558 -78.033 223.226  1.00  0.00     0.005 C 
ATOM     25  C   UNL     1     -63.495 -80.308 223.189  1.00  0.00     0.020 C 
ATOM     26  C   UNL     1     -62.790 -78.574 224.899  1.00  0.00     0.017 C 
ATOM     27  O   UNL     1     -65.472 -75.864 222.867  1.00  0.00    -0.295 OA
ATOM     28  C   UNL     1     -65.731 -78.577 223.598  1.00  0.00     0.055 C 
ATOM     29  C   UNL     1     -64.641 -80.877 224.042  1.00  0.00     0.081 C 
ATOM     30  C   UNL     1     -65.831 -79.969 224.058  1.00  0.00     0.156 C 
ATOM     31  O   UNL     1     -66.936 -80.402 224.483  1.00  0.00    -0.295 OA
ENDBRANCH   9  11
ENDBRANCH   8   9
ENDBRANCH   1   8
TORSDOF 6
ENDMDL
MODEL 2
REMARK VINA RESULT:    -7.197      0.973      1.884
REMARK INTER + INTRA:         -10.872
REMARK INTER:                  -9.650
REMARK INTRA:                  -1.222
REMARK UNBOUND:                -1.150
REMARK SMILES CC[C@@H](CC[C@@H](C)[C@H]1CC[C@H]2[C@@H]3CC(=O)C4=CC(=O)CC[C@@]4(C)[C@H]3CC[C@]12C)C(C)C
REMARK SMILES IDX 4 1 3 2 2 3 1 4 29 5 30 6 31 7 5 8 6 9 7 10 8 11 9 12 27 13
REMARK SMILES IDX 10 14 11 15 26 16 28 17 12 18 25 19 24 20 13 21 22 22 14 23
REMARK SMILES IDX 16 24 21 25 23 26 15 27 17 28 20 29 18 30 19 31
REMARK H PARENT
REMARK Flexibility Score: inf
ROOT
ATOM      1  C   UNL     1     -56.746 -77.379 215.816  1.00  0.00     0.004 C 
ENDROOT
BRANCH   1   2
ATOM      2  C   UNL     1     -56.996 -76.562 214.510  1.00  0.00    -0.009 C 
BRANCH   2   3
ATOM      3  C   UNL     1     -58.241 -75.634 214.627  1.00  0.00     0.000 C 
ATOM      4  C   UNL     1     -57.915 -74.206 215.076  1.00  0.00     0.004 C 
ENDBRANCH   2   3
BRANCH   2   5
ATOM      5  C   UNL     1     -57.070 -77.457 213.221  1.00  0.00    -0.014 C 
ATOM      6  C   UNL     1     -58.478 -77.441 212.591  1.00  0.00     0.007 C 
ATOM      7  C   UNL     1     -56.048 -77.022 212.151  1.00  0.00     0.007 C 
ENDBRANCH   2   5
ENDBRANCH   1   2
BRANCH   1   8
ATOM      8  C   UNL     1     -57.913 -78.306 216.221  1.00  0.00     0.004 C 
BRANCH   8   9
ATOM      9  C   UNL     1     -57.895 -78.670 217.732  1.00  0.00    -0.011 C 
ATOM     10  C   UNL     1     -56.442 -78.677 218.253  1.00  0.00     0.008 C 
BRANCH   9  11
ATOM     11  C   UNL     1     -58.778 -77.746 218.650  1.00  0.00    -0.002 C 
ATOM     12  C   UNL     1     -59.621 -76.650 217.949  1.00  0.00     0.005 C 
ATOM     13  C   UNL     1     -59.771 -78.436 219.624  1.00  0.00    -0.026 C 
ATOM     14  C   UNL     1     -60.831 -76.386 218.867  1.00  0.00     0.005 C 
ATOM     15  C   UNL     1     -60.549 -77.213 220.121  1.00  0.00    -0.001 C 
ATOM     16  C   UNL     1     -59.109 -79.090 220.859  1.00  0.00     0.007 C 
ATOM     17  C   UNL     1     -60.672 -79.466 218.873  1.00  0.00     0.012 C 
ATOM     18  C   UNL     1     -61.722 -77.570 221.062  1.00  0.00     0.004 C 
ATOM     19  C   UNL     1     -60.170 -79.501 221.906  1.00  0.00     0.005 C 
ATOM     20  C   UNL     1     -61.169 -78.357 222.296  1.00  0.00     0.003 C 
ATOM     21  C   UNL     1     -62.400 -76.275 221.551  1.00  0.00     0.085 C 
ATOM     22  C   UNL     1     -62.320 -78.809 223.301  1.00  0.00    -0.000 C 
ATOM     23  C   UNL     1     -63.436 -76.553 222.591  1.00  0.00     0.159 C 
ATOM     24  C   UNL     1     -63.553 -77.897 223.196  1.00  0.00     0.005 C 
ATOM     25  C   UNL     1     -62.779 -80.281 223.046  1.00  0.00     0.020 C 
ATOM     26  C   UNL     1     -61.769 -78.692 224.745  1.00  0.00     0.017 C 
ATOM     27  O   UNL     1     -64.217 -75.625 222.939  1.00  0.00    -0.295 OA
ATOM     28  C   UNL     1     -64.760 -78.306 223.628  1.00  0.00     0.055 C 
ATOM     29  C   UNL     1     -63.933 -80.732 223.956  1.00  0.00     0.081 C 
ATOM     30  C   UNL     1     -65.001 -79.688 224.065  1.00  0.00     0.156 C 
ATOM     31  O   UNL     1     -66.123 -79.998 224.548  1.00  0.00    -0.295 OA
ENDBRANCH   9  11
ENDBRANCH   8   9
ENDBRANCH   1   8
TORSDOF 6
ENDMDL
MODEL 3
REMARK VINA RESULT:    -7.003      1.515      2.461
REMARK INTER + INTRA:         -10.610
REMARK INTER:                  -9.568
REMARK INTRA:                  -1.042
REMARK UNBOUND:                -1.150
REMARK SMILES CC[C@@H](CC[C@@H](C)[C@H]1CC[C@H]2[C@@H]3CC(=O)C4=CC(=O)CC[C@@]4(C)[C@H]3CC[C@]12C)C(C)C
REMARK SMILES IDX 4 1 3 2 2 3 1 4 29 5 30 6 31 7 5 8 6 9 7 10 8 11 9 12 27 13
REMARK SMILES IDX 10 14 11 15 26 16 28 17 12 18 25 19 24 20 13 21 22 22 14 23
REMARK SMILES IDX 16 24 21 25 23 26 15 27 17 28 20 29 18 30 19 31
REMARK H PARENT
REMARK Flexibility Score: inf
ROOT
ATOM      1  C   UNL     1     -58.962 -77.078 218.280  1.00  0.00     0.004 C 
ENDROOT
BRANCH   1   2
ATOM      2  C   UNL     1     -58.467 -76.692 216.852  1.00  0.00    -0.009 C 
BRANCH   2   3
ATOM      3  C   UNL     1     -56.914 -76.657 216.757  1.00  0.00     0.000 C 
ATOM      4  C   UNL     1     -56.200 -77.194 218.001  1.00  0.00     0.004 C 
ENDBRANCH   2   3
BRANCH   2   5
ATOM      5  C   UNL     1     -59.103 -75.360 216.312  1.00  0.00    -0.014 C 
ATOM      6  C   UNL     1     -60.533 -75.148 216.851  1.00  0.00     0.007 C 
ATOM      7  C   UNL     1     -58.254 -74.123 216.668  1.00  0.00     0.007 C 
ENDBRANCH   2   5
ENDBRANCH   1   2
BRANCH   1   8
ATOM      8  C   UNL     1     -59.726 -78.419 218.348  1.00  0.00     0.004 C 
BRANCH   8   9
ATOM      9  C   UNL     1     -60.111 -78.819 219.800  1.00  0.00    -0.011 C 
ATOM     10  C   UNL     1     -58.860 -78.779 220.704  1.00  0.00     0.008 C 
BRANCH   9  11
ATOM     11  C   UNL     1     -61.254 -77.954 220.448  1.00  0.00    -0.002 C 
ATOM     12  C   UNL     1     -62.212 -77.210 219.482  1.00  0.00     0.005 C 
ATOM     13  C   UNL     1     -62.195 -78.651 221.467  1.00  0.00    -0.026 C 
ATOM     14  C   UNL     1     -63.545 -77.049 220.239  1.00  0.00     0.005 C 
ATOM     15  C   UNL     1     -63.249 -77.553 221.651  1.00  0.00    -0.001 C 
ATOM     16  C   UNL     1     -61.560 -78.912 222.853  1.00  0.00     0.007 C 
ATOM     17  C   UNL     1     -62.786 -79.970 220.878  1.00  0.00     0.012 C 
ATOM     18  C   UNL     1     -64.426 -77.976 222.559  1.00  0.00     0.004 C 
ATOM     19  C   UNL     1     -62.629 -79.342 223.883  1.00  0.00     0.005 C 
ATOM     20  C   UNL     1     -63.870 -78.388 223.962  1.00  0.00     0.003 C 
ATOM     21  C   UNL     1     -65.395 -76.789 222.727  1.00  0.00     0.085 C 
ATOM     22  C   UNL     1     -65.015 -78.885 224.953  1.00  0.00    -0.000 C 
ATOM     23  C   UNL     1     -66.466 -77.088 223.726  1.00  0.00     0.159 C 
ATOM     24  C   UNL     1     -66.384 -78.292 224.579  1.00  0.00     0.005 C 
ATOM     25  C   UNL     1     -65.145 -80.442 224.968  1.00  0.00     0.020 C 
ATOM     26  C   UNL     1     -64.662 -78.391 226.379  1.00  0.00     0.017 C 
ATOM     27  O   UNL     1     -67.448 -76.301 223.822  1.00  0.00    -0.295 OA
ATOM     28  C   UNL     1     -67.527 -78.865 224.997  1.00  0.00     0.055 C 
ATOM     29  C   UNL     1     -66.282 -80.956 225.866  1.00  0.00     0.081 C 
ATOM     30  C   UNL     1     -67.540 -80.163 225.686  1.00  0.00     0.156 C 
ATOM     31  O   UNL     1     -68.626 -80.612 226.140  1.00  0.00    -0.295 OA
ENDBRANCH   9  11
ENDBRANCH   8   9
ENDBRANCH   1   8
TORSDOF 6
ENDMDL
MODEL 4
REMARK VINA RESULT:    -6.759      3.320      8.924
REMARK INTER + INTRA:         -10.280
REMARK INTER:                  -8.955
REMARK INTRA:                  -1.325
REMARK UNBOUND:                -1.150
REMARK SMILES CC[C@@H](CC[C@@H](C)[C@H]1CC[C@H]2[C@@H]3CC(=O)C4=CC(=O)CC[C@@]4(C)[C@H]3CC[C@]12C)C(C)C
REMARK SMILES IDX 4 1 3 2 2 3 1 4 29 5 30 6 31 7 5 8 6 9 7 10 8 11 9 12 27 13
REMARK SMILES IDX 10 14 11 15 26 16 28 17 12 18 25 19 24 20 13 21 22 22 14 23
REMARK SMILES IDX 16 24 21 25 23 26 15 27 17 28 20 29 18 30 19 31
REMARK H PARENT
REMARK Flexibility Score: inf
ROOT
ATOM      1  C   UNL     1     -63.613 -79.324 225.174  1.00  0.00     0.004 C 
ENDROOT
BRANCH   1   2
ATOM      2  C   UNL     1     -63.866 -80.681 224.446  1.00  0.00    -0.009 C 
BRANCH   2   3
ATOM      3  C   UNL     1     -64.797 -81.623 225.264  1.00  0.00     0.000 C 
ATOM      4  C   UNL     1     -66.192 -81.048 225.526  1.00  0.00     0.004 C 
ENDBRANCH   2   3
BRANCH   2   5
ATOM      5  C   UNL     1     -62.544 -81.414 224.019  1.00  0.00    -0.014 C 
ATOM      6  C   UNL     1     -61.315 -80.864 224.771  1.00  0.00     0.007 C 
ATOM      7  C   UNL     1     -62.621 -82.936 224.249  1.00  0.00     0.007 C 
ENDBRANCH   2   5
ENDBRANCH   1   2
BRANCH   1   8
ATOM      8  C   UNL     1     -63.798 -78.078 224.280  1.00  0.00     0.004 C 
BRANCH   8   9
ATOM      9  C   UNL     1     -64.584 -78.386 222.975  1.00  0.00    -0.011 C 
ATOM     10  C   UNL     1     -66.057 -77.954 223.135  1.00  0.00     0.008 C 
BRANCH   9  11
ATOM     11  C   UNL     1     -63.987 -77.741 221.670  1.00  0.00    -0.002 C 
ATOM     12  C   UNL     1     -64.061 -76.197 221.546  1.00  0.00     0.005 C 
ATOM     13  C   UNL     1     -62.520 -78.091 221.300  1.00  0.00    -0.026 C 
ATOM     14  C   UNL     1     -62.887 -75.783 220.637  1.00  0.00     0.005 C 
ATOM     15  C   UNL     1     -62.294 -77.105 220.148  1.00  0.00    -0.001 C 
ATOM     16  C   UNL     1     -62.325 -79.514 220.728  1.00  0.00     0.007 C 
ATOM     17  C   UNL     1     -61.561 -77.848 222.507  1.00  0.00     0.012 C 
ATOM     18  C   UNL     1     -60.849 -77.121 219.599  1.00  0.00     0.004 C 
ATOM     19  C   UNL     1     -60.910 -79.683 220.129  1.00  0.00     0.005 C 
ATOM     20  C   UNL     1     -60.504 -78.565 219.107  1.00  0.00     0.003 C 
ATOM     21  C   UNL     1     -60.741 -76.143 218.412  1.00  0.00     0.085 C 
ATOM     22  C   UNL     1     -59.010 -78.687 218.565  1.00  0.00    -0.000 C 
ATOM     23  C   UNL     1     -59.411 -76.238 217.738  1.00  0.00     0.159 C 
ATOM     24  C   UNL     1     -58.475 -77.332 218.073  1.00  0.00     0.005 C 
ATOM     25  C   UNL     1     -58.031 -79.232 219.654  1.00  0.00     0.020 C 
ATOM     26  C   UNL     1     -59.016 -79.658 217.357  1.00  0.00     0.017 C 
ATOM     27  O   UNL     1     -59.095 -75.364 216.885  1.00  0.00    -0.295 OA
ATOM     28  C   UNL     1     -57.153 -77.107 217.959  1.00  0.00     0.055 C 
ATOM     29  C   UNL     1     -56.568 -79.303 219.187  1.00  0.00     0.081 C 
ATOM     30  C   UNL     1     -56.155 -78.068 218.448  1.00  0.00     0.156 C 
ATOM     31  O   UNL     1     -54.932 -77.854 218.234  1.00  0.00    -0.295 OA
ENDBRANCH   9  11
ENDBRANCH   8   9
ENDBRANCH   1   8
TORSDOF 6
ENDMDL
MODEL 5
REMARK VINA RESULT:    -6.755      1.635      2.916
REMARK INTER + INTRA:         -10.275
REMARK INTER:                  -8.807
REMARK INTRA:                  -1.468
REMARK UNBOUND:                -1.150
REMARK SMILES CC[C@@H](CC[C@@H](C)[C@H]1CC[C@H]2[C@@H]3CC(=O)C4=CC(=O)CC[C@@]4(C)[C@H]3CC[C@]12C)C(C)C
REMARK SMILES IDX 4 1 3 2 2 3 1 4 29 5 30 6 31 7 5 8 6 9 7 10 8 11 9 12 27 13
REMARK SMILES IDX 10 14 11 15 26 16 28 17 12 18 25 19 24 20 13 21 22 22 14 23
REMARK SMILES IDX 16 24 21 25 23 26 15 27 17 28 20 29 18 30 19 31
REMARK H PARENT
REMARK Flexibility Score: inf
ROOT
ATOM      1  C   UNL     1     -57.504 -76.688 217.167  1.00  0.00     0.004 C 
ENDROOT
BRANCH   1   2
ATOM      2  C   UNL     1     -58.564 -76.440 216.050  1.00  0.00    -0.009 C 
BRANCH   2   3
ATOM      3  C   UNL     1     -57.982 -76.675 214.625  1.00  0.00     0.000 C 
ATOM      4  C   UNL     1     -56.626 -76.006 214.386  1.00  0.00     0.004 C 
ENDBRANCH   2   3
BRANCH   2   5
ATOM      5  C   UNL     1     -59.264 -75.037 216.157  1.00  0.00    -0.014 C 
ATOM      6  C   UNL     1     -60.622 -75.128 216.882  1.00  0.00     0.007 C 
ATOM      7  C   UNL     1     -58.384 -74.002 216.887  1.00  0.00     0.007 C 
ENDBRANCH   2   5
ENDBRANCH   1   2
BRANCH   1   8
ATOM      8  C   UNL     1     -57.455 -78.142 217.687  1.00  0.00     0.004 C 
BRANCH   8   9
ATOM      9  C   UNL     1     -58.860 -78.807 217.743  1.00  0.00    -0.011 C 
ATOM     10  C   UNL     1     -58.986 -79.861 216.622  1.00  0.00     0.008 C 
BRANCH   9  11
ATOM     11  C   UNL     1     -59.231 -79.462 219.124  1.00  0.00    -0.002 C 
ATOM     12  C   UNL     1     -58.189 -79.344 220.267  1.00  0.00     0.005 C 
ATOM     13  C   UNL     1     -60.575 -79.046 219.780  1.00  0.00    -0.026 C 
ATOM     14  C   UNL     1     -58.989 -79.402 221.583  1.00  0.00     0.005 C 
ATOM     15  C   UNL     1     -60.421 -79.714 221.151  1.00  0.00    -0.001 C 
ATOM     16  C   UNL     1     -61.830 -79.655 219.114  1.00  0.00     0.007 C 
ATOM     17  C   UNL     1     -60.701 -77.493 219.870  1.00  0.00     0.012 C 
ATOM     18  C   UNL     1     -61.582 -79.401 222.122  1.00  0.00     0.004 C 
ATOM     19  C   UNL     1     -63.089 -79.426 219.983  1.00  0.00     0.005 C 
ATOM     20  C   UNL     1     -62.929 -79.868 221.478  1.00  0.00     0.003 C 
ATOM     21  C   UNL     1     -61.363 -80.163 223.445  1.00  0.00     0.085 C 
ATOM     22  C   UNL     1     -64.192 -79.542 222.394  1.00  0.00    -0.000 C 
ATOM     23  C   UNL     1     -62.536 -80.029 224.360  1.00  0.00     0.159 C 
ATOM     24  C   UNL     1     -63.802 -79.436 223.878  1.00  0.00     0.005 C 
ATOM     25  C   UNL     1     -64.892 -78.209 221.978  1.00  0.00     0.020 C 
ATOM     26  C   UNL     1     -65.200 -80.710 222.254  1.00  0.00     0.017 C 
ATOM     27  O   UNL     1     -62.427 -80.420 225.554  1.00  0.00    -0.295 OA
ATOM     28  C   UNL     1     -64.587 -78.788 224.759  1.00  0.00     0.055 C 
ATOM     29  C   UNL     1     -66.078 -77.828 222.880  1.00  0.00     0.081 C 
ATOM     30  C   UNL     1     -65.759 -78.013 224.331  1.00  0.00     0.156 C 
ATOM     31  O   UNL     1     -66.514 -77.501 225.201  1.00  0.00    -0.295 OA
ENDBRANCH   9  11
ENDBRANCH   8   9
ENDBRANCH   1   8
TORSDOF 6
ENDMDL
MODEL 6
REMARK VINA RESULT:    -6.724      1.684      3.442
REMARK INTER + INTRA:         -10.232
REMARK INTER:                  -9.234
REMARK INTRA:                  -0.998
REMARK UNBOUND:                -1.150
REMARK SMILES CC[C@@H](CC[C@@H](C)[C@H]1CC[C@H]2[C@@H]3CC(=O)C4=CC(=O)CC[C@@]4(C)[C@H]3CC[C@]12C)C(C)C
REMARK SMILES IDX 4 1 3 2 2 3 1 4 29 5 30 6 31 7 5 8 6 9 7 10 8 11 9 12 27 13
REMARK SMILES IDX 10 14 11 15 26 16 28 17 12 18 25 19 24 20 13 21 22 22 14 23
REMARK SMILES IDX 16 24 21 25 23 26 15 27 17 28 20 29 18 30 19 31
REMARK H PARENT
REMARK Flexibility Score: inf
ROOT
ATOM      1  C   UNL     1     -59.140 -76.767 217.781  1.00  0.00     0.004 C 
ENDROOT
BRANCH   1   2
ATOM      2  C   UNL     1     -57.863 -76.003 217.310  1.00  0.00    -0.009 C 
BRANCH   2   3
ATOM      3  C   UNL     1     -58.166 -74.520 216.945  1.00  0.00     0.000 C 
ATOM      4  C   UNL     1     -58.163 -74.234 215.441  1.00  0.00     0.004 C 
ENDBRANCH   2   3
BRANCH   2   5
ATOM      5  C   UNL     1     -57.096 -76.732 216.148  1.00  0.00    -0.014 C 
ATOM      6  C   UNL     1     -55.818 -77.432 216.656  1.00  0.00     0.007 C 
ATOM      7  C   UNL     1     -57.977 -77.776 215.433  1.00  0.00     0.007 C 
ENDBRANCH   2   5
ENDBRANCH   1   2
BRANCH   1   8
ATOM      8  C   UNL     1     -58.863 -77.913 218.779  1.00  0.00     0.004 C 
BRANCH   8   9
ATOM      9  C   UNL     1     -59.975 -79.001 218.767  1.00  0.00    -0.011 C 
ATOM     10  C   UNL     1     -59.530 -80.196 217.898  1.00  0.00     0.008 C 
BRANCH   9  11
ATOM     11  C   UNL     1     -60.415 -79.518 220.186  1.00  0.00    -0.002 C 
ATOM     12  C   UNL     1     -59.410 -79.329 221.351  1.00  0.00     0.005 C 
ATOM     13  C   UNL     1     -61.766 -79.006 220.752  1.00  0.00    -0.026 C 
ATOM     14  C   UNL     1     -60.255 -79.246 222.637  1.00  0.00     0.005 C 
ATOM     15  C   UNL     1     -61.681 -79.553 222.181  1.00  0.00    -0.001 C 
ATOM     16  C   UNL     1     -63.017 -79.636 220.096  1.00  0.00     0.007 C 
ATOM     17  C   UNL     1     -61.845 -77.448 220.700  1.00  0.00     0.012 C 
ATOM     18  C   UNL     1     -62.864 -79.121 223.077  1.00  0.00     0.004 C 
ATOM     19  C   UNL     1     -64.296 -79.293 220.893  1.00  0.00     0.005 C 
ATOM     20  C   UNL     1     -64.203 -79.604 222.427  1.00  0.00     0.003 C 
ATOM     21  C   UNL     1     -62.715 -79.768 224.469  1.00  0.00     0.085 C 
ATOM     22  C   UNL     1     -65.485 -79.161 223.263  1.00  0.00    -0.000 C 
ATOM     23  C   UNL     1     -63.915 -79.518 225.324  1.00  0.00     0.159 C 
ATOM     24  C   UNL     1     -65.143 -78.934 224.745  1.00  0.00     0.005 C 
ATOM     25  C   UNL     1     -66.127 -77.850 222.705  1.00  0.00     0.020 C 
ATOM     26  C   UNL     1     -66.525 -80.307 223.190  1.00  0.00     0.017 C 
ATOM     27  O   UNL     1     -63.860 -79.804 226.552  1.00  0.00    -0.295 OA
ATOM     28  C   UNL     1     -65.936 -78.187 225.536  1.00  0.00     0.055 C 
ATOM     29  C   UNL     1     -67.330 -77.356 223.525  1.00  0.00     0.081 C 
ATOM     30  C   UNL     1     -67.067 -77.419 224.998  1.00  0.00     0.156 C 
ATOM     31  O   UNL     1     -67.835 -76.811 225.791  1.00  0.00    -0.295 OA
ENDBRANCH   9  11
ENDBRANCH   8   9
ENDBRANCH   1   8
TORSDOF 6
ENDMDL
MODEL 7
REMARK VINA RESULT:    -6.469      1.199      2.170
REMARK INTER + INTRA:          -9.888
REMARK INTER:                  -9.435
REMARK INTRA:                  -0.453
REMARK UNBOUND:                -1.150
REMARK SMILES CC[C@@H](CC[C@@H](C)[C@H]1CC[C@H]2[C@@H]3CC(=O)C4=CC(=O)CC[C@@]4(C)[C@H]3CC[C@]12C)C(C)C
REMARK SMILES IDX 4 1 3 2 2 3 1 4 29 5 30 6 31 7 5 8 6 9 7 10 8 11 9 12 27 13
REMARK SMILES IDX 10 14 11 15 26 16 28 17 12 18 25 19 24 20 13 21 22 22 14 23
REMARK SMILES IDX 16 24 21 25 23 26 15 27 17 28 20 29 18 30 19 31
REMARK H PARENT
REMARK Flexibility Score: inf
ROOT
ATOM      1  C   UNL     1     -58.674 -77.719 217.102  1.00  0.00     0.004 C 
ENDROOT
BRANCH   1   2
ATOM      2  C   UNL     1     -57.898 -76.680 216.234  1.00  0.00    -0.009 C 
BRANCH   2   3
ATOM      3  C   UNL     1     -58.751 -75.413 215.932  1.00  0.00     0.000 C 
ATOM      4  C   UNL     1     -58.422 -74.211 216.822  1.00  0.00     0.004 C 
ENDBRANCH   2   3
BRANCH   2   5
ATOM      5  C   UNL     1     -57.298 -77.292 214.918  1.00  0.00    -0.014 C 
ATOM      6  C   UNL     1     -58.146 -78.469 214.394  1.00  0.00     0.007 C 
ATOM      7  C   UNL     1     -57.164 -76.244 213.796  1.00  0.00     0.007 C 
ENDBRANCH   2   5
ENDBRANCH   1   2
BRANCH   1   8
ATOM      8  C   UNL     1     -58.356 -77.651 218.612  1.00  0.00     0.004 C 
BRANCH   8   9
ATOM      9  C   UNL     1     -59.358 -78.469 219.474  1.00  0.00    -0.011 C 
ATOM     10  C   UNL     1     -58.597 -79.241 220.573  1.00  0.00     0.008 C 
BRANCH   9  11
ATOM     11  C   UNL     1     -60.515 -77.628 220.129  1.00  0.00    -0.002 C 
ATOM     12  C   UNL     1     -61.386 -76.764 219.180  1.00  0.00     0.005 C 
ATOM     13  C   UNL     1     -61.540 -78.381 221.018  1.00  0.00    -0.026 C 
ATOM     14  C   UNL     1     -62.759 -76.625 219.865  1.00  0.00     0.005 C 
ATOM     15  C   UNL     1     -62.570 -77.268 221.239  1.00  0.00    -0.001 C 
ATOM     16  C   UNL     1     -61.004 -78.790 222.409  1.00  0.00     0.007 C 
ATOM     17  C   UNL     1     -62.131 -79.618 220.272  1.00  0.00     0.012 C 
ATOM     18  C   UNL     1     -63.816 -77.730 222.029  1.00  0.00     0.004 C 
ATOM     19  C   UNL     1     -62.150 -79.275 223.327  1.00  0.00     0.005 C 
ATOM     20  C   UNL     1     -63.364 -78.288 223.419  1.00  0.00     0.003 C 
ATOM     21  C   UNL     1     -64.758 -76.529 222.248  1.00  0.00     0.085 C 
ATOM     22  C   UNL     1     -64.585 -78.833 224.286  1.00  0.00    -0.000 C 
ATOM     23  C   UNL     1     -65.899 -76.880 223.146  1.00  0.00     0.159 C 
ATOM     24  C   UNL     1     -65.909 -78.160 223.886  1.00  0.00     0.005 C 
ATOM     25  C   UNL     1     -64.762 -80.379 224.147  1.00  0.00     0.020 C 
ATOM     26  C   UNL     1     -64.311 -78.486 225.772  1.00  0.00     0.017 C 
ATOM     27  O   UNL     1     -66.861 -76.071 223.256  1.00  0.00    -0.295 OA
ATOM     28  C   UNL     1     -67.094 -78.728 224.177  1.00  0.00     0.055 C 
ATOM     29  C   UNL     1     -65.970 -80.932 224.920  1.00  0.00     0.081 C 
ATOM     30  C   UNL     1     -67.189 -80.082 224.739  1.00  0.00     0.156 C 
ATOM     31  O   UNL     1     -68.316 -80.532 225.080  1.00  0.00    -0.295 OA
ENDBRANCH   9  11
ENDBRANCH   8   9
ENDBRANCH   1   8
TORSDOF 6
ENDMDL
MODEL 8
REMARK VINA RESULT:    -6.383      1.784      3.319
REMARK INTER + INTRA:          -9.772
REMARK INTER:                  -8.972
REMARK INTRA:                  -0.800
REMARK UNBOUND:                -1.150
REMARK SMILES CC[C@@H](CC[C@@H](C)[C@H]1CC[C@H]2[C@@H]3CC(=O)C4=CC(=O)CC[C@@]4(C)[C@H]3CC[C@]12C)C(C)C
REMARK SMILES IDX 4 1 3 2 2 3 1 4 29 5 30 6 31 7 5 8 6 9 7 10 8 11 9 12 27 13
REMARK SMILES IDX 10 14 11 15 26 16 28 17 12 18 25 19 24 20 13 21 22 22 14 23
REMARK SMILES IDX 16 24 21 25 23 26 15 27 17 28 20 29 18 30 19 31
REMARK H PARENT
REMARK Flexibility Score: inf
ROOT
ATOM      1  C   UNL     1     -59.183 -77.225 217.839  1.00  0.00     0.004 C 
ENDROOT
BRANCH   1   2
ATOM      2  C   UNL     1     -58.429 -76.103 217.059  1.00  0.00    -0.009 C 
BRANCH   2   3
ATOM      3  C   UNL     1     -59.345 -74.881 216.756  1.00  0.00     0.000 C 
ATOM      4  C   UNL     1     -58.642 -73.527 216.885  1.00  0.00     0.004 C 
ENDBRANCH   2   3
BRANCH   2   5
ATOM      5  C   UNL     1     -57.717 -76.621 215.757  1.00  0.00    -0.014 C 
ATOM      6  C   UNL     1     -57.555 -78.154 215.764  1.00  0.00     0.007 C 
ATOM      7  C   UNL     1     -58.473 -76.211 214.477  1.00  0.00     0.007 C 
ENDBRANCH   2   5
ENDBRANCH   1   2
BRANCH   1   8
ATOM      8  C   UNL     1     -60.326 -76.714 218.743  1.00  0.00     0.004 C 
BRANCH   8   9
ATOM      9  C   UNL     1     -60.923 -77.831 219.646  1.00  0.00    -0.011 C 
ATOM     10  C   UNL     1     -59.784 -78.621 220.325  1.00  0.00     0.008 C 
BRANCH   9  11
ATOM     11  C   UNL     1     -61.940 -77.332 220.737  1.00  0.00    -0.002 C 
ATOM     12  C   UNL     1     -62.565 -75.928 220.532  1.00  0.00     0.005 C 
ATOM     13  C   UNL     1     -63.147 -78.249 221.070  1.00  0.00    -0.026 C 
ATOM     14  C   UNL     1     -63.931 -75.958 221.247  1.00  0.00     0.005 C 
ATOM     15  C   UNL     1     -63.960 -77.307 221.965  1.00  0.00    -0.001 C 
ATOM     16  C   UNL     1     -62.793 -79.492 221.919  1.00  0.00     0.007 C 
ATOM     17  C   UNL     1     -63.910 -78.668 219.775  1.00  0.00     0.012 C 
ATOM     18  C   UNL     1     -65.320 -77.894 222.402  1.00  0.00     0.004 C 
ATOM     19  C   UNL     1     -64.069 -80.192 222.440  1.00  0.00     0.005 C 
ATOM     20  C   UNL     1     -65.077 -79.237 223.167  1.00  0.00     0.003 C 
ATOM     21  C   UNL     1     -66.030 -76.899 223.341  1.00  0.00     0.085 C 
ATOM     22  C   UNL     1     -66.435 -79.941 223.617  1.00  0.00    -0.000 C 
ATOM     23  C   UNL     1     -67.275 -77.483 223.925  1.00  0.00     0.159 C 
ATOM     24  C   UNL     1     -67.577 -78.922 223.768  1.00  0.00     0.005 C 
ATOM     25  C   UNL     1     -66.892 -81.039 222.604  1.00  0.00     0.020 C 
ATOM     26  C   UNL     1     -66.200 -80.594 225.002  1.00  0.00     0.017 C 
ATOM     27  O   UNL     1     -68.072 -76.727 224.547  1.00  0.00    -0.295 OA
ATOM     28  C   UNL     1     -68.865 -79.311 223.738  1.00  0.00     0.055 C 
ATOM     29  C   UNL     1     -68.232 -81.696 222.972  1.00  0.00     0.081 C 
ATOM     30  C   UNL     1     -69.253 -80.687 223.398  1.00  0.00     0.156 C 
ATOM     31  O   UNL     1     -70.464 -81.025 223.475  1.00  0.00    -0.295 OA
ENDBRANCH   9  11
ENDBRANCH   8   9
ENDBRANCH   1   8
TORSDOF 6
ENDMDL
MODEL 9
REMARK VINA RESULT:    -6.287      4.010     11.560
REMARK INTER + INTRA:          -9.643
REMARK INTER:                  -8.123
REMARK INTRA:                  -1.520
REMARK UNBOUND:                -1.150
REMARK SMILES CC[C@@H](CC[C@@H](C)[C@H]1CC[C@H]2[C@@H]3CC(=O)C4=CC(=O)CC[C@@]4(C)[C@H]3CC[C@]12C)C(C)C
REMARK SMILES IDX 4 1 3 2 2 3 1 4 29 5 30 6 31 7 5 8 6 9 7 10 8 11 9 12 27 13
REMARK SMILES IDX 10 14 11 15 26 16 28 17 12 18 25 19 24 20 13 21 22 22 14 23
REMARK SMILES IDX 16 24 21 25 23 26 15 27 17 28 20 29 18 30 19 31
REMARK H PARENT
REMARK Flexibility Score: inf
ROOT
ATOM      1  C   UNL     1     -70.206 -81.757 226.876  1.00  0.00     0.004 C 
ENDROOT
BRANCH   1   2
ATOM      2  C   UNL     1     -69.606 -82.155 228.260  1.00  0.00    -0.009 C 
BRANCH   2   3
ATOM      3  C   UNL     1     -70.638 -82.899 229.157  1.00  0.00     0.000 C 
ATOM      4  C   UNL     1     -70.127 -84.225 229.729  1.00  0.00     0.004 C 
ENDBRANCH   2   3
BRANCH   2   5
ATOM      5  C   UNL     1     -68.950 -80.949 229.024  1.00  0.00    -0.014 C 
ATOM      6  C   UNL     1     -69.793 -80.514 230.240  1.00  0.00     0.007 C 
ATOM      7  C   UNL     1     -67.521 -81.272 229.506  1.00  0.00     0.007 C 
ENDBRANCH   2   5
ENDBRANCH   1   2
BRANCH   1   8
ATOM      8  C   UNL     1     -69.195 -81.799 225.708  1.00  0.00     0.004 C 
BRANCH   8   9
ATOM      9  C   UNL     1     -68.818 -80.383 225.188  1.00  0.00    -0.011 C 
ATOM     10  C   UNL     1     -69.746 -79.326 225.826  1.00  0.00     0.008 C 
BRANCH   9  11
ATOM     11  C   UNL     1     -67.317 -79.969 225.412  1.00  0.00    -0.002 C 
ATOM     12  C   UNL     1     -66.366 -81.046 225.996  1.00  0.00     0.005 C 
ATOM     13  C   UNL     1     -66.544 -79.381 224.202  1.00  0.00    -0.026 C 
ATOM     14  C   UNL     1     -64.954 -80.688 225.491  1.00  0.00     0.005 C 
ATOM     15  C   UNL     1     -65.126 -79.344 224.784  1.00  0.00    -0.001 C 
ATOM     16  C   UNL     1     -66.927 -77.928 223.840  1.00  0.00     0.007 C 
ATOM     17  C   UNL     1     -66.665 -80.308 222.952  1.00  0.00     0.012 C 
ATOM     18  C   UNL     1     -64.055 -78.889 223.768  1.00  0.00     0.004 C 
ATOM     19  C   UNL     1     -65.930 -77.326 222.823  1.00  0.00     0.005 C 
ATOM     20  C   UNL     1     -64.424 -77.464 223.237  1.00  0.00     0.003 C 
ATOM     21  C   UNL     1     -62.680 -78.829 224.464  1.00  0.00     0.085 C 
ATOM     22  C   UNL     1     -63.394 -76.932 222.144  1.00  0.00    -0.000 C 
ATOM     23  C   UNL     1     -61.636 -78.238 223.573  1.00  0.00     0.159 C 
ATOM     24  C   UNL     1     -62.013 -77.590 222.300  1.00  0.00     0.005 C 
ATOM     25  C   UNL     1     -63.896 -77.190 220.687  1.00  0.00     0.020 C 
ATOM     26  C   UNL     1     -63.215 -75.407 222.356  1.00  0.00     0.017 C 
ATOM     27  O   UNL     1     -60.425 -78.310 223.921  1.00  0.00    -0.295 OA
ATOM     28  C   UNL     1     -61.134 -77.610 221.281  1.00  0.00     0.055 C 
ATOM     29  C   UNL     1     -62.899 -76.747 219.604  1.00  0.00     0.081 C 
ATOM     30  C   UNL     1     -61.497 -77.159 219.931  1.00  0.00     0.156 C 
ATOM     31  O   UNL     1     -60.612 -77.110 219.035  1.00  0.00    -0.295 OA
ENDBRANCH   9  11
ENDBRANCH   8   9
ENDBRANCH   1   8
TORSDOF 6
ENDMDL
