MODEL 1
REMARK VINA RESULT:    -4.220      0.000      0.000
REMARK INTER + INTRA:          -7.221
REMARK INTER:                  -6.440
REMARK INTRA:                  -0.781
REMARK UNBOUND:                -0.781
REMARK SMILES CC(=O)CCC=C(C)CCC=C(C)CCC=C(C)C
REMARK SMILES IDX 10 1 11 2 12 3 13 4 14 5 15 6 16 7 18 8 17 9 19 10 9 11 7 12
REMARK SMILES IDX 6 13 8 14 5 15 4 16 2 17 3 18 1 19
REMARK H PARENT
REMARK Flexibility Score: inf
ROOT
ATOM      1  C   UNL     1       2.143  14.372  -9.006  1.00  0.00     0.032 C 
ENDROOT
BRANCH   1   2
ATOM      2  C   UNL     1       3.313  13.414  -8.992  1.00  0.00    -0.028 C 
ATOM      3  C   UNL     1       3.212  12.067  -9.044  1.00  0.00    -0.077 C 
ATOM      4  C   UNL     1       1.876  11.368  -9.125  1.00  0.00     0.039 C 
BRANCH   3   5
ATOM      5  C   UNL     1       4.475  11.232  -9.024  1.00  0.00     0.034 C 
BRANCH   5   6
ATOM      6  C   UNL     1       5.713  12.079  -8.706  1.00  0.00     0.032 C 
BRANCH   6   7
ATOM      7  C   UNL     1       6.185  11.845  -7.289  1.00  0.00    -0.028 C 
ATOM      8  C   UNL     1       6.729  12.435  -4.948  1.00  0.00     0.039 C 
ATOM      9  C   UNL     1       6.178  12.775  -6.308  1.00  0.00    -0.080 C 
ATOM     10  C   UNL     1       5.663  14.172  -6.531  1.00  0.00     0.039 C 
ENDBRANCH   6   7
ENDBRANCH   5   6
ENDBRANCH   3   5
ENDBRANCH   1   2
BRANCH   1  11
ATOM     11  C   UNL     1       1.231  14.163  -7.791  1.00  0.00     0.034 C 
BRANCH  11  12
ATOM     12  C   UNL     1       1.999  14.214  -6.486  1.00  0.00    -0.077 C 
ATOM     13  C   UNL     1       2.259  15.413  -5.919  1.00  0.00    -0.028 C 
ATOM     14  C   UNL     1       2.468  12.928  -5.847  1.00  0.00     0.039 C 
BRANCH  13  15
ATOM     15  C   UNL     1       3.009  15.564  -4.617  1.00  0.00     0.035 C 
BRANCH  15  16
ATOM     16  C   UNL     1       4.204  16.510  -4.771  1.00  0.00     0.079 C 
BRANCH  16  17
ATOM     17  C   UNL     1       3.919  17.566  -5.808  1.00  0.00     0.130 C 
ATOM     18  O   UNL     1       4.140  17.327  -6.986  1.00  0.00    -0.300 OA
ATOM     19  C   UNL     1       3.358  18.903  -5.426  1.00  0.00     0.087 C 
ENDBRANCH  16  17
ENDBRANCH  15  16
ENDBRANCH  13  15
ENDBRANCH  11  12
ENDBRANCH   1  11
TORSDOF 9
ENDMDL
MODEL 2
REMARK VINA RESULT:    -3.991      1.341      5.029
REMARK INTER + INTRA:          -6.872
REMARK INTER:                  -5.411
REMARK INTRA:                  -1.461
REMARK UNBOUND:                -0.781
REMARK SMILES CC(=O)CCC=C(C)CCC=C(C)CCC=C(C)C
REMARK SMILES IDX 10 1 11 2 12 3 13 4 14 5 15 6 16 7 18 8 17 9 19 10 9 11 7 12
REMARK SMILES IDX 6 13 8 14 5 15 4 16 2 17 3 18 1 19
REMARK H PARENT
REMARK Flexibility Score: inf
ROOT
ATOM      1  C   UNL     1       1.499  14.280  -7.807  1.00  0.00     0.032 C 
ENDROOT
BRANCH   1   2
ATOM      2  C   UNL     1       2.171  14.847  -6.576  1.00  0.00    -0.028 C 
ATOM      3  C   UNL     1       2.712  14.109  -5.580  1.00  0.00    -0.077 C 
ATOM      4  C   UNL     1       2.697  12.599  -5.605  1.00  0.00     0.039 C 
BRANCH   3   5
ATOM      5  C   UNL     1       3.357  14.816  -4.407  1.00  0.00     0.034 C 
BRANCH   5   6
ATOM      6  C   UNL     1       4.475  15.765  -4.857  1.00  0.00     0.032 C 
BRANCH   6   7
ATOM      7  C   UNL     1       4.071  17.209  -4.670  1.00  0.00    -0.028 C 
ATOM      8  C   UNL     1       3.533  19.526  -5.356  1.00  0.00     0.039 C 
ATOM      9  C   UNL     1       3.879  18.094  -5.674  1.00  0.00    -0.080 C 
ATOM     10  C   UNL     1       4.029  17.709  -7.122  1.00  0.00     0.039 C 
ENDBRANCH   6   7
ENDBRANCH   5   6
ENDBRANCH   3   5
ENDBRANCH   1   2
BRANCH   1  11
ATOM     11  C   UNL     1       2.282  14.618  -9.081  1.00  0.00     0.034 C 
BRANCH  11  12
ATOM     12  C   UNL     1       3.721  14.145  -9.008  1.00  0.00    -0.077 C 
ATOM     13  C   UNL     1       3.976  12.831  -8.831  1.00  0.00    -0.028 C 
ATOM     14  C   UNL     1       4.840  15.153  -9.125  1.00  0.00     0.039 C 
BRANCH  13  15
ATOM     15  C   UNL     1       5.374  12.266  -8.755  1.00  0.00     0.035 C 
BRANCH  15  16
ATOM     16  C   UNL     1       5.624  11.581  -7.407  1.00  0.00     0.079 C 
BRANCH  16  17
ATOM     17  C   UNL     1       6.141  12.569  -6.394  1.00  0.00     0.130 C 
ATOM     18  O   UNL     1       6.076  13.765  -6.634  1.00  0.00    -0.300 OA
ATOM     19  C   UNL     1       6.725  12.117  -5.089  1.00  0.00     0.087 C 
ENDBRANCH  16  17
ENDBRANCH  15  16
ENDBRANCH  13  15
ENDBRANCH  11  12
ENDBRANCH   1  11
TORSDOF 9
ENDMDL
MODEL 3
REMARK VINA RESULT:    -3.758      1.645      2.457
REMARK INTER + INTRA:          -6.516
REMARK INTER:                  -4.099
REMARK INTRA:                  -2.416
REMARK UNBOUND:                -0.781
REMARK SMILES CC(=O)CCC=C(C)CCC=C(C)CCC=C(C)C
REMARK SMILES IDX 10 1 11 2 12 3 13 4 14 5 15 6 16 7 18 8 17 9 19 10 9 11 7 12
REMARK SMILES IDX 6 13 8 14 5 15 4 16 2 17 3 18 1 19
REMARK H PARENT
REMARK Flexibility Score: inf
ROOT
ATOM      1  C   UNL     1       2.230  14.387  -9.027  1.00  0.00     0.032 C 
ENDROOT
BRANCH   1   2
ATOM      2  C   UNL     1       3.724  14.172  -9.125  1.00  0.00    -0.028 C 
ATOM      3  C   UNL     1       4.657  15.141  -8.989  1.00  0.00    -0.077 C 
ATOM      4  C   UNL     1       4.283  16.578  -8.714  1.00  0.00     0.039 C 
BRANCH   3   5
ATOM      5  C   UNL     1       6.121  14.776  -9.110  1.00  0.00     0.034 C 
BRANCH   5   6
ATOM      6  C   UNL     1       6.342  13.262  -9.002  1.00  0.00     0.032 C 
BRANCH   6   7
ATOM      7  C   UNL     1       6.593  12.850  -7.569  1.00  0.00    -0.028 C 
ATOM      8  C   UNL     1       6.146  11.699  -5.424  1.00  0.00     0.039 C 
ATOM      9  C   UNL     1       5.825  11.988  -6.867  1.00  0.00    -0.080 C 
ATOM     10  C   UNL     1       4.619  11.315  -7.469  1.00  0.00     0.039 C 
ENDBRANCH   6   7
ENDBRANCH   5   6
ENDBRANCH   3   5
ENDBRANCH   1   2
BRANCH   1  11
ATOM     11  C   UNL     1       1.646  13.715  -7.778  1.00  0.00     0.034 C 
BRANCH  11  12
ATOM     12  C   UNL     1       2.076  14.409  -6.502  1.00  0.00    -0.077 C 
ATOM     13  C   UNL     1       1.790  15.719  -6.334  1.00  0.00    -0.028 C 
ATOM     14  C   UNL     1       2.824  13.629  -5.447  1.00  0.00     0.039 C 
BRANCH  13  15
ATOM     15  C   UNL     1       2.170  16.494  -5.095  1.00  0.00     0.035 C 
BRANCH  15  16
ATOM     16  C   UNL     1       3.541  17.159  -5.254  1.00  0.00     0.079 C 
BRANCH  16  17
ATOM     17  C   UNL     1       4.615  16.330  -4.598  1.00  0.00     0.130 C 
ATOM     18  O   UNL     1       4.642  16.237  -3.380  1.00  0.00    -0.300 OA
ATOM     19  C   UNL     1       5.649  15.607  -5.410  1.00  0.00     0.087 C 
ENDBRANCH  16  17
ENDBRANCH  15  16
ENDBRANCH  13  15
ENDBRANCH  11  12
ENDBRANCH   1  11
TORSDOF 9
ENDMDL
MODEL 4
REMARK VINA RESULT:    -3.286      1.310      3.344
REMARK INTER + INTRA:          -5.796
REMARK INTER:                  -4.310
REMARK INTRA:                  -1.486
REMARK UNBOUND:                -0.781
REMARK SMILES CC(=O)CCC=C(C)CCC=C(C)CCC=C(C)C
REMARK SMILES IDX 10 1 11 2 12 3 13 4 14 5 15 6 16 7 18 8 17 9 19 10 9 11 7 12
REMARK SMILES IDX 6 13 8 14 5 15 4 16 2 17 3 18 1 19
REMARK H PARENT
REMARK Flexibility Score: inf
ROOT
ATOM      1  C   UNL     1       6.353  13.727  -8.781  1.00  0.00     0.032 C 
ENDROOT
BRANCH   1   2
ATOM      2  C   UNL     1       5.354  12.645  -9.125  1.00  0.00    -0.028 C 
ATOM      3  C   UNL     1       5.035  11.602  -8.325  1.00  0.00    -0.077 C 
ATOM      4  C   UNL     1       5.667  11.414  -6.967  1.00  0.00     0.039 C 
BRANCH   3   5
ATOM      5  C   UNL     1       4.012  10.594  -8.802  1.00  0.00     0.034 C 
BRANCH   5   6
ATOM      6  C   UNL     1       2.624  10.866  -8.208  1.00  0.00     0.032 C 
BRANCH   6   7
ATOM      7  C   UNL     1       2.169  12.276  -8.511  1.00  0.00    -0.028 C 
ATOM      8  C   UNL     1       1.482  14.599  -8.006  1.00  0.00     0.039 C 
ATOM      9  C   UNL     1       1.996  13.247  -7.586  1.00  0.00    -0.080 C 
ATOM     10  C   UNL     1       2.271  13.020  -6.123  1.00  0.00     0.039 C 
ENDBRANCH   6   7
ENDBRANCH   5   6
ENDBRANCH   3   5
ENDBRANCH   1   2
BRANCH   1  11
ATOM     11  C   UNL     1       5.674  15.095  -8.639  1.00  0.00     0.034 C 
BRANCH  11  12
ATOM     12  C   UNL     1       5.073  15.293  -7.263  1.00  0.00    -0.077 C 
ATOM     13  C   UNL     1       4.055  16.168  -7.106  1.00  0.00    -0.028 C 
ATOM     14  C   UNL     1       5.627  14.517  -6.091  1.00  0.00     0.039 C 
BRANCH  13  15
ATOM     15  C   UNL     1       3.387  16.426  -5.777  1.00  0.00     0.035 C 
BRANCH  15  16
ATOM     16  C   UNL     1       4.121  17.517  -4.989  1.00  0.00     0.079 C 
BRANCH  16  17
ATOM     17  C   UNL     1       3.756  18.885  -5.506  1.00  0.00     0.130 C 
ATOM     18  O   UNL     1       4.606  19.561  -6.066  1.00  0.00    -0.300 OA
ATOM     19  C   UNL     1       2.367  19.431  -5.358  1.00  0.00     0.087 C 
ENDBRANCH  16  17
ENDBRANCH  15  16
ENDBRANCH  13  15
ENDBRANCH  11  12
ENDBRANCH   1  11
TORSDOF 9
ENDMDL
MODEL 5
REMARK VINA RESULT:    -3.136      1.520      2.164
REMARK INTER + INTRA:          -5.568
REMARK INTER:                  -4.957
REMARK INTRA:                  -0.611
REMARK UNBOUND:                -0.781
REMARK SMILES CC(=O)CCC=C(C)CCC=C(C)CCC=C(C)C
REMARK SMILES IDX 10 1 11 2 12 3 13 4 14 5 15 6 16 7 18 8 17 9 19 10 9 11 7 12
REMARK SMILES IDX 6 13 8 14 5 15 4 16 2 17 3 18 1 19
REMARK H PARENT
REMARK Flexibility Score: inf
ROOT
ATOM      1  C   UNL     1       1.824  13.265  -7.204  1.00  0.00     0.032 C 
ENDROOT
BRANCH   1   2
ATOM      2  C   UNL     1       2.994  12.761  -8.019  1.00  0.00    -0.028 C 
ATOM      3  C   UNL     1       3.278  11.458  -8.243  1.00  0.00    -0.077 C 
ATOM      4  C   UNL     1       2.423  10.346  -7.684  1.00  0.00     0.039 C 
BRANCH   3   5
ATOM      5  C   UNL     1       4.486  11.101  -9.083  1.00  0.00     0.034 C 
BRANCH   5   6
ATOM      6  C   UNL     1       5.718  11.925  -8.689  1.00  0.00     0.032 C 
BRANCH   6   7
ATOM      7  C   UNL     1       6.132  11.637  -7.263  1.00  0.00    -0.028 C 
ATOM      8  C   UNL     1       6.712  12.162  -4.915  1.00  0.00     0.039 C 
ATOM      9  C   UNL     1       6.232  12.565  -6.286  1.00  0.00    -0.080 C 
ATOM     10  C   UNL     1       5.909  14.017  -6.521  1.00  0.00     0.039 C 
ENDBRANCH   6   7
ENDBRANCH   5   6
ENDBRANCH   3   5
ENDBRANCH   1   2
BRANCH   1  11
ATOM     11  C   UNL     1       1.494  14.725  -7.539  1.00  0.00     0.034 C 
BRANCH  11  12
ATOM     12  C   UNL     1       2.611  15.668  -7.142  1.00  0.00    -0.077 C 
ATOM     13  C   UNL     1       2.564  16.279  -5.937  1.00  0.00    -0.028 C 
ATOM     14  C   UNL     1       3.751  15.915  -8.102  1.00  0.00     0.039 C 
BRANCH  13  15
ATOM     15  C   UNL     1       3.634  17.226  -5.451  1.00  0.00     0.035 C 
BRANCH  15  16
ATOM     16  C   UNL     1       4.724  16.481  -4.674  1.00  0.00     0.079 C 
BRANCH  16  17
ATOM     17  C   UNL     1       4.115  15.590  -3.622  1.00  0.00     0.130 C 
ATOM     18  O   UNL     1       4.231  15.887  -2.443  1.00  0.00    -0.300 OA
ATOM     19  C   UNL     1       3.359  14.350  -3.993  1.00  0.00     0.087 C 
ENDBRANCH  16  17
ENDBRANCH  15  16
ENDBRANCH  13  15
ENDBRANCH  11  12
ENDBRANCH   1  11
TORSDOF 9
ENDMDL
MODEL 6
REMARK VINA RESULT:    -3.019      1.202      2.019
REMARK INTER + INTRA:          -5.389
REMARK INTER:                  -4.124
REMARK INTRA:                  -1.265
REMARK UNBOUND:                -0.781
REMARK SMILES CC(=O)CCC=C(C)CCC=C(C)CCC=C(C)C
REMARK SMILES IDX 10 1 11 2 12 3 13 4 14 5 15 6 16 7 18 8 17 9 19 10 9 11 7 12
REMARK SMILES IDX 6 13 8 14 5 15 4 16 2 17 3 18 1 19
REMARK H PARENT
REMARK Flexibility Score: inf
ROOT
ATOM      1  C   UNL     1       1.861  14.411  -8.765  1.00  0.00     0.032 C 
ENDROOT
BRANCH   1   2
ATOM      2  C   UNL     1       2.420  13.021  -8.970  1.00  0.00    -0.028 C 
ATOM      3  C   UNL     1       2.677  12.135  -7.981  1.00  0.00    -0.077 C 
ATOM      4  C   UNL     1       2.420  12.461  -6.529  1.00  0.00     0.039 C 
BRANCH   3   5
ATOM      5  C   UNL     1       3.235  10.773  -8.338  1.00  0.00     0.034 C 
BRANCH   5   6
ATOM      6  C   UNL     1       4.768  10.776  -8.367  1.00  0.00     0.032 C 
BRANCH   6   7
ATOM      7  C   UNL     1       5.300  12.048  -8.986  1.00  0.00    -0.028 C 
ATOM      8  C   UNL     1       6.340  14.293  -9.029  1.00  0.00     0.039 C 
ATOM      9  C   UNL     1       5.903  13.046  -8.304  1.00  0.00    -0.080 C 
ATOM     10  C   UNL     1       6.134  12.977  -6.817  1.00  0.00     0.039 C 
ENDBRANCH   6   7
ENDBRANCH   5   6
ENDBRANCH   3   5
ENDBRANCH   1   2
BRANCH   1  11
ATOM     11  C   UNL     1       2.969  15.418  -8.431  1.00  0.00     0.034 C 
BRANCH  11  12
ATOM     12  C   UNL     1       3.054  15.702  -6.945  1.00  0.00    -0.077 C 
ATOM     13  C   UNL     1       4.233  16.088  -6.412  1.00  0.00    -0.028 C 
ATOM     14  C   UNL     1       1.821  15.540  -6.087  1.00  0.00     0.039 C 
BRANCH  13  15
ATOM     15  C   UNL     1       4.413  16.401  -4.946  1.00  0.00     0.035 C 
BRANCH  15  16
ATOM     16  C   UNL     1       4.809  17.867  -4.736  1.00  0.00     0.079 C 
BRANCH  16  17
ATOM     17  C   UNL     1       3.965  18.775  -5.592  1.00  0.00     0.130 C 
ATOM     18  O   UNL     1       4.465  19.319  -6.565  1.00  0.00    -0.300 OA
ATOM     19  C   UNL     1       2.518  19.020  -5.281  1.00  0.00     0.087 C 
ENDBRANCH  16  17
ENDBRANCH  15  16
ENDBRANCH  13  15
ENDBRANCH  11  12
ENDBRANCH   1  11
TORSDOF 9
ENDMDL
MODEL 7
REMARK VINA RESULT:    -2.842      1.150      3.450
REMARK INTER + INTRA:          -5.119
REMARK INTER:                  -4.193
REMARK INTRA:                  -0.926
REMARK UNBOUND:                -0.781
REMARK SMILES CC(=O)CCC=C(C)CCC=C(C)CCC=C(C)C
REMARK SMILES IDX 10 1 11 2 12 3 13 4 14 5 15 6 16 7 18 8 17 9 19 10 9 11 7 12
REMARK SMILES IDX 6 13 8 14 5 15 4 16 2 17 3 18 1 19
REMARK H PARENT
REMARK Flexibility Score: inf
ROOT
ATOM      1  C   UNL     1       5.247  11.756  -9.069  1.00  0.00     0.032 C 
ENDROOT
BRANCH   1   2
ATOM      2  C   UNL     1       4.014  12.629  -9.125  1.00  0.00    -0.028 C 
ATOM      3  C   UNL     1       2.781  12.256  -8.711  1.00  0.00    -0.077 C 
ATOM      4  C   UNL     1       2.512  10.887  -8.134  1.00  0.00     0.039 C 
BRANCH   3   5
ATOM      5  C   UNL     1       1.637  13.241  -8.826  1.00  0.00     0.034 C 
BRANCH   5   6
ATOM      6  C   UNL     1       1.785  14.405  -7.838  1.00  0.00     0.032 C 
BRANCH   6   7
ATOM      7  C   UNL     1       2.394  13.939  -6.535  1.00  0.00    -0.028 C 
ATOM      8  C   UNL     1       3.006  14.062  -4.140  1.00  0.00     0.039 C 
ATOM      9  C   UNL     1       2.304  14.600  -5.360  1.00  0.00    -0.080 C 
ATOM     10  C   UNL     1       1.545  15.894  -5.223  1.00  0.00     0.039 C 
ENDBRANCH   6   7
ENDBRANCH   5   6
ENDBRANCH   3   5
ENDBRANCH   1   2
BRANCH   1  11
ATOM     11  C   UNL     1       6.441  12.507  -8.468  1.00  0.00     0.034 C 
BRANCH  11  12
ATOM     12  C   UNL     1       6.063  13.271  -7.215  1.00  0.00    -0.077 C 
ATOM     13  C   UNL     1       5.798  14.593  -7.302  1.00  0.00    -0.028 C 
ATOM     14  C   UNL     1       5.996  12.544  -5.893  1.00  0.00     0.039 C 
BRANCH  13  15
ATOM     15  C   UNL     1       5.405  15.435  -6.112  1.00  0.00     0.035 C 
BRANCH  15  16
ATOM     16  C   UNL     1       4.547  16.631  -6.537  1.00  0.00     0.079 C 
BRANCH  16  17
ATOM     17  C   UNL     1       4.340  17.576  -5.382  1.00  0.00     0.130 C 
ATOM     18  O   UNL     1       4.681  17.237  -4.259  1.00  0.00    -0.300 OA
ATOM     19  C   UNL     1       3.733  18.933  -5.582  1.00  0.00     0.087 C 
ENDBRANCH  16  17
ENDBRANCH  15  16
ENDBRANCH  13  15
ENDBRANCH  11  12
ENDBRANCH   1  11
TORSDOF 9
ENDMDL
MODEL 8
REMARK VINA RESULT:    -2.753      1.679      4.598
REMARK INTER + INTRA:          -4.983
REMARK INTER:                  -3.762
REMARK INTRA:                  -1.221
REMARK UNBOUND:                -0.781
REMARK SMILES CC(=O)CCC=C(C)CCC=C(C)CCC=C(C)C
REMARK SMILES IDX 10 1 11 2 12 3 13 4 14 5 15 6 16 7 18 8 17 9 19 10 9 11 7 12
REMARK SMILES IDX 6 13 8 14 5 15 4 16 2 17 3 18 1 19
REMARK H PARENT
REMARK Flexibility Score: inf
ROOT
ATOM      1  C   UNL     1       2.385  14.208  -9.124  1.00  0.00     0.032 C 
ENDROOT
BRANCH   1   2
ATOM      2  C   UNL     1       2.874  15.442  -8.399  1.00  0.00    -0.028 C 
ATOM      3  C   UNL     1       4.156  15.873  -8.383  1.00  0.00    -0.077 C 
ATOM      4  C   UNL     1       5.256  15.140  -9.112  1.00  0.00     0.039 C 
BRANCH   3   5
ATOM      5  C   UNL     1       4.500  17.131  -7.613  1.00  0.00     0.034 C 
BRANCH   5   6
ATOM      6  C   UNL     1       3.771  17.191  -6.265  1.00  0.00     0.032 C 
BRANCH   6   7
ATOM      7  C   UNL     1       4.038  15.949  -5.445  1.00  0.00    -0.028 C 
ATOM      8  C   UNL     1       3.474  13.950  -4.100  1.00  0.00     0.039 C 
ATOM      9  C   UNL     1       3.083  15.128  -4.954  1.00  0.00    -0.080 C 
ATOM     10  C   UNL     1       1.617  15.364  -5.201  1.00  0.00     0.039 C 
ENDBRANCH   6   7
ENDBRANCH   5   6
ENDBRANCH   3   5
ENDBRANCH   1   2
BRANCH   1  11
ATOM     11  C   UNL     1       1.926  13.124  -8.141  1.00  0.00     0.034 C 
BRANCH  11  12
ATOM     12  C   UNL     1       3.011  12.100  -7.874  1.00  0.00    -0.077 C 
ATOM     13  C   UNL     1       4.285  12.380  -8.225  1.00  0.00    -0.028 C 
ATOM     14  C   UNL     1       2.647  10.783  -7.229  1.00  0.00     0.039 C 
BRANCH  13  15
ATOM     15  C   UNL     1       5.433  11.428  -7.991  1.00  0.00     0.035 C 
BRANCH  15  16
ATOM     16  C   UNL     1       6.672  12.167  -7.475  1.00  0.00     0.079 C 
BRANCH  16  17
ATOM     17  C   UNL     1       6.430  12.712  -6.091  1.00  0.00     0.130 C 
ATOM     18  O   UNL     1       6.220  13.907  -5.944  1.00  0.00    -0.300 OA
ATOM     19  C   UNL     1       6.430  11.816  -4.888  1.00  0.00     0.087 C 
ENDBRANCH  16  17
ENDBRANCH  15  16
ENDBRANCH  13  15
ENDBRANCH  11  12
ENDBRANCH   1  11
TORSDOF 9
ENDMDL
MODEL 9
REMARK VINA RESULT:    -2.733      1.307      2.423
REMARK INTER + INTRA:          -4.952
REMARK INTER:                  -3.258
REMARK INTRA:                  -1.694
REMARK UNBOUND:                -0.781
REMARK SMILES CC(=O)CCC=C(C)CCC=C(C)CCC=C(C)C
REMARK SMILES IDX 10 1 11 2 12 3 13 4 14 5 15 6 16 7 18 8 17 9 19 10 9 11 7 12
REMARK SMILES IDX 6 13 8 14 5 15 4 16 2 17 3 18 1 19
REMARK H PARENT
REMARK Flexibility Score: inf
ROOT
ATOM      1  C   UNL     1       2.008  14.130  -6.108  1.00  0.00     0.032 C 
ENDROOT
BRANCH   1   2
ATOM      2  C   UNL     1       2.258  12.901  -6.953  1.00  0.00    -0.028 C 
ATOM      3  C   UNL     1       2.378  12.898  -8.300  1.00  0.00    -0.077 C 
ATOM      4  C   UNL     1       2.273  14.165  -9.115  1.00  0.00     0.039 C 
BRANCH   3   5
ATOM      5  C   UNL     1       2.630  11.587  -9.014  1.00  0.00     0.034 C 
BRANCH   5   6
ATOM      6  C   UNL     1       4.128  11.277  -9.125  1.00  0.00     0.032 C 
BRANCH   6   7
ATOM      7  C   UNL     1       4.809  11.386  -7.779  1.00  0.00    -0.028 C 
ATOM      8  C   UNL     1       6.381  12.287  -6.094  1.00  0.00     0.039 C 
ATOM      9  C   UNL     1       5.731  12.318  -7.453  1.00  0.00    -0.080 C 
ATOM     10  C   UNL     1       6.169  13.387  -8.420  1.00  0.00     0.039 C 
ENDBRANCH   6   7
ENDBRANCH   5   6
ENDBRANCH   3   5
ENDBRANCH   1   2
BRANCH   1  11
ATOM     11  C   UNL     1       3.198  14.431  -5.188  1.00  0.00     0.034 C 
BRANCH  11  12
ATOM     12  C   UNL     1       4.164  15.419  -5.809  1.00  0.00    -0.077 C 
ATOM     13  C   UNL     1       3.723  16.260  -6.771  1.00  0.00    -0.028 C 
ATOM     14  C   UNL     1       5.603  15.440  -5.350  1.00  0.00     0.039 C 
BRANCH  13  15
ATOM     15  C   UNL     1       4.608  17.283  -7.441  1.00  0.00     0.035 C 
BRANCH  15  16
ATOM     16  C   UNL     1       4.166  18.709  -7.099  1.00  0.00     0.079 C 
BRANCH  16  17
ATOM     17  C   UNL     1       3.773  18.812  -5.648  1.00  0.00     0.130 C 
ATOM     18  O   UNL     1       4.633  18.726  -4.785  1.00  0.00    -0.300 OA
ATOM     19  C   UNL     1       2.346  19.029  -5.239  1.00  0.00     0.087 C 
ENDBRANCH  16  17
ENDBRANCH  15  16
ENDBRANCH  13  15
ENDBRANCH  11  12
ENDBRANCH   1  11
TORSDOF 9
ENDMDL
