MODEL 1
REMARK VINA RESULT:    -4.636      0.000      0.000
REMARK INTER + INTRA:          -6.884
REMARK INTER:                  -6.263
REMARK INTRA:                  -0.622
REMARK UNBOUND:                -0.622
REMARK SMILES CCCCCCC=CC(=O)[O-]
REMARK SMILES IDX 5 1 6 2 7 3 8 4 9 5 10 6 11 7 4 8 3 9 2 10 1 11
REMARK H PARENT
REMARK Flexibility Score: inf
ROOT
ATOM      1  C   UNL     1       8.464   1.450   1.845  1.00  0.00     0.004 C 
ENDROOT
BRANCH   1   2
ATOM      2  C   UNL     1       7.710   0.120   1.684  1.00  0.00     0.027 C 
BRANCH   2   3
ATOM      3  C   UNL     1       6.238   0.321   1.438  1.00  0.00    -0.025 C 
ATOM      4  C   UNL     1       5.303  -0.643   1.402  1.00  0.00     0.020 C 
BRANCH   4   5
ATOM      5  C   UNL     1       5.529  -2.096   1.551  1.00  0.00     0.064 C 
ATOM      6  O   UNL     1       5.491  -2.884   0.570  1.00  0.00    -0.545 OA
ATOM      7  O   UNL     1       5.766  -2.611   2.819  1.00  0.00    -0.545 OA
ENDBRANCH   4   5
ENDBRANCH   2   3
ENDBRANCH   1   2
BRANCH   1   8
ATOM      8  C   UNL     1       7.514   2.659   1.793  1.00  0.00     0.000 C 
BRANCH   8   9
ATOM      9  C   UNL     1       7.852   3.628   0.649  1.00  0.00    -0.000 C 
BRANCH   9  10
ATOM     10  C   UNL     1       6.706   3.771  -0.363  1.00  0.00    -0.003 C 
ATOM     11  C   UNL     1       6.708   2.618  -1.363  1.00  0.00     0.004 C 
ENDBRANCH   9  10
ENDBRANCH   8   9
ENDBRANCH   1   8
TORSDOF 6
ENDMDL
MODEL 2
REMARK VINA RESULT:    -4.600      1.421      1.773
REMARK INTER + INTRA:          -6.835
REMARK INTER:                  -6.383
REMARK INTRA:                  -0.452
REMARK UNBOUND:                -0.622
REMARK SMILES CCCCCCC=CC(=O)[O-]
REMARK SMILES IDX 5 1 6 2 7 3 8 4 9 5 10 6 11 7 4 8 3 9 2 10 1 11
REMARK H PARENT
REMARK Flexibility Score: inf
ROOT
ATOM      1  C   UNL     1       6.707   1.127   2.347  1.00  0.00     0.004 C 
ENDROOT
BRANCH   1   2
ATOM      2  C   UNL     1       5.370   0.370   2.260  1.00  0.00     0.027 C 
BRANCH   2   3
ATOM      3  C   UNL     1       5.462  -0.858   1.393  1.00  0.00    -0.025 C 
ATOM      4  C   UNL     1       5.888  -2.070   1.784  1.00  0.00     0.020 C 
BRANCH   4   5
ATOM      5  C   UNL     1       6.393  -2.439   3.123  1.00  0.00     0.064 C 
ATOM      6  O   UNL     1       7.615  -2.383   3.417  1.00  0.00    -0.545 OA
ATOM      7  O   UNL     1       5.491  -2.886   4.080  1.00  0.00    -0.545 OA
ENDBRANCH   4   5
ENDBRANCH   2   3
ENDBRANCH   1   2
BRANCH   1   8
ATOM      8  C   UNL     1       7.255   1.487   0.956  1.00  0.00     0.000 C 
BRANCH   8   9
ATOM      9  C   UNL     1       7.531   2.990   0.799  1.00  0.00    -0.000 C 
BRANCH   9  10
ATOM     10  C   UNL     1       6.884   3.583  -0.461  1.00  0.00    -0.003 C 
ATOM     11  C   UNL     1       6.752   2.529  -1.558  1.00  0.00     0.004 C 
ENDBRANCH   9  10
ENDBRANCH   8   9
ENDBRANCH   1   8
TORSDOF 6
ENDMDL
MODEL 3
REMARK VINA RESULT:    -4.560      2.805      4.836
REMARK INTER + INTRA:          -6.781
REMARK INTER:                  -6.239
REMARK INTRA:                  -0.542
REMARK UNBOUND:                -0.622
REMARK SMILES CCCCCCC=CC(=O)[O-]
REMARK SMILES IDX 5 1 6 2 7 3 8 4 9 5 10 6 11 7 4 8 3 9 2 10 1 11
REMARK H PARENT
REMARK Flexibility Score: inf
ROOT
ATOM      1  C   UNL     1       7.077   1.312   2.992  1.00  0.00     0.004 C 
ENDROOT
BRANCH   1   2
ATOM      2  C   UNL     1       7.684   1.545   1.598  1.00  0.00     0.027 C 
BRANCH   2   3
ATOM      3  C   UNL     1       7.800   3.008   1.261  1.00  0.00    -0.025 C 
ATOM      4  C   UNL     1       7.205   3.631   0.230  1.00  0.00     0.020 C 
BRANCH   4   5
ATOM      5  C   UNL     1       6.352   3.008  -0.804  1.00  0.00     0.064 C 
ATOM      6  O   UNL     1       5.100   3.133  -0.803  1.00  0.00    -0.545 OA
ATOM      7  O   UNL     1       6.951   2.240  -1.793  1.00  0.00    -0.545 OA
ENDBRANCH   4   5
ENDBRANCH   2   3
ENDBRANCH   1   2
BRANCH   1   8
ATOM      8  C   UNL     1       5.939   0.278   2.958  1.00  0.00     0.000 C 
BRANCH   8   9
ATOM      9  C   UNL     1       5.525  -0.100   1.527  1.00  0.00    -0.000 C 
BRANCH   9  10
ATOM     10  C   UNL     1       5.603  -1.612   1.268  1.00  0.00    -0.003 C 
ATOM     11  C   UNL     1       6.148  -2.351   2.488  1.00  0.00     0.004 C 
ENDBRANCH   9  10
ENDBRANCH   8   9
ENDBRANCH   1   8
TORSDOF 6
ENDMDL
MODEL 4
REMARK VINA RESULT:    -4.560      1.797      2.273
REMARK INTER + INTRA:          -6.781
REMARK INTER:                  -6.178
REMARK INTRA:                  -0.604
REMARK UNBOUND:                -0.622
REMARK SMILES CCCCCCC=CC(=O)[O-]
REMARK SMILES IDX 5 1 6 2 7 3 8 4 9 5 10 6 11 7 4 8 3 9 2 10 1 11
REMARK H PARENT
REMARK Flexibility Score: inf
ROOT
ATOM      1  C   UNL     1       8.217   3.016   1.275  1.00  0.00     0.004 C 
ENDROOT
BRANCH   1   2
ATOM      2  C   UNL     1       7.579   1.944   2.174  1.00  0.00     0.027 C 
BRANCH   2   3
ATOM      3  C   UNL     1       7.321   0.657   1.436  1.00  0.00    -0.025 C 
ATOM      4  C   UNL     1       6.172  -0.039   1.439  1.00  0.00     0.020 C 
BRANCH   4   5
ATOM      5  C   UNL     1       4.944   0.288   2.194  1.00  0.00     0.064 C 
ATOM      6  O   UNL     1       4.844   0.078   3.431  1.00  0.00    -0.545 OA
ATOM      7  O   UNL     1       3.859   0.823   1.512  1.00  0.00    -0.545 OA
ENDBRANCH   4   5
ENDBRANCH   2   3
ENDBRANCH   1   2
BRANCH   1   8
ATOM      8  C   UNL     1       7.294   4.232   1.086  1.00  0.00     0.000 C 
BRANCH   8   9
ATOM      9  C   UNL     1       6.833   4.403  -0.370  1.00  0.00    -0.000 C 
BRANCH   9  10
ATOM     10  C   UNL     1       5.960   3.237  -0.856  1.00  0.00    -0.003 C 
ATOM     11  C   UNL     1       6.732   2.335  -1.815  1.00  0.00     0.004 C 
ENDBRANCH   9  10
ENDBRANCH   8   9
ENDBRANCH   1   8
TORSDOF 6
ENDMDL
MODEL 5
REMARK VINA RESULT:    -4.523      2.994      4.135
REMARK INTER + INTRA:          -6.731
REMARK INTER:                  -5.981
REMARK INTRA:                  -0.750
REMARK UNBOUND:                -0.622
REMARK SMILES CCCCCCC=CC(=O)[O-]
REMARK SMILES IDX 5 1 6 2 7 3 8 4 9 5 10 6 11 7 4 8 3 9 2 10 1 11
REMARK H PARENT
REMARK Flexibility Score: inf
ROOT
ATOM      1  C   UNL     1       7.867  -3.008   3.745  1.00  0.00     0.004 C 
ENDROOT
BRANCH   1   2
ATOM      2  C   UNL     1       6.478  -2.383   3.535  1.00  0.00     0.027 C 
BRANCH   2   3
ATOM      3  C   UNL     1       5.957  -2.600   2.139  1.00  0.00    -0.025 C 
ATOM      4  C   UNL     1       5.497  -1.648   1.310  1.00  0.00     0.020 C 
BRANCH   4   5
ATOM      5  C   UNL     1       5.367  -0.206   1.608  1.00  0.00     0.064 C 
ATOM      6  O   UNL     1       6.146   0.652   1.117  1.00  0.00    -0.545 OA
ATOM      7  O   UNL     1       4.369   0.213   2.478  1.00  0.00    -0.545 OA
ENDBRANCH   4   5
ENDBRANCH   2   3
ENDBRANCH   1   2
BRANCH   1   8
ATOM      8  C   UNL     1       8.955  -1.938   3.943  1.00  0.00     0.000 C 
BRANCH   8   9
ATOM      9  C   UNL     1       8.375  -0.568   4.326  1.00  0.00    -0.000 C 
BRANCH   9  10
ATOM     10  C   UNL     1       8.825   0.552   3.376  1.00  0.00    -0.003 C 
ATOM     11  C   UNL     1       9.605  -0.013   2.191  1.00  0.00     0.004 C 
ENDBRANCH   9  10
ENDBRANCH   8   9
ENDBRANCH   1   8
TORSDOF 6
ENDMDL
MODEL 6
REMARK VINA RESULT:    -4.483      1.298      1.748
REMARK INTER + INTRA:          -6.677
REMARK INTER:                  -6.202
REMARK INTRA:                  -0.475
REMARK UNBOUND:                -0.622
REMARK SMILES CCCCCCC=CC(=O)[O-]
REMARK SMILES IDX 5 1 6 2 7 3 8 4 9 5 10 6 11 7 4 8 3 9 2 10 1 11
REMARK H PARENT
REMARK Flexibility Score: inf
ROOT
ATOM      1  C   UNL     1       8.190   1.671   2.277  1.00  0.00     0.004 C 
ENDROOT
BRANCH   1   2
ATOM      2  C   UNL     1       8.310   0.225   1.769  1.00  0.00     0.027 C 
BRANCH   2   3
ATOM      3  C   UNL     1       7.916  -0.785   2.814  1.00  0.00    -0.025 C 
ATOM      4  C   UNL     1       6.777  -1.498   2.835  1.00  0.00     0.020 C 
BRANCH   4   5
ATOM      5  C   UNL     1       5.664  -1.410   1.867  1.00  0.00     0.064 C 
ATOM      6  O   UNL     1       4.840  -0.458   1.879  1.00  0.00    -0.545 OA
ATOM      7  O   UNL     1       5.507  -2.423   0.930  1.00  0.00    -0.545 OA
ENDBRANCH   4   5
ENDBRANCH   2   3
ENDBRANCH   1   2
BRANCH   1   8
ATOM      8  C   UNL     1       7.755   2.638   1.163  1.00  0.00     0.000 C 
BRANCH   8   9
ATOM      9  C   UNL     1       6.691   2.031   0.234  1.00  0.00    -0.000 C 
BRANCH   9  10
ATOM     10  C   UNL     1       6.081   3.066  -0.722  1.00  0.00    -0.003 C 
ATOM     11  C   UNL     1       6.653   4.457  -0.464  1.00  0.00     0.004 C 
ENDBRANCH   9  10
ENDBRANCH   8   9
ENDBRANCH   1   8
TORSDOF 6
ENDMDL
MODEL 7
REMARK VINA RESULT:    -4.358      2.462      4.352
REMARK INTER + INTRA:          -6.508
REMARK INTER:                  -5.764
REMARK INTRA:                  -0.744
REMARK UNBOUND:                -0.622
REMARK SMILES CCCCCCC=CC(=O)[O-]
REMARK SMILES IDX 5 1 6 2 7 3 8 4 9 5 10 6 11 7 4 8 3 9 2 10 1 11
REMARK H PARENT
REMARK Flexibility Score: inf
ROOT
ATOM      1  C   UNL     1       9.036   1.028   2.964  1.00  0.00     0.004 C 
ENDROOT
BRANCH   1   2
ATOM      2  C   UNL     1       7.852   1.381   2.049  1.00  0.00     0.027 C 
BRANCH   2   3
ATOM      3  C   UNL     1       7.344   0.188   1.284  1.00  0.00    -0.025 C 
ATOM      4  C   UNL     1       6.102  -0.321   1.348  1.00  0.00     0.020 C 
BRANCH   4   5
ATOM      5  C   UNL     1       4.998   0.152   2.208  1.00  0.00     0.064 C 
ATOM      6  O   UNL     1       5.002  -0.015   3.455  1.00  0.00    -0.545 OA
ATOM      7  O   UNL     1       3.909   0.779   1.617  1.00  0.00    -0.545 OA
ENDBRANCH   4   5
ENDBRANCH   2   3
ENDBRANCH   1   2
BRANCH   1   8
ATOM      8  C   UNL     1       9.744  -0.262   2.516  1.00  0.00     0.000 C 
BRANCH   8   9
ATOM      9  C   UNL     1       9.950  -1.255   3.671  1.00  0.00    -0.000 C 
BRANCH   9  10
ATOM     10  C   UNL     1       8.637  -1.624   4.376  1.00  0.00    -0.003 C 
ATOM     11  C   UNL     1       7.981  -2.836   3.719  1.00  0.00     0.004 C 
ENDBRANCH   9  10
ENDBRANCH   8   9
ENDBRANCH   1   8
TORSDOF 6
ENDMDL
MODEL 8
REMARK VINA RESULT:    -4.216      3.733      5.552
REMARK INTER + INTRA:          -6.316
REMARK INTER:                  -6.020
REMARK INTRA:                  -0.296
REMARK UNBOUND:                -0.622
REMARK SMILES CCCCCCC=CC(=O)[O-]
REMARK SMILES IDX 5 1 6 2 7 3 8 4 9 5 10 6 11 7 4 8 3 9 2 10 1 11
REMARK H PARENT
REMARK Flexibility Score: inf
ROOT
ATOM      1  C   UNL     1       7.354  -0.238   1.758  1.00  0.00     0.004 C 
ENDROOT
BRANCH   1   2
ATOM      2  C   UNL     1       6.552   1.074   1.787  1.00  0.00     0.027 C 
BRANCH   2   3
ATOM      3  C   UNL     1       6.279   1.609   0.405  1.00  0.00    -0.025 C 
ATOM      4  C   UNL     1       6.761   2.752  -0.109  1.00  0.00     0.020 C 
BRANCH   4   5
ATOM      5  C   UNL     1       7.617   3.739   0.582  1.00  0.00     0.064 C 
ATOM      6  O   UNL     1       8.704   3.415   1.127  1.00  0.00    -0.545 OA
ATOM      7  O   UNL     1       7.197   5.060   0.653  1.00  0.00    -0.545 OA
ENDBRANCH   4   5
ENDBRANCH   2   3
ENDBRANCH   1   2
BRANCH   1   8
ATOM      8  C   UNL     1       8.823  -0.023   2.159  1.00  0.00     0.000 C 
BRANCH   8   9
ATOM      9  C   UNL     1       9.208  -0.793   3.432  1.00  0.00    -0.000 C 
BRANCH   9  10
ATOM     10  C   UNL     1       8.222  -1.923   3.761  1.00  0.00    -0.003 C 
ATOM     11  C   UNL     1       8.960  -3.214   4.105  1.00  0.00     0.004 C 
ENDBRANCH   9  10
ENDBRANCH   8   9
ENDBRANCH   1   8
TORSDOF 6
ENDMDL
MODEL 9
REMARK VINA RESULT:    -4.193      3.296      5.170
REMARK INTER + INTRA:          -6.286
REMARK INTER:                  -5.704
REMARK INTRA:                  -0.582
REMARK UNBOUND:                -0.622
REMARK SMILES CCCCCCC=CC(=O)[O-]
REMARK SMILES IDX 5 1 6 2 7 3 8 4 9 5 10 6 11 7 4 8 3 9 2 10 1 11
REMARK H PARENT
REMARK Flexibility Score: inf
ROOT
ATOM      1  C   UNL     1       9.015   0.475   2.546  1.00  0.00     0.004 C 
ENDROOT
BRANCH   1   2
ATOM      2  C   UNL     1       8.223   0.143   1.270  1.00  0.00     0.027 C 
BRANCH   2   3
ATOM      3  C   UNL     1       6.764   0.495   1.392  1.00  0.00    -0.025 C 
ATOM      4  C   UNL     1       6.136   1.496   0.753  1.00  0.00     0.020 C 
BRANCH   4   5
ATOM      5  C   UNL     1       6.750   2.479  -0.164  1.00  0.00     0.064 C 
ATOM      6  O   UNL     1       7.262   3.552   0.250  1.00  0.00    -0.545 OA
ATOM      7  O   UNL     1       6.741   2.222  -1.528  1.00  0.00    -0.545 OA
ENDBRANCH   4   5
ENDBRANCH   2   3
ENDBRANCH   1   2
BRANCH   1   8
ATOM      8  C   UNL     1       9.788  -0.745   3.076  1.00  0.00     0.000 C 
BRANCH   8   9
ATOM      9  C   UNL     1       9.050  -1.464   4.216  1.00  0.00    -0.000 C 
BRANCH   9  10
ATOM     10  C   UNL     1       8.423  -2.793   3.769  1.00  0.00    -0.003 C 
ATOM     11  C   UNL     1       6.934  -2.627   3.474  1.00  0.00     0.004 C 
ENDBRANCH   9  10
ENDBRANCH   8   9
ENDBRANCH   1   8
TORSDOF 6
ENDMDL
