MODEL 1
REMARK VINA RESULT:    -6.740      0.000      0.000
REMARK INTER + INTRA:          -8.431
REMARK INTER:                  -8.119
REMARK INTRA:                  -0.312
REMARK UNBOUND:                -0.312
REMARK SMILES O=c1c(O)c(-c2ccc(O)c(O)c2)oc2cc(O)cc(O)c12
REMARK SMILES IDX 5 1 3 2 2 3 1 4 22 5 20 6 19 7 17 8 16 9 15 10 14 11 6 12
REMARK SMILES IDX 7 13 8 14 9 15 13 16 11 17 10 18 12 20 4 22 21 24 18 26
REMARK H PARENT 10 19 12 21 4 23 21 25 18 27
REMARK Flexibility Score: inf
ROOT
ATOM      1  C   UNL     1      -0.732  24.998  28.994  1.00  0.00     0.180 A 
ATOM      2  C   UNL     1      -0.150  23.805  28.522  1.00  0.00     0.208 A 
ATOM      3  C   UNL     1       1.207  23.808  28.163  1.00  0.00     0.238 A 
ATOM      4  O   UNL     1       1.737  22.748  27.729  1.00  0.00    -0.285 OA
ATOM      5  C   UNL     1       1.962  24.992  28.298  1.00  0.00     0.111 A 
ATOM      6  C   UNL     1       3.335  25.077  27.962  1.00  0.00     0.134 A 
ATOM      7  C   UNL     1       4.018  26.290  28.135  1.00  0.00     0.093 A 
ATOM      8  C   UNL     1       3.357  27.416  28.638  1.00  0.00     0.123 A 
ATOM      9  C   UNL     1       2.003  27.336  28.970  1.00  0.00     0.094 A 
ATOM     10  C   UNL     1       1.304  26.137  28.803  1.00  0.00     0.146 A 
ATOM     11  O   UNL     1       0.015  26.091  29.123  1.00  0.00    -0.452 OA
ENDROOT
BRANCH   1  12
ATOM     12  C   UNL     1      -2.160  25.079  29.375  1.00  0.00     0.025 A 
ATOM     13  C   UNL     1      -2.602  24.677  30.648  1.00  0.00     0.016 A 
ATOM     14  C   UNL     1      -3.959  24.740  30.977  1.00  0.00     0.051 A 
ATOM     15  C   UNL     1      -4.893  25.192  30.036  1.00  0.00     0.157 A 
ATOM     16  C   UNL     1      -3.104  25.511  28.429  1.00  0.00     0.062 A 
ATOM     17  C   UNL     1      -4.465  25.575  28.758  1.00  0.00     0.158 A 
BRANCH  15  18
ATOM     18  O   UNL     1      -6.247  25.257  30.361  1.00  0.00    -0.504 OA
ATOM     19  H   UNL     1      -6.936  24.695  29.877  1.00  0.00     0.293 HD
ENDBRANCH  15  18
BRANCH  17  20
ATOM     20  O   UNL     1      -5.398  26.017  27.822  1.00  0.00    -0.504 OA
ATOM     21  H   UNL     1      -5.300  25.807  26.836  1.00  0.00     0.293 HD
ENDBRANCH  17  20
ENDBRANCH   1  12
BRANCH   2  22
ATOM     22  O   UNL     1      -0.906  22.633  28.443  1.00  0.00    -0.502 OA
ATOM     23  H   UNL     1      -0.521  21.722  28.663  1.00  0.00     0.293 HD
ENDBRANCH   2  22
BRANCH   6  24
ATOM     24  O   UNL     1       4.022  23.971  27.461  1.00  0.00    -0.507 OA
ATOM     25  H   UNL     1       4.371  23.240  28.069  1.00  0.00     0.293 HD
ENDBRANCH   6  24
BRANCH   8  26
ATOM     26  O   UNL     1       4.035  28.621  28.810  1.00  0.00    -0.508 OA
ATOM     27  H   UNL     1       4.874  28.835  28.285  1.00  0.00     0.293 HD
ENDBRANCH   8  26
TORSDOF 6
ENDMDL
MODEL 2
REMARK VINA RESULT:    -6.339      2.623      6.979
REMARK INTER + INTRA:          -7.948
REMARK INTER:                  -7.626
REMARK INTRA:                  -0.322
REMARK UNBOUND:                -0.312
REMARK SMILES O=c1c(O)c(-c2ccc(O)c(O)c2)oc2cc(O)cc(O)c12
REMARK SMILES IDX 5 1 3 2 2 3 1 4 22 5 20 6 19 7 17 8 16 9 15 10 14 11 6 12
REMARK SMILES IDX 7 13 8 14 9 15 13 16 11 17 10 18 12 20 4 22 21 24 18 26
REMARK H PARENT 10 19 12 21 4 23 21 25 18 27
REMARK Flexibility Score: inf
ROOT
ATOM      1  C   UNL     1       2.214  26.747  28.764  1.00  0.00     0.180 A 
ATOM      2  C   UNL     1       2.273  26.627  27.362  1.00  0.00     0.208 A 
ATOM      3  C   UNL     1       1.376  25.762  26.716  1.00  0.00     0.238 A 
ATOM      4  O   UNL     1       1.427  25.638  25.462  1.00  0.00    -0.285 OA
ATOM      5  C   UNL     1       0.427  25.048  27.476  1.00  0.00     0.111 A 
ATOM      6  C   UNL     1      -0.515  24.160  26.902  1.00  0.00     0.134 A 
ATOM      7  C   UNL     1      -1.435  23.494  27.726  1.00  0.00     0.093 A 
ATOM      8  C   UNL     1      -1.432  23.701  29.111  1.00  0.00     0.123 A 
ATOM      9  C   UNL     1      -0.506  24.576  29.681  1.00  0.00     0.094 A 
ATOM     10  C   UNL     1       0.421  25.247  28.877  1.00  0.00     0.146 A 
ATOM     11  O   UNL     1       1.294  26.070  29.447  1.00  0.00    -0.452 OA
ENDROOT
BRANCH   1  12
ATOM     12  C   UNL     1       3.137  27.624  29.518  1.00  0.00     0.025 A 
ATOM     13  C   UNL     1       2.805  28.960  29.808  1.00  0.00     0.016 A 
ATOM     14  C   UNL     1       3.703  29.776  30.500  1.00  0.00     0.051 A 
ATOM     15  C   UNL     1       4.949  29.276  30.900  1.00  0.00     0.157 A 
ATOM     16  C   UNL     1       4.396  27.134  29.903  1.00  0.00     0.062 A 
ATOM     17  C   UNL     1       5.297  27.953  30.599  1.00  0.00     0.158 A 
BRANCH  15  18
ATOM     18  O   UNL     1       5.846  30.087  31.593  1.00  0.00    -0.504 OA
ATOM     19  H   UNL     1       6.379  29.737  32.380  1.00  0.00     0.293 HD
ENDBRANCH  15  18
BRANCH  17  20
ATOM     20  O   UNL     1       6.539  27.460  30.992  1.00  0.00    -0.504 OA
ATOM     21  H   UNL     1       7.115  27.949  31.668  1.00  0.00     0.293 HD
ENDBRANCH  17  20
ENDBRANCH   1  12
BRANCH   2  22
ATOM     22  O   UNL     1       3.191  27.381  26.627  1.00  0.00    -0.502 OA
ATOM     23  H   UNL     1       3.027  27.648  25.663  1.00  0.00     0.293 HD
ENDBRANCH   2  22
BRANCH   6  24
ATOM     24  O   UNL     1      -0.544  23.934  25.525  1.00  0.00    -0.507 OA
ATOM     25  H   UNL     1      -0.687  23.008  25.140  1.00  0.00     0.293 HD
ENDBRANCH   6  24
BRANCH   8  26
ATOM     26  O   UNL     1      -2.346  23.041  29.929  1.00  0.00    -0.508 OA
ATOM     27  H   UNL     1      -2.190  22.088  30.235  1.00  0.00     0.293 HD
ENDBRANCH   8  26
TORSDOF 6
ENDMDL
MODEL 3
REMARK VINA RESULT:    -6.185      2.807      6.155
REMARK INTER + INTRA:          -7.763
REMARK INTER:                  -7.432
REMARK INTRA:                  -0.331
REMARK UNBOUND:                -0.312
REMARK SMILES O=c1c(O)c(-c2ccc(O)c(O)c2)oc2cc(O)cc(O)c12
REMARK SMILES IDX 5 1 3 2 2 3 1 4 22 5 20 6 19 7 17 8 16 9 15 10 14 11 6 12
REMARK SMILES IDX 7 13 8 14 9 15 13 16 11 17 10 18 12 20 4 22 21 24 18 26
REMARK H PARENT 10 19 12 21 4 23 21 25 18 27
REMARK Flexibility Score: inf
ROOT
ATOM      1  C   UNL     1      -0.633  25.371  27.673  1.00  0.00     0.180 A 
ATOM      2  C   UNL     1      -1.129  24.130  27.228  1.00  0.00     0.208 A 
ATOM      3  C   UNL     1      -1.897  23.351  28.107  1.00  0.00     0.238 A 
ATOM      4  O   UNL     1      -2.337  22.233  27.723  1.00  0.00    -0.285 OA
ATOM      5  C   UNL     1      -2.173  23.831  29.404  1.00  0.00     0.111 A 
ATOM      6  C   UNL     1      -2.943  23.110  30.349  1.00  0.00     0.134 A 
ATOM      7  C   UNL     1      -3.181  23.661  31.617  1.00  0.00     0.093 A 
ATOM      8  C   UNL     1      -2.668  24.917  31.956  1.00  0.00     0.123 A 
ATOM      9  C   UNL     1      -1.908  25.631  31.029  1.00  0.00     0.094 A 
ATOM     10  C   UNL     1      -1.657  25.098  29.760  1.00  0.00     0.146 A 
ATOM     11  O   UNL     1      -0.927  25.798  28.899  1.00  0.00    -0.452 OA
ENDROOT
BRANCH   1  12
ATOM     12  C   UNL     1       0.199  26.241  26.812  1.00  0.00     0.025 A 
ATOM     13  C   UNL     1       1.603  26.151  26.820  1.00  0.00     0.016 A 
ATOM     14  C   UNL     1       2.369  27.000  26.017  1.00  0.00     0.051 A 
ATOM     15  C   UNL     1       1.746  27.957  25.206  1.00  0.00     0.157 A 
ATOM     16  C   UNL     1      -0.418  27.217  26.013  1.00  0.00     0.062 A 
ATOM     17  C   UNL     1       0.350  28.068  25.206  1.00  0.00     0.158 A 
BRANCH  15  18
ATOM     18  O   UNL     1       2.508  28.804  24.402  1.00  0.00    -0.504 OA
ATOM     19  H   UNL     1       2.823  29.708  24.733  1.00  0.00     0.293 HD
ENDBRANCH  15  18
BRANCH  17  20
ATOM     20  O   UNL     1      -0.266  29.026  24.404  1.00  0.00    -0.504 OA
ATOM     21  H   UNL     1      -1.268  29.027  24.254  1.00  0.00     0.293 HD
ENDBRANCH  17  20
ENDBRANCH   1  12
BRANCH   2  22
ATOM     22  O   UNL     1      -0.882  23.699  25.922  1.00  0.00    -0.502 OA
ATOM     23  H   UNL     1      -1.604  23.294  25.338  1.00  0.00     0.293 HD
ENDBRANCH   2  22
BRANCH   6  24
ATOM     24  O   UNL     1      -3.470  21.855  30.039  1.00  0.00    -0.507 OA
ATOM     25  H   UNL     1      -4.301  21.753  29.466  1.00  0.00     0.293 HD
ENDBRANCH   6  24
BRANCH   8  26
ATOM     26  O   UNL     1      -2.904  25.465  33.215  1.00  0.00    -0.508 OA
ATOM     27  H   UNL     1      -3.230  24.896  33.987  1.00  0.00     0.293 HD
ENDBRANCH   8  26
TORSDOF 6
ENDMDL
MODEL 4
REMARK VINA RESULT:    -6.181      2.545      3.486
REMARK INTER + INTRA:          -7.758
REMARK INTER:                  -7.441
REMARK INTRA:                  -0.318
REMARK UNBOUND:                -0.312
REMARK SMILES O=c1c(O)c(-c2ccc(O)c(O)c2)oc2cc(O)cc(O)c12
REMARK SMILES IDX 5 1 3 2 2 3 1 4 22 5 20 6 19 7 17 8 16 9 15 10 14 11 6 12
REMARK SMILES IDX 7 13 8 14 9 15 13 16 11 17 10 18 12 20 4 22 21 24 18 26
REMARK H PARENT 10 19 12 21 4 23 21 25 18 27
REMARK Flexibility Score: inf
ROOT
ATOM      1  C   UNL     1      -1.494  25.740  28.544  1.00  0.00     0.180 A 
ATOM      2  C   UNL     1      -2.195  26.305  27.460  1.00  0.00     0.208 A 
ATOM      3  C   UNL     1      -1.472  26.973  26.459  1.00  0.00     0.238 A 
ATOM      4  O   UNL     1      -2.089  27.493  25.490  1.00  0.00    -0.285 OA
ATOM      5  C   UNL     1      -0.066  27.049  26.548  1.00  0.00     0.111 A 
ATOM      6  C   UNL     1       0.736  27.701  25.579  1.00  0.00     0.134 A 
ATOM      7  C   UNL     1       2.130  27.724  25.734  1.00  0.00     0.093 A 
ATOM      8  C   UNL     1       2.736  27.108  26.834  1.00  0.00     0.123 A 
ATOM      9  C   UNL     1       1.949  26.465  27.791  1.00  0.00     0.094 A 
ATOM     10  C   UNL     1       0.558  26.433  27.657  1.00  0.00     0.146 A 
ATOM     11  O   UNL     1      -0.166  25.818  28.585  1.00  0.00    -0.452 OA
ENDROOT
BRANCH   1  12
ATOM     12  C   UNL     1      -2.186  25.036  29.646  1.00  0.00     0.025 A 
ATOM     13  C   UNL     1      -2.502  25.692  30.850  1.00  0.00     0.016 A 
ATOM     14  C   UNL     1      -3.134  24.999  31.886  1.00  0.00     0.051 A 
ATOM     15  C   UNL     1      -3.446  23.641  31.741  1.00  0.00     0.157 A 
ATOM     16  C   UNL     1      -2.482  23.669  29.515  1.00  0.00     0.062 A 
ATOM     17  C   UNL     1      -3.117  22.974  30.555  1.00  0.00     0.158 A 
BRANCH  15  18
ATOM     18  O   UNL     1      -4.078  22.949  32.773  1.00  0.00    -0.504 OA
ATOM     19  H   UNL     1      -4.610  22.105  32.596  1.00  0.00     0.293 HD
ENDBRANCH  15  18
BRANCH  17  20
ATOM     20  O   UNL     1      -3.422  21.622  30.416  1.00  0.00    -0.504 OA
ATOM     21  H   UNL     1      -3.274  21.131  29.542  1.00  0.00     0.293 HD
ENDBRANCH  17  20
ENDBRANCH   1  12
BRANCH   2  22
ATOM     22  O   UNL     1      -3.582  26.174  27.371  1.00  0.00    -0.502 OA
ATOM     23  H   UNL     1      -4.209  26.550  28.073  1.00  0.00     0.293 HD
ENDBRANCH   2  22
BRANCH   6  24
ATOM     24  O   UNL     1       0.161  28.322  24.470  1.00  0.00    -0.507 OA
ATOM     25  H   UNL     1      -0.674  28.891  24.551  1.00  0.00     0.293 HD
ENDBRANCH   6  24
BRANCH   8  26
ATOM     26  O   UNL     1       4.121  27.131  26.988  1.00  0.00    -0.508 OA
ATOM     27  H   UNL     1       4.577  27.821  27.572  1.00  0.00     0.293 HD
ENDBRANCH   8  26
TORSDOF 6
ENDMDL
MODEL 5
REMARK VINA RESULT:    -6.059      3.792      7.625
REMARK INTER + INTRA:          -7.611
REMARK INTER:                  -7.635
REMARK INTRA:                   0.024
REMARK UNBOUND:                -0.312
REMARK SMILES O=c1c(O)c(-c2ccc(O)c(O)c2)oc2cc(O)cc(O)c12
REMARK SMILES IDX 5 1 3 2 2 3 1 4 22 5 20 6 19 7 17 8 16 9 15 10 14 11 6 12
REMARK SMILES IDX 7 13 8 14 9 15 13 16 11 17 10 18 12 20 4 22 21 24 18 26
REMARK H PARENT 10 19 12 21 4 23 21 25 18 27
REMARK Flexibility Score: inf
ROOT
ATOM      1  C   UNL     1       3.307  27.573  29.207  1.00  0.00     0.180 A 
ATOM      2  C   UNL     1       2.662  28.394  28.261  1.00  0.00     0.208 A 
ATOM      3  C   UNL     1       1.792  27.804  27.332  1.00  0.00     0.238 A 
ATOM      4  O   UNL     1       1.217  28.528  26.473  1.00  0.00    -0.285 OA
ATOM      5  C   UNL     1       1.566  26.412  27.374  1.00  0.00     0.111 A 
ATOM      6  C   UNL     1       0.701  25.740  26.476  1.00  0.00     0.134 A 
ATOM      7  C   UNL     1       0.522  24.354  26.589  1.00  0.00     0.093 A 
ATOM      8  C   UNL     1       1.189  23.628  27.583  1.00  0.00     0.123 A 
ATOM      9  C   UNL     1       2.042  24.285  28.470  1.00  0.00     0.094 A 
ATOM     10  C   UNL     1       2.236  25.667  28.371  1.00  0.00     0.146 A 
ATOM     11  O   UNL     1       3.058  26.266  29.226  1.00  0.00    -0.452 OA
ENDROOT
BRANCH   1  12
ATOM     12  C   UNL     1       4.252  28.117  30.207  1.00  0.00     0.025 A 
ATOM     13  C   UNL     1       3.924  29.239  30.990  1.00  0.00     0.016 A 
ATOM     14  C   UNL     1       4.842  29.751  31.911  1.00  0.00     0.051 A 
ATOM     15  C   UNL     1       6.104  29.159  32.053  1.00  0.00     0.157 A 
ATOM     16  C   UNL     1       5.527  27.542  30.339  1.00  0.00     0.062 A 
ATOM     17  C   UNL     1       6.448  28.054  31.263  1.00  0.00     0.158 A 
BRANCH  15  18
ATOM     18  O   UNL     1       7.021  29.666  32.972  1.00  0.00    -0.504 OA
ATOM     19  H   UNL     1       6.842  30.522  33.482  1.00  0.00     0.293 HD
ENDBRANCH  15  18
BRANCH  17  20
ATOM     20  O   UNL     1       7.706  27.473  31.402  1.00  0.00    -0.504 OA
ATOM     21  H   UNL     1       7.896  26.782  32.118  1.00  0.00     0.293 HD
ENDBRANCH  17  20
ENDBRANCH   1  12
BRANCH   2  22
ATOM     22  O   UNL     1       2.865  29.776  28.271  1.00  0.00    -0.502 OA
ATOM     23  H   UNL     1       2.706  30.342  29.097  1.00  0.00     0.293 HD
ENDBRANCH   2  22
BRANCH   6  24
ATOM     24  O   UNL     1       0.021  26.438  25.476  1.00  0.00    -0.507 OA
ATOM     25  H   UNL     1       0.476  26.710  24.612  1.00  0.00     0.293 HD
ENDBRANCH   6  24
BRANCH   8  26
ATOM     26  O   UNL     1       1.011  22.250  27.696  1.00  0.00    -0.508 OA
ATOM     27  H   UNL     1       0.543  21.841  28.496  1.00  0.00     0.293 HD
ENDBRANCH   8  26
TORSDOF 6
ENDMDL
MODEL 6
REMARK VINA RESULT:    -6.017      2.179      3.430
REMARK INTER + INTRA:          -7.561
REMARK INTER:                  -7.301
REMARK INTRA:                  -0.260
REMARK UNBOUND:                -0.312
REMARK SMILES O=c1c(O)c(-c2ccc(O)c(O)c2)oc2cc(O)cc(O)c12
REMARK SMILES IDX 5 1 3 2 2 3 1 4 22 5 20 6 19 7 17 8 16 9 15 10 14 11 6 12
REMARK SMILES IDX 7 13 8 14 9 15 13 16 11 17 10 18 12 20 4 22 21 24 18 26
REMARK H PARENT 10 19 12 21 4 23 21 25 18 27
REMARK Flexibility Score: inf
ROOT
ATOM      1  C   UNL     1      -1.638  24.710  29.449  1.00  0.00     0.180 A 
ATOM      2  C   UNL     1      -2.143  25.503  28.400  1.00  0.00     0.208 A 
ATOM      3  C   UNL     1      -1.279  25.881  27.360  1.00  0.00     0.238 A 
ATOM      4  O   UNL     1      -1.717  26.600  26.420  1.00  0.00    -0.285 OA
ATOM      5  C   UNL     1       0.063  25.448  27.376  1.00  0.00     0.111 A 
ATOM      6  C   UNL     1       0.996  25.782  26.364  1.00  0.00     0.134 A 
ATOM      7  C   UNL     1       2.312  25.303  26.447  1.00  0.00     0.093 A 
ATOM      8  C   UNL     1       2.711  24.497  27.519  1.00  0.00     0.123 A 
ATOM      9  C   UNL     1       1.795  24.165  28.518  1.00  0.00     0.094 A 
ATOM     10  C   UNL     1       0.479  24.635  28.455  1.00  0.00     0.146 A 
ATOM     11  O   UNL     1      -0.371  24.307  29.422  1.00  0.00    -0.452 OA
ENDROOT
BRANCH   1  12
ATOM     12  C   UNL     1      -2.481  24.285  30.590  1.00  0.00     0.025 A 
ATOM     13  C   UNL     1      -2.990  22.977  30.677  1.00  0.00     0.016 A 
ATOM     14  C   UNL     1      -3.804  22.606  31.750  1.00  0.00     0.051 A 
ATOM     15  C   UNL     1      -4.132  23.539  32.743  1.00  0.00     0.157 A 
ATOM     16  C   UNL     1      -2.831  25.221  31.576  1.00  0.00     0.062 A 
ATOM     17  C   UNL     1      -3.647  24.850  32.654  1.00  0.00     0.158 A 
BRANCH  15  18
ATOM     18  O   UNL     1      -4.942  23.171  33.816  1.00  0.00    -0.504 OA
ATOM     19  H   UNL     1      -5.784  23.686  34.045  1.00  0.00     0.293 HD
ENDBRANCH  15  18
BRANCH  17  20
ATOM     20  O   UNL     1      -3.981  25.777  33.639  1.00  0.00    -0.504 OA
ATOM     21  H   UNL     1      -3.540  26.688  33.681  1.00  0.00     0.293 HD
ENDBRANCH  17  20
ENDBRANCH   1  12
BRANCH   2  22
ATOM     22  O   UNL     1      -3.488  25.878  28.383  1.00  0.00    -0.502 OA
ATOM     23  H   UNL     1      -4.085  25.722  27.579  1.00  0.00     0.293 HD
ENDBRANCH   2  22
BRANCH   6  24
ATOM     24  O   UNL     1       0.627  26.583  25.282  1.00  0.00    -0.507 OA
ATOM     25  H   UNL     1       0.709  27.592  25.315  1.00  0.00     0.293 HD
ENDBRANCH   6  24
BRANCH   8  26
ATOM     26  O   UNL     1       4.018  24.020  27.602  1.00  0.00    -0.508 OA
ATOM     27  H   UNL     1       4.269  23.101  27.258  1.00  0.00     0.293 HD
ENDBRANCH   8  26
TORSDOF 6
ENDMDL
MODEL 7
REMARK VINA RESULT:    -5.997      3.490      4.580
REMARK INTER + INTRA:          -7.536
REMARK INTER:                  -7.205
REMARK INTRA:                  -0.331
REMARK UNBOUND:                -0.312
REMARK SMILES O=c1c(O)c(-c2ccc(O)c(O)c2)oc2cc(O)cc(O)c12
REMARK SMILES IDX 5 1 3 2 2 3 1 4 22 5 20 6 19 7 17 8 16 9 15 10 14 11 6 12
REMARK SMILES IDX 7 13 8 14 9 15 13 16 11 17 10 18 12 20 4 22 21 24 18 26
REMARK H PARENT 10 19 12 21 4 23 21 25 18 27
REMARK Flexibility Score: inf
ROOT
ATOM      1  C   UNL     1      -0.889  25.971  27.422  1.00  0.00     0.180 A 
ATOM      2  C   UNL     1       0.481  26.266  27.564  1.00  0.00     0.208 A 
ATOM      3  C   UNL     1       1.035  27.303  26.798  1.00  0.00     0.238 A 
ATOM      4  O   UNL     1       2.263  27.569  26.908  1.00  0.00    -0.285 OA
ATOM      5  C   UNL     1       0.210  28.038  25.920  1.00  0.00     0.111 A 
ATOM      6  C   UNL     1       0.689  29.101  25.116  1.00  0.00     0.134 A 
ATOM      7  C   UNL     1      -0.197  29.790  24.276  1.00  0.00     0.093 A 
ATOM      8  C   UNL     1      -1.551  29.439  24.225  1.00  0.00     0.123 A 
ATOM      9  C   UNL     1      -2.027  28.392  25.015  1.00  0.00     0.094 A 
ATOM     10  C   UNL     1      -1.159  27.691  25.858  1.00  0.00     0.146 A 
ATOM     11  O   UNL     1      -1.639  26.695  26.596  1.00  0.00    -0.452 OA
ENDROOT
BRANCH   1  12
ATOM     12  C   UNL     1      -1.542  24.880  28.181  1.00  0.00     0.025 A 
ATOM     13  C   UNL     1      -1.632  23.577  27.659  1.00  0.00     0.016 A 
ATOM     14  C   UNL     1      -2.275  22.570  28.384  1.00  0.00     0.051 A 
ATOM     15  C   UNL     1      -2.847  22.852  29.631  1.00  0.00     0.157 A 
ATOM     16  C   UNL     1      -2.136  25.162  29.422  1.00  0.00     0.062 A 
ATOM     17  C   UNL     1      -2.780  24.151  30.150  1.00  0.00     0.158 A 
BRANCH  15  18
ATOM     18  O   UNL     1      -3.487  21.849  30.357  1.00  0.00    -0.504 OA
ATOM     19  H   UNL     1      -3.786  21.995  31.313  1.00  0.00     0.293 HD
ENDBRANCH  15  18
BRANCH  17  20
ATOM     20  O   UNL     1      -3.356  24.430  31.387  1.00  0.00    -0.504 OA
ATOM     21  H   UNL     1      -4.357  24.550  31.491  1.00  0.00     0.293 HD
ENDBRANCH  17  20
ENDBRANCH   1  12
BRANCH   2  22
ATOM     22  O   UNL     1       1.266  25.555  28.475  1.00  0.00    -0.502 OA
ATOM     23  H   UNL     1       1.003  24.639  28.819  1.00  0.00     0.293 HD
ENDBRANCH   2  22
BRANCH   6  24
ATOM     24  O   UNL     1       2.033  29.476  25.147  1.00  0.00    -0.507 OA
ATOM     25  H   UNL     1       2.618  29.298  25.955  1.00  0.00     0.293 HD
ENDBRANCH   6  24
BRANCH   8  26
ATOM     26  O   UNL     1      -2.432  30.124  23.391  1.00  0.00    -0.508 OA
ATOM     27  H   UNL     1      -3.053  30.839  23.750  1.00  0.00     0.293 HD
ENDBRANCH   8  26
TORSDOF 6
ENDMDL
MODEL 8
REMARK VINA RESULT:    -5.762      2.627      6.957
REMARK INTER + INTRA:          -7.254
REMARK INTER:                  -6.941
REMARK INTRA:                  -0.313
REMARK UNBOUND:                -0.312
REMARK SMILES O=c1c(O)c(-c2ccc(O)c(O)c2)oc2cc(O)cc(O)c12
REMARK SMILES IDX 5 1 3 2 2 3 1 4 22 5 20 6 19 7 17 8 16 9 15 10 14 11 6 12
REMARK SMILES IDX 7 13 8 14 9 15 13 16 11 17 10 18 12 20 4 22 21 24 18 26
REMARK H PARENT 10 19 12 21 4 23 21 25 18 27
REMARK Flexibility Score: inf
ROOT
ATOM      1  C   UNL     1      -2.091  25.140  29.196  1.00  0.00     0.180 A 
ATOM      2  C   UNL     1      -1.580  24.396  30.277  1.00  0.00     0.208 A 
ATOM      3  C   UNL     1      -2.436  24.070  31.341  1.00  0.00     0.238 A 
ATOM      4  O   UNL     1      -1.986  23.413  32.320  1.00  0.00    -0.285 OA
ATOM      5  C   UNL     1      -3.786  24.475  31.300  1.00  0.00     0.111 A 
ATOM      6  C   UNL     1      -4.714  24.184  32.329  1.00  0.00     0.134 A 
ATOM      7  C   UNL     1      -6.043  24.614  32.208  1.00  0.00     0.093 A 
ATOM      8  C   UNL     1      -6.463  25.326  31.079  1.00  0.00     0.123 A 
ATOM      9  C   UNL     1      -5.551  25.616  30.062  1.00  0.00     0.094 A 
ATOM     10  C   UNL     1      -4.221  25.198  30.165  1.00  0.00     0.146 A 
ATOM     11  O   UNL     1      -3.374  25.492  29.184  1.00  0.00    -0.452 OA
ENDROOT
BRANCH   1  12
ATOM     12  C   UNL     1      -1.248  25.538  28.047  1.00  0.00     0.025 A 
ATOM     13  C   UNL     1      -1.006  24.657  26.977  1.00  0.00     0.016 A 
ATOM     14  C   UNL     1      -0.186  25.046  25.914  1.00  0.00     0.051 A 
ATOM     15  C   UNL     1       0.413  26.312  25.911  1.00  0.00     0.157 A 
ATOM     16  C   UNL     1      -0.627  26.798  28.048  1.00  0.00     0.062 A 
ATOM     17  C   UNL     1       0.194  27.189  26.981  1.00  0.00     0.158 A 
BRANCH  15  18
ATOM     18  O   UNL     1       1.230  26.704  24.851  1.00  0.00    -0.504 OA
ATOM     19  H   UNL     1       2.217  26.888  24.983  1.00  0.00     0.293 HD
ENDBRANCH  15  18
BRANCH  17  20
ATOM     20  O   UNL     1       0.797  28.445  26.978  1.00  0.00    -0.504 OA
ATOM     21  H   UNL     1       1.601  28.646  26.395  1.00  0.00     0.293 HD
ENDBRANCH  17  20
ENDBRANCH   1  12
BRANCH   2  22
ATOM     22  O   UNL     1      -0.251  23.965  30.272  1.00  0.00    -0.502 OA
ATOM     23  H   UNL     1       0.003  22.987  30.349  1.00  0.00     0.293 HD
ENDBRANCH   2  22
BRANCH   6  24
ATOM     24  O   UNL     1      -4.326  23.473  33.466  1.00  0.00    -0.507 OA
ATOM     25  H   UNL     1      -4.918  22.759  33.875  1.00  0.00     0.293 HD
ENDBRANCH   6  24
BRANCH   8  26
ATOM     26  O   UNL     1      -7.783  25.753  30.958  1.00  0.00    -0.508 OA
ATOM     27  H   UNL     1      -8.421  25.321  30.300  1.00  0.00     0.293 HD
ENDBRANCH   8  26
TORSDOF 6
ENDMDL
MODEL 9
REMARK VINA RESULT:    -5.627      1.751      6.912
REMARK INTER + INTRA:          -7.091
REMARK INTER:                  -6.759
REMARK INTRA:                  -0.332
REMARK UNBOUND:                -0.312
REMARK SMILES O=c1c(O)c(-c2ccc(O)c(O)c2)oc2cc(O)cc(O)c12
REMARK SMILES IDX 5 1 3 2 2 3 1 4 22 5 20 6 19 7 17 8 16 9 15 10 14 11 6 12
REMARK SMILES IDX 7 13 8 14 9 15 13 16 11 17 10 18 12 20 4 22 21 24 18 26
REMARK H PARENT 10 19 12 21 4 23 21 25 18 27
REMARK Flexibility Score: inf
ROOT
ATOM      1  C   UNL     1      -0.820  25.865  28.744  1.00  0.00     0.180 A 
ATOM      2  C   UNL     1      -1.950  25.950  27.908  1.00  0.00     0.208 A 
ATOM      3  C   UNL     1      -3.209  25.619  28.434  1.00  0.00     0.238 A 
ATOM      4  O   UNL     1      -4.227  25.681  27.691  1.00  0.00    -0.285 OA
ATOM      5  C   UNL     1      -3.320  25.228  29.784  1.00  0.00     0.111 A 
ATOM      6  C   UNL     1      -4.552  24.882  30.391  1.00  0.00     0.134 A 
ATOM      7  C   UNL     1      -4.580  24.513  31.744  1.00  0.00     0.093 A 
ATOM      8  C   UNL     1      -3.403  24.486  32.501  1.00  0.00     0.123 A 
ATOM      9  C   UNL     1      -2.187  24.825  31.906  1.00  0.00     0.094 A 
ATOM     10  C   UNL     1      -2.137  25.193  30.558  1.00  0.00     0.146 A 
ATOM     11  O   UNL     1      -0.965  25.508  30.017  1.00  0.00    -0.452 OA
ENDROOT
BRANCH   1  12
ATOM     12  C   UNL     1       0.543  26.180  28.259  1.00  0.00     0.025 A 
ATOM     13  C   UNL     1       1.372  25.186  27.710  1.00  0.00     0.016 A 
ATOM     14  C   UNL     1       2.664  25.502  27.281  1.00  0.00     0.051 A 
ATOM     15  C   UNL     1       3.150  26.810  27.408  1.00  0.00     0.157 A 
ATOM     16  C   UNL     1       1.043  27.484  28.403  1.00  0.00     0.062 A 
ATOM     17  C   UNL     1       2.339  27.802  27.972  1.00  0.00     0.158 A 
BRANCH  15  18
ATOM     18  O   UNL     1       4.438  27.129  26.979  1.00  0.00    -0.504 OA
ATOM     19  H   UNL     1       4.861  28.024  27.193  1.00  0.00     0.293 HD
ENDBRANCH  15  18
BRANCH  17  20
ATOM     20  O   UNL     1       2.827  29.101  28.103  1.00  0.00    -0.504 OA
ATOM     21  H   UNL     1       3.235  29.596  27.319  1.00  0.00     0.293 HD
ENDBRANCH  17  20
ENDBRANCH   1  12
BRANCH   2  22
ATOM     22  O   UNL     1      -1.820  26.386  26.587  1.00  0.00    -0.502 OA
ATOM     23  H   UNL     1      -2.583  26.339  25.922  1.00  0.00     0.293 HD
ENDBRANCH   2  22
BRANCH   6  24
ATOM     24  O   UNL     1      -5.743  24.903  29.663  1.00  0.00    -0.507 OA
ATOM     25  H   UNL     1      -5.803  25.343  28.753  1.00  0.00     0.293 HD
ENDBRANCH   6  24
BRANCH   8  26
ATOM     26  O   UNL     1      -3.431  24.120  33.845  1.00  0.00    -0.508 OA
ATOM     27  H   UNL     1      -4.280  23.783  34.284  1.00  0.00     0.293 HD
ENDBRANCH   8  26
TORSDOF 6
ENDMDL
