MODEL 1
REMARK VINA RESULT:    -3.128      0.000      0.000
REMARK INTER + INTRA:          -5.807
REMARK INTER:                  -4.774
REMARK INTRA:                  -1.033
REMARK UNBOUND:                -1.033
REMARK SMILES CCCCCCCCCCC(=O)[O-]
REMARK SMILES IDX 7 1 8 2 9 3 10 4 11 5 12 6 13 7 6 8 5 9 4 10 3 11 2 12 1 13
REMARK H PARENT
REMARK Flexibility Score: inf
ROOT
ATOM      1  C   UNL     1      54.829  81.674  31.312  1.00  0.00     0.000 C 
ENDROOT
BRANCH   1   2
ATOM      2  C   UNL     1      53.296  81.632  31.176  1.00  0.00     0.000 C 
BRANCH   2   3
ATOM      3  C   UNL     1      52.761  82.653  30.157  1.00  0.00     0.006 C 
BRANCH   3   4
ATOM      4  C   UNL     1      51.722  83.597  30.776  1.00  0.00     0.053 C 
BRANCH   4   5
ATOM      5  C   UNL     1      50.443  82.884  31.094  1.00  0.00     0.041 C 
ATOM      6  O   UNL     1      49.881  82.170  30.222  1.00  0.00    -0.550 OA
ATOM      7  O   UNL     1      49.857  83.032  32.345  1.00  0.00    -0.550 OA
ENDBRANCH   4   5
ENDBRANCH   3   4
ENDBRANCH   2   3
ENDBRANCH   1   2
BRANCH   1   8
ATOM      8  C   UNL     1      55.350  82.175  32.675  1.00  0.00     0.000 C 
BRANCH   8   9
ATOM      9  C   UNL     1      56.078  83.534  32.638  1.00  0.00    -0.000 C 
BRANCH   9  10
ATOM     10  C   UNL     1      55.299  84.670  31.953  1.00  0.00    -0.000 C 
BRANCH  10  11
ATOM     11  C   UNL     1      55.829  84.995  30.548  1.00  0.00    -0.000 C 
BRANCH  11  12
ATOM     12  C   UNL     1      57.211  84.370  30.326  1.00  0.00    -0.003 C 
ATOM     13  C   UNL     1      57.286  83.665  28.975  1.00  0.00     0.004 C 
ENDBRANCH  11  12
ENDBRANCH  10  11
ENDBRANCH   9  10
ENDBRANCH   8   9
ENDBRANCH   1   8
TORSDOF 9
ENDMDL
MODEL 2
REMARK VINA RESULT:    -3.089     22.611     24.395
REMARK INTER + INTRA:          -5.748
REMARK INTER:                  -5.447
REMARK INTRA:                  -0.301
REMARK UNBOUND:                -1.033
REMARK SMILES CCCCCCCCCCC(=O)[O-]
REMARK SMILES IDX 7 1 8 2 9 3 10 4 11 5 12 6 13 7 6 8 5 9 4 10 3 11 2 12 1 13
REMARK H PARENT
REMARK Flexibility Score: inf
ROOT
ATOM      1  C   UNL     1      67.172  65.987  43.555  1.00  0.00     0.000 C 
ENDROOT
BRANCH   1   2
ATOM      2  C   UNL     1      67.714  65.968  42.114  1.00  0.00     0.000 C 
BRANCH   2   3
ATOM      3  C   UNL     1      66.618  65.699  41.069  1.00  0.00     0.006 C 
BRANCH   3   4
ATOM      4  C   UNL     1      66.536  66.813  40.018  1.00  0.00     0.053 C 
BRANCH   4   5
ATOM      5  C   UNL     1      66.950  66.329  38.661  1.00  0.00     0.041 C 
ATOM      6  O   UNL     1      67.353  65.146  38.505  1.00  0.00    -0.550 OA
ATOM      7  O   UNL     1      66.917  67.194  37.574  1.00  0.00    -0.550 OA
ENDBRANCH   4   5
ENDBRANCH   3   4
ENDBRANCH   2   3
ENDBRANCH   1   2
BRANCH   1   8
ATOM      8  C   UNL     1      67.849  67.007  44.494  1.00  0.00     0.000 C 
BRANCH   8   9
ATOM      9  C   UNL     1      67.172  67.181  45.869  1.00  0.00    -0.000 C 
BRANCH   9  10
ATOM     10  C   UNL     1      65.668  66.860  45.898  1.00  0.00    -0.000 C 
BRANCH  10  11
ATOM     11  C   UNL     1      64.817  68.036  46.399  1.00  0.00    -0.000 C 
BRANCH  11  12
ATOM     12  C   UNL     1      64.412  67.834  47.864  1.00  0.00    -0.003 C 
ATOM     13  C   UNL     1      63.172  68.653  48.211  1.00  0.00     0.004 C 
ENDBRANCH  11  12
ENDBRANCH  10  11
ENDBRANCH   9  10
ENDBRANCH   8   9
ENDBRANCH   1   8
TORSDOF 9
ENDMDL
MODEL 3
REMARK VINA RESULT:    -3.060      0.898      2.164
REMARK INTER + INTRA:          -5.703
REMARK INTER:                  -4.409
REMARK INTRA:                  -1.294
REMARK UNBOUND:                -1.033
REMARK SMILES CCCCCCCCCCC(=O)[O-]
REMARK SMILES IDX 7 1 8 2 9 3 10 4 11 5 12 6 13 7 6 8 5 9 4 10 3 11 2 12 1 13
REMARK H PARENT
REMARK Flexibility Score: inf
ROOT
ATOM      1  C   UNL     1      55.066  81.473  29.652  1.00  0.00     0.000 C 
ENDROOT
BRANCH   1   2
ATOM      2  C   UNL     1      53.861  81.458  30.609  1.00  0.00     0.000 C 
BRANCH   2   3
ATOM      3  C   UNL     1      52.924  82.662  30.407  1.00  0.00     0.006 C 
BRANCH   3   4
ATOM      4  C   UNL     1      52.084  82.957  31.656  1.00  0.00     0.053 C 
BRANCH   4   5
ATOM      5  C   UNL     1      50.639  82.621  31.447  1.00  0.00     0.041 C 
ATOM      6  O   UNL     1      50.276  81.989  30.419  1.00  0.00    -0.550 OA
ATOM      7  O   UNL     1      49.688  83.032  32.373  1.00  0.00    -0.550 OA
ENDBRANCH   4   5
ENDBRANCH   3   4
ENDBRANCH   2   3
ENDBRANCH   1   2
BRANCH   1   8
ATOM      8  C   UNL     1      55.350  82.833  28.981  1.00  0.00     0.000 C 
BRANCH   8   9
ATOM      9  C   UNL     1      56.786  83.366  29.163  1.00  0.00    -0.000 C 
BRANCH   9  10
ATOM     10  C   UNL     1      56.992  84.274  30.387  1.00  0.00    -0.000 C 
BRANCH  10  11
ATOM     11  C   UNL     1      55.719  85.037  30.784  1.00  0.00    -0.000 C 
BRANCH  11  12
ATOM     12  C   UNL     1      55.338  84.750  32.241  1.00  0.00    -0.003 C 
ATOM     13  C   UNL     1      56.129  83.568  32.794  1.00  0.00     0.004 C 
ENDBRANCH  11  12
ENDBRANCH  10  11
ENDBRANCH   9  10
ENDBRANCH   8   9
ENDBRANCH   1   8
TORSDOF 9
ENDMDL
MODEL 4
REMARK VINA RESULT:    -2.963      1.082      1.771
REMARK INTER + INTRA:          -5.555
REMARK INTER:                  -4.515
REMARK INTRA:                  -1.040
REMARK UNBOUND:                -1.033
REMARK SMILES CCCCCCCCCCC(=O)[O-]
REMARK SMILES IDX 7 1 8 2 9 3 10 4 11 5 12 6 13 7 6 8 5 9 4 10 3 11 2 12 1 13
REMARK H PARENT
REMARK Flexibility Score: inf
ROOT
ATOM      1  C   UNL     1      53.512  81.696  30.851  1.00  0.00     0.000 C 
ENDROOT
BRANCH   1   2
ATOM      2  C   UNL     1      53.144  82.671  29.718  1.00  0.00     0.000 C 
BRANCH   2   3
ATOM      3  C   UNL     1      51.767  83.327  29.921  1.00  0.00     0.006 C 
BRANCH   3   4
ATOM      4  C   UNL     1      51.853  84.601  30.772  1.00  0.00     0.053 C 
BRANCH   4   5
ATOM      5  C   UNL     1      51.272  84.398  32.137  1.00  0.00     0.041 C 
ATOM      6  O   UNL     1      50.109  83.931  32.269  1.00  0.00    -0.550 OA
ATOM      7  O   UNL     1      52.003  84.751  33.265  1.00  0.00    -0.550 OA
ENDBRANCH   4   5
ENDBRANCH   3   4
ENDBRANCH   2   3
ENDBRANCH   1   2
BRANCH   1   8
ATOM      8  C   UNL     1      55.000  81.697  31.256  1.00  0.00     0.000 C 
BRANCH   8   9
ATOM      9  C   UNL     1      55.305  82.323  32.632  1.00  0.00    -0.000 C 
BRANCH   9  10
ATOM     10  C   UNL     1      56.125  83.625  32.585  1.00  0.00    -0.000 C 
BRANCH  10  11
ATOM     11  C   UNL     1      55.366  84.784  31.922  1.00  0.00    -0.000 C 
BRANCH  11  12
ATOM     12  C   UNL     1      55.900  85.052  30.510  1.00  0.00    -0.003 C 
ATOM     13  C   UNL     1      57.255  84.385  30.297  1.00  0.00     0.004 C 
ENDBRANCH  11  12
ENDBRANCH  10  11
ENDBRANCH   9  10
ENDBRANCH   8   9
ENDBRANCH   1   8
TORSDOF 9
ENDMDL
MODEL 5
REMARK VINA RESULT:    -2.947      3.018      5.117
REMARK INTER + INTRA:          -5.531
REMARK INTER:                  -4.318
REMARK INTRA:                  -1.212
REMARK UNBOUND:                -1.033
REMARK SMILES CCCCCCCCCCC(=O)[O-]
REMARK SMILES IDX 7 1 8 2 9 3 10 4 11 5 12 6 13 7 6 8 5 9 4 10 3 11 2 12 1 13
REMARK H PARENT
REMARK Flexibility Score: inf
ROOT
ATOM      1  C   UNL     1      53.650  81.622  32.652  1.00  0.00     0.000 C 
ENDROOT
BRANCH   1   2
ATOM      2  C   UNL     1      55.063  81.861  32.088  1.00  0.00     0.000 C 
BRANCH   2   3
ATOM      3  C   UNL     1      55.822  82.971  32.834  1.00  0.00     0.006 C 
BRANCH   3   4
ATOM      4  C   UNL     1      55.555  84.358  32.234  1.00  0.00     0.053 C 
BRANCH   4   5
ATOM      5  C   UNL     1      56.107  84.479  30.847  1.00  0.00     0.041 C 
ATOM      6  O   UNL     1      55.375  84.887  29.906  1.00  0.00    -0.550 OA
ATOM      7  O   UNL     1      57.422  84.114  30.586  1.00  0.00    -0.550 OA
ENDBRANCH   4   5
ENDBRANCH   3   4
ENDBRANCH   2   3
ENDBRANCH   1   2
BRANCH   1   8
ATOM      8  C   UNL     1      52.522  81.605  31.600  1.00  0.00     0.000 C 
BRANCH   8   9
ATOM      9  C   UNL     1      52.679  82.626  30.454  1.00  0.00    -0.000 C 
BRANCH   9  10
ATOM     10  C   UNL     1      51.939  83.958  30.666  1.00  0.00    -0.000 C 
BRANCH  10  11
ATOM     11  C   UNL     1      50.642  83.798  31.473  1.00  0.00    -0.000 C 
BRANCH  11  12
ATOM     12  C   UNL     1      50.614  84.765  32.664  1.00  0.00    -0.003 C 
ATOM     13  C   UNL     1      52.026  85.125  33.115  1.00  0.00     0.004 C 
ENDBRANCH  11  12
ENDBRANCH  10  11
ENDBRANCH   9  10
ENDBRANCH   8   9
ENDBRANCH   1   8
TORSDOF 9
ENDMDL
MODEL 6
REMARK VINA RESULT:    -2.925      1.237      2.400
REMARK INTER + INTRA:          -5.497
REMARK INTER:                  -4.357
REMARK INTRA:                  -1.140
REMARK UNBOUND:                -1.033
REMARK SMILES CCCCCCCCCCC(=O)[O-]
REMARK SMILES IDX 7 1 8 2 9 3 10 4 11 5 12 6 13 7 6 8 5 9 4 10 3 11 2 12 1 13
REMARK H PARENT
REMARK Flexibility Score: inf
ROOT
ATOM      1  C   UNL     1      53.445  84.630  32.320  1.00  0.00     0.000 C 
ENDROOT
BRANCH   1   2
ATOM      2  C   UNL     1      52.810  85.066  30.987  1.00  0.00     0.000 C 
BRANCH   2   3
ATOM      3  C   UNL     1      51.736  84.084  30.489  1.00  0.00     0.006 C 
BRANCH   3   4
ATOM      4  C   UNL     1      51.295  83.105  31.585  1.00  0.00     0.053 C 
BRANCH   4   5
ATOM      5  C   UNL     1      49.803  83.017  31.684  1.00  0.00     0.041 C 
ATOM      6  O   UNL     1      49.135  82.495  30.752  1.00  0.00    -0.550 OA
ATOM      7  O   UNL     1      49.147  83.536  32.794  1.00  0.00    -0.550 OA
ENDBRANCH   4   5
ENDBRANCH   3   4
ENDBRANCH   2   3
ENDBRANCH   1   2
BRANCH   1   8
ATOM      8  C   UNL     1      54.918  85.045  32.509  1.00  0.00     0.000 C 
BRANCH   8   9
ATOM      9  C   UNL     1      55.948  83.915  32.310  1.00  0.00    -0.000 C 
BRANCH   9  10
ATOM     10  C   UNL     1      56.632  83.894  30.932  1.00  0.00    -0.000 C 
BRANCH  10  11
ATOM     11  C   UNL     1      55.938  82.953  29.936  1.00  0.00    -0.000 C 
BRANCH  11  12
ATOM     12  C   UNL     1      55.198  81.828  30.669  1.00  0.00    -0.003 C 
ATOM     13  C   UNL     1      54.060  81.271  29.818  1.00  0.00     0.004 C 
ENDBRANCH  11  12
ENDBRANCH  10  11
ENDBRANCH   9  10
ENDBRANCH   8   9
ENDBRANCH   1   8
TORSDOF 9
ENDMDL
MODEL 7
REMARK VINA RESULT:    -2.844      1.289      2.363
REMARK INTER + INTRA:          -5.374
REMARK INTER:                  -4.271
REMARK INTRA:                  -1.103
REMARK UNBOUND:                -1.033
REMARK SMILES CCCCCCCCCCC(=O)[O-]
REMARK SMILES IDX 7 1 8 2 9 3 10 4 11 5 12 6 13 7 6 8 5 9 4 10 3 11 2 12 1 13
REMARK H PARENT
REMARK Flexibility Score: inf
ROOT
ATOM      1  C   UNL     1      52.571  81.736  31.847  1.00  0.00     0.000 C 
ENDROOT
BRANCH   1   2
ATOM      2  C   UNL     1      52.251  83.213  32.140  1.00  0.00     0.000 C 
BRANCH   2   3
ATOM      3  C   UNL     1      51.989  84.031  30.864  1.00  0.00     0.006 C 
BRANCH   3   4
ATOM      4  C   UNL     1      50.513  84.428  30.725  1.00  0.00     0.053 C 
BRANCH   4   5
ATOM      5  C   UNL     1      49.681  83.299  30.198  1.00  0.00     0.041 C 
ATOM      6  O   UNL     1      50.122  82.561  29.277  1.00  0.00    -0.550 OA
ATOM      7  O   UNL     1      48.407  83.078  30.706  1.00  0.00    -0.550 OA
ENDBRANCH   4   5
ENDBRANCH   3   4
ENDBRANCH   2   3
ENDBRANCH   1   2
BRANCH   1   8
ATOM      8  C   UNL     1      53.538  81.498  30.669  1.00  0.00     0.000 C 
BRANCH   8   9
ATOM      9  C   UNL     1      55.026  81.757  30.981  1.00  0.00    -0.000 C 
BRANCH   9  10
ATOM     10  C   UNL     1      55.723  82.755  30.039  1.00  0.00    -0.000 C 
BRANCH  10  11
ATOM     11  C   UNL     1      56.236  84.004  30.770  1.00  0.00    -0.000 C 
BRANCH  11  12
ATOM     12  C   UNL     1      55.930  83.927  32.270  1.00  0.00    -0.003 C 
ATOM     13  C   UNL     1      55.100  85.123  32.725  1.00  0.00     0.004 C 
ENDBRANCH  11  12
ENDBRANCH  10  11
ENDBRANCH   9  10
ENDBRANCH   8   9
ENDBRANCH   1   8
TORSDOF 9
ENDMDL
MODEL 8
REMARK VINA RESULT:    -2.742      1.290      2.171
REMARK INTER + INTRA:          -5.218
REMARK INTER:                  -4.166
REMARK INTRA:                  -1.052
REMARK UNBOUND:                -1.033
REMARK SMILES CCCCCCCCCCC(=O)[O-]
REMARK SMILES IDX 7 1 8 2 9 3 10 4 11 5 12 6 13 7 6 8 5 9 4 10 3 11 2 12 1 13
REMARK H PARENT
REMARK Flexibility Score: inf
ROOT
ATOM      1  C   UNL     1      54.871  84.886  32.323  1.00  0.00     0.000 C 
ENDROOT
BRANCH   1   2
ATOM      2  C   UNL     1      53.386  84.510  32.481  1.00  0.00     0.000 C 
BRANCH   2   3
ATOM      3  C   UNL     1      52.561  84.798  31.215  1.00  0.00     0.006 C 
BRANCH   3   4
ATOM      4  C   UNL     1      52.050  83.512  30.553  1.00  0.00     0.053 C 
BRANCH   4   5
ATOM      5  C   UNL     1      51.364  82.614  31.537  1.00  0.00     0.041 C 
ATOM      6  O   UNL     1      51.825  81.467  31.778  1.00  0.00    -0.550 OA
ATOM      7  O   UNL     1      50.199  83.034  32.167  1.00  0.00    -0.550 OA
ENDBRANCH   4   5
ENDBRANCH   3   4
ENDBRANCH   2   3
ENDBRANCH   1   2
BRANCH   1   8
ATOM      8  C   UNL     1      55.852  83.697  32.342  1.00  0.00     0.000 C 
BRANCH   8   9
ATOM      9  C   UNL     1      55.211  82.314  32.107  1.00  0.00    -0.000 C 
BRANCH   9  10
ATOM     10  C   UNL     1      55.392  81.746  30.689  1.00  0.00    -0.000 C 
BRANCH  10  11
ATOM     11  C   UNL     1      55.478  82.841  29.615  1.00  0.00    -0.000 C 
BRANCH  11  12
ATOM     12  C   UNL     1      56.819  82.780  28.875  1.00  0.00    -0.003 C 
ATOM     13  C   UNL     1      57.631  84.052  29.100  1.00  0.00     0.004 C 
ENDBRANCH  11  12
ENDBRANCH  10  11
ENDBRANCH   9  10
ENDBRANCH   8   9
ENDBRANCH   1   8
TORSDOF 9
ENDMDL
