MODEL 1
REMARK VINA RESULT:    -5.195      0.000      0.000
REMARK INTER + INTRA:          -5.195
REMARK INTER:                  -5.195
REMARK INTRA:                   0.000
REMARK UNBOUND:                 0.000
REMARK SMILES C=C1CCC[C@]2(C)CC(=O)C(=C(C)C)C[C@H]12
REMARK SMILES IDX 13 1 12 2 11 3 15 4 16 5 2 6 1 7 3 8 4 9 5 10 6 11 8 12 9 13
REMARK SMILES IDX 10 14 7 15 14 16
REMARK H PARENT
REMARK Flexibility Score: inf
ROOT
ATOM      1  C   UNL     1       1.741 -10.251 -41.492  1.00  0.00     0.039 C 
ATOM      2  C   UNL     1       0.676  -9.477 -42.235  1.00  0.00    -0.070 C 
ATOM      3  C   UNL     1      -0.622  -9.468 -41.814  1.00  0.00    -0.006 C 
ATOM      4  C   UNL     1      -1.741  -8.785 -42.576  1.00  0.00     0.047 C 
ATOM      5  C   UNL     1      -2.892  -9.767 -42.963  1.00  0.00     0.025 C 
ATOM      6  C   UNL     1      -4.182  -9.026 -43.377  1.00  0.00    -0.073 C 
ATOM      7  C   UNL     1      -4.168  -7.769 -43.865  1.00  0.00     0.008 C 
ATOM      8  C   UNL     1      -5.514  -9.744 -43.420  1.00  0.00     0.031 C 
ATOM      9  C   UNL     1      -5.420 -11.192 -42.965  1.00  0.00     0.005 C 
ATOM     10  C   UNL     1      -4.623 -11.268 -41.668  1.00  0.00     0.008 C 
ATOM     11  C   UNL     1      -3.120 -10.924 -41.883  1.00  0.00    -0.018 C 
ATOM     12  C   UNL     1      -2.539 -10.526 -40.493  1.00  0.00     0.088 C 
ATOM     13  C   UNL     1      -1.090 -10.157 -40.588  1.00  0.00     0.159 C 
ATOM     14  O   UNL     1      -0.331 -10.362 -39.603  1.00  0.00    -0.295 OA
ATOM     15  C   UNL     1      -2.399 -12.217 -42.361  1.00  0.00     0.012 C 
ATOM     16  C   UNL     1       1.100  -8.752 -43.491  1.00  0.00     0.039 C 
ENDROOT
TORSDOF 0
ENDMDL
MODEL 2
REMARK VINA RESULT:    -4.956      1.846      3.243
REMARK INTER + INTRA:          -4.956
REMARK INTER:                  -4.956
REMARK INTRA:                   0.000
REMARK UNBOUND:                 0.000
REMARK SMILES C=C1CCC[C@]2(C)CC(=O)C(=C(C)C)C[C@H]12
REMARK SMILES IDX 13 1 12 2 11 3 15 4 16 5 2 6 1 7 3 8 4 9 5 10 6 11 8 12 9 13
REMARK SMILES IDX 10 14 7 15 14 16
REMARK H PARENT
REMARK Flexibility Score: inf
ROOT
ATOM      1  C   UNL     1       3.013 -10.630 -41.649  1.00  0.00     0.039 C 
ATOM      2  C   UNL     1       1.722 -11.411 -41.732  1.00  0.00    -0.070 C 
ATOM      3  C   UNL     1       0.571 -10.840 -42.195  1.00  0.00    -0.006 C 
ATOM      4  C   UNL     1      -0.766 -11.553 -42.210  1.00  0.00     0.047 C 
ATOM      5  C   UNL     1      -1.863 -10.791 -41.399  1.00  0.00     0.025 C 
ATOM      6  C   UNL     1      -3.287 -11.288 -41.730  1.00  0.00    -0.073 C 
ATOM      7  C   UNL     1      -3.529 -12.528 -42.202  1.00  0.00     0.008 C 
ATOM      8  C   UNL     1      -4.505 -10.463 -41.369  1.00  0.00     0.031 C 
ATOM      9  C   UNL     1      -4.146  -9.129 -40.732  1.00  0.00     0.005 C 
ATOM     10  C   UNL     1      -3.054  -8.450 -41.552  1.00  0.00     0.008 C 
ATOM     11  C   UNL     1      -1.695  -9.203 -41.454  1.00  0.00    -0.018 C 
ATOM     12  C   UNL     1      -0.841  -8.764 -42.681  1.00  0.00     0.088 C 
ATOM     13  C   UNL     1       0.493  -9.447 -42.695  1.00  0.00     0.159 C 
ATOM     14  O   UNL     1       1.486  -8.859 -43.201  1.00  0.00    -0.295 OA
ATOM     15  C   UNL     1      -0.976  -8.722 -40.161  1.00  0.00     0.012 C 
ATOM     16  C   UNL     1       1.746 -12.839 -41.239  1.00  0.00     0.039 C 
ENDROOT
TORSDOF 0
ENDMDL
MODEL 3
REMARK VINA RESULT:    -4.950      2.495      5.504
REMARK INTER + INTRA:          -4.950
REMARK INTER:                  -4.950
REMARK INTRA:                   0.000
REMARK UNBOUND:                 0.000
REMARK SMILES C=C1CCC[C@]2(C)CC(=O)C(=C(C)C)C[C@H]12
REMARK SMILES IDX 13 1 12 2 11 3 15 4 16 5 2 6 1 7 3 8 4 9 5 10 6 11 8 12 9 13
REMARK SMILES IDX 10 14 7 15 14 16
REMARK H PARENT
REMARK Flexibility Score: inf
ROOT
ATOM      1  C   UNL     1      -3.845 -11.664 -38.968  1.00  0.00     0.039 C 
ATOM      2  C   UNL     1      -2.574 -12.365 -39.391  1.00  0.00    -0.070 C 
ATOM      3  C   UNL     1      -1.424 -11.671 -39.632  1.00  0.00    -0.006 C 
ATOM      4  C   UNL     1      -0.153 -12.317 -40.146  1.00  0.00     0.047 C 
ATOM      5  C   UNL     1       0.337 -11.691 -41.492  1.00  0.00     0.025 C 
ATOM      6  C   UNL     1       1.803 -12.059 -41.810  1.00  0.00    -0.073 C 
ATOM      7  C   UNL     1       2.391 -13.171 -41.322  1.00  0.00     0.008 C 
ATOM      8  C   UNL     1       2.599 -11.278 -42.834  1.00  0.00     0.031 C 
ATOM      9  C   UNL     1       1.820 -10.111 -43.422  1.00  0.00     0.005 C 
ATOM     10  C   UNL     1       1.155  -9.324 -42.298  1.00  0.00     0.008 C 
ATOM     11  C   UNL     1       0.013 -10.131 -41.614  1.00  0.00    -0.018 C 
ATOM     12  C   UNL     1      -0.224  -9.489 -40.214  1.00  0.00     0.088 C 
ATOM     13  C   UNL     1      -1.301 -10.204 -39.456  1.00  0.00     0.159 C 
ATOM     14  O   UNL     1      -2.012  -9.565 -38.636  1.00  0.00    -0.295 OA
ATOM     15  C   UNL     1      -1.277  -9.943 -42.462  1.00  0.00     0.012 C 
ATOM     16  C   UNL     1      -2.643 -13.862 -39.581  1.00  0.00     0.039 C 
ENDROOT
TORSDOF 0
ENDMDL
MODEL 4
REMARK VINA RESULT:    -4.870      1.862      4.795
REMARK INTER + INTRA:          -4.870
REMARK INTER:                  -4.870
REMARK INTRA:                   0.000
REMARK UNBOUND:                 0.000
REMARK SMILES C=C1CCC[C@]2(C)CC(=O)C(=C(C)C)C[C@H]12
REMARK SMILES IDX 13 1 12 2 11 3 15 4 16 5 2 6 1 7 3 8 4 9 5 10 6 11 8 12 9 13
REMARK SMILES IDX 10 14 7 15 14 16
REMARK H PARENT
REMARK Flexibility Score: inf
ROOT
ATOM      1  C   UNL     1      -5.033  -9.597 -40.865  1.00  0.00     0.039 C 
ATOM      2  C   UNL     1      -3.858  -8.942 -41.553  1.00  0.00    -0.070 C 
ATOM      3  C   UNL     1      -2.846  -9.681 -42.095  1.00  0.00    -0.006 C 
ATOM      4  C   UNL     1      -1.605  -9.068 -42.712  1.00  0.00     0.047 C 
ATOM      5  C   UNL     1      -0.288  -9.557 -42.027  1.00  0.00     0.025 C 
ATOM      6  C   UNL     1       0.963  -9.257 -42.881  1.00  0.00    -0.073 C 
ATOM      7  C   UNL     1       0.998  -8.259 -43.787  1.00  0.00     0.008 C 
ATOM      8  C   UNL     1       2.277  -9.961 -42.613  1.00  0.00     0.031 C 
ATOM      9  C   UNL     1       2.179 -10.989 -41.496  1.00  0.00     0.005 C 
ATOM     10  C   UNL     1       0.945 -11.859 -41.710  1.00  0.00     0.008 C 
ATOM     11  C   UNL     1      -0.376 -11.063 -41.501  1.00  0.00    -0.018 C 
ATOM     12  C   UNL     1      -1.505 -11.853 -42.228  1.00  0.00     0.088 C 
ATOM     13  C   UNL     1      -2.829 -11.163 -42.103  1.00  0.00     0.159 C 
ATOM     14  O   UNL     1      -3.888 -11.846 -42.093  1.00  0.00    -0.295 OA
ATOM     15  C   UNL     1      -0.690 -11.053 -39.977  1.00  0.00     0.012 C 
ATOM     16  C   UNL     1      -3.828  -7.431 -41.578  1.00  0.00     0.039 C 
ENDROOT
TORSDOF 0
ENDMDL
MODEL 5
REMARK VINA RESULT:    -4.810      2.816      3.482
REMARK INTER + INTRA:          -4.810
REMARK INTER:                  -4.810
REMARK INTRA:                   0.000
REMARK UNBOUND:                 0.000
REMARK SMILES C=C1CCC[C@]2(C)CC(=O)C(=C(C)C)C[C@H]12
REMARK SMILES IDX 13 1 12 2 11 3 15 4 16 5 2 6 1 7 3 8 4 9 5 10 6 11 8 12 9 13
REMARK SMILES IDX 10 14 7 15 14 16
REMARK H PARENT
REMARK Flexibility Score: inf
ROOT
ATOM      1  C   UNL     1       2.266 -10.740 -44.559  1.00  0.00     0.039 C 
ATOM      2  C   UNL     1       1.653  -9.822 -43.528  1.00  0.00    -0.070 C 
ATOM      3  C   UNL     1       1.228 -10.290 -42.318  1.00  0.00    -0.006 C 
ATOM      4  C   UNL     1       0.524  -9.427 -41.290  1.00  0.00     0.047 C 
ATOM      5  C   UNL     1      -0.886  -9.980 -40.906  1.00  0.00     0.025 C 
ATOM      6  C   UNL     1      -1.429  -9.348 -39.605  1.00  0.00    -0.073 C 
ATOM      7  C   UNL     1      -1.033  -8.135 -39.171  1.00  0.00     0.008 C 
ATOM      8  C   UNL     1      -2.571  -9.989 -38.845  1.00  0.00     0.031 C 
ATOM      9  C   UNL     1      -3.037 -11.295 -39.469  1.00  0.00     0.005 C 
ATOM     10  C   UNL     1      -1.828 -12.168 -39.787  1.00  0.00     0.008 C 
ATOM     11  C   UNL     1      -0.966 -11.575 -40.941  1.00  0.00    -0.018 C 
ATOM     12  C   UNL     1       0.449 -12.218 -40.830  1.00  0.00     0.088 C 
ATOM     13  C   UNL     1       1.372 -11.703 -41.891  1.00  0.00     0.159 C 
ATOM     14  O   UNL     1       2.290 -12.446 -42.331  1.00  0.00    -0.295 OA
ATOM     15  C   UNL     1      -1.602 -12.024 -42.288  1.00  0.00     0.012 C 
ATOM     16  C   UNL     1       1.487  -8.369 -43.910  1.00  0.00     0.039 C 
ENDROOT
TORSDOF 0
ENDMDL
MODEL 6
REMARK VINA RESULT:    -4.791     13.865     16.308
REMARK INTER + INTRA:          -4.791
REMARK INTER:                  -4.791
REMARK INTRA:                   0.000
REMARK UNBOUND:                 0.000
REMARK SMILES C=C1CCC[C@]2(C)CC(=O)C(=C(C)C)C[C@H]12
REMARK SMILES IDX 13 1 12 2 11 3 15 4 16 5 2 6 1 7 3 8 4 9 5 10 6 11 8 12 9 13
REMARK SMILES IDX 10 14 7 15 14 16
REMARK H PARENT
REMARK Flexibility Score: inf
ROOT
ATOM      1  C   UNL     1      -4.693 -26.932 -44.341  1.00  0.00     0.039 C 
ATOM      2  C   UNL     1      -3.816 -25.720 -44.130  1.00  0.00    -0.070 C 
ATOM      3  C   UNL     1      -2.915 -25.318 -45.074  1.00  0.00    -0.006 C 
ATOM      4  C   UNL     1      -1.951 -24.166 -44.870  1.00  0.00     0.047 C 
ATOM      5  C   UNL     1      -0.458 -24.597 -45.029  1.00  0.00     0.025 C 
ATOM      6  C   UNL     1       0.485 -23.388 -45.212  1.00  0.00    -0.073 C 
ATOM      7  C   UNL     1       0.177 -22.156 -44.758  1.00  0.00     0.008 C 
ATOM      8  C   UNL     1       1.887 -23.567 -45.757  1.00  0.00     0.031 C 
ATOM      9  C   UNL     1       2.194 -25.008 -46.135  1.00  0.00     0.005 C 
ATOM     10  C   UNL     1       1.042 -25.576 -46.957  1.00  0.00     0.008 C 
ATOM     11  C   UNL     1      -0.250 -25.758 -46.107  1.00  0.00    -0.018 C 
ATOM     12  C   UNL     1      -1.446 -25.829 -47.103  1.00  0.00     0.088 C 
ATOM     13  C   UNL     1      -2.751 -25.989 -46.386  1.00  0.00     0.159 C 
ATOM     14  O   UNL     1      -3.694 -26.611 -46.944  1.00  0.00    -0.295 OA
ATOM     15  C   UNL     1      -0.147 -27.125 -45.371  1.00  0.00     0.012 C 
ATOM     16  C   UNL     1      -3.946 -24.996 -42.811  1.00  0.00     0.039 C 
ENDROOT
TORSDOF 0
ENDMDL
MODEL 7
REMARK VINA RESULT:    -4.755     13.102     15.180
REMARK INTER + INTRA:          -4.755
REMARK INTER:                  -4.755
REMARK INTRA:                   0.000
REMARK UNBOUND:                 0.000
REMARK SMILES C=C1CCC[C@]2(C)CC(=O)C(=C(C)C)C[C@H]12
REMARK SMILES IDX 13 1 12 2 11 3 15 4 16 5 2 6 1 7 3 8 4 9 5 10 6 11 8 12 9 13
REMARK SMILES IDX 10 14 7 15 14 16
REMARK H PARENT
REMARK Flexibility Score: inf
ROOT
ATOM      1  C   UNL     1       1.430 -21.434 -41.869  1.00  0.00     0.039 C 
ATOM      2  C   UNL     1       0.582 -21.843 -43.051  1.00  0.00    -0.070 C 
ATOM      3  C   UNL     1       0.424 -23.154 -43.395  1.00  0.00    -0.006 C 
ATOM      4  C   UNL     1      -0.339 -23.607 -44.624  1.00  0.00     0.047 C 
ATOM      5  C   UNL     1       0.535 -24.468 -45.591  1.00  0.00     0.025 C 
ATOM      6  C   UNL     1      -0.317 -25.245 -46.617  1.00  0.00    -0.073 C 
ATOM      7  C   UNL     1      -1.546 -24.837 -46.994  1.00  0.00     0.008 C 
ATOM      8  C   UNL     1       0.263 -26.414 -47.387  1.00  0.00     0.031 C 
ATOM      9  C   UNL     1       1.694 -26.734 -46.985  1.00  0.00     0.005 C 
ATOM     10  C   UNL     1       1.800 -26.772 -45.465  1.00  0.00     0.008 C 
ATOM     11  C   UNL     1       1.619 -25.362 -44.830  1.00  0.00    -0.018 C 
ATOM     12  C   UNL     1       1.229 -25.580 -43.337  1.00  0.00     0.088 C 
ATOM     13  C   UNL     1       1.013 -24.278 -42.629  1.00  0.00     0.159 C 
ATOM     14  O   UNL     1       1.256 -24.194 -41.395  1.00  0.00    -0.295 OA
ATOM     15  C   UNL     1       2.997 -24.641 -44.873  1.00  0.00     0.012 C 
ATOM     16  C   UNL     1      -0.046 -20.736 -43.865  1.00  0.00     0.039 C 
ENDROOT
TORSDOF 0
ENDMDL
MODEL 8
REMARK VINA RESULT:    -4.711      3.080      4.769
REMARK INTER + INTRA:          -4.711
REMARK INTER:                  -4.711
REMARK INTRA:                   0.000
REMARK UNBOUND:                 0.000
REMARK SMILES C=C1CCC[C@]2(C)CC(=O)C(=C(C)C)C[C@H]12
REMARK SMILES IDX 13 1 12 2 11 3 15 4 16 5 2 6 1 7 3 8 4 9 5 10 6 11 8 12 9 13
REMARK SMILES IDX 10 14 7 15 14 16
REMARK H PARENT
REMARK Flexibility Score: inf
ROOT
ATOM      1  C   UNL     1      -3.768  -8.939 -40.923  1.00  0.00     0.039 C 
ATOM      2  C   UNL     1      -3.279  -8.617 -42.316  1.00  0.00    -0.070 C 
ATOM      3  C   UNL     1      -4.141  -8.239 -43.305  1.00  0.00    -0.006 C 
ATOM      4  C   UNL     1      -3.711  -7.996 -44.738  1.00  0.00     0.047 C 
ATOM      5  C   UNL     1      -4.474  -8.902 -45.756  1.00  0.00     0.025 C 
ATOM      6  C   UNL     1      -4.335  -8.397 -47.209  1.00  0.00    -0.073 C 
ATOM      7  C   UNL     1      -3.292  -7.645 -47.616  1.00  0.00     0.008 C 
ATOM      8  C   UNL     1      -5.278  -8.874 -48.294  1.00  0.00     0.031 C 
ATOM      9  C   UNL     1      -6.354  -9.813 -47.771  1.00  0.00     0.005 C 
ATOM     10  C   UNL     1      -6.975  -9.224 -46.509  1.00  0.00     0.008 C 
ATOM     11  C   UNL     1      -5.977  -9.217 -45.314  1.00  0.00    -0.018 C 
ATOM     12  C   UNL     1      -6.499  -8.165 -44.290  1.00  0.00     0.088 C 
ATOM     13  C   UNL     1      -5.598  -8.063 -43.097  1.00  0.00     0.159 C 
ATOM     14  O   UNL     1      -6.083  -7.753 -41.976  1.00  0.00    -0.295 OA
ATOM     15  C   UNL     1      -6.028 -10.619 -44.642  1.00  0.00     0.012 C 
ATOM     16  C   UNL     1      -1.800  -8.775 -42.581  1.00  0.00     0.039 C 
ENDROOT
TORSDOF 0
ENDMDL
MODEL 9
REMARK VINA RESULT:    -4.709     15.278     16.647
REMARK INTER + INTRA:          -4.709
REMARK INTER:                  -4.709
REMARK INTRA:                   0.000
REMARK UNBOUND:                 0.000
REMARK SMILES C=C1CCC[C@]2(C)CC(=O)C(=C(C)C)C[C@H]12
REMARK SMILES IDX 13 1 12 2 11 3 15 4 16 5 2 6 1 7 3 8 4 9 5 10 6 11 8 12 9 13
REMARK SMILES IDX 10 14 7 15 14 16
REMARK H PARENT
REMARK Flexibility Score: inf
ROOT
ATOM      1  C   UNL     1       3.010 -24.474 -46.114  1.00  0.00     0.039 C 
ATOM      2  C   UNL     1       1.985 -24.816 -45.058  1.00  0.00    -0.070 C 
ATOM      3  C   UNL     1       1.011 -25.745 -45.284  1.00  0.00    -0.006 C 
ATOM      4  C   UNL     1      -0.093 -26.054 -44.292  1.00  0.00     0.047 C 
ATOM      5  C   UNL     1      -1.519 -25.837 -44.892  1.00  0.00     0.025 C 
ATOM      6  C   UNL     1      -2.621 -26.510 -44.045  1.00  0.00    -0.073 C 
ATOM      7  C   UNL     1      -2.468 -26.762 -42.729  1.00  0.00     0.008 C 
ATOM      8  C   UNL     1      -4.001 -26.759 -44.616  1.00  0.00     0.031 C 
ATOM      9  C   UNL     1      -4.122 -26.337 -46.073  1.00  0.00     0.005 C 
ATOM     10  C   UNL     1      -2.929 -26.870 -46.859  1.00  0.00     0.008 C 
ATOM     11  C   UNL     1      -1.600 -26.167 -46.453  1.00  0.00    -0.018 C 
ATOM     12  C   UNL     1      -0.436 -27.102 -46.897  1.00  0.00     0.088 C 
ATOM     13  C   UNL     1       0.900 -26.526 -46.539  1.00  0.00     0.159 C 
ATOM     14  O   UNL     1       1.901 -26.784 -47.258  1.00  0.00    -0.295 OA
ATOM     15  C   UNL     1      -1.497 -24.842 -47.261  1.00  0.00     0.012 C 
ATOM     16  C   UNL     1       2.054 -24.052 -43.756  1.00  0.00     0.039 C 
ENDROOT
TORSDOF 0
ENDMDL
