MODEL 1
REMARK VINA RESULT:    -6.996      0.000      0.000
REMARK INTER + INTRA:          -7.817
REMARK INTER:                  -7.814
REMARK INTRA:                  -0.003
REMARK UNBOUND:                -0.003
REMARK SMILES CC1(C)CC[C@]2(C(=O)[O-])[C@H](O)C[C@]3(C)C(=CC[C@@H]4[C@]5(C)CC[C@H](O)C(C)(C)[C@@H]5CC[C@@]43C)[C@H]2C1
REMARK SMILES IDX 6 1 5 2 33 3 10 4 4 5 34 6 15 7 12 8 2 9 16 10 13 11 1 12
REMARK SMILES IDX 3 13 17 14 31 15 14 16 18 17 30 18 32 19 19 20 29 21 21 22
REMARK SMILES IDX 20 23 28 24 22 25 25 26 23 27 26 28 27 29 7 30 8 31 9 32
REMARK SMILES IDX 11 33 24 35
REMARK H PARENT 11 34 24 36
REMARK Flexibility Score: inf
ROOT
ATOM      1  C   UNL     1      18.834  -8.695  15.030  1.00  0.00     0.042 C 
ATOM      2  C   UNL     1      19.816  -7.717  14.285  1.00  0.00     0.017 C 
ATOM      3  C   UNL     1      17.544  -8.935  14.174  1.00  0.00     0.030 C 
ATOM      4  C   UNL     1      19.506 -10.102  15.263  1.00  0.00     0.127 C 
ATOM      5  C   UNL     1      19.420  -7.422  12.827  1.00  0.00     0.007 C 
ATOM      6  C   UNL     1      16.941  -7.632  13.611  1.00  0.00     0.015 C 
ATOM      7  C   UNL     1      16.617  -9.877  14.930  1.00  0.00    -0.063 C 
ATOM      8  C   UNL     1      18.518 -11.200  15.813  1.00  0.00     0.044 C 
ATOM      9  C   UNL     1      17.957  -6.883  12.676  1.00  0.00    -0.035 C 
ATOM     10  C   UNL     1      15.803  -9.348  15.862  1.00  0.00    -0.027 C 
ATOM     11  C   UNL     1      17.119 -11.318  15.093  1.00  0.00    -0.003 C 
ATOM     12  C   UNL     1      17.931  -5.371  12.994  1.00  0.00     0.011 C 
ATOM     13  C   UNL     1      17.528  -7.068  11.203  1.00  0.00     0.011 C 
ATOM     14  C   UNL     1      15.645 -10.007  17.193  1.00  0.00     0.032 C 
ATOM     15  C   UNL     1      16.030 -12.241  15.894  1.00  0.00    -0.020 C 
ATOM     16  C   UNL     1      17.378 -11.952  13.680  1.00  0.00     0.017 C 
ATOM     17  C   UNL     1      15.230 -11.483  17.050  1.00  0.00     0.006 C 
ATOM     18  C   UNL     1      16.744 -13.480  16.487  1.00  0.00     0.008 C 
ATOM     19  C   UNL     1      14.947 -12.766  14.886  1.00  0.00     0.012 C 
ATOM     20  C   UNL     1      15.058 -12.250  18.449  1.00  0.00    -0.025 C 
ATOM     21  C   UNL     1      15.827 -14.442  17.235  1.00  0.00     0.005 C 
ATOM     22  C   UNL     1      16.296 -12.065  19.395  1.00  0.00     0.010 C 
ATOM     23  C   UNL     1      13.817 -11.605  19.151  1.00  0.00     0.012 C 
ATOM     24  C   UNL     1      14.779 -13.795  18.206  1.00  0.00     0.003 C 
ATOM     25  C   UNL     1      16.639 -13.299  20.259  1.00  0.00     0.033 C 
ATOM     26  C   UNL     1      14.566 -14.660  19.549  1.00  0.00    -0.006 C 
ATOM     27  C   UNL     1      15.394 -14.057  20.749  1.00  0.00     0.120 C 
ATOM     28  C   UNL     1      14.937 -16.169  19.355  1.00  0.00     0.014 C 
ATOM     29  C   UNL     1      13.054 -14.696  19.926  1.00  0.00     0.014 C 
ENDROOT
BRANCH   1  30
ATOM     30  C   UNL     1      18.513  -8.046  16.385  1.00  0.00     0.051 C 
ATOM     31  O   UNL     1      18.819  -8.608  17.470  1.00  0.00    -0.549 OA
ATOM     32  O   UNL     1      17.952  -6.776  16.444  1.00  0.00    -0.549 OA
ENDBRANCH   1  30
BRANCH   4  33
ATOM     33  O   UNL     1      20.125 -10.545  14.080  1.00  0.00    -0.392 OA
ATOM     34  H   UNL     1      20.983 -10.972  14.339  1.00  0.00     0.210 HD
ENDBRANCH   4  33
BRANCH  27  35
ATOM     35  O   UNL     1      15.808 -15.052  21.655  1.00  0.00    -0.393 OA
ATOM     36  H   UNL     1      15.078 -15.161  22.320  1.00  0.00     0.210 HD
ENDBRANCH  27  35
TORSDOF 3
ENDMDL
MODEL 2
REMARK VINA RESULT:    -6.636      2.038      8.025
REMARK INTER + INTRA:          -7.415
REMARK INTER:                  -7.535
REMARK INTRA:                   0.120
REMARK UNBOUND:                -0.003
REMARK SMILES CC1(C)CC[C@]2(C(=O)[O-])[C@H](O)C[C@]3(C)C(=CC[C@@H]4[C@]5(C)CC[C@H](O)C(C)(C)[C@@H]5CC[C@@]43C)[C@H]2C1
REMARK SMILES IDX 6 1 5 2 33 3 10 4 4 5 34 6 15 7 12 8 2 9 16 10 13 11 1 12
REMARK SMILES IDX 3 13 17 14 31 15 14 16 18 17 30 18 32 19 19 20 29 21 21 22
REMARK SMILES IDX 20 23 28 24 22 25 25 26 23 27 26 28 27 29 7 30 8 31 9 32
REMARK SMILES IDX 11 33 24 35
REMARK H PARENT 11 34 24 36
REMARK Flexibility Score: inf
ROOT
ATOM      1  C   UNL     1      14.394 -13.351  19.078  1.00  0.00     0.042 C 
ATOM      2  C   UNL     1      13.522 -14.283  19.997  1.00  0.00     0.017 C 
ATOM      3  C   UNL     1      15.891 -13.812  19.091  1.00  0.00     0.030 C 
ATOM      4  C   UNL     1      13.901 -13.413  17.581  1.00  0.00     0.127 C 
ATOM      5  C   UNL     1      14.257 -15.543  20.490  1.00  0.00     0.007 C 
ATOM      6  C   UNL     1      16.425 -14.093  20.510  1.00  0.00     0.015 C 
ATOM      7  C   UNL     1      16.703 -12.882  18.198  1.00  0.00    -0.063 C 
ATOM      8  C   UNL     1      14.851 -12.672  16.564  1.00  0.00     0.044 C 
ATOM      9  C   UNL     1      15.608 -15.231  21.220  1.00  0.00    -0.035 C 
ATOM     10  C   UNL     1      17.139 -11.724  18.725  1.00  0.00    -0.027 C 
ATOM     11  C   UNL     1      16.396 -12.964  16.697  1.00  0.00    -0.003 C 
ATOM     12  C   UNL     1      15.319 -14.823  22.681  1.00  0.00     0.011 C 
ATOM     13  C   UNL     1      16.450 -16.526  21.243  1.00  0.00     0.011 C 
ATOM     14  C   UNL     1      17.018 -10.449  17.957  1.00  0.00     0.032 C 
ATOM     15  C   UNL     1      17.345 -11.944  15.839  1.00  0.00    -0.020 C 
ATOM     16  C   UNL     1      16.636 -14.429  16.185  1.00  0.00     0.017 C 
ATOM     17  C   UNL     1      17.672 -10.560  16.567  1.00  0.00     0.006 C 
ATOM     18  C   UNL     1      16.689 -11.662  14.465  1.00  0.00     0.008 C 
ATOM     19  C   UNL     1      18.731 -12.627  15.560  1.00  0.00     0.012 C 
ATOM     20  C   UNL     1      17.563  -9.223  15.686  1.00  0.00    -0.025 C 
ATOM     21  C   UNL     1      17.496 -10.744  13.553  1.00  0.00     0.005 C 
ATOM     22  C   UNL     1      16.099  -8.664  15.616  1.00  0.00     0.010 C 
ATOM     23  C   UNL     1      18.451  -8.153  16.405  1.00  0.00     0.012 C 
ATOM     24  C   UNL     1      18.125  -9.474  14.222  1.00  0.00     0.003 C 
ATOM     25  C   UNL     1      15.717  -8.016  14.266  1.00  0.00     0.033 C 
ATOM     26  C   UNL     1      18.085  -8.184  13.256  1.00  0.00    -0.006 C 
ATOM     27  C   UNL     1      16.876  -7.238  13.623  1.00  0.00     0.120 C 
ATOM     28  C   UNL     1      18.012  -8.573  11.740  1.00  0.00     0.014 C 
ATOM     29  C   UNL     1      19.422  -7.390  13.370  1.00  0.00     0.014 C 
ENDROOT
BRANCH   1  30
ATOM     30  C   UNL     1      14.227 -11.922  19.618  1.00  0.00     0.051 C 
ATOM     31  O   UNL     1      13.893 -10.971  18.862  1.00  0.00    -0.549 OA
ATOM     32  O   UNL     1      14.356 -11.662  20.977  1.00  0.00    -0.549 OA
ENDBRANCH   1  30
BRANCH   4  33
ATOM     33  O   UNL     1      13.707 -14.750  17.190  1.00  0.00    -0.392 OA
ATOM     34  H   UNL     1      14.486 -15.008  16.631  1.00  0.00     0.210 HD
ENDBRANCH   4  33
BRANCH  27  35
ATOM     35  O   UNL     1      16.382  -6.556  12.495  1.00  0.00    -0.393 OA
ATOM     36  H   UNL     1      16.246  -5.610  12.764  1.00  0.00     0.210 HD
ENDBRANCH  27  35
TORSDOF 3
ENDMDL
MODEL 3
REMARK VINA RESULT:    -6.546      2.161      2.770
REMARK INTER + INTRA:          -7.315
REMARK INTER:                  -7.314
REMARK INTRA:                  -0.001
REMARK UNBOUND:                -0.003
REMARK SMILES CC1(C)CC[C@]2(C(=O)[O-])[C@H](O)C[C@]3(C)C(=CC[C@@H]4[C@]5(C)CC[C@H](O)C(C)(C)[C@@H]5CC[C@@]43C)[C@H]2C1
REMARK SMILES IDX 6 1 5 2 33 3 10 4 4 5 34 6 15 7 12 8 2 9 16 10 13 11 1 12
REMARK SMILES IDX 3 13 17 14 31 15 14 16 18 17 30 18 32 19 19 20 29 21 21 22
REMARK SMILES IDX 20 23 28 24 22 25 25 26 23 27 26 28 27 29 7 30 8 31 9 32
REMARK SMILES IDX 11 33 24 35
REMARK H PARENT 11 34 24 36
REMARK Flexibility Score: inf
ROOT
ATOM      1  C   UNL     1      19.126 -11.575  13.082  1.00  0.00     0.042 C 
ATOM      2  C   UNL     1      20.125 -11.413  11.878  1.00  0.00     0.017 C 
ATOM      3  C   UNL     1      17.649 -11.641  12.564  1.00  0.00     0.030 C 
ATOM      4  C   UNL     1      19.403 -12.912  13.871  1.00  0.00     0.127 C 
ATOM      5  C   UNL     1      19.476 -11.599  10.495  1.00  0.00     0.007 C 
ATOM      6  C   UNL     1      17.322 -10.550  11.525  1.00  0.00     0.015 C 
ATOM      7  C   UNL     1      16.712 -11.789  13.756  1.00  0.00    -0.063 C 
ATOM      8  C   UNL     1      18.314 -13.249  14.959  1.00  0.00     0.044 C 
ATOM      9  C   UNL     1      18.240 -10.668  10.255  1.00  0.00    -0.035 C 
ATOM     10  C   UNL     1      16.346 -10.674  14.413  1.00  0.00    -0.027 C 
ATOM     11  C   UNL     1      16.805 -13.120  14.516  1.00  0.00    -0.003 C 
ATOM     12  C   UNL     1      18.729  -9.262   9.841  1.00  0.00     0.011 C 
ATOM     13  C   UNL     1      17.419 -11.252   9.085  1.00  0.00     0.011 C 
ATOM     14  C   UNL     1      16.348 -10.638  15.906  1.00  0.00     0.032 C 
ATOM     15  C   UNL     1      15.736 -13.174  15.753  1.00  0.00    -0.020 C 
ATOM     16  C   UNL     1      16.506 -14.311  13.537  1.00  0.00     0.017 C 
ATOM     17  C   UNL     1      15.505 -11.781  16.501  1.00  0.00     0.006 C 
ATOM     18  C   UNL     1      16.190 -14.241  16.779  1.00  0.00     0.008 C 
ATOM     19  C   UNL     1      14.330 -13.617  15.213  1.00  0.00     0.012 C 
ATOM     20  C   UNL     1      15.479 -11.804  18.106  1.00  0.00    -0.025 C 
ATOM     21  C   UNL     1      15.256 -14.413  17.972  1.00  0.00     0.005 C 
ATOM     22  C   UNL     1      16.914 -11.729  18.734  1.00  0.00     0.010 C 
ATOM     23  C   UNL     1      14.693 -10.525  18.548  1.00  0.00     0.012 C 
ATOM     24  C   UNL     1      14.717 -13.096  18.631  1.00  0.00     0.003 C 
ATOM     25  C   UNL     1      17.097 -12.547  20.032  1.00  0.00     0.033 C 
ATOM     26  C   UNL     1      14.611 -13.208  20.236  1.00  0.00    -0.006 C 
ATOM     27  C   UNL     1      15.853 -12.528  20.935  1.00  0.00     0.120 C 
ATOM     28  C   UNL     1      14.473 -14.690  20.725  1.00  0.00     0.014 C 
ATOM     29  C   UNL     1      13.298 -12.530  20.732  1.00  0.00     0.014 C 
ENDROOT
BRANCH   1  30
ATOM     30  C   UNL     1      19.356 -10.371  14.009  1.00  0.00     0.051 C 
ATOM     31  O   UNL     1      19.791 -10.520  15.182  1.00  0.00    -0.549 OA
ATOM     32  O   UNL     1      19.172  -9.075  13.542  1.00  0.00    -0.549 OA
ENDBRANCH   1  30
BRANCH   4  33
ATOM     33  O   UNL     1      19.549 -13.983  12.972  1.00  0.00    -0.392 OA
ATOM     34  H   UNL     1      20.492 -13.977  12.660  1.00  0.00     0.210 HD
ENDBRANCH   4  33
BRANCH  27  35
ATOM     35  O   UNL     1      16.178 -13.156  22.152  1.00  0.00    -0.393 OA
ATOM     36  H   UNL     1      15.467 -12.915  22.802  1.00  0.00     0.210 HD
ENDBRANCH  27  35
TORSDOF 3
ENDMDL
MODEL 4
REMARK VINA RESULT:    -6.136      1.726      2.655
REMARK INTER + INTRA:          -6.856
REMARK INTER:                  -6.853
REMARK INTRA:                  -0.003
REMARK UNBOUND:                -0.003
REMARK SMILES CC1(C)CC[C@]2(C(=O)[O-])[C@H](O)C[C@]3(C)C(=CC[C@@H]4[C@]5(C)CC[C@H](O)C(C)(C)[C@@H]5CC[C@@]43C)[C@H]2C1
REMARK SMILES IDX 6 1 5 2 33 3 10 4 4 5 34 6 15 7 12 8 2 9 16 10 13 11 1 12
REMARK SMILES IDX 3 13 17 14 31 15 14 16 18 17 30 18 32 19 19 20 29 21 21 22
REMARK SMILES IDX 20 23 28 24 22 25 25 26 23 27 26 28 27 29 7 30 8 31 9 32
REMARK SMILES IDX 11 33 24 35
REMARK H PARENT 11 34 24 36
REMARK Flexibility Score: inf
ROOT
ATOM      1  C   UNL     1      18.048  -7.762  14.065  1.00  0.00     0.042 C 
ATOM      2  C   UNL     1      18.557  -6.623  13.107  1.00  0.00     0.017 C 
ATOM      3  C   UNL     1      18.398  -9.171  13.476  1.00  0.00     0.030 C 
ATOM      4  C   UNL     1      18.738  -7.663  15.479  1.00  0.00     0.127 C 
ATOM      5  C   UNL     1      19.472  -7.119  11.973  1.00  0.00     0.007 C 
ATOM      6  C   UNL     1      18.050  -9.305  11.980  1.00  0.00     0.015 C 
ATOM      7  C   UNL     1      17.882 -10.246  14.424  1.00  0.00    -0.063 C 
ATOM      8  C   UNL     1      18.439  -8.890  16.423  1.00  0.00     0.044 C 
ATOM      9  C   UNL     1      18.832  -8.257  11.109  1.00  0.00    -0.035 C 
ATOM     10  C   UNL     1      16.592 -10.612  14.319  1.00  0.00    -0.027 C 
ATOM     11  C   UNL     1      18.585 -10.326  15.786  1.00  0.00    -0.003 C 
ATOM     12  C   UNL     1      17.873  -7.635  10.069  1.00  0.00     0.011 C 
ATOM     13  C   UNL     1      19.966  -8.974  10.343  1.00  0.00     0.011 C 
ATOM     14  C   UNL     1      15.750 -10.780  15.541  1.00  0.00     0.032 C 
ATOM     15  C   UNL     1      17.966 -11.531  16.704  1.00  0.00    -0.020 C 
ATOM     16  C   UNL     1      20.119 -10.586  15.577  1.00  0.00     0.017 C 
ATOM     17  C   UNL     1      16.393 -11.757  16.543  1.00  0.00     0.006 C 
ATOM     18  C   UNL     1      18.300 -11.267  18.193  1.00  0.00     0.008 C 
ATOM     19  C   UNL     1      18.645 -12.891  16.310  1.00  0.00     0.012 C 
ATOM     20  C   UNL     1      15.540 -11.969  17.886  1.00  0.00    -0.025 C 
ATOM     21  C   UNL     1      17.803 -12.341  19.155  1.00  0.00     0.005 C 
ATOM     22  C   UNL     1      15.122 -10.613  18.556  1.00  0.00     0.010 C 
ATOM     23  C   UNL     1      14.233 -12.717  17.460  1.00  0.00     0.012 C 
ATOM     24  C   UNL     1      16.345 -12.867  18.921  1.00  0.00     0.003 C 
ATOM     25  C   UNL     1      15.101 -10.634  20.100  1.00  0.00     0.033 C 
ATOM     26  C   UNL     1      15.567 -13.163  20.301  1.00  0.00    -0.006 C 
ATOM     27  C   UNL     1      14.606 -11.970  20.678  1.00  0.00     0.120 C 
ATOM     28  C   UNL     1      16.546 -13.451  21.490  1.00  0.00     0.014 C 
ATOM     29  C   UNL     1      14.740 -14.479  20.175  1.00  0.00     0.014 C 
ENDROOT
BRANCH   1  30
ATOM     30  C   UNL     1      16.531  -7.563  14.215  1.00  0.00     0.051 C 
ATOM     31  O   UNL     1      16.010  -7.318  15.336  1.00  0.00    -0.549 OA
ATOM     32  O   UNL     1      15.705  -7.562  13.097  1.00  0.00    -0.549 OA
ENDBRANCH   1  30
BRANCH   4  33
ATOM     33  O   UNL     1      20.124  -7.483  15.329  1.00  0.00    -0.392 OA
ATOM     34  H   UNL     1      20.449  -7.014  16.141  1.00  0.00     0.210 HD
ENDBRANCH   4  33
BRANCH  27  35
ATOM     35  O   UNL     1      14.467 -11.827  22.072  1.00  0.00    -0.393 OA
ATOM     36  H   UNL     1      13.950 -10.995  22.229  1.00  0.00     0.210 HD
ENDBRANCH  27  35
TORSDOF 3
ENDMDL
MODEL 5
REMARK VINA RESULT:    -4.982      2.187      8.209
REMARK INTER + INTRA:          -5.568
REMARK INTER:                  -5.681
REMARK INTRA:                   0.113
REMARK UNBOUND:                -0.003
REMARK SMILES CC1(C)CC[C@]2(C(=O)[O-])[C@H](O)C[C@]3(C)C(=CC[C@@H]4[C@]5(C)CC[C@H](O)C(C)(C)[C@@H]5CC[C@@]43C)[C@H]2C1
REMARK SMILES IDX 6 1 5 2 33 3 10 4 4 5 34 6 15 7 12 8 2 9 16 10 13 11 1 12
REMARK SMILES IDX 3 13 17 14 31 15 14 16 18 17 30 18 32 19 19 20 29 21 21 22
REMARK SMILES IDX 20 23 28 24 22 25 25 26 23 27 26 28 27 29 7 30 8 31 9 32
REMARK SMILES IDX 11 33 24 35
REMARK H PARENT 11 34 24 36
REMARK Flexibility Score: inf
ROOT
ATOM      1  C   UNL     1      16.781 -12.048  17.216  1.00  0.00     0.042 C 
ATOM      2  C   UNL     1      16.631 -13.259  18.209  1.00  0.00     0.017 C 
ATOM      3  C   UNL     1      16.375 -10.709  17.918  1.00  0.00     0.030 C 
ATOM      4  C   UNL     1      18.275 -11.890  16.738  1.00  0.00     0.127 C 
ATOM      5  C   UNL     1      16.370 -12.844  19.668  1.00  0.00     0.007 C 
ATOM      6  C   UNL     1      15.051 -10.812  18.702  1.00  0.00     0.015 C 
ATOM      7  C   UNL     1      16.524  -9.563  16.925  1.00  0.00    -0.063 C 
ATOM      8  C   UNL     1      18.545 -10.577  15.909  1.00  0.00     0.044 C 
ATOM      9  C   UNL     1      15.134 -11.897  19.835  1.00  0.00    -0.035 C 
ATOM     10  C   UNL     1      15.509  -9.331  16.075  1.00  0.00    -0.027 C 
ATOM     11  C   UNL     1      17.962  -9.235  16.498  1.00  0.00    -0.003 C 
ATOM     12  C   UNL     1      13.838 -12.739  19.838  1.00  0.00     0.011 C 
ATOM     13  C   UNL     1      15.249 -11.194  21.206  1.00  0.00     0.011 C 
ATOM     14  C   UNL     1      15.775  -9.072  14.628  1.00  0.00     0.032 C 
ATOM     15  C   UNL     1      17.998  -7.974  15.455  1.00  0.00    -0.020 C 
ATOM     16  C   UNL     1      18.820  -8.871  17.761  1.00  0.00     0.017 C 
ATOM     17  C   UNL     1      16.771  -7.913  14.434  1.00  0.00     0.006 C 
ATOM     18  C   UNL     1      19.328  -8.001  14.663  1.00  0.00     0.008 C 
ATOM     19  C   UNL     1      17.963  -6.627  16.260  1.00  0.00     0.012 C 
ATOM     20  C   UNL     1      17.109  -7.595  12.897  1.00  0.00    -0.025 C 
ATOM     21  C   UNL     1      19.500  -6.852  13.674  1.00  0.00     0.005 C 
ATOM     22  C   UNL     1      17.518  -8.878  12.091  1.00  0.00     0.010 C 
ATOM     23  C   UNL     1      15.792  -7.032  12.268  1.00  0.00     0.012 C 
ATOM     24  C   UNL     1      18.252  -6.496  12.795  1.00  0.00     0.003 C 
ATOM     25  C   UNL     1      18.600  -8.647  11.012  1.00  0.00     0.033 C 
ATOM     26  C   UNL     1      18.655  -6.082  11.290  1.00  0.00    -0.006 C 
ATOM     27  C   UNL     1      18.458  -7.293  10.297  1.00  0.00     0.120 C 
ATOM     28  C   UNL     1      20.124  -5.548  11.189  1.00  0.00     0.014 C 
ATOM     29  C   UNL     1      17.788  -4.875  10.819  1.00  0.00     0.014 C 
ENDROOT
BRANCH   1  30
ATOM     30  C   UNL     1      15.883 -12.358  16.008  1.00  0.00     0.051 C 
ATOM     31  O   UNL     1      16.330 -12.318  14.831  1.00  0.00    -0.549 OA
ATOM     32  O   UNL     1      14.571 -12.779  16.193  1.00  0.00    -0.549 OA
ENDBRANCH   1  30
BRANCH   4  33
ATOM     33  O   UNL     1      19.146 -11.965  17.840  1.00  0.00    -0.392 OA
ATOM     34  H   UNL     1      18.749 -11.416  18.565  1.00  0.00     0.210 HD
ENDBRANCH   4  33
BRANCH  27  35
ATOM     35  O   UNL     1      19.378  -7.254   9.232  1.00  0.00    -0.393 OA
ATOM     36  H   UNL     1      18.849  -7.200   8.393  1.00  0.00     0.210 HD
ENDBRANCH  27  35
TORSDOF 3
ENDMDL
MODEL 6
REMARK VINA RESULT:    -4.024      2.552      8.145
REMARK INTER + INTRA:          -4.497
REMARK INTER:                  -4.541
REMARK INTRA:                   0.044
REMARK UNBOUND:                -0.003
REMARK SMILES CC1(C)CC[C@]2(C(=O)[O-])[C@H](O)C[C@]3(C)C(=CC[C@@H]4[C@]5(C)CC[C@H](O)C(C)(C)[C@@H]5CC[C@@]43C)[C@H]2C1
REMARK SMILES IDX 6 1 5 2 33 3 10 4 4 5 34 6 15 7 12 8 2 9 16 10 13 11 1 12
REMARK SMILES IDX 3 13 17 14 31 15 14 16 18 17 30 18 32 19 19 20 29 21 21 22
REMARK SMILES IDX 20 23 28 24 22 25 25 26 23 27 26 28 27 29 7 30 8 31 9 32
REMARK SMILES IDX 11 33 24 35
REMARK H PARENT 11 34 24 36
REMARK Flexibility Score: inf
ROOT
ATOM      1  C   UNL     1      15.396 -14.097  19.275  1.00  0.00     0.042 C 
ATOM      2  C   UNL     1      15.233 -15.605  19.694  1.00  0.00     0.017 C 
ATOM      3  C   UNL     1      13.994 -13.425  19.086  1.00  0.00     0.030 C 
ATOM      4  C   UNL     1      16.157 -13.280  20.389  1.00  0.00     0.127 C 
ATOM      5  C   UNL     1      13.790 -16.003  20.054  1.00  0.00     0.007 C 
ATOM      6  C   UNL     1      13.019 -14.282  18.252  1.00  0.00     0.015 C 
ATOM      7  C   UNL     1      14.192 -11.972  18.674  1.00  0.00    -0.063 C 
ATOM      8  C   UNL     1      16.175 -11.724  20.140  1.00  0.00     0.044 C 
ATOM      9  C   UNL     1      12.753 -15.675  18.927  1.00  0.00    -0.035 C 
ATOM     10  C   UNL     1      14.404 -11.710  17.372  1.00  0.00    -0.027 C 
ATOM     11  C   UNL     1      14.804 -11.054  19.741  1.00  0.00    -0.003 C 
ATOM     12  C   UNL     1      12.795 -16.784  17.852  1.00  0.00     0.011 C 
ATOM     13  C   UNL     1      11.343 -15.675  19.558  1.00  0.00     0.011 C 
ATOM     14  C   UNL     1      15.473 -10.754  16.955  1.00  0.00     0.032 C 
ATOM     15  C   UNL     1      14.942  -9.518  19.196  1.00  0.00    -0.020 C 
ATOM     16  C   UNL     1      13.897 -11.056  21.024  1.00  0.00     0.017 C 
ATOM     17  C   UNL     1      15.313  -9.387  17.647  1.00  0.00     0.006 C 
ATOM     18  C   UNL     1      15.996  -8.764  20.044  1.00  0.00     0.008 C 
ATOM     19  C   UNL     1      13.574  -8.770  19.381  1.00  0.00     0.012 C 
ATOM     20  C   UNL     1      16.442  -8.319  17.249  1.00  0.00    -0.025 C 
ATOM     21  C   UNL     1      16.197  -7.303  19.654  1.00  0.00     0.005 C 
ATOM     22  C   UNL     1      17.895  -8.895  17.391  1.00  0.00     0.010 C 
ATOM     23  C   UNL     1      16.207  -7.976  15.741  1.00  0.00     0.012 C 
ATOM     24  C   UNL     1      16.289  -6.998  18.119  1.00  0.00     0.003 C 
ATOM     25  C   UNL     1      18.952  -7.874  17.866  1.00  0.00     0.033 C 
ATOM     26  C   UNL     1      17.363  -5.844  17.783  1.00  0.00    -0.006 C 
ATOM     27  C   UNL     1      18.729  -6.465  17.294  1.00  0.00     0.120 C 
ATOM     28  C   UNL     1      17.620  -4.892  19.001  1.00  0.00     0.014 C 
ATOM     29  C   UNL     1      16.799  -4.894  16.683  1.00  0.00     0.014 C 
ENDROOT
BRANCH   1  30
ATOM     30  C   UNL     1      16.217 -14.088  17.977  1.00  0.00     0.051 C 
ATOM     31  O   UNL     1      17.293 -13.438  17.885  1.00  0.00    -0.549 OA
ATOM     32  O   UNL     1      15.836 -14.874  16.895  1.00  0.00    -0.549 OA
ENDBRANCH   1  30
BRANCH   4  33
ATOM     33  O   UNL     1      15.618 -13.571  21.655  1.00  0.00    -0.392 OA
ATOM     34  H   UNL     1      14.643 -13.708  21.535  1.00  0.00     0.210 HD
ENDBRANCH   4  33
BRANCH  27  35
ATOM     35  O   UNL     1      19.829  -5.661  17.650  1.00  0.00    -0.393 OA
ATOM     36  H   UNL     1      20.223  -6.055  18.471  1.00  0.00     0.210 HD
ENDBRANCH  27  35
TORSDOF 3
ENDMDL
