MODEL 1
REMARK VINA RESULT:    -4.590      0.000      0.000
REMARK INTER + INTRA:         -10.040
REMARK INTER:                  -8.884
REMARK INTRA:                  -1.156
REMARK UNBOUND:                -1.156
REMARK SMILES CCCCCCCCCCCCCCCCCC(=O)[O-]
REMARK SMILES IDX 10 1 11 2 12 3 13 4 14 5 15 6 16 7 17 8 18 9 19 10 20 11
REMARK SMILES IDX 9 12 8 13 7 14 6 15 5 16 4 17 3 18 2 19 1 20
REMARK H PARENT
REMARK Flexibility Score: inf
ROOT
ATOM      1  C   UNL     1       8.392 -12.930 -23.875  1.00  0.00     0.000 C 
ENDROOT
BRANCH   1   2
ATOM      2  C   UNL     1       9.348 -13.794 -24.713  1.00  0.00     0.000 C 
BRANCH   2   3
ATOM      3  C   UNL     1       9.090 -15.300 -24.535  1.00  0.00     0.000 C 
BRANCH   3   4
ATOM      4  C   UNL     1      10.306 -16.162 -24.921  1.00  0.00     0.000 C 
BRANCH   4   5
ATOM      5  C   UNL     1      10.762 -17.160 -23.838  1.00  0.00     0.000 C 
BRANCH   5   6
ATOM      6  C   UNL     1      10.117 -16.963 -22.452  1.00  0.00     0.000 C 
BRANCH   6   7
ATOM      7  C   UNL     1      10.977 -16.185 -21.437  1.00  0.00     0.006 C 
BRANCH   7   8
ATOM      8  C   UNL     1      10.345 -14.874 -20.944  1.00  0.00     0.053 C 
BRANCH   8   9
ATOM      9  C   UNL     1      10.753 -14.547 -19.540  1.00  0.00     0.041 C 
ATOM     10  O   UNL     1      11.098 -15.466 -18.751  1.00  0.00    -0.550 OA
ATOM     11  O   UNL     1      10.719 -13.233 -19.094  1.00  0.00    -0.550 OA
ENDBRANCH   8   9
ENDBRANCH   7   8
ENDBRANCH   6   7
ENDBRANCH   5   6
ENDBRANCH   4   5
ENDBRANCH   3   4
ENDBRANCH   2   3
ENDBRANCH   1   2
BRANCH   1  12
ATOM     12  C   UNL     1       8.301 -11.484 -24.390  1.00  0.00     0.000 C 
BRANCH  12  13
ATOM     13  C   UNL     1       9.564 -11.046 -25.149  1.00  0.00    -0.000 C 
BRANCH  13  14
ATOM     14  C   UNL     1      10.071  -9.666 -24.706  1.00  0.00    -0.000 C 
BRANCH  14  15
ATOM     15  C   UNL     1       8.909  -8.681 -24.536  1.00  0.00    -0.000 C 
BRANCH  15  16
ATOM     16  C   UNL     1       8.365  -8.231 -25.901  1.00  0.00    -0.000 C 
BRANCH  16  17
ATOM     17  C   UNL     1       9.304  -7.248 -26.618  1.00  0.00    -0.000 C 
BRANCH  17  18
ATOM     18  C   UNL     1       8.670  -6.635 -27.876  1.00  0.00    -0.000 C 
BRANCH  18  19
ATOM     19  C   UNL     1       8.716  -7.621 -29.049  1.00  0.00    -0.003 C 
ATOM     20  C   UNL     1       8.968  -6.898 -30.369  1.00  0.00     0.004 C 
ENDBRANCH  18  19
ENDBRANCH  17  18
ENDBRANCH  16  17
ENDBRANCH  15  16
ENDBRANCH  14  15
ENDBRANCH  13  14
ENDBRANCH  12  13
ENDBRANCH   1  12
TORSDOF 16
ENDMDL
MODEL 2
REMARK VINA RESULT:    -4.585      4.472      7.498
REMARK INTER + INTRA:         -10.029
REMARK INTER:                  -7.618
REMARK INTRA:                  -2.412
REMARK UNBOUND:                -1.156
REMARK SMILES CCCCCCCCCCCCCCCCCC(=O)[O-]
REMARK SMILES IDX 10 1 11 2 12 3 13 4 14 5 15 6 16 7 17 8 18 9 19 10 20 11
REMARK SMILES IDX 9 12 8 13 7 14 6 15 5 16 4 17 3 18 2 19 1 20
REMARK H PARENT
REMARK Flexibility Score: inf
ROOT
ATOM      1  C   UNL     1      11.085 -18.075 -22.873  1.00  0.00     0.000 C 
ENDROOT
BRANCH   1   2
ATOM      2  C   UNL     1       9.563 -17.906 -22.737  1.00  0.00     0.000 C 
BRANCH   2   3
ATOM      3  C   UNL     1       8.999 -16.856 -23.708  1.00  0.00     0.000 C 
BRANCH   3   4
ATOM      4  C   UNL     1      10.076 -15.888 -24.231  1.00  0.00     0.000 C 
BRANCH   4   5
ATOM      5  C   UNL     1       9.633 -14.414 -24.323  1.00  0.00     0.000 C 
BRANCH   5   6
ATOM      6  C   UNL     1      10.197 -13.491 -23.224  1.00  0.00     0.000 C 
BRANCH   6   7
ATOM      7  C   UNL     1      10.833 -14.219 -22.023  1.00  0.00     0.006 C 
BRANCH   7   8
ATOM      8  C   UNL     1       9.892 -14.407 -20.824  1.00  0.00     0.053 C 
BRANCH   8   9
ATOM      9  C   UNL     1      10.607 -14.243 -19.518  1.00  0.00     0.041 C 
ATOM     10  O   UNL     1      10.818 -13.093 -19.052  1.00  0.00    -0.550 OA
ATOM     11  O   UNL     1      11.071 -15.360 -18.834  1.00  0.00    -0.550 OA
ENDBRANCH   8   9
ENDBRANCH   7   8
ENDBRANCH   6   7
ENDBRANCH   5   6
ENDBRANCH   4   5
ENDBRANCH   3   4
ENDBRANCH   2   3
ENDBRANCH   1   2
BRANCH   1  12
ATOM     12  C   UNL     1      11.468 -19.332 -23.673  1.00  0.00     0.000 C 
BRANCH  12  13
ATOM     13  C   UNL     1      10.298 -20.316 -23.825  1.00  0.00    -0.000 C 
BRANCH  13  14
ATOM     14  C   UNL     1      10.148 -20.840 -25.261  1.00  0.00    -0.000 C 
BRANCH  14  15
ATOM     15  C   UNL     1      10.832 -19.902 -26.262  1.00  0.00    -0.000 C 
BRANCH  15  16
ATOM     16  C   UNL     1       9.851 -18.841 -26.781  1.00  0.00    -0.000 C 
BRANCH  16  17
ATOM     17  C   UNL     1      10.560 -17.652 -27.448  1.00  0.00    -0.000 C 
BRANCH  17  18
ATOM     18  C   UNL     1      11.960 -17.397 -26.869  1.00  0.00    -0.000 C 
BRANCH  18  19
ATOM     19  C   UNL     1      13.009 -17.322 -27.985  1.00  0.00    -0.003 C 
ATOM     20  C   UNL     1      12.619 -18.203 -29.169  1.00  0.00     0.004 C 
ENDBRANCH  18  19
ENDBRANCH  17  18
ENDBRANCH  16  17
ENDBRANCH  15  16
ENDBRANCH  14  15
ENDBRANCH  13  14
ENDBRANCH  12  13
ENDBRANCH   1  12
TORSDOF 16
ENDMDL
MODEL 3
REMARK VINA RESULT:    -4.579      4.375      7.945
REMARK INTER + INTRA:         -10.019
REMARK INTER:                  -7.050
REMARK INTRA:                  -2.969
REMARK UNBOUND:                -1.156
REMARK SMILES CCCCCCCCCCCCCCCCCC(=O)[O-]
REMARK SMILES IDX 10 1 11 2 12 3 13 4 14 5 15 6 16 7 17 8 18 9 19 10 20 11
REMARK SMILES IDX 9 12 8 13 7 14 6 15 5 16 4 17 3 18 2 19 1 20
REMARK H PARENT
REMARK Flexibility Score: inf
ROOT
ATOM      1  C   UNL     1      11.274 -17.034 -24.981  1.00  0.00     0.000 C 
ENDROOT
BRANCH   1   2
ATOM      2  C   UNL     1      10.154 -16.207 -25.632  1.00  0.00     0.000 C 
BRANCH   2   3
ATOM      3  C   UNL     1       8.798 -16.397 -24.931  1.00  0.00     0.000 C 
BRANCH   3   4
ATOM      4  C   UNL     1       8.314 -15.123 -24.215  1.00  0.00     0.000 C 
BRANCH   4   5
ATOM      5  C   UNL     1       9.344 -13.977 -24.165  1.00  0.00     0.000 C 
BRANCH   5   6
ATOM      6  C   UNL     1       9.955 -13.705 -22.775  1.00  0.00     0.000 C 
BRANCH   6   7
ATOM      7  C   UNL     1       9.528 -14.693 -21.671  1.00  0.00     0.006 C 
BRANCH   7   8
ATOM      8  C   UNL     1      10.697 -15.353 -20.925  1.00  0.00     0.053 C 
BRANCH   8   9
ATOM      9  C   UNL     1      10.894 -14.766 -19.560  1.00  0.00     0.041 C 
ATOM     10  O   UNL     1      11.268 -15.497 -18.605  1.00  0.00    -0.550 OA
ATOM     11  O   UNL     1      10.631 -13.421 -19.337  1.00  0.00    -0.550 OA
ENDBRANCH   8   9
ENDBRANCH   7   8
ENDBRANCH   6   7
ENDBRANCH   5   6
ENDBRANCH   4   5
ENDBRANCH   3   4
ENDBRANCH   2   3
ENDBRANCH   1   2
BRANCH   1  12
ATOM     12  C   UNL     1      10.818 -17.724 -23.684  1.00  0.00     0.000 C 
BRANCH  12  13
ATOM     13  C   UNL     1      11.508 -19.080 -23.462  1.00  0.00    -0.000 C 
BRANCH  13  14
ATOM     14  C   UNL     1      10.548 -20.266 -23.631  1.00  0.00    -0.000 C 
BRANCH  14  15
ATOM     15  C   UNL     1       9.120 -19.879 -23.230  1.00  0.00    -0.000 C 
BRANCH  15  16
ATOM     16  C   UNL     1       8.133 -20.155 -24.374  1.00  0.00    -0.000 C 
BRANCH  16  17
ATOM     17  C   UNL     1       8.831 -20.624 -25.660  1.00  0.00    -0.000 C 
BRANCH  17  18
ATOM     18  C   UNL     1       8.665 -19.630 -26.820  1.00  0.00    -0.000 C 
BRANCH  18  19
ATOM     19  C   UNL     1      10.006 -19.375 -27.518  1.00  0.00    -0.003 C 
ATOM     20  C   UNL     1      10.982 -20.523 -27.275  1.00  0.00     0.004 C 
ENDBRANCH  18  19
ENDBRANCH  17  18
ENDBRANCH  16  17
ENDBRANCH  15  16
ENDBRANCH  14  15
ENDBRANCH  13  14
ENDBRANCH  12  13
ENDBRANCH   1  12
TORSDOF 16
ENDMDL
MODEL 4
REMARK VINA RESULT:    -4.511      1.264      2.742
REMARK INTER + INTRA:          -9.886
REMARK INTER:                  -9.312
REMARK INTRA:                  -0.574
REMARK UNBOUND:                -1.156
REMARK SMILES CCCCCCCCCCCCCCCCCC(=O)[O-]
REMARK SMILES IDX 10 1 11 2 12 3 13 4 14 5 15 6 16 7 17 8 18 9 19 10 20 11
REMARK SMILES IDX 9 12 8 13 7 14 6 15 5 16 4 17 3 18 2 19 1 20
REMARK H PARENT
REMARK Flexibility Score: inf
ROOT
ATOM      1  C   UNL     1       9.569 -10.668 -25.418  1.00  0.00     0.000 C 
ENDROOT
BRANCH   1   2
ATOM      2  C   UNL     1       9.933 -11.714 -24.353  1.00  0.00     0.000 C 
BRANCH   2   3
ATOM      3  C   UNL     1       8.854 -12.801 -24.202  1.00  0.00     0.000 C 
BRANCH   3   4
ATOM      4  C   UNL     1       9.298 -14.162 -24.769  1.00  0.00     0.000 C 
BRANCH   4   5
ATOM      5  C   UNL     1       9.606 -15.236 -23.706  1.00  0.00     0.000 C 
BRANCH   5   6
ATOM      6  C   UNL     1      10.729 -14.873 -22.713  1.00  0.00     0.000 C 
BRANCH   6   7
ATOM      7  C   UNL     1      10.609 -15.532 -21.325  1.00  0.00     0.006 C 
BRANCH   7   8
ATOM      8  C   UNL     1       9.680 -14.793 -20.350  1.00  0.00     0.053 C 
BRANCH   8   9
ATOM      9  C   UNL     1      10.137 -13.390 -20.094  1.00  0.00     0.041 C 
ATOM     10  O   UNL     1       9.907 -12.485 -20.939  1.00  0.00    -0.550 OA
ATOM     11  O   UNL     1      10.846 -13.089 -18.939  1.00  0.00    -0.550 OA
ENDBRANCH   8   9
ENDBRANCH   7   8
ENDBRANCH   6   7
ENDBRANCH   5   6
ENDBRANCH   4   5
ENDBRANCH   3   4
ENDBRANCH   2   3
ENDBRANCH   1   2
BRANCH   1  12
ATOM     12  C   UNL     1       9.369  -9.264 -24.820  1.00  0.00     0.000 C 
BRANCH  12  13
ATOM     13  C   UNL     1       8.580  -8.332 -25.753  1.00  0.00    -0.000 C 
BRANCH  13  14
ATOM     14  C   UNL     1       9.479  -7.310 -26.465  1.00  0.00    -0.000 C 
BRANCH  14  15
ATOM     15  C   UNL     1       8.687  -6.517 -27.511  1.00  0.00    -0.000 C 
BRANCH  15  16
ATOM     16  C   UNL     1       8.643  -7.264 -28.852  1.00  0.00    -0.000 C 
BRANCH  16  17
ATOM     17  C   UNL     1       8.277  -6.348 -30.031  1.00  0.00    -0.000 C 
BRANCH  17  18
ATOM     18  C   UNL     1       9.129  -6.619 -31.279  1.00  0.00    -0.000 C 
BRANCH  18  19
ATOM     19  C   UNL     1       8.999  -5.474 -32.290  1.00  0.00    -0.003 C 
ATOM     20  C   UNL     1       8.244  -4.291 -31.690  1.00  0.00     0.004 C 
ENDBRANCH  18  19
ENDBRANCH  17  18
ENDBRANCH  16  17
ENDBRANCH  15  16
ENDBRANCH  14  15
ENDBRANCH  13  14
ENDBRANCH  12  13
ENDBRANCH   1  12
TORSDOF 16
ENDMDL
MODEL 5
REMARK VINA RESULT:    -4.463      4.231      7.187
REMARK INTER + INTRA:          -9.793
REMARK INTER:                  -7.712
REMARK INTRA:                  -2.082
REMARK UNBOUND:                -1.156
REMARK SMILES CCCCCCCCCCCCCCCCCC(=O)[O-]
REMARK SMILES IDX 10 1 11 2 12 3 13 4 14 5 15 6 16 7 17 8 18 9 19 10 20 11
REMARK SMILES IDX 9 12 8 13 7 14 6 15 5 16 4 17 3 18 2 19 1 20
REMARK H PARENT
REMARK Flexibility Score: inf
ROOT
ATOM      1  C   UNL     1      10.583 -17.695 -24.195  1.00  0.00     0.000 C 
ENDROOT
BRANCH   1   2
ATOM      2  C   UNL     1       9.148 -17.433 -24.679  1.00  0.00     0.000 C 
BRANCH   2   3
ATOM      3  C   UNL     1       8.905 -15.955 -25.030  1.00  0.00     0.000 C 
BRANCH   3   4
ATOM      4  C   UNL     1      10.118 -15.061 -24.712  1.00  0.00     0.000 C 
BRANCH   4   5
ATOM      5  C   UNL     1       9.766 -13.650 -24.202  1.00  0.00     0.000 C 
BRANCH   5   6
ATOM      6  C   UNL     1      10.338 -13.292 -22.815  1.00  0.00     0.000 C 
BRANCH   6   7
ATOM      7  C   UNL     1      11.052 -14.449 -22.087  1.00  0.00     0.006 C 
BRANCH   7   8
ATOM      8  C   UNL     1      10.244 -15.070 -20.938  1.00  0.00     0.053 C 
BRANCH   8   9
ATOM      9  C   UNL     1      10.744 -14.628 -19.597  1.00  0.00     0.041 C 
ATOM     10  O   UNL     1      11.128 -15.480 -18.753  1.00  0.00    -0.550 OA
ATOM     11  O   UNL     1      10.752 -13.279 -19.268  1.00  0.00    -0.550 OA
ENDBRANCH   8   9
ENDBRANCH   7   8
ENDBRANCH   6   7
ENDBRANCH   5   6
ENDBRANCH   4   5
ENDBRANCH   3   4
ENDBRANCH   2   3
ENDBRANCH   1   2
BRANCH   1  12
ATOM     12  C   UNL     1      11.031 -19.147 -24.440  1.00  0.00     0.000 C 
BRANCH  12  13
ATOM     13  C   UNL     1      10.342 -19.780 -25.660  1.00  0.00    -0.000 C 
BRANCH  13  14
ATOM     14  C   UNL     1      11.186 -19.667 -26.939  1.00  0.00    -0.000 C 
BRANCH  14  15
ATOM     15  C   UNL     1      10.521 -18.731 -27.954  1.00  0.00    -0.000 C 
BRANCH  15  16
ATOM     16  C   UNL     1      11.139 -17.326 -27.894  1.00  0.00    -0.000 C 
BRANCH  16  17
ATOM     17  C   UNL     1      12.599 -17.339 -27.415  1.00  0.00    -0.000 C 
BRANCH  17  18
ATOM     18  C   UNL     1      13.603 -17.437 -28.574  1.00  0.00    -0.000 C 
BRANCH  18  19
ATOM     19  C   UNL     1      14.455 -16.166 -28.669  1.00  0.00    -0.003 C 
ATOM     20  C   UNL     1      15.677 -16.252 -27.760  1.00  0.00     0.004 C 
ENDBRANCH  18  19
ENDBRANCH  17  18
ENDBRANCH  16  17
ENDBRANCH  15  16
ENDBRANCH  14  15
ENDBRANCH  13  14
ENDBRANCH  12  13
ENDBRANCH   1  12
TORSDOF 16
ENDMDL
MODEL 6
REMARK VINA RESULT:    -4.336      1.049      2.009
REMARK INTER + INTRA:          -9.549
REMARK INTER:                  -8.164
REMARK INTRA:                  -1.385
REMARK UNBOUND:                -1.156
REMARK SMILES CCCCCCCCCCCCCCCCCC(=O)[O-]
REMARK SMILES IDX 10 1 11 2 12 3 13 4 14 5 15 6 16 7 17 8 18 9 19 10 20 11
REMARK SMILES IDX 9 12 8 13 7 14 6 15 5 16 4 17 3 18 2 19 1 20
REMARK H PARENT
REMARK Flexibility Score: inf
ROOT
ATOM      1  C   UNL     1       9.608 -14.735 -25.004  1.00  0.00     0.000 C 
ENDROOT
BRANCH   1   2
ATOM      2  C   UNL     1       8.286 -15.332 -25.513  1.00  0.00     0.000 C 
BRANCH   2   3
ATOM      3  C   UNL     1       7.898 -16.623 -24.772  1.00  0.00     0.000 C 
BRANCH   3   4
ATOM      4  C   UNL     1       9.099 -17.297 -24.084  1.00  0.00     0.000 C 
BRANCH   4   5
ATOM      5  C   UNL     1       9.133 -17.149 -22.549  1.00  0.00     0.000 C 
BRANCH   5   6
ATOM      6  C   UNL     1      10.531 -16.909 -21.945  1.00  0.00     0.000 C 
BRANCH   6   7
ATOM      7  C   UNL     1      10.568 -15.922 -20.761  1.00  0.00     0.006 C 
BRANCH   7   8
ATOM      8  C   UNL     1       9.612 -14.728 -20.900  1.00  0.00     0.053 C 
BRANCH   8   9
ATOM      9  C   UNL     1      10.150 -13.498 -20.236  1.00  0.00     0.041 C 
ATOM     10  O   UNL     1      10.007 -12.371 -20.779  1.00  0.00    -0.550 OA
ATOM     11  O   UNL     1      10.838 -13.601 -19.034  1.00  0.00    -0.550 OA
ENDBRANCH   8   9
ENDBRANCH   7   8
ENDBRANCH   6   7
ENDBRANCH   5   6
ENDBRANCH   4   5
ENDBRANCH   3   4
ENDBRANCH   2   3
ENDBRANCH   1   2
BRANCH   1  12
ATOM     12  C   UNL     1       9.405 -13.407 -24.255  1.00  0.00     0.000 C 
BRANCH  12  13
ATOM     13  C   UNL     1       8.055 -12.746 -24.578  1.00  0.00    -0.000 C 
BRANCH  13  14
ATOM     14  C   UNL     1       8.165 -11.222 -24.732  1.00  0.00    -0.000 C 
BRANCH  14  15
ATOM     15  C   UNL     1       9.590 -10.811 -25.120  1.00  0.00    -0.000 C 
BRANCH  15  16
ATOM     16  C   UNL     1       9.870  -9.354 -24.722  1.00  0.00    -0.000 C 
BRANCH  16  17
ATOM     17  C   UNL     1       8.848  -8.370 -25.313  1.00  0.00    -0.000 C 
BRANCH  17  18
ATOM     18  C   UNL     1       9.213  -7.920 -26.735  1.00  0.00    -0.000 C 
BRANCH  18  19
ATOM     19  C   UNL     1       8.338  -6.740 -27.177  1.00  0.00    -0.003 C 
ATOM     20  C   UNL     1       8.236  -6.668 -28.698  1.00  0.00     0.004 C 
ENDBRANCH  18  19
ENDBRANCH  17  18
ENDBRANCH  16  17
ENDBRANCH  15  16
ENDBRANCH  14  15
ENDBRANCH  13  14
ENDBRANCH  12  13
ENDBRANCH   1  12
TORSDOF 16
ENDMDL
MODEL 7
REMARK VINA RESULT:    -4.331      3.308      8.027
REMARK INTER + INTRA:          -9.537
REMARK INTER:                  -7.409
REMARK INTRA:                  -2.128
REMARK UNBOUND:                -1.156
REMARK SMILES CCCCCCCCCCCCCCCCCC(=O)[O-]
REMARK SMILES IDX 10 1 11 2 12 3 13 4 14 5 15 6 16 7 17 8 18 9 19 10 20 11
REMARK SMILES IDX 9 12 8 13 7 14 6 15 5 16 4 17 3 18 2 19 1 20
REMARK H PARENT
REMARK Flexibility Score: inf
ROOT
ATOM      1  C   UNL     1      10.789 -15.284 -21.268  1.00  0.00     0.000 C 
ENDROOT
BRANCH   1   2
ATOM      2  C   UNL     1      10.076 -14.025 -20.748  1.00  0.00     0.000 C 
BRANCH   2   3
ATOM      3  C   UNL     1      10.109 -12.869 -21.761  1.00  0.00     0.000 C 
BRANCH   3   4
ATOM      4  C   UNL     1      10.828 -13.244 -23.070  1.00  0.00     0.000 C 
BRANCH   4   5
ATOM      5  C   UNL     1       9.933 -13.235 -24.326  1.00  0.00     0.000 C 
BRANCH   5   6
ATOM      6  C   UNL     1       8.490 -12.741 -24.099  1.00  0.00     0.000 C 
BRANCH   6   7
ATOM      7  C   UNL     1       8.194 -11.325 -24.634  1.00  0.00     0.006 C 
BRANCH   7   8
ATOM      8  C   UNL     1       9.423 -10.585 -25.183  1.00  0.00     0.053 C 
BRANCH   8   9
ATOM      9  C   UNL     1       9.325  -9.105 -24.975  1.00  0.00     0.041 C 
ATOM     10  O   UNL     1       9.019  -8.643 -23.844  1.00  0.00    -0.550 OA
ATOM     11  O   UNL     1       9.539  -8.238 -26.039  1.00  0.00    -0.550 OA
ENDBRANCH   8   9
ENDBRANCH   7   8
ENDBRANCH   6   7
ENDBRANCH   5   6
ENDBRANCH   4   5
ENDBRANCH   3   4
ENDBRANCH   2   3
ENDBRANCH   1   2
BRANCH   1  12
ATOM     12  C   UNL     1       9.851 -16.500 -21.351  1.00  0.00     0.000 C 
BRANCH  12  13
ATOM     13  C   UNL     1       9.067 -16.554 -22.672  1.00  0.00    -0.000 C 
BRANCH  13  14
ATOM     14  C   UNL     1       8.939 -17.981 -23.226  1.00  0.00    -0.000 C 
BRANCH  14  15
ATOM     15  C   UNL     1      10.048 -18.885 -22.677  1.00  0.00    -0.000 C 
BRANCH  15  16
ATOM     16  C   UNL     1      11.156 -19.094 -23.721  1.00  0.00    -0.000 C 
BRANCH  16  17
ATOM     17  C   UNL     1      10.604 -19.271 -25.144  1.00  0.00    -0.000 C 
BRANCH  17  18
ATOM     18  C   UNL     1      11.403 -18.483 -26.192  1.00  0.00    -0.000 C 
BRANCH  18  19
ATOM     19  C   UNL     1      11.314 -16.975 -25.928  1.00  0.00    -0.003 C 
ATOM     20  C   UNL     1       9.948 -16.424 -26.328  1.00  0.00     0.004 C 
ENDBRANCH  18  19
ENDBRANCH  17  18
ENDBRANCH  16  17
ENDBRANCH  15  16
ENDBRANCH  14  15
ENDBRANCH  13  14
ENDBRANCH  12  13
ENDBRANCH   1  12
TORSDOF 16
ENDMDL
MODEL 8
REMARK VINA RESULT:    -4.314      2.331      3.262
REMARK INTER + INTRA:          -9.505
REMARK INTER:                  -8.518
REMARK INTRA:                  -0.987
REMARK UNBOUND:                -1.156
REMARK SMILES CCCCCCCCCCCCCCCCCC(=O)[O-]
REMARK SMILES IDX 10 1 11 2 12 3 13 4 14 5 15 6 16 7 17 8 18 9 19 10 20 11
REMARK SMILES IDX 9 12 8 13 7 14 6 15 5 16 4 17 3 18 2 19 1 20
REMARK H PARENT
REMARK Flexibility Score: inf
ROOT
ATOM      1  C   UNL     1       9.154 -12.674 -23.263  1.00  0.00     0.000 C 
ENDROOT
BRANCH   1   2
ATOM      2  C   UNL     1      10.634 -13.054 -23.428  1.00  0.00     0.000 C 
BRANCH   2   3
ATOM      3  C   UNL     1      11.033 -14.260 -22.561  1.00  0.00     0.000 C 
BRANCH   3   4
ATOM      4  C   UNL     1      10.350 -14.252 -21.180  1.00  0.00     0.000 C 
BRANCH   4   5
ATOM      5  C   UNL     1      10.125 -15.645 -20.560  1.00  0.00     0.000 C 
BRANCH   5   6
ATOM      6  C   UNL     1      10.772 -16.816 -21.328  1.00  0.00     0.000 C 
BRANCH   6   7
ATOM      7  C   UNL     1       9.808 -17.624 -22.218  1.00  0.00     0.006 C 
BRANCH   7   8
ATOM      8  C   UNL     1      10.299 -17.831 -23.659  1.00  0.00     0.053 C 
BRANCH   8   9
ATOM      9  C   UNL     1      11.355 -18.889 -23.746  1.00  0.00     0.041 C 
ATOM     10  O   UNL     1      12.548 -18.619 -23.447  1.00  0.00    -0.550 OA
ATOM     11  O   UNL     1      11.029 -20.164 -24.188  1.00  0.00    -0.550 OA
ENDBRANCH   8   9
ENDBRANCH   7   8
ENDBRANCH   6   7
ENDBRANCH   5   6
ENDBRANCH   4   5
ENDBRANCH   3   4
ENDBRANCH   2   3
ENDBRANCH   1   2
BRANCH   1  12
ATOM     12  C   UNL     1       8.676 -11.687 -24.342  1.00  0.00     0.000 C 
BRANCH  12  13
ATOM     13  C   UNL     1       9.839 -10.963 -25.038  1.00  0.00    -0.000 C 
BRANCH  13  14
ATOM     14  C   UNL     1       9.916  -9.474 -24.667  1.00  0.00    -0.000 C 
BRANCH  14  15
ATOM     15  C   UNL     1       8.517  -8.850 -24.610  1.00  0.00    -0.000 C 
BRANCH  15  16
ATOM     16  C   UNL     1       8.096  -8.313 -25.986  1.00  0.00    -0.000 C 
BRANCH  16  17
ATOM     17  C   UNL     1       9.130  -7.348 -26.588  1.00  0.00    -0.000 C 
BRANCH  17  18
ATOM     18  C   UNL     1       8.543  -6.473 -27.705  1.00  0.00    -0.000 C 
BRANCH  18  19
ATOM     19  C   UNL     1       8.187  -7.319 -28.933  1.00  0.00    -0.003 C 
ATOM     20  C   UNL     1       8.947  -6.845 -30.169  1.00  0.00     0.004 C 
ENDBRANCH  18  19
ENDBRANCH  17  18
ENDBRANCH  16  17
ENDBRANCH  15  16
ENDBRANCH  14  15
ENDBRANCH  13  14
ENDBRANCH  12  13
ENDBRANCH   1  12
TORSDOF 16
ENDMDL
MODEL 9
REMARK VINA RESULT:    -4.258      4.755      8.152
REMARK INTER + INTRA:          -9.397
REMARK INTER:                  -6.967
REMARK INTRA:                  -2.431
REMARK UNBOUND:                -1.156
REMARK SMILES CCCCCCCCCCCCCCCCCC(=O)[O-]
REMARK SMILES IDX 10 1 11 2 12 3 13 4 14 5 15 6 16 7 17 8 18 9 19 10 20 11
REMARK SMILES IDX 9 12 8 13 7 14 6 15 5 16 4 17 3 18 2 19 1 20
REMARK H PARENT
REMARK Flexibility Score: inf
ROOT
ATOM      1  C   UNL     1      10.494 -12.527 -22.223  1.00  0.00     0.000 C 
ENDROOT
BRANCH   1   2
ATOM      2  C   UNL     1      10.379 -12.951 -23.696  1.00  0.00     0.000 C 
BRANCH   2   3
ATOM      3  C   UNL     1       9.173 -13.871 -23.952  1.00  0.00     0.000 C 
BRANCH   3   4
ATOM      4  C   UNL     1       9.435 -14.899 -25.067  1.00  0.00     0.000 C 
BRANCH   4   5
ATOM      5  C   UNL     1       8.390 -16.029 -25.165  1.00  0.00     0.000 C 
BRANCH   5   6
ATOM      6  C   UNL     1       8.855 -17.288 -25.924  1.00  0.00     0.000 C 
BRANCH   6   7
ATOM      7  C   UNL     1       9.553 -17.017 -27.271  1.00  0.00     0.006 C 
BRANCH   7   8
ATOM      8  C   UNL     1      10.712 -17.975 -27.589  1.00  0.00     0.053 C 
BRANCH   8   9
ATOM      9  C   UNL     1      11.565 -18.241 -26.387  1.00  0.00     0.041 C 
ATOM     10  O   UNL     1      11.581 -19.387 -25.864  1.00  0.00    -0.550 OA
ATOM     11  O   UNL     1      12.315 -17.217 -25.825  1.00  0.00    -0.550 OA
ENDBRANCH   8   9
ENDBRANCH   7   8
ENDBRANCH   6   7
ENDBRANCH   5   6
ENDBRANCH   4   5
ENDBRANCH   3   4
ENDBRANCH   2   3
ENDBRANCH   1   2
BRANCH   1  12
ATOM     12  C   UNL     1       9.683 -13.437 -21.284  1.00  0.00     0.000 C 
BRANCH  12  13
ATOM     13  C   UNL     1      10.490 -13.888 -20.056  1.00  0.00    -0.000 C 
BRANCH  13  14
ATOM     14  C   UNL     1      10.855 -15.379 -20.103  1.00  0.00    -0.000 C 
BRANCH  14  15
ATOM     15  C   UNL     1      10.042 -16.110 -21.178  1.00  0.00    -0.000 C 
BRANCH  15  16
ATOM     16  C   UNL     1      10.962 -16.717 -22.247  1.00  0.00    -0.000 C 
BRANCH  16  17
ATOM     17  C   UNL     1      10.514 -18.119 -22.690  1.00  0.00    -0.000 C 
BRANCH  17  18
ATOM     18  C   UNL     1       9.050 -18.414 -22.329  1.00  0.00    -0.000 C 
BRANCH  18  19
ATOM     19  C   UNL     1       8.813 -19.922 -22.193  1.00  0.00    -0.003 C 
ATOM     20  C   UNL     1       9.637 -20.704 -23.213  1.00  0.00     0.004 C 
ENDBRANCH  18  19
ENDBRANCH  17  18
ENDBRANCH  16  17
ENDBRANCH  15  16
ENDBRANCH  14  15
ENDBRANCH  13  14
ENDBRANCH  12  13
ENDBRANCH   1  12
TORSDOF 16
ENDMDL
