MODEL 1
REMARK VINA RESULT:    -2.365      0.000      0.000
REMARK INTER + INTRA:          -2.365
REMARK INTER:                  -2.365
REMARK INTRA:                   0.000
REMARK UNBOUND:                 0.000
REMARK SMILES CC(=O)[O-]
REMARK SMILES IDX 1 1 2 2 3 3 4 4
REMARK H PARENT
REMARK Flexibility Score: inf
ROOT
ATOM      1  C   UNL     1       3.529  57.711  24.239  1.00  0.00     0.063 C 
ATOM      2  C   UNL     1       2.438  57.240  25.140  1.00  0.00     0.038 C 
ATOM      3  O   UNL     1       1.279  57.718  25.031  1.00  0.00    -0.550 OA
ATOM      4  O   UNL     1       2.711  56.313  26.138  1.00  0.00    -0.550 OA
ENDROOT
TORSDOF 0
ENDMDL
MODEL 2
REMARK VINA RESULT:    -2.346      2.969      3.456
REMARK INTER + INTRA:          -2.346
REMARK INTER:                  -2.346
REMARK INTRA:                   0.000
REMARK UNBOUND:                 0.000
REMARK SMILES CC(=O)[O-]
REMARK SMILES IDX 1 1 2 2 3 3 4 4
REMARK H PARENT
REMARK Flexibility Score: inf
ROOT
ATOM      1  C   UNL     1       3.055  58.135  22.410  1.00  0.00     0.063 C 
ATOM      2  C   UNL     1       2.003  57.140  22.052  1.00  0.00     0.038 C 
ATOM      3  O   UNL     1       2.201  56.323  21.115  1.00  0.00    -0.550 OA
ATOM      4  O   UNL     1       0.782  57.149  22.713  1.00  0.00    -0.550 OA
ENDROOT
TORSDOF 0
ENDMDL
MODEL 3
REMARK VINA RESULT:    -2.340      2.741      3.282
REMARK INTER + INTRA:          -2.340
REMARK INTER:                  -2.340
REMARK INTRA:                   0.000
REMARK UNBOUND:                 0.000
REMARK SMILES CC(=O)[O-]
REMARK SMILES IDX 1 1 2 2 3 3 4 4
REMARK H PARENT
REMARK Flexibility Score: inf
ROOT
ATOM      1  C   UNL     1       3.532  57.969  23.959  1.00  0.00     0.063 C 
ATOM      2  C   UNL     1       3.050  58.089  22.553  1.00  0.00     0.038 C 
ATOM      3  O   UNL     1       3.593  58.908  21.767  1.00  0.00    -0.550 OA
ATOM      4  O   UNL     1       1.965  57.336  22.124  1.00  0.00    -0.550 OA
ENDROOT
TORSDOF 0
ENDMDL
MODEL 4
REMARK VINA RESULT:    -2.338      1.402      2.052
REMARK INTER + INTRA:          -2.338
REMARK INTER:                  -2.338
REMARK INTRA:                   0.000
REMARK UNBOUND:                 0.000
REMARK SMILES CC(=O)[O-]
REMARK SMILES IDX 1 1 2 2 3 3 4 4
REMARK H PARENT
REMARK Flexibility Score: inf
ROOT
ATOM      1  C   UNL     1       1.079  57.789  24.811  1.00  0.00     0.063 C 
ATOM      2  C   UNL     1       2.459  57.291  25.073  1.00  0.00     0.038 C 
ATOM      3  O   UNL     1       2.670  56.479  26.012  1.00  0.00    -0.550 OA
ATOM      4  O   UNL     1       3.525  57.762  24.317  1.00  0.00    -0.550 OA
ENDROOT
TORSDOF 0
ENDMDL
MODEL 5
REMARK VINA RESULT:    -2.338      2.945      3.211
REMARK INTER + INTRA:          -2.338
REMARK INTER:                  -2.338
REMARK INTRA:                   0.000
REMARK UNBOUND:                 0.000
REMARK SMILES CC(=O)[O-]
REMARK SMILES IDX 1 1 2 2 3 3 4 4
REMARK H PARENT
REMARK Flexibility Score: inf
ROOT
ATOM      1  C   UNL     1       2.045  57.121  22.103  1.00  0.00     0.063 C 
ATOM      2  C   UNL     1       3.102  58.072  22.552  1.00  0.00     0.038 C 
ATOM      3  O   UNL     1       3.555  58.934  21.755  1.00  0.00    -0.550 OA
ATOM      4  O   UNL     1       3.628  57.973  23.833  1.00  0.00    -0.550 OA
ENDROOT
TORSDOF 0
ENDMDL
MODEL 6
REMARK VINA RESULT:    -2.337      1.847      2.557
REMARK INTER + INTRA:          -2.337
REMARK INTER:                  -2.337
REMARK INTRA:                   0.000
REMARK UNBOUND:                 0.000
REMARK SMILES CC(=O)[O-]
REMARK SMILES IDX 1 1 2 2 3 3 4 4
REMARK H PARENT
REMARK Flexibility Score: inf
ROOT
ATOM      1  C   UNL     1       0.500  57.419  23.386  1.00  0.00     0.063 C 
ATOM      2  C   UNL     1       0.871  57.818  24.773  1.00  0.00     0.038 C 
ATOM      3  O   UNL     1       1.999  57.510  25.239  1.00  0.00    -0.550 OA
ATOM      4  O   UNL     1      -0.047  58.484  25.575  1.00  0.00    -0.550 OA
ENDROOT
TORSDOF 0
ENDMDL
MODEL 7
REMARK VINA RESULT:    -2.293      2.001      2.327
REMARK INTER + INTRA:          -2.293
REMARK INTER:                  -2.293
REMARK INTRA:                   0.000
REMARK UNBOUND:                 0.000
REMARK SMILES CC(=O)[O-]
REMARK SMILES IDX 1 1 2 2 3 3 4 4
REMARK H PARENT
REMARK Flexibility Score: inf
ROOT
ATOM      1  C   UNL     1       2.223  57.327  25.089  1.00  0.00     0.063 C 
ATOM      2  C   UNL     1       0.856  57.740  24.659  1.00  0.00     0.038 C 
ATOM      3  O   UNL     1       0.097  58.342  25.462  1.00  0.00    -0.550 OA
ATOM      4  O   UNL     1       0.397  57.413  23.389  1.00  0.00    -0.550 OA
ENDROOT
TORSDOF 0
ENDMDL
MODEL 8
REMARK VINA RESULT:    -2.264      2.909      3.347
REMARK INTER + INTRA:          -2.264
REMARK INTER:                  -2.264
REMARK INTRA:                   0.000
REMARK UNBOUND:                 0.000
REMARK SMILES CC(=O)[O-]
REMARK SMILES IDX 1 1 2 2 3 3 4 4
REMARK H PARENT
REMARK Flexibility Score: inf
ROOT
ATOM      1  C   UNL     1       0.514  57.358  23.267  1.00  0.00     0.063 C 
ATOM      2  C   UNL     1       1.773  56.709  22.798  1.00  0.00     0.038 C 
ATOM      3  O   UNL     1       2.590  56.243  23.634  1.00  0.00    -0.550 OA
ATOM      4  O   UNL     1       2.071  56.667  21.443  1.00  0.00    -0.550 OA
ENDROOT
TORSDOF 0
ENDMDL
MODEL 9
REMARK VINA RESULT:    -2.238      2.830      2.994
REMARK INTER + INTRA:          -2.238
REMARK INTER:                  -2.238
REMARK INTRA:                   0.000
REMARK UNBOUND:                 0.000
REMARK SMILES CC(=O)[O-]
REMARK SMILES IDX 1 1 2 2 3 3 4 4
REMARK H PARENT
REMARK Flexibility Score: inf
ROOT
ATOM      1  C   UNL     1       0.471  58.130  25.133  1.00  0.00     0.063 C 
ATOM      2  C   UNL     1       0.953  58.036  23.726  1.00  0.00     0.038 C 
ATOM      3  O   UNL     1       0.495  57.148  22.960  1.00  0.00    -0.550 OA
ATOM      4  O   UNL     1       1.947  58.893  23.272  1.00  0.00    -0.550 OA
ENDROOT
TORSDOF 0
ENDMDL
