MODEL 1
REMARK VINA RESULT:    -4.801      0.000      0.000
REMARK INTER + INTRA:         -11.093
REMARK INTER:                  -8.730
REMARK INTRA:                  -2.363
REMARK UNBOUND:                -2.363
REMARK SMILES CCCCCC=CCC=CCCCCCCCC(=O)[O-]
REMARK SMILES IDX 11 1 12 2 13 3 14 4 15 5 16 6 17 7 18 8 19 9 20 10 10 11
REMARK SMILES IDX 9 12 8 13 7 14 6 15 5 16 4 17 3 18 2 19 1 20
REMARK H PARENT
REMARK Flexibility Score: inf
ROOT
ATOM      1  C   UNL     1     -28.406  -6.158  27.331  1.00  0.00     0.027 C 
ENDROOT
BRANCH   1   2
ATOM      2  C   UNL     1     -27.269  -5.434  26.601  1.00  0.00     0.004 C 
BRANCH   2   3
ATOM      3  C   UNL     1     -27.234  -5.822  25.116  1.00  0.00     0.000 C 
BRANCH   3   4
ATOM      4  C   UNL     1     -27.677  -4.677  24.186  1.00  0.00     0.000 C 
BRANCH   4   5
ATOM      5  C   UNL     1     -28.899  -4.993  23.306  1.00  0.00     0.000 C 
BRANCH   5   6
ATOM      6  C   UNL     1     -28.910  -4.199  21.988  1.00  0.00     0.006 C 
BRANCH   6   7
ATOM      7  C   UNL     1     -30.270  -4.267  21.283  1.00  0.00     0.053 C 
BRANCH   7   8
ATOM      8  C   UNL     1     -30.238  -5.194  20.107  1.00  0.00     0.041 C 
ATOM      9  O   UNL     1     -31.059  -6.147  20.026  1.00  0.00    -0.550 OA
ATOM     10  O   UNL     1     -29.318  -4.992  19.086  1.00  0.00    -0.550 OA
ENDBRANCH   7   8
ENDBRANCH   6   7
ENDBRANCH   5   6
ENDBRANCH   4   5
ENDBRANCH   3   4
ENDBRANCH   2   3
ENDBRANCH   1   2
BRANCH   1  11
ATOM     11  C   UNL     1     -29.195  -7.022  26.386  1.00  0.00    -0.031 C 
ATOM     12  C   UNL     1     -30.380  -7.531  26.753  1.00  0.00    -0.027 C 
BRANCH  12  13
ATOM     13  C   UNL     1     -31.184  -8.401  25.827  1.00  0.00     0.054 C 
BRANCH  13  14
ATOM     14  C   UNL     1     -31.427  -7.714  24.507  1.00  0.00    -0.027 C 
ATOM     15  C   UNL     1     -30.819  -8.042  23.351  1.00  0.00    -0.031 C 
BRANCH  15  16
ATOM     16  C   UNL     1     -29.861  -9.197  23.186  1.00  0.00     0.027 C 
BRANCH  16  17
ATOM     17  C   UNL     1     -28.451  -8.723  22.803  1.00  0.00     0.004 C 
BRANCH  17  18
ATOM     18  C   UNL     1     -28.400  -8.153  21.376  1.00  0.00     0.000 C 
BRANCH  18  19
ATOM     19  C   UNL     1     -28.874  -9.163  20.321  1.00  0.00    -0.003 C 
ATOM     20  C   UNL     1     -28.802  -8.612  18.897  1.00  0.00     0.004 C 
ENDBRANCH  18  19
ENDBRANCH  17  18
ENDBRANCH  16  17
ENDBRANCH  15  16
ENDBRANCH  13  14
ENDBRANCH  12  13
ENDBRANCH   1  11
TORSDOF 14
ENDMDL
MODEL 2
REMARK VINA RESULT:    -4.474      1.851      5.879
REMARK INTER + INTRA:         -10.499
REMARK INTER:                  -8.355
REMARK INTRA:                  -2.144
REMARK UNBOUND:                -2.363
REMARK SMILES CCCCCC=CCC=CCCCCCCCC(=O)[O-]
REMARK SMILES IDX 11 1 12 2 13 3 14 4 15 5 16 6 17 7 18 8 19 9 20 10 10 11
REMARK SMILES IDX 9 12 8 13 7 14 6 15 5 16 4 17 3 18 2 19 1 20
REMARK H PARENT
REMARK Flexibility Score: inf
ROOT
ATOM      1  C   UNL     1     -32.036 -10.552  20.112  1.00  0.00     0.027 C 
ENDROOT
BRANCH   1   2
ATOM      2  C   UNL     1     -31.314 -11.088  18.870  1.00  0.00     0.004 C 
BRANCH   2   3
ATOM      3  C   UNL     1     -30.662  -9.945  18.077  1.00  0.00     0.000 C 
BRANCH   3   4
ATOM      4  C   UNL     1     -29.131  -9.904  18.234  1.00  0.00     0.000 C 
BRANCH   4   5
ATOM      5  C   UNL     1     -28.592  -8.703  19.031  1.00  0.00     0.000 C 
BRANCH   5   6
ATOM      6  C   UNL     1     -29.663  -7.629  19.291  1.00  0.00     0.006 C 
BRANCH   6   7
ATOM      7  C   UNL     1     -29.080  -6.211  19.255  1.00  0.00     0.053 C 
BRANCH   7   8
ATOM      8  C   UNL     1     -29.410  -5.509  17.973  1.00  0.00     0.041 C 
ATOM      9  O   UNL     1     -29.333  -4.254  17.897  1.00  0.00    -0.550 OA
ATOM     10  O   UNL     1     -29.780  -6.243  16.854  1.00  0.00    -0.550 OA
ENDBRANCH   7   8
ENDBRANCH   6   7
ENDBRANCH   5   6
ENDBRANCH   4   5
ENDBRANCH   3   4
ENDBRANCH   2   3
ENDBRANCH   1   2
BRANCH   1  11
ATOM     11  C   UNL     1     -31.076 -10.347  21.253  1.00  0.00    -0.031 C 
ATOM     12  C   UNL     1     -31.295  -9.392  22.167  1.00  0.00    -0.027 C 
BRANCH  12  13
ATOM     13  C   UNL     1     -30.348  -9.166  23.313  1.00  0.00     0.054 C 
BRANCH  13  14
ATOM     14  C   UNL     1     -28.915  -9.168  22.844  1.00  0.00    -0.027 C 
ATOM     15  C   UNL     1     -28.181  -8.060  22.628  1.00  0.00    -0.031 C 
BRANCH  15  16
ATOM     16  C   UNL     1     -28.655  -6.652  22.894  1.00  0.00     0.027 C 
BRANCH  16  17
ATOM     17  C   UNL     1     -27.825  -5.963  23.987  1.00  0.00     0.004 C 
BRANCH  17  18
ATOM     18  C   UNL     1     -28.256  -6.396  25.399  1.00  0.00     0.000 C 
BRANCH  18  19
ATOM     19  C   UNL     1     -27.605  -5.546  26.500  1.00  0.00    -0.003 C 
ATOM     20  C   UNL     1     -28.181  -5.830  27.886  1.00  0.00     0.004 C 
ENDBRANCH  18  19
ENDBRANCH  17  18
ENDBRANCH  16  17
ENDBRANCH  15  16
ENDBRANCH  13  14
ENDBRANCH  12  13
ENDBRANCH   1  11
TORSDOF 14
ENDMDL
MODEL 3
REMARK VINA RESULT:    -4.399      1.300      4.290
REMARK INTER + INTRA:         -10.362
REMARK INTER:                  -8.961
REMARK INTRA:                  -1.401
REMARK UNBOUND:                -2.363
REMARK SMILES CCCCCC=CCC=CCCCCCCCC(=O)[O-]
REMARK SMILES IDX 11 1 12 2 13 3 14 4 15 5 16 6 17 7 18 8 19 9 20 10 10 11
REMARK SMILES IDX 9 12 8 13 7 14 6 15 5 16 4 17 3 18 2 19 1 20
REMARK H PARENT
REMARK Flexibility Score: inf
ROOT
ATOM      1  C   UNL     1     -31.373  -8.486  26.002  1.00  0.00     0.027 C 
ENDROOT
BRANCH   1   2
ATOM      2  C   UNL     1     -30.899  -8.192  24.574  1.00  0.00     0.004 C 
BRANCH   2   3
ATOM      3  C   UNL     1     -31.169  -9.388  23.648  1.00  0.00     0.000 C 
BRANCH   3   4
ATOM      4  C   UNL     1     -30.010  -9.665  22.674  1.00  0.00     0.000 C 
BRANCH   4   5
ATOM      5  C   UNL     1     -28.800  -8.725  22.822  1.00  0.00     0.000 C 
BRANCH   5   6
ATOM      6  C   UNL     1     -28.160  -8.355  21.472  1.00  0.00     0.006 C 
BRANCH   6   7
ATOM      7  C   UNL     1     -28.790  -9.123  20.304  1.00  0.00     0.053 C 
BRANCH   7   8
ATOM      8  C   UNL     1     -28.763  -8.323  19.038  1.00  0.00     0.041 C 
ATOM      9  O   UNL     1     -28.766  -7.064  19.081  1.00  0.00    -0.550 OA
ATOM     10  O   UNL     1     -28.709  -8.967  17.809  1.00  0.00    -0.550 OA
ENDBRANCH   7   8
ENDBRANCH   6   7
ENDBRANCH   5   6
ENDBRANCH   4   5
ENDBRANCH   3   4
ENDBRANCH   2   3
ENDBRANCH   1   2
BRANCH   1  11
ATOM     11  C   UNL     1     -30.645  -7.631  27.003  1.00  0.00    -0.031 C 
ATOM     12  C   UNL     1     -29.448  -7.103  26.709  1.00  0.00    -0.027 C 
BRANCH  12  13
ATOM     13  C   UNL     1     -28.699  -6.250  27.695  1.00  0.00     0.054 C 
BRANCH  13  14
ATOM     14  C   UNL     1     -27.404  -5.748  27.109  1.00  0.00    -0.027 C 
ATOM     15  C   UNL     1     -27.207  -5.488  25.802  1.00  0.00    -0.031 C 
BRANCH  15  16
ATOM     16  C   UNL     1     -28.273  -5.587  24.738  1.00  0.00     0.027 C 
BRANCH  16  17
ATOM     17  C   UNL     1     -28.017  -4.616  23.576  1.00  0.00     0.004 C 
BRANCH  17  18
ATOM     18  C   UNL     1     -29.327  -4.112  22.946  1.00  0.00     0.000 C 
BRANCH  18  19
ATOM     19  C   UNL     1     -29.658  -4.825  21.627  1.00  0.00    -0.003 C 
ATOM     20  C   UNL     1     -30.836  -5.789  21.754  1.00  0.00     0.004 C 
ENDBRANCH  18  19
ENDBRANCH  17  18
ENDBRANCH  16  17
ENDBRANCH  15  16
ENDBRANCH  13  14
ENDBRANCH  12  13
ENDBRANCH   1  11
TORSDOF 14
ENDMDL
MODEL 4
REMARK VINA RESULT:    -4.365      1.520      3.629
REMARK INTER + INTRA:         -10.300
REMARK INTER:                  -8.370
REMARK INTRA:                  -1.931
REMARK UNBOUND:                -2.363
REMARK SMILES CCCCCC=CCC=CCCCCCCCC(=O)[O-]
REMARK SMILES IDX 11 1 12 2 13 3 14 4 15 5 16 6 17 7 18 8 19 9 20 10 10 11
REMARK SMILES IDX 9 12 8 13 7 14 6 15 5 16 4 17 3 18 2 19 1 20
REMARK H PARENT
REMARK Flexibility Score: inf
ROOT
ATOM      1  C   UNL     1     -31.778  -7.973  25.767  1.00  0.00     0.027 C 
ENDROOT
BRANCH   1   2
ATOM      2  C   UNL     1     -30.957  -7.495  26.971  1.00  0.00     0.004 C 
BRANCH   2   3
ATOM      3  C   UNL     1     -29.465  -7.405  26.618  1.00  0.00     0.000 C 
BRANCH   3   4
ATOM      4  C   UNL     1     -28.723  -6.322  27.422  1.00  0.00     0.000 C 
BRANCH   4   5
ATOM      5  C   UNL     1     -27.596  -5.605  26.657  1.00  0.00     0.000 C 
BRANCH   5   6
ATOM      6  C   UNL     1     -27.615  -5.901  25.147  1.00  0.00     0.006 C 
BRANCH   6   7
ATOM      7  C   UNL     1     -27.621  -4.618  24.307  1.00  0.00     0.053 C 
BRANCH   7   8
ATOM      8  C   UNL     1     -28.580  -4.713  23.160  1.00  0.00     0.041 C 
ATOM      9  O   UNL     1     -28.410  -4.009  22.129  1.00  0.00    -0.550 OA
ATOM     10  O   UNL     1     -29.649  -5.598  23.218  1.00  0.00    -0.550 OA
ENDBRANCH   7   8
ENDBRANCH   6   7
ENDBRANCH   5   6
ENDBRANCH   4   5
ENDBRANCH   3   4
ENDBRANCH   2   3
ENDBRANCH   1   2
BRANCH   1  11
ATOM     11  C   UNL     1     -30.893  -8.262  24.585  1.00  0.00    -0.031 C 
ATOM     12  C   UNL     1     -31.041  -9.393  23.881  1.00  0.00    -0.027 C 
BRANCH  12  13
ATOM     13  C   UNL     1     -30.165  -9.705  22.699  1.00  0.00     0.054 C 
BRANCH  13  14
ATOM     14  C   UNL     1     -28.821  -9.033  22.824  1.00  0.00    -0.027 C 
ATOM     15  C   UNL     1     -28.116  -8.536  21.790  1.00  0.00    -0.031 C 
BRANCH  15  16
ATOM     16  C   UNL     1     -28.598  -8.507  20.360  1.00  0.00     0.027 C 
BRANCH  16  17
ATOM     17  C   UNL     1     -28.931  -7.082  19.894  1.00  0.00     0.004 C 
BRANCH  17  18
ATOM     18  C   UNL     1     -30.021  -7.069  18.809  1.00  0.00     0.000 C 
BRANCH  18  19
ATOM     19  C   UNL     1     -31.349  -6.487  19.316  1.00  0.00    -0.003 C 
ATOM     20  C   UNL     1     -31.729  -7.000  20.704  1.00  0.00     0.004 C 
ENDBRANCH  18  19
ENDBRANCH  17  18
ENDBRANCH  16  17
ENDBRANCH  15  16
ENDBRANCH  13  14
ENDBRANCH  12  13
ENDBRANCH   1  11
TORSDOF 14
ENDMDL
MODEL 5
REMARK VINA RESULT:    -4.260      3.076      5.396
REMARK INTER + INTRA:         -10.109
REMARK INTER:                  -8.211
REMARK INTRA:                  -1.898
REMARK UNBOUND:                -2.363
REMARK SMILES CCCCCC=CCC=CCCCCCCCC(=O)[O-]
REMARK SMILES IDX 11 1 12 2 13 3 14 4 15 5 16 6 17 7 18 8 19 9 20 10 10 11
REMARK SMILES IDX 9 12 8 13 7 14 6 15 5 16 4 17 3 18 2 19 1 20
REMARK H PARENT
REMARK Flexibility Score: inf
ROOT
ATOM      1  C   UNL     1     -27.977  -5.129  24.077  1.00  0.00     0.027 C 
ENDROOT
BRANCH   1   2
ATOM      2  C   UNL     1     -27.188  -5.906  25.137  1.00  0.00     0.004 C 
BRANCH   2   3
ATOM      3  C   UNL     1     -27.470  -5.357  26.544  1.00  0.00     0.000 C 
BRANCH   3   4
ATOM      4  C   UNL     1     -28.395  -6.270  27.370  1.00  0.00     0.000 C 
BRANCH   4   5
ATOM      5  C   UNL     1     -29.404  -7.088  26.543  1.00  0.00     0.000 C 
BRANCH   5   6
ATOM      6  C   UNL     1     -30.595  -7.590  27.378  1.00  0.00     0.006 C 
BRANCH   6   7
ATOM      7  C   UNL     1     -31.512  -8.521  26.576  1.00  0.00     0.053 C 
BRANCH   7   8
ATOM      8  C   UNL     1     -32.677  -8.988  27.393  1.00  0.00     0.041 C 
ATOM      9  O   UNL     1     -32.500  -9.780  28.357  1.00  0.00    -0.550 OA
ATOM     10  O   UNL     1     -33.956  -8.530  27.108  1.00  0.00    -0.550 OA
ENDBRANCH   7   8
ENDBRANCH   6   7
ENDBRANCH   5   6
ENDBRANCH   4   5
ENDBRANCH   3   4
ENDBRANCH   2   3
ENDBRANCH   1   2
BRANCH   1  11
ATOM     11  C   UNL     1     -28.588  -6.058  23.064  1.00  0.00    -0.031 C 
ATOM     12  C   UNL     1     -28.451  -7.387  23.185  1.00  0.00    -0.027 C 
BRANCH  12  13
ATOM     13  C   UNL     1     -29.048  -8.335  22.183  1.00  0.00     0.054 C 
BRANCH  13  14
ATOM     14  C   UNL     1     -28.091  -8.605  21.049  1.00  0.00    -0.027 C 
ATOM     15  C   UNL     1     -28.265  -8.180  19.784  1.00  0.00    -0.031 C 
BRANCH  15  16
ATOM     16  C   UNL     1     -29.405  -7.304  19.323  1.00  0.00     0.027 C 
BRANCH  16  17
ATOM     17  C   UNL     1     -29.048  -5.812  19.397  1.00  0.00     0.004 C 
BRANCH  17  18
ATOM     18  C   UNL     1     -30.272  -4.941  19.728  1.00  0.00     0.000 C 
BRANCH  18  19
ATOM     19  C   UNL     1     -31.483  -5.772  20.176  1.00  0.00    -0.003 C 
ATOM     20  C   UNL     1     -31.837  -5.557  21.647  1.00  0.00     0.004 C 
ENDBRANCH  18  19
ENDBRANCH  17  18
ENDBRANCH  16  17
ENDBRANCH  15  16
ENDBRANCH  13  14
ENDBRANCH  12  13
ENDBRANCH   1  11
TORSDOF 14
ENDMDL
MODEL 6
REMARK VINA RESULT:    -4.202     11.211     13.089
REMARK INTER + INTRA:         -10.004
REMARK INTER:                  -8.023
REMARK INTRA:                  -1.980
REMARK UNBOUND:                -2.363
REMARK SMILES CCCCCC=CCC=CCCCCCCCC(=O)[O-]
REMARK SMILES IDX 11 1 12 2 13 3 14 4 15 5 16 6 17 7 18 8 19 9 20 10 10 11
REMARK SMILES IDX 9 12 8 13 7 14 6 15 5 16 4 17 3 18 2 19 1 20
REMARK H PARENT
REMARK Flexibility Score: inf
ROOT
ATOM      1  C   UNL     1     -36.117   1.587  20.613  1.00  0.00     0.027 C 
ENDROOT
BRANCH   1   2
ATOM      2  C   UNL     1     -37.350   1.537  19.703  1.00  0.00     0.004 C 
BRANCH   2   3
ATOM      3  C   UNL     1     -38.601   1.124  20.493  1.00  0.00     0.000 C 
BRANCH   3   4
ATOM      4  C   UNL     1     -38.290   0.139  21.636  1.00  0.00     0.000 C 
BRANCH   4   5
ATOM      5  C   UNL     1     -38.860   0.538  23.008  1.00  0.00     0.000 C 
BRANCH   5   6
ATOM      6  C   UNL     1     -37.956   1.523  23.770  1.00  0.00     0.006 C 
BRANCH   6   7
ATOM      7  C   UNL     1     -38.241   1.524  25.277  1.00  0.00     0.053 C 
BRANCH   7   8
ATOM      8  C   UNL     1     -38.884   2.803  25.717  1.00  0.00     0.041 C 
ATOM      9  O   UNL     1     -39.969   2.782  26.358  1.00  0.00    -0.550 OA
ATOM     10  O   UNL     1     -38.272   4.019  25.444  1.00  0.00    -0.550 OA
ENDBRANCH   7   8
ENDBRANCH   6   7
ENDBRANCH   5   6
ENDBRANCH   4   5
ENDBRANCH   3   4
ENDBRANCH   2   3
ENDBRANCH   1   2
BRANCH   1  11
ATOM     11  C   UNL     1     -34.847   1.598  19.808  1.00  0.00    -0.031 C 
ATOM     12  C   UNL     1     -34.677   2.480  18.812  1.00  0.00    -0.027 C 
BRANCH  12  13
ATOM     13  C   UNL     1     -33.418   2.507  17.991  1.00  0.00     0.054 C 
BRANCH  13  14
ATOM     14  C   UNL     1     -32.975   1.113  17.625  1.00  0.00    -0.027 C 
ATOM     15  C   UNL     1     -33.488   0.390  16.611  1.00  0.00    -0.031 C 
BRANCH  15  16
ATOM     16  C   UNL     1     -34.529   0.893  15.641  1.00  0.00     0.027 C 
BRANCH  16  17
ATOM     17  C   UNL     1     -35.942   0.426  16.020  1.00  0.00     0.004 C 
BRANCH  17  18
ATOM     18  C   UNL     1     -36.970   1.567  15.938  1.00  0.00     0.000 C 
BRANCH  18  19
ATOM     19  C   UNL     1     -36.322   2.919  15.604  1.00  0.00    -0.003 C 
ATOM     20  C   UNL     1     -37.011   4.094  16.298  1.00  0.00     0.004 C 
ENDBRANCH  18  19
ENDBRANCH  17  18
ENDBRANCH  16  17
ENDBRANCH  15  16
ENDBRANCH  13  14
ENDBRANCH  12  13
ENDBRANCH   1  11
TORSDOF 14
ENDMDL
MODEL 7
REMARK VINA RESULT:    -4.202      2.178      4.560
REMARK INTER + INTRA:         -10.003
REMARK INTER:                  -8.391
REMARK INTRA:                  -1.613
REMARK UNBOUND:                -2.363
REMARK SMILES CCCCCC=CCC=CCCCCCCCC(=O)[O-]
REMARK SMILES IDX 11 1 12 2 13 3 14 4 15 5 16 6 17 7 18 8 19 9 20 10 10 11
REMARK SMILES IDX 9 12 8 13 7 14 6 15 5 16 4 17 3 18 2 19 1 20
REMARK H PARENT
REMARK Flexibility Score: inf
ROOT
ATOM      1  C   UNL     1     -27.885  -5.159  24.129  1.00  0.00     0.027 C 
ENDROOT
BRANCH   1   2
ATOM      2  C   UNL     1     -27.155  -5.898  25.256  1.00  0.00     0.004 C 
BRANCH   2   3
ATOM      3  C   UNL     1     -27.641  -5.420  26.633  1.00  0.00     0.000 C 
BRANCH   3   4
ATOM      4  C   UNL     1     -28.524  -6.459  27.350  1.00  0.00     0.000 C 
BRANCH   4   5
ATOM      5  C   UNL     1     -29.545  -7.175  26.448  1.00  0.00     0.000 C 
BRANCH   5   6
ATOM      6  C   UNL     1     -30.723  -7.774  27.236  1.00  0.00     0.006 C 
BRANCH   6   7
ATOM      7  C   UNL     1     -32.025  -7.766  26.425  1.00  0.00     0.053 C 
BRANCH   7   8
ATOM      8  C   UNL     1     -31.800  -8.214  25.013  1.00  0.00     0.041 C 
ATOM      9  O   UNL     1     -31.578  -9.428  24.760  1.00  0.00    -0.550 OA
ATOM     10  O   UNL     1     -31.861  -7.296  23.973  1.00  0.00    -0.550 OA
ENDBRANCH   7   8
ENDBRANCH   6   7
ENDBRANCH   5   6
ENDBRANCH   4   5
ENDBRANCH   3   4
ENDBRANCH   2   3
ENDBRANCH   1   2
BRANCH   1  11
ATOM     11  C   UNL     1     -28.425  -6.122  23.108  1.00  0.00    -0.031 C 
ATOM     12  C   UNL     1     -28.203  -7.439  23.225  1.00  0.00    -0.027 C 
BRANCH  12  13
ATOM     13  C   UNL     1     -28.730  -8.420  22.215  1.00  0.00     0.054 C 
BRANCH  13  14
ATOM     14  C   UNL     1     -27.848  -8.469  20.993  1.00  0.00    -0.027 C 
ATOM     15  C   UNL     1     -28.300  -8.577  19.728  1.00  0.00    -0.031 C 
BRANCH  15  16
ATOM     16  C   UNL     1     -29.758  -8.587  19.338  1.00  0.00     0.027 C 
BRANCH  16  17
ATOM     17  C   UNL     1     -30.140  -9.864  18.575  1.00  0.00     0.004 C 
BRANCH  17  18
ATOM     18  C   UNL     1     -30.938 -10.844  19.452  1.00  0.00     0.000 C 
BRANCH  18  19
ATOM     19  C   UNL     1     -31.554 -10.164  20.684  1.00  0.00    -0.003 C 
ATOM     20  C   UNL     1     -31.748 -11.124  21.856  1.00  0.00     0.004 C 
ENDBRANCH  18  19
ENDBRANCH  17  18
ENDBRANCH  16  17
ENDBRANCH  15  16
ENDBRANCH  13  14
ENDBRANCH  12  13
ENDBRANCH   1  11
TORSDOF 14
ENDMDL
MODEL 8
REMARK VINA RESULT:    -4.188      1.719      2.711
REMARK INTER + INTRA:          -9.979
REMARK INTER:                  -8.164
REMARK INTRA:                  -1.815
REMARK UNBOUND:                -2.363
REMARK SMILES CCCCCC=CCC=CCCCCCCCC(=O)[O-]
REMARK SMILES IDX 11 1 12 2 13 3 14 4 15 5 16 6 17 7 18 8 19 9 20 10 10 11
REMARK SMILES IDX 9 12 8 13 7 14 6 15 5 16 4 17 3 18 2 19 1 20
REMARK H PARENT
REMARK Flexibility Score: inf
ROOT
ATOM      1  C   UNL     1     -30.597  -7.400  26.988  1.00  0.00     0.027 C 
ENDROOT
BRANCH   1   2
ATOM      2  C   UNL     1     -29.359  -7.041  26.156  1.00  0.00     0.004 C 
BRANCH   2   3
ATOM      3  C   UNL     1     -28.362  -6.216  26.983  1.00  0.00     0.000 C 
BRANCH   3   4
ATOM      4  C   UNL     1     -27.280  -5.542  26.118  1.00  0.00     0.000 C 
BRANCH   4   5
ATOM      5  C   UNL     1     -27.544  -5.581  24.603  1.00  0.00     0.000 C 
BRANCH   5   6
ATOM      6  C   UNL     1     -27.995  -4.223  24.038  1.00  0.00     0.006 C 
BRANCH   6   7
ATOM      7  C   UNL     1     -28.509  -4.337  22.597  1.00  0.00     0.053 C 
BRANCH   7   8
ATOM      8  C   UNL     1     -30.005  -4.332  22.542  1.00  0.00     0.041 C 
ATOM      9  O   UNL     1     -30.629  -3.264  22.304  1.00  0.00    -0.550 OA
ATOM     10  O   UNL     1     -30.712  -5.513  22.728  1.00  0.00    -0.550 OA
ENDBRANCH   7   8
ENDBRANCH   6   7
ENDBRANCH   5   6
ENDBRANCH   4   5
ENDBRANCH   3   4
ENDBRANCH   2   3
ENDBRANCH   1   2
BRANCH   1  11
ATOM     11  C   UNL     1     -31.318  -8.585  26.406  1.00  0.00    -0.031 C 
ATOM     12  C   UNL     1     -32.286  -8.417  25.494  1.00  0.00    -0.027 C 
BRANCH  12  13
ATOM     13  C   UNL     1     -33.023  -9.586  24.903  1.00  0.00     0.054 C 
BRANCH  13  14
ATOM     14  C   UNL     1     -32.103 -10.762  24.694  1.00  0.00    -0.027 C 
ATOM     15  C   UNL     1     -31.556 -11.104  23.512  1.00  0.00    -0.031 C 
BRANCH  15  16
ATOM     16  C   UNL     1     -31.720 -10.319  22.233  1.00  0.00     0.027 C 
BRANCH  16  17
ATOM     17  C   UNL     1     -30.434  -9.572  21.849  1.00  0.00     0.004 C 
BRANCH  17  18
ATOM     18  C   UNL     1     -29.603  -9.178  23.083  1.00  0.00     0.000 C 
BRANCH  18  19
ATOM     19  C   UNL     1     -28.472  -8.197  22.743  1.00  0.00    -0.003 C 
ATOM     20  C   UNL     1     -27.287  -8.874  22.056  1.00  0.00     0.004 C 
ENDBRANCH  18  19
ENDBRANCH  17  18
ENDBRANCH  16  17
ENDBRANCH  15  16
ENDBRANCH  13  14
ENDBRANCH  12  13
ENDBRANCH   1  11
TORSDOF 14
ENDMDL
MODEL 9
REMARK VINA RESULT:    -4.172      3.000      7.194
REMARK INTER + INTRA:          -9.949
REMARK INTER:                  -7.392
REMARK INTRA:                  -2.557
REMARK UNBOUND:                -2.363
REMARK SMILES CCCCCC=CCC=CCCCCCCCC(=O)[O-]
REMARK SMILES IDX 11 1 12 2 13 3 14 4 15 5 16 6 17 7 18 8 19 9 20 10 10 11
REMARK SMILES IDX 9 12 8 13 7 14 6 15 5 16 4 17 3 18 2 19 1 20
REMARK H PARENT
REMARK Flexibility Score: inf
ROOT
ATOM      1  C   UNL     1     -30.235  -8.843  18.003  1.00  0.00     0.027 C 
ENDROOT
BRANCH   1   2
ATOM      2  C   UNL     1     -29.381  -9.448  19.124  1.00  0.00     0.004 C 
BRANCH   2   3
ATOM      3  C   UNL     1     -28.344  -8.435  19.633  1.00  0.00     0.000 C 
BRANCH   3   4
ATOM      4  C   UNL     1     -28.065  -8.570  21.141  1.00  0.00     0.000 C 
BRANCH   4   5
ATOM      5  C   UNL     1     -29.309  -8.827  22.010  1.00  0.00     0.000 C 
BRANCH   5   6
ATOM      6  C   UNL     1     -29.312  -8.003  23.310  1.00  0.00     0.006 C 
BRANCH   6   7
ATOM      7  C   UNL     1     -28.081  -7.096  23.423  1.00  0.00     0.053 C 
BRANCH   7   8
ATOM      8  C   UNL     1     -28.292  -5.999  24.421  1.00  0.00     0.041 C 
ATOM      9  O   UNL     1     -28.322  -4.796  24.046  1.00  0.00    -0.550 OA
ATOM     10  O   UNL     1     -28.481  -6.305  25.762  1.00  0.00    -0.550 OA
ENDBRANCH   7   8
ENDBRANCH   6   7
ENDBRANCH   5   6
ENDBRANCH   4   5
ENDBRANCH   3   4
ENDBRANCH   2   3
ENDBRANCH   1   2
BRANCH   1  11
ATOM     11  C   UNL     1     -29.442  -7.861  17.185  1.00  0.00    -0.031 C 
ATOM     12  C   UNL     1     -30.053  -7.051  16.308  1.00  0.00    -0.027 C 
BRANCH  12  13
ATOM     13  C   UNL     1     -29.280  -6.065  15.477  1.00  0.00     0.054 C 
BRANCH  13  14
ATOM     14  C   UNL     1     -30.132  -4.878  15.107  1.00  0.00    -0.027 C 
ATOM     15  C   UNL     1     -30.165  -3.718  15.790  1.00  0.00    -0.031 C 
BRANCH  15  16
ATOM     16  C   UNL     1     -29.297  -3.403  16.984  1.00  0.00     0.027 C 
BRANCH  16  17
ATOM     17  C   UNL     1     -29.973  -3.797  18.306  1.00  0.00     0.004 C 
BRANCH  17  18
ATOM     18  C   UNL     1     -29.116  -4.779  19.123  1.00  0.00     0.000 C 
BRANCH  18  19
ATOM     19  C   UNL     1     -29.749  -5.126  20.478  1.00  0.00    -0.003 C 
ATOM     20  C   UNL     1     -31.004  -5.987  20.342  1.00  0.00     0.004 C 
ENDBRANCH  18  19
ENDBRANCH  17  18
ENDBRANCH  16  17
ENDBRANCH  15  16
ENDBRANCH  13  14
ENDBRANCH  12  13
ENDBRANCH   1  11
TORSDOF 14
ENDMDL
