MODEL 1
REMARK VINA RESULT:    -6.903      0.000      0.000
REMARK INTER + INTRA:         -10.101
REMARK INTER:                  -9.324
REMARK INTRA:                  -0.777
REMARK UNBOUND:                -0.777
REMARK SMILES C=CC(C)=CCC=C(C)CCC=C(C)C
REMARK SMILES IDX 8 1 7 2 9 3 10 4 11 5 12 6 14 7 13 8 15 9 6 10 5 11 3 12
REMARK SMILES IDX 4 13 2 14 1 15
REMARK H PARENT
REMARK Flexibility Score: inf
ROOT
ATOM      1  C   UNL     1      15.906  30.450  23.510  1.00  0.00    -0.077 C 
ATOM      2  C   UNL     1      14.851  29.880  22.884  1.00  0.00    -0.024 C 
ATOM      3  C   UNL     1      16.432  31.809  23.113  1.00  0.00     0.039 C 
ENDROOT
BRANCH   1   4
ATOM      4  C   UNL     1      16.587  29.701  24.634  1.00  0.00     0.034 C 
BRANCH   4   5
ATOM      5  C   UNL     1      18.090  29.997  24.654  1.00  0.00     0.032 C 
BRANCH   5   6
ATOM      6  C   UNL     1      18.587  30.152  26.069  1.00  0.00    -0.028 C 
ATOM      7  C   UNL     1      19.339  27.768  26.235  1.00  0.00     0.039 C 
ATOM      8  C   UNL     1      19.181  29.166  26.781  1.00  0.00    -0.080 C 
ATOM      9  C   UNL     1      19.666  29.440  28.180  1.00  0.00     0.039 C 
ENDBRANCH   5   6
ENDBRANCH   4   5
ENDBRANCH   1   4
BRANCH   2  10
ATOM     10  C   UNL     1      14.094  30.508  21.738  1.00  0.00     0.055 C 
BRANCH  10  11
ATOM     11  C   UNL     1      12.914  31.310  22.221  1.00  0.00    -0.020 C 
ATOM     12  C   UNL     1      12.714  32.621  21.972  1.00  0.00    -0.055 C 
ATOM     13  C   UNL     1      13.704  33.448  21.182  1.00  0.00     0.044 C 
BRANCH  12  14
ATOM     14  C   UNL     1      11.516  33.264  22.573  1.00  0.00    -0.005 C 
ATOM     15  C   UNL     1      10.932  32.836  23.693  1.00  0.00     0.009 C 
ENDBRANCH  12  14
ENDBRANCH  10  11
ENDBRANCH   2  10
TORSDOF 6
ENDMDL
MODEL 2
REMARK VINA RESULT:    -6.576      1.194      7.406
REMARK INTER + INTRA:          -9.659
REMARK INTER:                  -9.116
REMARK INTRA:                  -0.543
REMARK UNBOUND:                -0.777
REMARK SMILES C=CC(C)=CCC=C(C)CCC=C(C)C
REMARK SMILES IDX 8 1 7 2 9 3 10 4 11 5 12 6 14 7 13 8 15 9 6 10 5 11 3 12
REMARK SMILES IDX 4 13 2 14 1 15
REMARK H PARENT
REMARK Flexibility Score: inf
ROOT
ATOM      1  C   UNL     1      14.724  31.097  22.194  1.00  0.00    -0.077 C 
ATOM      2  C   UNL     1      15.157  30.344  23.231  1.00  0.00    -0.024 C 
ATOM      3  C   UNL     1      15.523  32.264  21.666  1.00  0.00     0.039 C 
ENDROOT
BRANCH   1   4
ATOM      4  C   UNL     1      13.395  30.768  21.551  1.00  0.00     0.034 C 
BRANCH   4   5
ATOM      5  C   UNL     1      12.495  32.007  21.494  1.00  0.00     0.032 C 
BRANCH   5   6
ATOM      6  C   UNL     1      12.030  32.397  22.874  1.00  0.00    -0.028 C 
ATOM      7  C   UNL     1      10.121  33.772  22.014  1.00  0.00     0.039 C 
ATOM      8  C   UNL     1      10.944  33.164  23.124  1.00  0.00    -0.080 C 
ATOM      9  C   UNL     1      10.552  33.468  24.545  1.00  0.00     0.039 C 
ENDBRANCH   5   6
ENDBRANCH   4   5
ENDBRANCH   1   4
BRANCH   2  10
ATOM     10  C   UNL     1      16.452  30.573  23.974  1.00  0.00     0.055 C 
BRANCH  10  11
ATOM     11  C   UNL     1      16.977  29.302  24.587  1.00  0.00    -0.020 C 
ATOM     12  C   UNL     1      17.953  29.236  25.517  1.00  0.00    -0.055 C 
ATOM     13  C   UNL     1      18.658  30.472  26.029  1.00  0.00     0.044 C 
BRANCH  12  14
ATOM     14  C   UNL     1      18.382  27.889  25.974  1.00  0.00    -0.005 C 
ATOM     15  C   UNL     1      19.657  27.505  26.047  1.00  0.00     0.009 C 
ENDBRANCH  12  14
ENDBRANCH  10  11
ENDBRANCH   2  10
TORSDOF 6
ENDMDL
MODEL 3
REMARK VINA RESULT:    -6.492      1.088      7.408
REMARK INTER + INTRA:          -9.545
REMARK INTER:                  -9.016
REMARK INTRA:                  -0.530
REMARK UNBOUND:                -0.777
REMARK SMILES C=CC(C)=CCC=C(C)CCC=C(C)C
REMARK SMILES IDX 8 1 7 2 9 3 10 4 11 5 12 6 14 7 13 8 15 9 6 10 5 11 3 12
REMARK SMILES IDX 4 13 2 14 1 15
REMARK H PARENT
REMARK Flexibility Score: inf
ROOT
ATOM      1  C   UNL     1      14.308  30.009  22.013  1.00  0.00    -0.077 C 
ATOM      2  C   UNL     1      15.027  30.380  23.098  1.00  0.00    -0.024 C 
ATOM      3  C   UNL     1      14.359  28.603  21.463  1.00  0.00     0.039 C 
ENDROOT
BRANCH   1   4
ATOM      4  C   UNL     1      13.436  31.034  21.323  1.00  0.00     0.034 C 
BRANCH   4   5
ATOM      5  C   UNL     1      13.136  32.212  22.256  1.00  0.00     0.032 C 
BRANCH   5   6
ATOM      6  C   UNL     1      11.881  32.930  21.828  1.00  0.00    -0.028 C 
ATOM      7  C   UNL     1      10.829  32.777  24.096  1.00  0.00     0.039 C 
ATOM      8  C   UNL     1      10.850  33.220  22.654  1.00  0.00    -0.080 C 
ATOM      9  C   UNL     1       9.655  33.969  22.126  1.00  0.00     0.039 C 
ENDBRANCH   5   6
ENDBRANCH   4   5
ENDBRANCH   1   4
BRANCH   2  10
ATOM     10  C   UNL     1      15.949  29.465  23.867  1.00  0.00     0.055 C 
BRANCH  10  11
ATOM     11  C   UNL     1      16.988  30.237  24.637  1.00  0.00    -0.020 C 
ATOM     12  C   UNL     1      17.959  29.685  25.395  1.00  0.00    -0.055 C 
ATOM     13  C   UNL     1      18.083  28.189  25.576  1.00  0.00     0.044 C 
BRANCH  12  14
ATOM     14  C   UNL     1      18.869  30.604  26.126  1.00  0.00    -0.005 C 
ATOM     15  C   UNL     1      19.279  30.396  27.378  1.00  0.00     0.009 C 
ENDBRANCH  12  14
ENDBRANCH  10  11
ENDBRANCH   2  10
TORSDOF 6
ENDMDL
MODEL 4
REMARK VINA RESULT:    -6.416      1.735      3.360
REMARK INTER + INTRA:          -9.443
REMARK INTER:                  -8.659
REMARK INTRA:                  -0.784
REMARK UNBOUND:                -0.777
REMARK SMILES C=CC(C)=CCC=C(C)CCC=C(C)C
REMARK SMILES IDX 8 1 7 2 9 3 10 4 11 5 12 6 14 7 13 8 15 9 6 10 5 11 3 12
REMARK SMILES IDX 4 13 2 14 1 15
REMARK H PARENT
REMARK Flexibility Score: inf
ROOT
ATOM      1  C   UNL     1      16.102  30.729  23.523  1.00  0.00    -0.077 C 
ATOM      2  C   UNL     1      15.365  31.461  22.657  1.00  0.00    -0.024 C 
ATOM      3  C   UNL     1      15.643  29.378  24.020  1.00  0.00     0.039 C 
ENDROOT
BRANCH   1   4
ATOM      4  C   UNL     1      17.420  31.283  24.019  1.00  0.00     0.034 C 
BRANCH   4   5
ATOM      5  C   UNL     1      18.334  30.157  24.511  1.00  0.00     0.032 C 
BRANCH   5   6
ATOM      6  C   UNL     1      18.642  30.318  25.978  1.00  0.00    -0.028 C 
ATOM      7  C   UNL     1      19.284  27.914  26.270  1.00  0.00     0.039 C 
ATOM      8  C   UNL     1      19.101  29.325  26.774  1.00  0.00    -0.080 C 
ATOM      9  C   UNL     1      19.404  29.604  28.222  1.00  0.00     0.039 C 
ENDBRANCH   5   6
ENDBRANCH   4   5
ENDBRANCH   1   4
BRANCH   2  10
ATOM     10  C   UNL     1      14.027  31.036  22.099  1.00  0.00     0.055 C 
BRANCH  10  11
ATOM     11  C   UNL     1      14.131  30.612  20.659  1.00  0.00    -0.020 C 
ATOM     12  C   UNL     1      14.041  29.340  20.217  1.00  0.00    -0.055 C 
ATOM     13  C   UNL     1      13.851  28.174  21.162  1.00  0.00     0.044 C 
BRANCH  12  14
ATOM     14  C   UNL     1      14.219  29.099  18.762  1.00  0.00    -0.005 C 
ATOM     15  C   UNL     1      15.257  28.441  18.243  1.00  0.00     0.009 C 
ENDBRANCH  12  14
ENDBRANCH  10  11
ENDBRANCH   2  10
TORSDOF 6
ENDMDL
MODEL 5
REMARK VINA RESULT:    -6.391      1.979      7.320
REMARK INTER + INTRA:          -9.410
REMARK INTER:                  -8.849
REMARK INTRA:                  -0.561
REMARK UNBOUND:                -0.777
REMARK SMILES C=CC(C)=CCC=C(C)CCC=C(C)C
REMARK SMILES IDX 8 1 7 2 9 3 10 4 11 5 12 6 14 7 13 8 15 9 6 10 5 11 3 12
REMARK SMILES IDX 4 13 2 14 1 15
REMARK H PARENT
REMARK Flexibility Score: inf
ROOT
ATOM      1  C   UNL     1      15.353  30.864  22.877  1.00  0.00    -0.077 C 
ATOM      2  C   UNL     1      15.981  30.159  23.847  1.00  0.00    -0.024 C 
ATOM      3  C   UNL     1      15.944  32.127  22.297  1.00  0.00     0.039 C 
ENDROOT
BRANCH   1   4
ATOM      4  C   UNL     1      14.013  30.380  22.368  1.00  0.00     0.034 C 
BRANCH   4   5
ATOM      5  C   UNL     1      14.142  29.812  20.950  1.00  0.00     0.032 C 
BRANCH   5   6
ATOM      6  C   UNL     1      13.898  28.324  20.944  1.00  0.00    -0.028 C 
ATOM      7  C   UNL     1      11.494  28.562  20.279  1.00  0.00     0.039 C 
ATOM      8  C   UNL     1      12.720  27.747  20.612  1.00  0.00    -0.080 C 
ATOM      9  C   UNL     1      12.595  26.246  20.612  1.00  0.00     0.039 C 
ENDBRANCH   5   6
ENDBRANCH   4   5
ENDBRANCH   1   4
BRANCH   2  10
ATOM     10  C   UNL     1      17.309  30.540  24.457  1.00  0.00     0.055 C 
BRANCH  10  11
ATOM     11  C   UNL     1      17.978  29.363  25.117  1.00  0.00    -0.020 C 
ATOM     12  C   UNL     1      18.748  29.430  26.223  1.00  0.00    -0.055 C 
ATOM     13  C   UNL     1      19.049  30.742  26.914  1.00  0.00     0.044 C 
BRANCH  12  14
ATOM     14  C   UNL     1      19.372  28.171  26.708  1.00  0.00    -0.005 C 
ATOM     15  C   UNL     1      19.852  27.225  25.900  1.00  0.00     0.009 C 
ENDBRANCH  12  14
ENDBRANCH  10  11
ENDBRANCH   2  10
TORSDOF 6
ENDMDL
MODEL 6
REMARK VINA RESULT:    -6.355      1.764      2.909
REMARK INTER + INTRA:          -9.361
REMARK INTER:                  -8.976
REMARK INTRA:                  -0.385
REMARK UNBOUND:                -0.777
REMARK SMILES C=CC(C)=CCC=C(C)CCC=C(C)C
REMARK SMILES IDX 8 1 7 2 9 3 10 4 11 5 12 6 14 7 13 8 15 9 6 10 5 11 3 12
REMARK SMILES IDX 4 13 2 14 1 15
REMARK H PARENT
REMARK Flexibility Score: inf
ROOT
ATOM      1  C   UNL     1      15.622  30.015  23.408  1.00  0.00    -0.077 C 
ATOM      2  C   UNL     1      15.635  31.308  23.008  1.00  0.00    -0.024 C 
ATOM      3  C   UNL     1      14.756  28.979  22.732  1.00  0.00     0.039 C 
ENDROOT
BRANCH   1   4
ATOM      4  C   UNL     1      16.491  29.597  24.573  1.00  0.00     0.034 C 
BRANCH   4   5
ATOM      5  C   UNL     1      17.865  30.271  24.498  1.00  0.00     0.032 C 
BRANCH   5   6
ATOM      6  C   UNL     1      18.466  30.419  25.873  1.00  0.00    -0.028 C 
ATOM      7  C   UNL     1      19.103  28.001  26.028  1.00  0.00     0.039 C 
ATOM      8  C   UNL     1      19.056  29.413  26.559  1.00  0.00    -0.080 C 
ATOM      9  C   UNL     1      19.651  29.680  27.917  1.00  0.00     0.039 C 
ENDBRANCH   5   6
ENDBRANCH   4   5
ENDBRANCH   1   4
BRANCH   2  10
ATOM     10  C   UNL     1      14.805  31.862  21.875  1.00  0.00     0.055 C 
BRANCH  10  11
ATOM     11  C   UNL     1      15.549  32.919  21.102  1.00  0.00    -0.020 C 
ATOM     12  C   UNL     1      14.990  33.763  20.209  1.00  0.00    -0.055 C 
ATOM     13  C   UNL     1      13.519  33.706  19.863  1.00  0.00     0.044 C 
BRANCH  12  14
ATOM     14  C   UNL     1      15.888  34.711  19.500  1.00  0.00    -0.005 C 
ATOM     15  C   UNL     1      15.653  35.172  18.271  1.00  0.00     0.009 C 
ENDBRANCH  12  14
ENDBRANCH  10  11
ENDBRANCH   2  10
TORSDOF 6
ENDMDL
MODEL 7
REMARK VINA RESULT:    -6.354      1.140      2.295
REMARK INTER + INTRA:          -9.360
REMARK INTER:                  -8.835
REMARK INTRA:                  -0.524
REMARK UNBOUND:                -0.777
REMARK SMILES C=CC(C)=CCC=C(C)CCC=C(C)C
REMARK SMILES IDX 8 1 7 2 9 3 10 4 11 5 12 6 14 7 13 8 15 9 6 10 5 11 3 12
REMARK SMILES IDX 4 13 2 14 1 15
REMARK H PARENT
REMARK Flexibility Score: inf
ROOT
ATOM      1  C   UNL     1      14.707  31.016  22.544  1.00  0.00    -0.077 C 
ATOM      2  C   UNL     1      13.375  31.075  22.319  1.00  0.00    -0.024 C 
ATOM      3  C   UNL     1      15.649  32.090  22.054  1.00  0.00     0.039 C 
ENDROOT
BRANCH   1   4
ATOM      4  C   UNL     1      15.274  29.834  23.299  1.00  0.00     0.034 C 
BRANCH   4   5
ATOM      5  C   UNL     1      16.399  30.276  24.240  1.00  0.00     0.032 C 
BRANCH   5   6
ATOM      6  C   UNL     1      17.201  29.089  24.712  1.00  0.00    -0.028 C 
ATOM      7  C   UNL     1      18.729  30.484  26.125  1.00  0.00     0.039 C 
ATOM      8  C   UNL     1      18.231  29.165  25.586  1.00  0.00    -0.080 C 
ATOM      9  C   UNL     1      18.946  27.910  26.013  1.00  0.00     0.039 C 
ENDBRANCH   5   6
ENDBRANCH   4   5
ENDBRANCH   1   4
BRANCH   2  10
ATOM     10  C   UNL     1      12.683  32.186  21.565  1.00  0.00     0.055 C 
BRANCH  10  11
ATOM     11  C   UNL     1      11.917  33.096  22.489  1.00  0.00    -0.020 C 
ATOM     12  C   UNL     1      10.619  32.944  22.825  1.00  0.00    -0.055 C 
ATOM     13  C   UNL     1       9.770  31.826  22.263  1.00  0.00     0.044 C 
BRANCH  12  14
ATOM     14  C   UNL     1      10.011  33.970  23.712  1.00  0.00    -0.005 C 
ATOM     15  C   UNL     1      10.126  33.959  25.041  1.00  0.00     0.009 C 
ENDBRANCH  12  14
ENDBRANCH  10  11
ENDBRANCH   2  10
TORSDOF 6
ENDMDL
MODEL 8
REMARK VINA RESULT:    -6.326      1.598      7.359
REMARK INTER + INTRA:          -9.322
REMARK INTER:                  -8.804
REMARK INTRA:                  -0.517
REMARK UNBOUND:                -0.777
REMARK SMILES C=CC(C)=CCC=C(C)CCC=C(C)C
REMARK SMILES IDX 8 1 7 2 9 3 10 4 11 5 12 6 14 7 13 8 15 9 6 10 5 11 3 12
REMARK SMILES IDX 4 13 2 14 1 15
REMARK H PARENT
REMARK Flexibility Score: inf
ROOT
ATOM      1  C   UNL     1      14.368  29.997  22.160  1.00  0.00    -0.077 C 
ATOM      2  C   UNL     1      15.140  30.375  23.205  1.00  0.00    -0.024 C 
ATOM      3  C   UNL     1      14.391  28.588  21.618  1.00  0.00     0.039 C 
ENDROOT
BRANCH   1   4
ATOM      4  C   UNL     1      13.463  31.018  21.507  1.00  0.00     0.034 C 
BRANCH   4   5
ATOM      5  C   UNL     1      14.069  32.423  21.601  1.00  0.00     0.032 C 
BRANCH   5   6
ATOM      6  C   UNL     1      13.518  33.318  20.520  1.00  0.00    -0.028 C 
ATOM      7  C   UNL     1      15.786  34.071  19.768  1.00  0.00     0.039 C 
ATOM      8  C   UNL     1      14.280  34.040  19.667  1.00  0.00    -0.080 C 
ATOM      9  C   UNL     1      13.624  34.880  18.603  1.00  0.00     0.039 C 
ENDBRANCH   5   6
ENDBRANCH   4   5
ENDBRANCH   1   4
BRANCH   2  10
ATOM     10  C   UNL     1      16.099  29.464  23.933  1.00  0.00     0.055 C 
BRANCH  10  11
ATOM     11  C   UNL     1      17.113  30.242  24.731  1.00  0.00    -0.020 C 
ATOM     12  C   UNL     1      18.061  29.698  25.521  1.00  0.00    -0.055 C 
ATOM     13  C   UNL     1      18.184  28.202  25.712  1.00  0.00     0.044 C 
BRANCH  12  14
ATOM     14  C   UNL     1      18.946  30.622  26.276  1.00  0.00    -0.005 C 
ATOM     15  C   UNL     1      19.408  30.367  27.501  1.00  0.00     0.009 C 
ENDBRANCH  12  14
ENDBRANCH  10  11
ENDBRANCH   2  10
TORSDOF 6
ENDMDL
MODEL 9
REMARK VINA RESULT:    -6.156      1.488      3.439
REMARK INTER + INTRA:          -9.091
REMARK INTER:                  -8.500
REMARK INTRA:                  -0.592
REMARK UNBOUND:                -0.777
REMARK SMILES C=CC(C)=CCC=C(C)CCC=C(C)C
REMARK SMILES IDX 8 1 7 2 9 3 10 4 11 5 12 6 14 7 13 8 15 9 6 10 5 11 3 12
REMARK SMILES IDX 4 13 2 14 1 15
REMARK H PARENT
REMARK Flexibility Score: inf
ROOT
ATOM      1  C   UNL     1      13.268  30.759  21.821  1.00  0.00    -0.077 C 
ATOM      2  C   UNL     1      13.144  31.996  22.355  1.00  0.00    -0.024 C 
ATOM      3  C   UNL     1      12.200  30.159  20.939  1.00  0.00     0.039 C 
ENDROOT
BRANCH   1   4
ATOM      4  C   UNL     1      14.508  29.948  22.127  1.00  0.00     0.034 C 
BRANCH   4   5
ATOM      5  C   UNL     1      15.344  30.621  23.220  1.00  0.00     0.032 C 
BRANCH   5   6
ATOM      6  C   UNL     1      16.030  29.591  24.081  1.00  0.00    -0.028 C 
ATOM      7  C   UNL     1      18.155  30.909  24.240  1.00  0.00     0.039 C 
ATOM      8  C   UNL     1      17.283  29.723  24.574  1.00  0.00    -0.080 C 
ATOM      9  C   UNL     1      17.861  28.643  25.451  1.00  0.00     0.039 C 
ENDBRANCH   5   6
ENDBRANCH   4   5
ENDBRANCH   1   4
BRANCH   2  10
ATOM     10  C   UNL     1      11.954  32.902  22.147  1.00  0.00     0.055 C 
BRANCH  10  11
ATOM     11  C   UNL     1      11.203  33.143  23.430  1.00  0.00    -0.020 C 
ATOM     12  C   UNL     1      10.000  33.747  23.523  1.00  0.00    -0.055 C 
ATOM     13  C   UNL     1       9.277  34.286  22.308  1.00  0.00     0.044 C 
BRANCH  12  14
ATOM     14  C   UNL     1       9.429  33.946  24.880  1.00  0.00    -0.005 C 
ATOM     15  C   UNL     1       9.610  33.093  25.890  1.00  0.00     0.009 C 
ENDBRANCH  12  14
ENDBRANCH  10  11
ENDBRANCH   2  10
TORSDOF 6
ENDMDL
