MODEL 1
REMARK VINA RESULT:    -6.916      0.000      0.000
REMARK INTER + INTRA:          -6.916
REMARK INTER:                  -6.916
REMARK INTRA:                   0.000
REMARK UNBOUND:                 0.000
REMARK SMILES C[NH+]1CCN(C2=[NH+]c3ccccc3Oc3ccc(Cl)cc32)CC1
REMARK SMILES IDX 7 1 6 2 21 3 5 4 8 5 9 6 13 7 10 8 12 9 14 10 11 11 15 12
REMARK SMILES IDX 16 13 17 14 18 15 20 16 19 17 4 18 22 19 3 20 23 21 2 22
REMARK SMILES IDX 1 23
REMARK H PARENT 7 24 2 25
REMARK Flexibility Score: inf
ROOT
ATOM      1  N   UNL     1     139.421 143.999 121.697  1.00  0.00    -0.237 N 
ATOM      2  C   UNL     1     140.508 144.211 122.393  1.00  0.00     0.286 C 
ATOM      3  C   UNL     1     141.757 143.418 122.230  1.00  0.00     0.108 A 
ATOM      4  N   UNL     1     140.494 145.233 123.409  1.00  0.00    -0.250 N 
ATOM      5  C   UNL     1     139.213 143.011 120.674  1.00  0.00     0.168 A 
ATOM      6  C   UNL     1     137.922 142.473 120.522  1.00  0.00     0.056 A 
ATOM      7  C   UNL     1     140.195 142.706 119.707  1.00  0.00     0.173 A 
ATOM      8  C   UNL     1     137.614 141.647 119.439  1.00  0.00     0.005 A 
ATOM      9  C   UNL     1     139.866 141.904 118.607  1.00  0.00     0.052 A 
ATOM     10  O   UNL     1     141.502 143.175 119.803  1.00  0.00    -0.452 OA
ATOM     11  C   UNL     1     138.584 141.369 118.477  1.00  0.00     0.004 A 
ATOM     12  C   UNL     1     142.253 143.041 120.967  1.00  0.00     0.143 A 
ATOM     13  C   UNL     1     143.539 142.497 120.855  1.00  0.00     0.049 A 
ATOM     14  C   UNL     1     144.317 142.275 121.991  1.00  0.00     0.024 A 
ATOM     15  C   UNL     1     143.818 142.604 123.251  1.00  0.00     0.042 A 
ATOM     16  C   UNL     1     142.550 143.178 123.370  1.00  0.00     0.041 A 
ATOM     17  Cl  UNL     1     144.793 142.324 124.682  1.00  0.00    -0.084 Cl
ATOM     18  C   UNL     1     139.395 145.311 124.374  1.00  0.00     0.298 C 
ATOM     19  C   UNL     1     141.419 146.363 123.317  1.00  0.00     0.298 C 
ATOM     20  C   UNL     1     139.934 145.731 125.749  1.00  0.00     0.308 C 
ATOM     21  C   UNL     1     141.908 146.759 124.718  1.00  0.00     0.308 C 
ATOM     22  N   UNL     1     140.798 146.931 125.683  1.00  0.00    -0.331 N 
ATOM     23  C   UNL     1     140.025 148.163 125.431  1.00  0.00     0.332 C 
ATOM     24  H   UNL     1     138.585 144.584 121.924  1.00  0.00     0.312 HD
ATOM     25  H   UNL     1     141.233 147.044 126.630  1.00  0.00     0.348 HD
ENDROOT
TORSDOF 0
ENDMDL
MODEL 2
REMARK VINA RESULT:    -6.886      4.971      7.081
REMARK INTER + INTRA:          -6.886
REMARK INTER:                  -6.886
REMARK INTRA:                   0.000
REMARK UNBOUND:                 0.000
REMARK SMILES C[NH+]1CCN(C2=[NH+]c3ccccc3Oc3ccc(Cl)cc32)CC1
REMARK SMILES IDX 7 1 6 2 21 3 5 4 8 5 9 6 13 7 10 8 12 9 14 10 11 11 15 12
REMARK SMILES IDX 16 13 17 14 18 15 20 16 19 17 4 18 22 19 3 20 23 21 2 22
REMARK SMILES IDX 1 23
REMARK H PARENT 7 24 2 25
REMARK Flexibility Score: inf
ROOT
ATOM      1  N   UNL     1     136.566 141.134 120.501  1.00  0.00    -0.237 N 
ATOM      2  C   UNL     1     136.414 140.239 121.443  1.00  0.00     0.286 C 
ATOM      3  C   UNL     1     137.533 139.434 122.002  1.00  0.00     0.108 A 
ATOM      4  N   UNL     1     135.088 139.975 121.942  1.00  0.00    -0.250 N 
ATOM      5  C   UNL     1     137.785 141.516 119.842  1.00  0.00     0.168 A 
ATOM      6  C   UNL     1     137.714 141.928 118.499  1.00  0.00     0.056 A 
ATOM      7  C   UNL     1     139.002 141.674 120.539  1.00  0.00     0.173 A 
ATOM      8  C   UNL     1     138.827 142.477 117.859  1.00  0.00     0.005 A 
ATOM      9  C   UNL     1     140.102 142.258 119.898  1.00  0.00     0.052 A 
ATOM     10  O   UNL     1     139.160 141.264 121.859  1.00  0.00    -0.452 OA
ATOM     11  C   UNL     1     140.019 142.650 118.561  1.00  0.00     0.004 A 
ATOM     12  C   UNL     1     138.795 139.992 122.289  1.00  0.00     0.143 A 
ATOM     13  C   UNL     1     139.736 139.254 123.018  1.00  0.00     0.049 A 
ATOM     14  C   UNL     1     139.456 137.948 123.420  1.00  0.00     0.024 A 
ATOM     15  C   UNL     1     138.228 137.370 123.103  1.00  0.00     0.042 A 
ATOM     16  C   UNL     1     137.270 138.111 122.405  1.00  0.00     0.041 A 
ATOM     17  Cl  UNL     1     137.873 135.728 123.605  1.00  0.00    -0.084 Cl
ATOM     18  C   UNL     1     133.972 139.759 121.019  1.00  0.00     0.298 C 
ATOM     19  C   UNL     1     134.786 140.196 123.357  1.00  0.00     0.298 C 
ATOM     20  C   UNL     1     133.026 138.689 121.583  1.00  0.00     0.308 C 
ATOM     21  C   UNL     1     133.819 139.117 123.865  1.00  0.00     0.308 C 
ATOM     22  N   UNL     1     132.638 138.951 122.988  1.00  0.00    -0.331 N 
ATOM     23  C   UNL     1     131.692 140.078 123.104  1.00  0.00     0.332 C 
ATOM     24  H   UNL     1     135.704 141.609 120.148  1.00  0.00     0.312 HD
ATOM     25  H   UNL     1     132.125 138.100 123.325  1.00  0.00     0.348 HD
ENDROOT
TORSDOF 0
ENDMDL
MODEL 3
REMARK VINA RESULT:    -6.680      2.713      4.319
REMARK INTER + INTRA:          -6.680
REMARK INTER:                  -6.680
REMARK INTRA:                   0.000
REMARK UNBOUND:                 0.000
REMARK SMILES C[NH+]1CCN(C2=[NH+]c3ccccc3Oc3ccc(Cl)cc32)CC1
REMARK SMILES IDX 7 1 6 2 21 3 5 4 8 5 9 6 13 7 10 8 12 9 14 10 11 11 15 12
REMARK SMILES IDX 16 13 17 14 18 15 20 16 19 17 4 18 22 19 3 20 23 21 2 22
REMARK SMILES IDX 1 23
REMARK H PARENT 7 24 2 25
REMARK Flexibility Score: inf
ROOT
ATOM      1  N   UNL     1     142.639 145.769 122.426  1.00  0.00    -0.237 N 
ATOM      2  C   UNL     1     141.547 145.344 123.007  1.00  0.00     0.286 C 
ATOM      3  C   UNL     1     140.839 144.096 122.615  1.00  0.00     0.108 A 
ATOM      4  N   UNL     1     140.960 146.144 124.053  1.00  0.00    -0.250 N 
ATOM      5  C   UNL     1     143.356 145.149 121.345  1.00  0.00     0.168 A 
ATOM      6  C   UNL     1     144.035 145.980 120.436  1.00  0.00     0.056 A 
ATOM      7  C   UNL     1     143.560 143.755 121.276  1.00  0.00     0.173 A 
ATOM      8  C   UNL     1     144.891 145.439 119.474  1.00  0.00     0.005 A 
ATOM      9  C   UNL     1     144.446 143.226 120.329  1.00  0.00     0.052 A 
ATOM     10  O   UNL     1     142.903 142.866 122.120  1.00  0.00    -0.452 OA
ATOM     11  C   UNL     1     145.103 144.062 119.426  1.00  0.00     0.004 A 
ATOM     12  C   UNL     1     141.524 142.904 122.308  1.00  0.00     0.143 A 
ATOM     13  C   UNL     1     140.812 141.705 122.167  1.00  0.00     0.049 A 
ATOM     14  C   UNL     1     139.422 141.688 122.277  1.00  0.00     0.024 A 
ATOM     15  C   UNL     1     138.730 142.870 122.537  1.00  0.00     0.042 A 
ATOM     16  C   UNL     1     139.434 144.065 122.712  1.00  0.00     0.041 A 
ATOM     17  Cl  UNL     1     136.982 142.853 122.673  1.00  0.00    -0.084 Cl
ATOM     18  C   UNL     1     140.768 147.584 123.872  1.00  0.00     0.298 C 
ATOM     19  C   UNL     1     140.811 145.587 125.397  1.00  0.00     0.298 C 
ATOM     20  C   UNL     1     139.457 148.025 124.539  1.00  0.00     0.308 C 
ATOM     21  C   UNL     1     139.500 146.077 126.029  1.00  0.00     0.308 C 
ATOM     22  N   UNL     1     139.335 147.545 125.934  1.00  0.00    -0.331 N 
ATOM     23  C   UNL     1     140.233 148.269 126.854  1.00  0.00     0.332 C 
ATOM     24  H   UNL     1     143.029 146.684 122.749  1.00  0.00     0.312 HD
ATOM     25  H   UNL     1     138.357 147.762 126.245  1.00  0.00     0.348 HD
ENDROOT
TORSDOF 0
ENDMDL
MODEL 4
REMARK VINA RESULT:    -6.633      3.688      5.167
REMARK INTER + INTRA:          -6.633
REMARK INTER:                  -6.633
REMARK INTRA:                   0.000
REMARK UNBOUND:                 0.000
REMARK SMILES C[NH+]1CCN(C2=[NH+]c3ccccc3Oc3ccc(Cl)cc32)CC1
REMARK SMILES IDX 7 1 6 2 21 3 5 4 8 5 9 6 13 7 10 8 12 9 14 10 11 11 15 12
REMARK SMILES IDX 16 13 17 14 18 15 20 16 19 17 4 18 22 19 3 20 23 21 2 22
REMARK SMILES IDX 1 23
REMARK H PARENT 7 24 2 25
REMARK Flexibility Score: inf
ROOT
ATOM      1  N   UNL     1     139.986 140.375 122.989  1.00  0.00    -0.237 N 
ATOM      2  C   UNL     1     140.022 141.412 122.193  1.00  0.00     0.286 C 
ATOM      3  C   UNL     1     139.335 141.462 120.875  1.00  0.00     0.108 A 
ATOM      4  N   UNL     1     140.805 142.559 122.582  1.00  0.00    -0.250 N 
ATOM      5  C   UNL     1     139.305 139.127 122.773  1.00  0.00     0.168 A 
ATOM      6  C   UNL     1     139.871 137.959 123.315  1.00  0.00     0.056 A 
ATOM      7  C   UNL     1     138.012 139.060 122.213  1.00  0.00     0.173 A 
ATOM      8  C   UNL     1     139.173 136.750 123.294  1.00  0.00     0.005 A 
ATOM      9  C   UNL     1     137.307 137.849 122.228  1.00  0.00     0.052 A 
ATOM     10  O   UNL     1     137.396 140.164 121.631  1.00  0.00    -0.452 OA
ATOM     11  C   UNL     1     137.887 136.697 122.758  1.00  0.00     0.004 A 
ATOM     12  C   UNL     1     138.036 140.953 120.680  1.00  0.00     0.143 A 
ATOM     13  C   UNL     1     137.350 141.225 119.489  1.00  0.00     0.049 A 
ATOM     14  C   UNL     1     137.961 141.953 118.468  1.00  0.00     0.024 A 
ATOM     15  C   UNL     1     139.263 142.424 118.633  1.00  0.00     0.042 A 
ATOM     16  C   UNL     1     139.943 142.187 119.831  1.00  0.00     0.041 A 
ATOM     17  Cl  UNL     1     140.035 143.339 117.351  1.00  0.00    -0.084 Cl
ATOM     18  C   UNL     1     142.176 142.395 123.068  1.00  0.00     0.298 C 
ATOM     19  C   UNL     1     140.154 143.856 122.762  1.00  0.00     0.298 C 
ATOM     20  C   UNL     1     143.050 143.555 122.568  1.00  0.00     0.308 C 
ATOM     21  C   UNL     1     141.077 144.981 122.271  1.00  0.00     0.308 C 
ATOM     22  N   UNL     1     142.445 144.881 122.828  1.00  0.00    -0.331 N 
ATOM     23  C   UNL     1     142.495 145.247 124.257  1.00  0.00     0.332 C 
ATOM     24  H   UNL     1     140.543 140.428 123.873  1.00  0.00     0.312 HD
ATOM     25  H   UNL     1     143.032 145.587 122.322  1.00  0.00     0.348 HD
ENDROOT
TORSDOF 0
ENDMDL
MODEL 5
REMARK VINA RESULT:    -6.629     13.733     15.743
REMARK INTER + INTRA:          -6.629
REMARK INTER:                  -6.629
REMARK INTRA:                   0.000
REMARK UNBOUND:                 0.000
REMARK SMILES C[NH+]1CCN(C2=[NH+]c3ccccc3Oc3ccc(Cl)cc32)CC1
REMARK SMILES IDX 7 1 6 2 21 3 5 4 8 5 9 6 13 7 10 8 12 9 14 10 11 11 15 12
REMARK SMILES IDX 16 13 17 14 18 15 20 16 19 17 4 18 22 19 3 20 23 21 2 22
REMARK SMILES IDX 1 23
REMARK H PARENT 7 24 2 25
REMARK Flexibility Score: inf
ROOT
ATOM      1  N   UNL     1     131.128 131.970 125.644  1.00  0.00    -0.237 N 
ATOM      2  C   UNL     1     131.751 132.897 126.325  1.00  0.00     0.286 C 
ATOM      3  C   UNL     1     131.104 133.713 127.388  1.00  0.00     0.108 A 
ATOM      4  N   UNL     1     133.126 133.187 126.006  1.00  0.00    -0.250 N 
ATOM      5  C   UNL     1     129.756 131.558 125.775  1.00  0.00     0.168 A 
ATOM      6  C   UNL     1     129.088 131.102 124.625  1.00  0.00     0.056 A 
ATOM      7  C   UNL     1     129.127 131.415 127.029  1.00  0.00     0.173 A 
ATOM      8  C   UNL     1     127.820 130.524 124.716  1.00  0.00     0.005 A 
ATOM      9  C   UNL     1     127.870 130.803 127.114  1.00  0.00     0.052 A 
ATOM     10  O   UNL     1     129.711 131.868 128.208  1.00  0.00    -0.452 OA
ATOM     11  C   UNL     1     127.215 130.367 125.962  1.00  0.00     0.004 A 
ATOM     12  C   UNL     1     130.222 133.156 128.335  1.00  0.00     0.143 A 
ATOM     13  C   UNL     1     129.820 133.912 129.444  1.00  0.00     0.049 A 
ATOM     14  C   UNL     1     130.243 135.233 129.594  1.00  0.00     0.024 A 
ATOM     15  C   UNL     1     131.080 135.808 128.639  1.00  0.00     0.042 A 
ATOM     16  C   UNL     1     131.514 135.051 127.547  1.00  0.00     0.041 A 
ATOM     17  Cl  UNL     1     131.613 137.468 128.823  1.00  0.00    -0.084 Cl
ATOM     18  C   UNL     1     133.545 133.379 124.616  1.00  0.00     0.298 C 
ATOM     19  C   UNL     1     134.161 133.015 127.026  1.00  0.00     0.298 C 
ATOM     20  C   UNL     1     134.619 134.474 124.540  1.00  0.00     0.308 C 
ATOM     21  C   UNL     1     135.222 134.117 126.891  1.00  0.00     0.308 C 
ATOM     22  N   UNL     1     135.723 134.262 125.505  1.00  0.00    -0.331 N 
ATOM     23  C   UNL     1     136.603 133.145 125.110  1.00  0.00     0.332 C 
ATOM     24  H   UNL     1     131.665 131.489 124.887  1.00  0.00     0.312 HD
ATOM     25  H   UNL     1     136.315 135.127 125.484  1.00  0.00     0.348 HD
ENDROOT
TORSDOF 0
ENDMDL
MODEL 6
REMARK VINA RESULT:    -6.619      2.086      5.795
REMARK INTER + INTRA:          -6.619
REMARK INTER:                  -6.619
REMARK INTRA:                   0.000
REMARK UNBOUND:                 0.000
REMARK SMILES C[NH+]1CCN(C2=[NH+]c3ccccc3Oc3ccc(Cl)cc32)CC1
REMARK SMILES IDX 7 1 6 2 21 3 5 4 8 5 9 6 13 7 10 8 12 9 14 10 11 11 15 12
REMARK SMILES IDX 16 13 17 14 18 15 20 16 19 17 4 18 22 19 3 20 23 21 2 22
REMARK SMILES IDX 1 23
REMARK H PARENT 7 24 2 25
REMARK Flexibility Score: inf
ROOT
ATOM      1  N   UNL     1     139.345 145.419 123.183  1.00  0.00    -0.237 N 
ATOM      2  C   UNL     1     140.033 144.498 122.558  1.00  0.00     0.286 C 
ATOM      3  C   UNL     1     141.514 144.385 122.632  1.00  0.00     0.108 A 
ATOM      4  N   UNL     1     139.334 143.565 121.710  1.00  0.00    -0.250 N 
ATOM      5  C   UNL     1     139.848 146.461 124.036  1.00  0.00     0.168 A 
ATOM      6  C   UNL     1     139.156 147.686 124.068  1.00  0.00     0.056 A 
ATOM      7  C   UNL     1     140.880 146.239 124.972  1.00  0.00     0.173 A 
ATOM      8  C   UNL     1     139.486 148.670 125.002  1.00  0.00     0.005 A 
ATOM      9  C   UNL     1     141.180 147.219 125.926  1.00  0.00     0.052 A 
ATOM     10  O   UNL     1     141.630 145.067 124.986  1.00  0.00    -0.452 OA
ATOM     11  C   UNL     1     140.493 148.433 125.937  1.00  0.00     0.004 A 
ATOM     12  C   UNL     1     142.225 144.555 123.836  1.00  0.00     0.143 A 
ATOM     13  C   UNL     1     143.583 144.217 123.900  1.00  0.00     0.049 A 
ATOM     14  C   UNL     1     144.255 143.762 122.766  1.00  0.00     0.024 A 
ATOM     15  C   UNL     1     143.571 143.632 121.557  1.00  0.00     0.042 A 
ATOM     16  C   UNL     1     142.209 143.935 121.492  1.00  0.00     0.041 A 
ATOM     17  Cl  UNL     1     144.413 143.062 120.128  1.00  0.00    -0.084 Cl
ATOM     18  C   UNL     1     138.344 144.037 120.739  1.00  0.00     0.298 C 
ATOM     19  C   UNL     1     139.394 142.133 122.001  1.00  0.00     0.298 C 
ATOM     20  C   UNL     1     138.423 143.190 119.460  1.00  0.00     0.308 C 
ATOM     21  C   UNL     1     139.446 141.332 120.691  1.00  0.00     0.308 C 
ATOM     22  N   UNL     1     138.391 141.735 119.734  1.00  0.00    -0.331 N 
ATOM     23  C   UNL     1     137.052 141.274 120.149  1.00  0.00     0.332 C 
ATOM     24  H   UNL     1     138.312 145.437 123.024  1.00  0.00     0.312 HD
ATOM     25  H   UNL     1     138.602 141.251 118.827  1.00  0.00     0.348 HD
ENDROOT
TORSDOF 0
ENDMDL
MODEL 7
REMARK VINA RESULT:    -6.468      4.127      6.098
REMARK INTER + INTRA:          -6.468
REMARK INTER:                  -6.468
REMARK INTRA:                   0.000
REMARK UNBOUND:                 0.000
REMARK SMILES C[NH+]1CCN(C2=[NH+]c3ccccc3Oc3ccc(Cl)cc32)CC1
REMARK SMILES IDX 7 1 6 2 21 3 5 4 8 5 9 6 13 7 10 8 12 9 14 10 11 11 15 12
REMARK SMILES IDX 16 13 17 14 18 15 20 16 19 17 4 18 22 19 3 20 23 21 2 22
REMARK SMILES IDX 1 23
REMARK H PARENT 7 24 2 25
REMARK Flexibility Score: inf
ROOT
ATOM      1  N   UNL     1     138.298 140.155 120.808  1.00  0.00    -0.237 N 
ATOM      2  C   UNL     1     138.633 140.026 122.066  1.00  0.00     0.286 C 
ATOM      3  C   UNL     1     139.318 141.089 122.848  1.00  0.00     0.108 A 
ATOM      4  N   UNL     1     138.373 138.772 122.728  1.00  0.00    -0.250 N 
ATOM      5  C   UNL     1     138.504 141.296 119.958  1.00  0.00     0.168 A 
ATOM      6  C   UNL     1     138.722 141.073 118.587  1.00  0.00     0.056 A 
ATOM      7  C   UNL     1     138.307 142.619 120.409  1.00  0.00     0.173 A 
ATOM      8  C   UNL     1     138.751 142.137 117.684  1.00  0.00     0.005 A 
ATOM      9  C   UNL     1     138.305 143.676 119.490  1.00  0.00     0.052 A 
ATOM     10  O   UNL     1     138.115 142.924 121.753  1.00  0.00    -0.452 OA
ATOM     11  C   UNL     1     138.535 143.439 118.135  1.00  0.00     0.004 A 
ATOM     12  C   UNL     1     138.962 142.448 122.749  1.00  0.00     0.143 A 
ATOM     13  C   UNL     1     139.477 143.374 123.665  1.00  0.00     0.049 A 
ATOM     14  C   UNL     1     140.384 142.974 124.646  1.00  0.00     0.024 A 
ATOM     15  C   UNL     1     140.778 141.638 124.725  1.00  0.00     0.042 A 
ATOM     16  C   UNL     1     140.243 140.701 123.837  1.00  0.00     0.041 A 
ATOM     17  Cl  UNL     1     141.919 141.130 125.956  1.00  0.00    -0.084 Cl
ATOM     18  C   UNL     1     138.741 137.503 122.096  1.00  0.00     0.298 C 
ATOM     19  C   UNL     1     137.493 138.737 123.897  1.00  0.00     0.298 C 
ATOM     20  C   UNL     1     139.233 136.513 123.161  1.00  0.00     0.308 C 
ATOM     21  C   UNL     1     138.015 137.715 124.918  1.00  0.00     0.308 C 
ATOM     22  N   UNL     1     138.305 136.397 124.309  1.00  0.00    -0.331 N 
ATOM     23  C   UNL     1     137.075 135.659 123.960  1.00  0.00     0.332 C 
ATOM     24  H   UNL     1     137.862 139.327 120.340  1.00  0.00     0.312 HD
ATOM     25  H   UNL     1     138.795 135.825 125.039  1.00  0.00     0.348 HD
ENDROOT
TORSDOF 0
ENDMDL
MODEL 8
REMARK VINA RESULT:    -6.394     12.147     14.112
REMARK INTER + INTRA:          -6.394
REMARK INTER:                  -6.394
REMARK INTRA:                   0.000
REMARK UNBOUND:                 0.000
REMARK SMILES C[NH+]1CCN(C2=[NH+]c3ccccc3Oc3ccc(Cl)cc32)CC1
REMARK SMILES IDX 7 1 6 2 21 3 5 4 8 5 9 6 13 7 10 8 12 9 14 10 11 11 15 12
REMARK SMILES IDX 16 13 17 14 18 15 20 16 19 17 4 18 22 19 3 20 23 21 2 22
REMARK SMILES IDX 1 23
REMARK H PARENT 7 24 2 25
REMARK Flexibility Score: inf
ROOT
ATOM      1  N   UNL     1     132.725 134.888 124.481  1.00  0.00    -0.237 N 
ATOM      2  C   UNL     1     132.988 134.257 125.596  1.00  0.00     0.286 C 
ATOM      3  C   UNL     1     131.940 133.713 126.501  1.00  0.00     0.108 A 
ATOM      4  N   UNL     1     134.363 134.116 126.006  1.00  0.00    -0.250 N 
ATOM      5  C   UNL     1     131.433 135.171 123.917  1.00  0.00     0.168 A 
ATOM      6  C   UNL     1     131.280 136.350 123.165  1.00  0.00     0.056 A 
ATOM      7  C   UNL     1     130.382 134.230 123.928  1.00  0.00     0.173 A 
ATOM      8  C   UNL     1     130.108 136.593 122.446  1.00  0.00     0.005 A 
ATOM      9  C   UNL     1     129.224 134.468 123.177  1.00  0.00     0.052 A 
ATOM     10  O   UNL     1     130.445 133.055 124.671  1.00  0.00    -0.452 OA
ATOM     11  C   UNL     1     129.083 135.648 122.445  1.00  0.00     0.004 A 
ATOM     12  C   UNL     1     130.796 133.048 126.017  1.00  0.00     0.143 A 
ATOM     13  C   UNL     1     129.960 132.361 126.907  1.00  0.00     0.049 A 
ATOM     14  C   UNL     1     130.218 132.371 128.277  1.00  0.00     0.024 A 
ATOM     15  C   UNL     1     131.324 133.064 128.771  1.00  0.00     0.042 A 
ATOM     16  C   UNL     1     132.183 133.724 127.888  1.00  0.00     0.041 A 
ATOM     17  Cl  UNL     1     131.652 133.081 130.494  1.00  0.00    -0.084 Cl
ATOM     18  C   UNL     1     135.269 135.266 125.988  1.00  0.00     0.298 C 
ATOM     19  C   UNL     1     134.938 132.781 126.173  1.00  0.00     0.298 C 
ATOM     20  C   UNL     1     136.227 135.195 127.186  1.00  0.00     0.308 C 
ATOM     21  C   UNL     1     135.906 132.770 127.365  1.00  0.00     0.308 C 
ATOM     22  N   UNL     1     136.889 133.876 127.312  1.00  0.00    -0.331 N 
ATOM     23  C   UNL     1     137.915 133.664 126.273  1.00  0.00     0.332 C 
ATOM     24  H   UNL     1     133.536 135.271 123.943  1.00  0.00     0.312 HD
ATOM     25  H   UNL     1     137.395 133.877 128.231  1.00  0.00     0.348 HD
ENDROOT
TORSDOF 0
ENDMDL
MODEL 9
REMARK VINA RESULT:    -6.182      6.110      9.291
REMARK INTER + INTRA:          -6.182
REMARK INTER:                  -6.182
REMARK INTRA:                   0.000
REMARK UNBOUND:                 0.000
REMARK SMILES C[NH+]1CCN(C2=[NH+]c3ccccc3Oc3ccc(Cl)cc32)CC1
REMARK SMILES IDX 7 1 6 2 21 3 5 4 8 5 9 6 13 7 10 8 12 9 14 10 11 11 15 12
REMARK SMILES IDX 16 13 17 14 18 15 20 16 19 17 4 18 22 19 3 20 23 21 2 22
REMARK SMILES IDX 1 23
REMARK H PARENT 7 24 2 25
REMARK Flexibility Score: inf
ROOT
ATOM      1  N   UNL     1     136.828 147.086 125.315  1.00  0.00    -0.237 N 
ATOM      2  C   UNL     1     135.853 147.233 126.175  1.00  0.00     0.286 C 
ATOM      3  C   UNL     1     136.062 147.612 127.599  1.00  0.00     0.108 A 
ATOM      4  N   UNL     1     134.503 146.970 125.746  1.00  0.00    -0.250 N 
ATOM      5  C   UNL     1     138.236 147.257 125.548  1.00  0.00     0.168 A 
ATOM      6  C   UNL     1     139.132 146.460 124.812  1.00  0.00     0.056 A 
ATOM      7  C   UNL     1     138.750 148.311 126.333  1.00  0.00     0.173 A 
ATOM      8  C   UNL     1     140.507 146.699 124.860  1.00  0.00     0.005 A 
ATOM      9  C   UNL     1     140.127 148.563 126.347  1.00  0.00     0.052 A 
ATOM     10  O   UNL     1     137.931 149.123 127.111  1.00  0.00    -0.452 OA
ATOM     11  C   UNL     1     141.004 147.756 125.621  1.00  0.00     0.004 A 
ATOM     12  C   UNL     1     136.987 148.600 127.989  1.00  0.00     0.143 A 
ATOM     13  C   UNL     1     136.985 149.077 129.307  1.00  0.00     0.049 A 
ATOM     14  C   UNL     1     136.110 148.546 130.253  1.00  0.00     0.024 A 
ATOM     15  C   UNL     1     135.220 147.536 129.888  1.00  0.00     0.042 A 
ATOM     16  C   UNL     1     135.191 147.077 128.568  1.00  0.00     0.041 A 
ATOM     17  Cl  UNL     1     134.118 146.864 131.076  1.00  0.00    -0.084 Cl
ATOM     18  C   UNL     1     134.180 145.752 125.000  1.00  0.00     0.298 C 
ATOM     19  C   UNL     1     133.502 148.036 125.802  1.00  0.00     0.298 C 
ATOM     20  C   UNL     1     132.801 145.228 125.424  1.00  0.00     0.308 C 
ATOM     21  C   UNL     1     132.138 147.457 126.206  1.00  0.00     0.308 C 
ATOM     22  N   UNL     1     131.756 146.278 125.396  1.00  0.00    -0.331 N 
ATOM     23  C   UNL     1     131.372 146.645 124.019  1.00  0.00     0.332 C 
ATOM     24  H   UNL     1     136.573 146.772 124.351  1.00  0.00     0.312 HD
ATOM     25  H   UNL     1     130.901 145.866 125.841  1.00  0.00     0.348 HD
ENDROOT
TORSDOF 0
ENDMDL
