MODEL 1
REMARK VINA RESULT:    -4.680      0.000      0.000
REMARK INTER + INTRA:          -6.875
REMARK INTER:                  -6.321
REMARK INTRA:                  -0.554
REMARK UNBOUND:                -0.554
REMARK SMILES O=C[C@@H](O)[C@@H](O)[C@H](O)CO
REMARK SMILES IDX 7 1 9 2 10 3 5 5 3 6 2 7 1 8 4 9 6 11 8 13
REMARK H PARENT 10 4 4 10 6 12 8 14
REMARK Flexibility Score: inf
ROOT
ATOM      1  C   UNL     1      -6.028  -9.082   0.636  1.00  0.00     0.171 C 
ENDROOT
BRANCH   1   2
ATOM      2  C   UNL     1      -7.439  -8.489   0.713  1.00  0.00     0.190 C 
BRANCH   2   3
ATOM      3  O   UNL     1      -8.258  -9.323   1.486  1.00  0.00    -0.394 OA
ATOM      4  H   UNL     1      -7.700 -10.107   1.729  1.00  0.00     0.210 HD
ENDBRANCH   2   3
ENDBRANCH   1   2
BRANCH   1   5
ATOM      5  C   UNL     1      -5.283  -8.925   1.988  1.00  0.00     0.181 C 
BRANCH   5   6
ATOM      6  C   UNL     1      -3.775  -8.638   1.803  1.00  0.00     0.209 C 
BRANCH   6   7
ATOM      7  C   UNL     1      -3.373  -7.391   2.544  1.00  0.00     0.258 C 
ATOM      8  O   UNL     1      -3.725  -6.290   2.148  1.00  0.00    -0.300 OA
ENDBRANCH   6   7
BRANCH   6   9
ATOM      9  O   UNL     1      -3.021  -9.725   2.276  1.00  0.00    -0.383 OA
ATOM     10  H   UNL     1      -3.210  -9.804   3.249  1.00  0.00     0.211 HD
ENDBRANCH   6   9
ENDBRANCH   5   6
BRANCH   5  11
ATOM     11  O   UNL     1      -5.888  -7.932   2.781  1.00  0.00    -0.387 OA
ATOM     12  H   UNL     1      -5.764  -7.060   2.322  1.00  0.00     0.211 HD
ENDBRANCH   5  11
ENDBRANCH   1   5
BRANCH   1  13
ATOM     13  O   UNL     1      -5.318  -8.441  -0.396  1.00  0.00    -0.388 OA
ATOM     14  H   UNL     1      -4.355  -8.478  -0.155  1.00  0.00     0.211 HD
ENDBRANCH   1  13
TORSDOF 8
ENDMDL
MODEL 2
REMARK VINA RESULT:    -4.522      6.511      8.734
REMARK INTER + INTRA:          -6.663
REMARK INTER:                  -6.037
REMARK INTRA:                  -0.626
REMARK UNBOUND:                -0.554
REMARK SMILES O=C[C@@H](O)[C@@H](O)[C@H](O)CO
REMARK SMILES IDX 7 1 9 2 10 3 5 5 3 6 2 7 1 8 4 9 6 11 8 13
REMARK H PARENT 10 4 4 10 6 12 8 14
REMARK Flexibility Score: inf
ROOT
ATOM      1  C   UNL     1       3.149  -9.739   1.383  1.00  0.00     0.171 C 
ENDROOT
BRANCH   1   2
ATOM      2  C   UNL     1       4.555  -9.136   1.467  1.00  0.00     0.190 C 
BRANCH   2   3
ATOM      3  O   UNL     1       5.504 -10.106   1.115  1.00  0.00    -0.394 OA
ATOM      4  H   UNL     1       6.389  -9.661   1.181  1.00  0.00     0.210 HD
ENDBRANCH   2   3
ENDBRANCH   1   2
BRANCH   1   5
ATOM      5  C   UNL     1       2.424  -9.282   0.089  1.00  0.00     0.181 C 
BRANCH   5   6
ATOM      6  C   UNL     1       1.294  -8.265   0.374  1.00  0.00     0.209 C 
BRANCH   6   7
ATOM      7  C   UNL     1       1.192  -7.254  -0.738  1.00  0.00     0.258 C 
ATOM      8  O   UNL     1       1.800  -6.196  -0.675  1.00  0.00    -0.300 OA
ENDBRANCH   6   7
BRANCH   6   9
ATOM      9  O   UNL     1       0.068  -8.939   0.504  1.00  0.00    -0.383 OA
ATOM     10  H   UNL     1      -0.489  -8.404   1.130  1.00  0.00     0.211 HD
ENDBRANCH   6   9
ENDBRANCH   5   6
BRANCH   5  11
ATOM     11  O   UNL     1       3.342  -8.762  -0.843  1.00  0.00    -0.387 OA
ATOM     12  H   UNL     1       2.938  -8.847  -1.745  1.00  0.00     0.211 HD
ENDBRANCH   5  11
ENDBRANCH   1   5
BRANCH   1  13
ATOM     13  O   UNL     1       2.417  -9.356   2.521  1.00  0.00    -0.388 OA
ATOM     14  H   UNL     1       2.487 -10.098   3.178  1.00  0.00     0.211 HD
ENDBRANCH   1  13
TORSDOF 8
ENDMDL
MODEL 3
REMARK VINA RESULT:    -4.434      7.682      8.989
REMARK INTER + INTRA:          -6.543
REMARK INTER:                  -5.835
REMARK INTRA:                  -0.708
REMARK UNBOUND:                -0.554
REMARK SMILES O=C[C@@H](O)[C@@H](O)[C@H](O)CO
REMARK SMILES IDX 7 1 9 2 10 3 5 5 3 6 2 7 1 8 4 9 6 11 8 13
REMARK H PARENT 10 4 4 10 6 12 8 14
REMARK Flexibility Score: inf
ROOT
ATOM      1  C   UNL     1       3.466  -6.341  -1.322  1.00  0.00     0.171 C 
ENDROOT
BRANCH   1   2
ATOM      2  C   UNL     1       3.048  -5.521  -2.547  1.00  0.00     0.190 C 
BRANCH   2   3
ATOM      3  O   UNL     1       2.872  -6.373  -3.646  1.00  0.00    -0.394 OA
ATOM      4  H   UNL     1       2.447  -7.196  -3.289  1.00  0.00     0.210 HD
ENDBRANCH   2   3
ENDBRANCH   1   2
BRANCH   1   5
ATOM      5  C   UNL     1       2.558  -7.587  -1.150  1.00  0.00     0.181 C 
BRANCH   5   6
ATOM      6  C   UNL     1       2.775  -8.293   0.209  1.00  0.00     0.209 C 
BRANCH   6   7
ATOM      7  C   UNL     1       2.369  -9.741   0.130  1.00  0.00     0.258 C 
ATOM      8  O   UNL     1       1.342 -10.069  -0.445  1.00  0.00    -0.300 OA
ENDBRANCH   6   7
BRANCH   6   9
ATOM      9  O   UNL     1       4.128  -8.209   0.579  1.00  0.00    -0.383 OA
ATOM     10  H   UNL     1       4.232  -7.367   1.097  1.00  0.00     0.211 HD
ENDBRANCH   6   9
ENDBRANCH   5   6
BRANCH   5  11
ATOM     11  O   UNL     1       1.203  -7.248  -1.326  1.00  0.00    -0.387 OA
ATOM     12  H   UNL     1       0.798  -7.138  -0.426  1.00  0.00     0.211 HD
ENDBRANCH   5  11
ENDBRANCH   1   5
BRANCH   1  13
ATOM     13  O   UNL     1       3.404  -5.522  -0.180  1.00  0.00    -0.388 OA
ATOM     14  H   UNL     1       3.721  -4.620  -0.449  1.00  0.00     0.211 HD
ENDBRANCH   1  13
TORSDOF 8
ENDMDL
MODEL 4
REMARK VINA RESULT:    -4.430      7.018      8.243
REMARK INTER + INTRA:          -6.538
REMARK INTER:                  -5.804
REMARK INTRA:                  -0.734
REMARK UNBOUND:                -0.554
REMARK SMILES O=C[C@@H](O)[C@@H](O)[C@H](O)CO
REMARK SMILES IDX 7 1 9 2 10 3 5 5 3 6 2 7 1 8 4 9 6 11 8 13
REMARK H PARENT 10 4 4 10 6 12 8 14
REMARK Flexibility Score: inf
ROOT
ATOM      1  C   UNL     1       1.838  -8.602   0.625  1.00  0.00     0.171 C 
ENDROOT
BRANCH   1   2
ATOM      2  C   UNL     1       1.795  -9.894  -0.199  1.00  0.00     0.190 C 
BRANCH   2   3
ATOM      3  O   UNL     1       0.462 -10.239  -0.463  1.00  0.00    -0.394 OA
ATOM      4  H   UNL     1      -0.082  -9.451  -0.202  1.00  0.00     0.210 HD
ENDBRANCH   2   3
ENDBRANCH   1   2
BRANCH   1   5
ATOM      5  C   UNL     1       1.905  -7.356  -0.298  1.00  0.00     0.181 C 
BRANCH   5   6
ATOM      6  C   UNL     1       3.251  -7.252  -1.053  1.00  0.00     0.209 C 
BRANCH   6   7
ATOM      7  C   UNL     1       3.072  -6.545  -2.370  1.00  0.00     0.258 C 
ATOM      8  O   UNL     1       2.612  -5.414  -2.412  1.00  0.00    -0.300 OA
ENDBRANCH   6   7
BRANCH   6   9
ATOM      9  O   UNL     1       4.184  -6.550  -0.271  1.00  0.00    -0.383 OA
ATOM     10  H   UNL     1       5.078  -6.716  -0.671  1.00  0.00     0.211 HD
ENDBRANCH   6   9
ENDBRANCH   5   6
BRANCH   5  11
ATOM     11  O   UNL     1       0.824  -7.341  -1.199  1.00  0.00    -0.387 OA
ATOM     12  H   UNL     1       0.258  -8.134  -1.007  1.00  0.00     0.211 HD
ENDBRANCH   5  11
ENDBRANCH   1   5
BRANCH   1  13
ATOM     13  O   UNL     1       2.952  -8.643   1.481  1.00  0.00    -0.388 OA
ATOM     14  H   UNL     1       3.512  -7.849   1.272  1.00  0.00     0.211 HD
ENDBRANCH   1  13
TORSDOF 8
ENDMDL
MODEL 5
REMARK VINA RESULT:    -4.321      2.007      3.834
REMARK INTER + INTRA:          -6.390
REMARK INTER:                  -5.706
REMARK INTRA:                  -0.684
REMARK UNBOUND:                -0.554
REMARK SMILES O=C[C@@H](O)[C@@H](O)[C@H](O)CO
REMARK SMILES IDX 7 1 9 2 10 3 5 5 3 6 2 7 1 8 4 9 6 11 8 13
REMARK H PARENT 10 4 4 10 6 12 8 14
REMARK Flexibility Score: inf
ROOT
ATOM      1  C   UNL     1      -3.673  -8.350   1.708  1.00  0.00     0.171 C 
ENDROOT
BRANCH   1   2
ATOM      2  C   UNL     1      -2.148  -8.498   1.659  1.00  0.00     0.190 C 
BRANCH   2   3
ATOM      3  O   UNL     1      -1.676  -8.915   2.911  1.00  0.00    -0.394 OA
ATOM      4  H   UNL     1      -2.402  -8.718   3.558  1.00  0.00     0.210 HD
ENDBRANCH   2   3
ENDBRANCH   1   2
BRANCH   1   5
ATOM      5  C   UNL     1      -4.079  -6.974   2.298  1.00  0.00     0.181 C 
BRANCH   5   6
ATOM      6  C   UNL     1      -5.566  -6.930   2.724  1.00  0.00     0.209 C 
BRANCH   6   7
ATOM      7  C   UNL     1      -5.963  -5.536   3.132  1.00  0.00     0.258 C 
ATOM      8  O   UNL     1      -5.278  -4.575   2.817  1.00  0.00    -0.300 OA
ENDBRANCH   6   7
BRANCH   6   9
ATOM      9  O   UNL     1      -6.379  -7.353   1.660  1.00  0.00    -0.383 OA
ATOM     10  H   UNL     1      -5.830  -7.289   0.835  1.00  0.00     0.211 HD
ENDBRANCH   6   9
ENDBRANCH   5   6
BRANCH   5  11
ATOM     11  O   UNL     1      -3.240  -6.621   3.372  1.00  0.00    -0.387 OA
ATOM     12  H   UNL     1      -2.592  -5.947   3.041  1.00  0.00     0.211 HD
ENDBRANCH   5  11
ENDBRANCH   1   5
BRANCH   1  13
ATOM     13  O   UNL     1      -4.210  -9.396   2.479  1.00  0.00    -0.388 OA
ATOM     14  H   UNL     1      -4.781  -8.982   3.177  1.00  0.00     0.211 HD
ENDBRANCH   1  13
TORSDOF 8
ENDMDL
MODEL 6
REMARK VINA RESULT:    -4.305      7.351      8.641
REMARK INTER + INTRA:          -6.369
REMARK INTER:                  -5.877
REMARK INTRA:                  -0.492
REMARK UNBOUND:                -0.554
REMARK SMILES O=C[C@@H](O)[C@@H](O)[C@H](O)CO
REMARK SMILES IDX 7 1 9 2 10 3 5 5 3 6 2 7 1 8 4 9 6 11 8 13
REMARK H PARENT 10 4 4 10 6 12 8 14
REMARK Flexibility Score: inf
ROOT
ATOM      1  C   UNL     1       2.406  -9.296   0.582  1.00  0.00     0.171 C 
ENDROOT
BRANCH   1   2
ATOM      2  C   UNL     1       3.271  -9.676   1.789  1.00  0.00     0.190 C 
BRANCH   2   3
ATOM      3  O   UNL     1       3.041 -11.016   2.129  1.00  0.00    -0.394 OA
ATOM      4  H   UNL     1       3.921 -11.386   2.398  1.00  0.00     0.210 HD
ENDBRANCH   2   3
ENDBRANCH   1   2
BRANCH   1   5
ATOM      5  C   UNL     1       3.041  -8.122  -0.209  1.00  0.00     0.181 C 
BRANCH   5   6
ATOM      6  C   UNL     1       2.076  -6.922  -0.360  1.00  0.00     0.209 C 
BRANCH   6   7
ATOM      7  C   UNL     1       2.813  -5.704  -0.850  1.00  0.00     0.258 C 
ATOM      8  O   UNL     1       3.748  -5.812  -1.629  1.00  0.00    -0.300 OA
ENDBRANCH   6   7
BRANCH   6   9
ATOM      9  O   UNL     1       1.053  -7.244  -1.267  1.00  0.00    -0.383 OA
ATOM     10  H   UNL     1       0.198  -6.956  -0.851  1.00  0.00     0.211 HD
ENDBRANCH   6   9
ENDBRANCH   5   6
BRANCH   5  11
ATOM     11  O   UNL     1       4.254  -7.718   0.380  1.00  0.00    -0.387 OA
ATOM     12  H   UNL     1       4.681  -7.060  -0.228  1.00  0.00     0.211 HD
ENDBRANCH   5  11
ENDBRANCH   1   5
BRANCH   1  13
ATOM     13  O   UNL     1       1.119  -8.951   1.032  1.00  0.00    -0.388 OA
ATOM     14  H   UNL     1       1.130  -9.010   2.024  1.00  0.00     0.211 HD
ENDBRANCH   1  13
TORSDOF 8
ENDMDL
MODEL 7
REMARK VINA RESULT:    -4.269      7.000      8.675
REMARK INTER + INTRA:          -6.320
REMARK INTER:                  -5.784
REMARK INTRA:                  -0.535
REMARK UNBOUND:                -0.554
REMARK SMILES O=C[C@@H](O)[C@@H](O)[C@H](O)CO
REMARK SMILES IDX 7 1 9 2 10 3 5 5 3 6 2 7 1 8 4 9 6 11 8 13
REMARK H PARENT 10 4 4 10 6 12 8 14
REMARK Flexibility Score: inf
ROOT
ATOM      1  C   UNL     1       2.269  -5.681  -1.749  1.00  0.00     0.171 C 
ENDROOT
BRANCH   1   2
ATOM      2  C   UNL     1       3.406  -5.959  -2.738  1.00  0.00     0.190 C 
BRANCH   2   3
ATOM      3  O   UNL     1       2.871  -6.389  -3.960  1.00  0.00    -0.394 OA
ATOM      4  H   UNL     1       2.102  -5.790  -4.150  1.00  0.00     0.210 HD
ENDBRANCH   2   3
ENDBRANCH   1   2
BRANCH   1   5
ATOM      5  C   UNL     1       2.376  -6.602  -0.505  1.00  0.00     0.181 C 
BRANCH   5   6
ATOM      6  C   UNL     1       1.718  -7.983  -0.735  1.00  0.00     0.209 C 
BRANCH   6   7
ATOM      7  C   UNL     1       2.355  -9.031   0.140  1.00  0.00     0.258 C 
ATOM      8  O   UNL     1       2.389  -8.892   1.353  1.00  0.00    -0.300 OA
ENDBRANCH   6   7
BRANCH   6   9
ATOM      9  O   UNL     1       0.344  -7.911  -0.449  1.00  0.00    -0.383 OA
ATOM     10  H   UNL     1      -0.065  -7.338  -1.150  1.00  0.00     0.211 HD
ENDBRANCH   6   9
ENDBRANCH   5   6
BRANCH   5  11
ATOM     11  O   UNL     1       3.717  -6.747  -0.102  1.00  0.00    -0.387 OA
ATOM     12  H   UNL     1       4.068  -5.844   0.112  1.00  0.00     0.211 HD
ENDBRANCH   5  11
ENDBRANCH   1   5
BRANCH   1  13
ATOM     13  O   UNL     1       1.038  -5.872  -2.401  1.00  0.00    -0.388 OA
ATOM     14  H   UNL     1       1.236  -6.253  -3.296  1.00  0.00     0.211 HD
ENDBRANCH   1  13
TORSDOF 8
ENDMDL
MODEL 8
REMARK VINA RESULT:    -4.250      1.499      2.324
REMARK INTER + INTRA:          -6.294
REMARK INTER:                  -5.623
REMARK INTRA:                  -0.671
REMARK UNBOUND:                -0.554
REMARK SMILES O=C[C@@H](O)[C@@H](O)[C@H](O)CO
REMARK SMILES IDX 7 1 9 2 10 3 5 5 3 6 2 7 1 8 4 9 6 11 8 13
REMARK H PARENT 10 4 4 10 6 12 8 14
REMARK Flexibility Score: inf
ROOT
ATOM      1  C   UNL     1      -5.360  -8.881   1.887  1.00  0.00     0.171 C 
ENDROOT
BRANCH   1   2
ATOM      2  C   UNL     1      -6.093  -9.040   0.551  1.00  0.00     0.190 C 
BRANCH   2   3
ATOM      3  O   UNL     1      -5.336  -8.454  -0.473  1.00  0.00    -0.394 OA
ATOM      4  H   UNL     1      -5.749  -7.568  -0.647  1.00  0.00     0.210 HD
ENDBRANCH   2   3
ENDBRANCH   1   2
BRANCH   1   5
ATOM      5  C   UNL     1      -5.507  -7.436   2.434  1.00  0.00     0.181 C 
BRANCH   5   6
ATOM      6  C   UNL     1      -4.205  -6.615   2.289  1.00  0.00     0.209 C 
BRANCH   6   7
ATOM      7  C   UNL     1      -4.464  -5.153   2.543  1.00  0.00     0.258 C 
ATOM      8  O   UNL     1      -5.247  -4.802   3.413  1.00  0.00    -0.300 OA
ENDBRANCH   6   7
BRANCH   6   9
ATOM      9  O   UNL     1      -3.242  -7.082   3.198  1.00  0.00    -0.383 OA
ATOM     10  H   UNL     1      -3.462  -6.682   4.081  1.00  0.00     0.211 HD
ENDBRANCH   6   9
ENDBRANCH   5   6
BRANCH   5  11
ATOM     11  O   UNL     1      -6.587  -6.775   1.820  1.00  0.00    -0.387 OA
ATOM     12  H   UNL     1      -7.380  -6.878   2.408  1.00  0.00     0.211 HD
ENDBRANCH   5  11
ENDBRANCH   1   5
BRANCH   1  13
ATOM     13  O   UNL     1      -4.004  -9.206   1.707  1.00  0.00    -0.388 OA
ATOM     14  H   UNL     1      -3.971 -10.020   1.139  1.00  0.00     0.211 HD
ENDBRANCH   1  13
TORSDOF 8
ENDMDL
MODEL 9
REMARK VINA RESULT:    -4.194      1.349      3.518
REMARK INTER + INTRA:          -6.219
REMARK INTER:                  -5.708
REMARK INTRA:                  -0.511
REMARK UNBOUND:                -0.554
REMARK SMILES O=C[C@@H](O)[C@@H](O)[C@H](O)CO
REMARK SMILES IDX 7 1 9 2 10 3 5 5 3 6 2 7 1 8 4 9 6 11 8 13
REMARK H PARENT 10 4 4 10 6 12 8 14
REMARK Flexibility Score: inf
ROOT
ATOM      1  C   UNL     1      -4.435  -7.593   2.219  1.00  0.00     0.171 C 
ENDROOT
BRANCH   1   2
ATOM      2  C   UNL     1      -5.290  -6.586   2.997  1.00  0.00     0.190 C 
BRANCH   2   3
ATOM      3  O   UNL     1      -6.151  -5.920   2.116  1.00  0.00    -0.394 OA
ATOM      4  H   UNL     1      -6.554  -6.622   1.541  1.00  0.00     0.210 HD
ENDBRANCH   2   3
ENDBRANCH   1   2
BRANCH   1   5
ATOM      5  C   UNL     1      -5.151  -8.965   2.112  1.00  0.00     0.181 C 
BRANCH   5   6
ATOM      6  C   UNL     1      -5.925  -9.126   0.783  1.00  0.00     0.209 C 
BRANCH   6   7
ATOM      7  C   UNL     1      -7.401  -8.911   0.996  1.00  0.00     0.258 C 
ATOM      8  O   UNL     1      -7.940  -7.880   0.623  1.00  0.00    -0.300 OA
ENDBRANCH   6   7
BRANCH   6   9
ATOM      9  O   UNL     1      -5.451  -8.200  -0.160  1.00  0.00    -0.383 OA
ATOM     10  H   UNL     1      -5.425  -7.316   0.292  1.00  0.00     0.211 HD
ENDBRANCH   6   9
ENDBRANCH   5   6
BRANCH   5  11
ATOM     11  O   UNL     1      -4.238 -10.022   2.291  1.00  0.00    -0.387 OA
ATOM     12  H   UNL     1      -4.557 -10.573   3.052  1.00  0.00     0.211 HD
ENDBRANCH   5  11
ENDBRANCH   1   5
BRANCH   1  13
ATOM     13  O   UNL     1      -3.192  -7.732   2.862  1.00  0.00    -0.388 OA
ATOM     14  H   UNL     1      -2.695  -6.883   2.725  1.00  0.00     0.211 HD
ENDBRANCH   1  13
TORSDOF 8
ENDMDL
