MODEL 1
REMARK VINA RESULT:    -3.629      0.000      0.000
REMARK INTER + INTRA:          -4.555
REMARK INTER:                  -4.265
REMARK INTRA:                  -0.290
REMARK UNBOUND:                -0.290
REMARK SMILES O=c1cc(-c2ccc(O)c(O)c2)oc2cc(O)cc(O)c12
REMARK SMILES IDX 4 1 3 2 2 3 1 4 21 5 19 6 18 7 16 8 15 9 14 10 13 11 5 12
REMARK SMILES IDX 6 13 7 14 8 15 12 16 10 17 9 18 11 20 20 22 17 24
REMARK H PARENT 9 19 11 21 20 23 17 25
REMARK Flexibility Score: inf
ROOT
ATOM      1  C   UNL     1      13.230  45.704   8.936  1.00  0.00     0.138 A 
ATOM      2  C   UNL     1      13.447  45.920   7.569  1.00  0.00     0.100 A 
ATOM      3  C   UNL     1      14.365  46.889   7.160  1.00  0.00     0.197 A 
ATOM      4  O   UNL     1      14.584  47.017   5.927  1.00  0.00    -0.289 OA
ATOM      5  C   UNL     1      15.046  47.666   8.127  1.00  0.00     0.107 A 
ATOM      6  C   UNL     1      15.973  48.708   7.827  1.00  0.00     0.134 A 
ATOM      7  C   UNL     1      16.673  49.331   8.868  1.00  0.00     0.093 A 
ATOM      8  C   UNL     1      16.435  48.989  10.202  1.00  0.00     0.123 A 
ATOM      9  C   UNL     1      15.492  48.011  10.508  1.00  0.00     0.094 A 
ATOM     10  C   UNL     1      14.802  47.347   9.490  1.00  0.00     0.146 A 
ATOM     11  O   UNL     1      13.923  46.410   9.824  1.00  0.00    -0.456 OA
ENDROOT
BRANCH   1  12
ATOM     12  C   UNL     1      12.265  44.688   9.427  1.00  0.00     0.021 A 
ATOM     13  C   UNL     1      12.232  43.384   8.897  1.00  0.00     0.016 A 
ATOM     14  C   UNL     1      11.306  42.450   9.371  1.00  0.00     0.051 A 
ATOM     15  C   UNL     1      10.395  42.804  10.373  1.00  0.00     0.157 A 
ATOM     16  C   UNL     1      11.337  45.038  10.423  1.00  0.00     0.062 A 
ATOM     17  C   UNL     1      10.408  44.101  10.898  1.00  0.00     0.158 A 
BRANCH  15  18
ATOM     18  O   UNL     1       9.470  41.875  10.848  1.00  0.00    -0.504 OA
ATOM     19  H   UNL     1       8.503  42.127  11.014  1.00  0.00     0.293 HD
ENDBRANCH  15  18
BRANCH  17  20
ATOM     20  O   UNL     1       9.497  44.452  11.893  1.00  0.00    -0.504 OA
ATOM     21  H   UNL     1       8.518  44.198  11.830  1.00  0.00     0.293 HD
ENDBRANCH  17  20
ENDBRANCH   1  12
BRANCH   6  22
ATOM     22  O   UNL     1      16.222  49.184   6.536  1.00  0.00    -0.507 OA
ATOM     23  H   UNL     1      15.511  49.461   5.876  1.00  0.00     0.293 HD
ENDBRANCH   6  22
BRANCH   8  24
ATOM     24  O   UNL     1      17.125  49.625  11.232  1.00  0.00    -0.508 OA
ATOM     25  H   UNL     1      17.201  50.634  11.274  1.00  0.00     0.293 HD
ENDBRANCH   8  24
TORSDOF 5
ENDMDL
MODEL 2
REMARK VINA RESULT:    -3.566      0.994      1.079
REMARK INTER + INTRA:          -4.481
REMARK INTER:                  -4.214
REMARK INTRA:                  -0.268
REMARK UNBOUND:                -0.290
REMARK SMILES O=c1cc(-c2ccc(O)c(O)c2)oc2cc(O)cc(O)c12
REMARK SMILES IDX 4 1 3 2 2 3 1 4 21 5 19 6 18 7 16 8 15 9 14 10 13 11 5 12
REMARK SMILES IDX 6 13 7 14 8 15 12 16 10 17 9 18 11 20 20 22 17 24
REMARK H PARENT 9 19 11 21 20 23 17 25
REMARK Flexibility Score: inf
ROOT
ATOM      1  C   UNL     1      12.561  45.080   9.010  1.00  0.00     0.138 A 
ATOM      2  C   UNL     1      12.712  45.229   7.625  1.00  0.00     0.100 A 
ATOM      3  C   UNL     1      13.729  46.044   7.126  1.00  0.00     0.197 A 
ATOM      4  O   UNL     1      13.879  46.110   5.878  1.00  0.00    -0.289 OA
ATOM      5  C   UNL     1      14.579  46.738   8.021  1.00  0.00     0.107 A 
ATOM      6  C   UNL     1      15.622  47.627   7.626  1.00  0.00     0.134 A 
ATOM      7  C   UNL     1      16.474  48.166   8.598  1.00  0.00     0.093 A 
ATOM      8  C   UNL     1      16.282  47.894   9.956  1.00  0.00     0.123 A 
ATOM      9  C   UNL     1      15.232  47.071  10.355  1.00  0.00     0.094 A 
ATOM     10  C   UNL     1      14.386  46.490   9.406  1.00  0.00     0.146 A 
ATOM     11  O   UNL     1      13.407  45.698   9.828  1.00  0.00    -0.456 OA
ENDROOT
BRANCH   1  12
ATOM     12  C   UNL     1      11.496  44.226   9.596  1.00  0.00     0.021 A 
ATOM     13  C   UNL     1      11.539  42.822   9.501  1.00  0.00     0.016 A 
ATOM     14  C   UNL     1      10.518  42.043  10.053  1.00  0.00     0.051 A 
ATOM     15  C   UNL     1       9.436  42.652  10.701  1.00  0.00     0.157 A 
ATOM     16  C   UNL     1      10.400  44.829  10.237  1.00  0.00     0.062 A 
ATOM     17  C   UNL     1       9.375  44.047  10.791  1.00  0.00     0.158 A 
BRANCH  15  18
ATOM     18  O   UNL     1       8.417  41.878  11.253  1.00  0.00    -0.504 OA
ATOM     19  H   UNL     1       7.511  41.797  10.806  1.00  0.00     0.293 HD
ENDBRANCH  15  18
BRANCH  17  20
ATOM     20  O   UNL     1       8.296  44.651  11.434  1.00  0.00    -0.504 OA
ATOM     21  H   UNL     1       8.317  45.628  11.703  1.00  0.00     0.293 HD
ENDBRANCH  17  20
ENDBRANCH   1  12
BRANCH   6  22
ATOM     22  O   UNL     1      15.848  48.030   6.307  1.00  0.00    -0.507 OA
ATOM     23  H   UNL     1      16.642  47.756   5.748  1.00  0.00     0.293 HD
ENDBRANCH   6  22
BRANCH   8  24
ATOM     24  O   UNL     1      17.125  48.448  10.917  1.00  0.00    -0.508 OA
ATOM     25  H   UNL     1      16.784  49.114  11.600  1.00  0.00     0.293 HD
ENDBRANCH   8  24
TORSDOF 5
ENDMDL
MODEL 3
REMARK VINA RESULT:    -3.512      1.801      6.789
REMARK INTER + INTRA:          -4.418
REMARK INTER:                  -4.101
REMARK INTRA:                  -0.317
REMARK UNBOUND:                -0.290
REMARK SMILES O=c1cc(-c2ccc(O)c(O)c2)oc2cc(O)cc(O)c12
REMARK SMILES IDX 4 1 3 2 2 3 1 4 21 5 19 6 18 7 16 8 15 9 14 10 13 11 5 12
REMARK SMILES IDX 6 13 7 14 8 15 12 16 10 17 9 18 11 20 20 22 17 24
REMARK H PARENT 9 19 11 21 20 23 17 25
REMARK Flexibility Score: inf
ROOT
ATOM      1  C   UNL     1      13.193  45.419   8.807  1.00  0.00     0.138 A 
ATOM      2  C   UNL     1      13.020  45.040   7.470  1.00  0.00     0.100 A 
ATOM      3  C   UNL     1      12.045  44.097   7.140  1.00  0.00     0.197 A 
ATOM      4  O   UNL     1      11.871  43.823   5.924  1.00  0.00    -0.289 OA
ATOM      5  C   UNL     1      11.261  43.509   8.161  1.00  0.00     0.107 A 
ATOM      6  C   UNL     1      10.266  42.509   7.948  1.00  0.00     0.134 A 
ATOM      7  C   UNL     1       9.473  42.085   9.021  1.00  0.00     0.093 A 
ATOM      8  C   UNL     1       9.679  42.582  10.311  1.00  0.00     0.123 A 
ATOM      9  C   UNL     1      10.684  43.519  10.539  1.00  0.00     0.094 A 
ATOM     10  C   UNL     1      11.470  43.987   9.482  1.00  0.00     0.146 A 
ATOM     11  O   UNL     1      12.407  44.892   9.740  1.00  0.00    -0.456 OA
ENDROOT
BRANCH   1  12
ATOM     12  C   UNL     1      14.216  46.416   9.214  1.00  0.00     0.021 A 
ATOM     13  C   UNL     1      14.969  47.131   8.264  1.00  0.00     0.016 A 
ATOM     14  C   UNL     1      15.933  48.058   8.674  1.00  0.00     0.051 A 
ATOM     15  C   UNL     1      16.165  48.278  10.038  1.00  0.00     0.157 A 
ATOM     16  C   UNL     1      14.466  46.635  10.580  1.00  0.00     0.062 A 
ATOM     17  C   UNL     1      15.432  47.564  10.992  1.00  0.00     0.158 A 
BRANCH  15  18
ATOM     18  O   UNL     1      17.125  49.201  10.451  1.00  0.00    -0.504 OA
ATOM     19  H   UNL     1      17.105  50.163  10.133  1.00  0.00     0.293 HD
ENDBRANCH  15  18
BRANCH  17  20
ATOM     20  O   UNL     1      15.668  47.783  12.349  1.00  0.00    -0.504 OA
ATOM     21  H   UNL     1      16.059  48.655  12.686  1.00  0.00     0.293 HD
ENDBRANCH  17  20
ENDBRANCH   1  12
BRANCH   6  22
ATOM     22  O   UNL     1      10.036  41.886   6.718  1.00  0.00    -0.507 OA
ATOM     23  H   UNL     1       9.499  41.040   6.591  1.00  0.00     0.293 HD
ENDBRANCH   6  22
BRANCH   8  24
ATOM     24  O   UNL     1       8.895  42.143  11.375  1.00  0.00    -0.508 OA
ATOM     25  H   UNL     1       9.126  41.303  11.893  1.00  0.00     0.293 HD
ENDBRANCH   8  24
TORSDOF 5
ENDMDL
MODEL 4
REMARK VINA RESULT:    -3.434      2.466      5.689
REMARK INTER + INTRA:          -4.326
REMARK INTER:                  -4.056
REMARK INTRA:                  -0.270
REMARK UNBOUND:                -0.290
REMARK SMILES O=c1cc(-c2ccc(O)c(O)c2)oc2cc(O)cc(O)c12
REMARK SMILES IDX 4 1 3 2 2 3 1 4 21 5 19 6 18 7 16 8 15 9 14 10 13 11 5 12
REMARK SMILES IDX 6 13 7 14 8 15 12 16 10 17 9 18 11 20 20 22 17 24
REMARK H PARENT 9 19 11 21 20 23 17 25
REMARK Flexibility Score: inf
ROOT
ATOM      1  C   UNL     1      14.616  46.373   9.806  1.00  0.00     0.138 A 
ATOM      2  C   UNL     1      15.009  47.167   8.720  1.00  0.00     0.100 A 
ATOM      3  C   UNL     1      14.381  47.008   7.485  1.00  0.00     0.197 A 
ATOM      4  O   UNL     1      14.712  47.777   6.546  1.00  0.00    -0.289 OA
ATOM      5  C   UNL     1      13.374  46.025   7.329  1.00  0.00     0.107 A 
ATOM      6  C   UNL     1      12.693  45.745   6.107  1.00  0.00     0.134 A 
ATOM      7  C   UNL     1      11.633  44.830   6.102  1.00  0.00     0.093 A 
ATOM      8  C   UNL     1      11.269  44.141   7.262  1.00  0.00     0.123 A 
ATOM      9  C   UNL     1      11.965  44.367   8.447  1.00  0.00     0.094 A 
ATOM     10  C   UNL     1      13.004  45.299   8.493  1.00  0.00     0.146 A 
ATOM     11  O   UNL     1      13.631  45.496   9.648  1.00  0.00    -0.456 OA
ENDROOT
BRANCH   1  12
ATOM     12  C   UNL     1      15.252  46.500  11.142  1.00  0.00     0.021 A 
ATOM     13  C   UNL     1      16.552  46.018  11.390  1.00  0.00     0.016 A 
ATOM     14  C   UNL     1      17.123  46.142  12.660  1.00  0.00     0.051 A 
ATOM     15  C   UNL     1      16.405  46.740  13.702  1.00  0.00     0.157 A 
ATOM     16  C   UNL     1      14.535  47.088  12.198  1.00  0.00     0.062 A 
ATOM     17  C   UNL     1      15.108  47.212  13.472  1.00  0.00     0.158 A 
BRANCH  15  18
ATOM     18  O   UNL     1      16.972  46.866  14.970  1.00  0.00    -0.504 OA
ATOM     19  H   UNL     1      17.789  47.443  15.130  1.00  0.00     0.293 HD
ENDBRANCH  15  18
BRANCH  17  20
ATOM     20  O   UNL     1      14.394  47.805  14.513  1.00  0.00    -0.504 OA
ATOM     21  H   UNL     1      14.794  47.911  15.438  1.00  0.00     0.293 HD
ENDBRANCH  17  20
ENDBRANCH   1  12
BRANCH   6  22
ATOM     22  O   UNL     1      13.031  46.315   4.876  1.00  0.00    -0.507 OA
ATOM     23  H   UNL     1      12.879  47.282   4.627  1.00  0.00     0.293 HD
ENDBRANCH   6  22
BRANCH   8  24
ATOM     24  O   UNL     1      10.224  43.220   7.243  1.00  0.00    -0.508 OA
ATOM     25  H   UNL     1       9.637  43.068   8.054  1.00  0.00     0.293 HD
ENDBRANCH   8  24
TORSDOF 5
ENDMDL
MODEL 5
REMARK VINA RESULT:    -3.263     10.137     12.519
REMARK INTER + INTRA:          -4.125
REMARK INTER:                  -3.857
REMARK INTRA:                  -0.268
REMARK UNBOUND:                -0.290
REMARK SMILES O=c1cc(-c2ccc(O)c(O)c2)oc2cc(O)cc(O)c12
REMARK SMILES IDX 4 1 3 2 2 3 1 4 21 5 19 6 18 7 16 8 15 9 14 10 13 11 5 12
REMARK SMILES IDX 6 13 7 14 8 15 12 16 10 17 9 18 11 20 20 22 17 24
REMARK H PARENT 9 19 11 21 20 23 17 25
REMARK Flexibility Score: inf
ROOT
ATOM      1  C   UNL     1      11.002  43.072  20.143  1.00  0.00     0.138 A 
ATOM      2  C   UNL     1      10.728  43.048  21.517  1.00  0.00     0.100 A 
ATOM      3  C   UNL     1      11.751  42.757  22.420  1.00  0.00     0.197 A 
ATOM      4  O   UNL     1      11.490  42.804  23.650  1.00  0.00    -0.289 OA
ATOM      5  C   UNL     1      13.049  42.459  21.940  1.00  0.00     0.107 A 
ATOM      6  C   UNL     1      14.160  42.109  22.764  1.00  0.00     0.134 A 
ATOM      7  C   UNL     1      15.425  41.949  22.186  1.00  0.00     0.093 A 
ATOM      8  C   UNL     1      15.607  42.067  20.805  1.00  0.00     0.123 A 
ATOM      9  C   UNL     1      14.518  42.354  19.986  1.00  0.00     0.094 A 
ATOM     10  C   UNL     1      13.250  42.554  20.537  1.00  0.00     0.146 A 
ATOM     11  O   UNL     1      12.241  42.842  19.722  1.00  0.00    -0.456 OA
ENDROOT
BRANCH   1  12
ATOM     12  C   UNL     1       9.950  43.373  19.138  1.00  0.00     0.021 A 
ATOM     13  C   UNL     1      10.085  44.435  18.224  1.00  0.00     0.016 A 
ATOM     14  C   UNL     1       9.076  44.703  17.294  1.00  0.00     0.051 A 
ATOM     15  C   UNL     1       7.915  43.922  17.268  1.00  0.00     0.157 A 
ATOM     16  C   UNL     1       8.775  42.603  19.112  1.00  0.00     0.062 A 
ATOM     17  C   UNL     1       7.762  42.872  18.180  1.00  0.00     0.158 A 
BRANCH  15  18
ATOM     18  O   UNL     1       6.906  44.186  16.342  1.00  0.00    -0.504 OA
ATOM     19  H   UNL     1       5.950  43.892  16.502  1.00  0.00     0.293 HD
ENDBRANCH  15  18
BRANCH  17  20
ATOM     20  O   UNL     1       6.603  42.097  18.154  1.00  0.00    -0.504 OA
ATOM     21  H   UNL     1       6.280  41.655  17.301  1.00  0.00     0.293 HD
ENDBRANCH  17  20
ENDBRANCH   1  12
BRANCH   6  22
ATOM     22  O   UNL     1      14.071  41.885  24.141  1.00  0.00    -0.507 OA
ATOM     23  H   UNL     1      14.205  42.590  24.851  1.00  0.00     0.293 HD
ENDBRANCH   6  22
BRANCH   8  24
ATOM     24  O   UNL     1      16.867  41.890  20.237  1.00  0.00    -0.508 OA
ATOM     25  H   UNL     1      17.713  41.983  20.787  1.00  0.00     0.293 HD
ENDBRANCH   8  24
TORSDOF 5
ENDMDL
MODEL 6
REMARK VINA RESULT:    -3.249      1.197      2.647
REMARK INTER + INTRA:          -4.109
REMARK INTER:                  -3.815
REMARK INTRA:                  -0.293
REMARK UNBOUND:                -0.290
REMARK SMILES O=c1cc(-c2ccc(O)c(O)c2)oc2cc(O)cc(O)c12
REMARK SMILES IDX 4 1 3 2 2 3 1 4 21 5 19 6 18 7 16 8 15 9 14 10 13 11 5 12
REMARK SMILES IDX 6 13 7 14 8 15 12 16 10 17 9 18 11 20 20 22 17 24
REMARK H PARENT 9 19 11 21 20 23 17 25
REMARK Flexibility Score: inf
ROOT
ATOM      1  C   UNL     1      13.188  45.729   9.523  1.00  0.00     0.138 A 
ATOM      2  C   UNL     1      13.535  46.345  10.733  1.00  0.00     0.100 A 
ATOM      3  C   UNL     1      14.559  47.293  10.756  1.00  0.00     0.197 A 
ATOM      4  O   UNL     1      14.807  47.874  11.844  1.00  0.00    -0.289 OA
ATOM      5  C   UNL     1      15.260  47.601   9.565  1.00  0.00     0.107 A 
ATOM      6  C   UNL     1      16.347  48.520   9.477  1.00  0.00     0.134 A 
ATOM      7  C   UNL     1      16.887  48.832   8.223  1.00  0.00     0.093 A 
ATOM      8  C   UNL     1      16.417  48.213   7.061  1.00  0.00     0.123 A 
ATOM      9  C   UNL     1      15.392  47.274   7.144  1.00  0.00     0.094 A 
ATOM     10  C   UNL     1      14.810  46.967   8.377  1.00  0.00     0.146 A 
ATOM     11  O   UNL     1      13.824  46.076   8.410  1.00  0.00    -0.456 OA
ENDROOT
BRANCH   1  12
ATOM     12  C   UNL     1      12.108  44.713   9.442  1.00  0.00     0.021 A 
ATOM     13  C   UNL     1      11.892  43.957   8.273  1.00  0.00     0.016 A 
ATOM     14  C   UNL     1      10.861  43.013   8.220  1.00  0.00     0.051 A 
ATOM     15  C   UNL     1      10.027  42.815   9.327  1.00  0.00     0.157 A 
ATOM     16  C   UNL     1      11.257  44.515  10.543  1.00  0.00     0.062 A 
ATOM     17  C   UNL     1      10.224  43.569  10.490  1.00  0.00     0.158 A 
BRANCH  15  18
ATOM     18  O   UNL     1       9.000  41.875   9.278  1.00  0.00    -0.504 OA
ATOM     19  H   UNL     1       8.831  41.317   8.449  1.00  0.00     0.293 HD
ENDBRANCH  15  18
BRANCH  17  20
ATOM     20  O   UNL     1       9.390  43.372  11.590  1.00  0.00    -0.504 OA
ATOM     21  H   UNL     1       9.290  44.075  12.313  1.00  0.00     0.293 HD
ENDBRANCH  17  20
ENDBRANCH   1  12
BRANCH   6  22
ATOM     22  O   UNL     1      16.947  49.130  10.583  1.00  0.00    -0.507 OA
ATOM     23  H   UNL     1      17.230  48.650  11.424  1.00  0.00     0.293 HD
ENDBRANCH   6  22
BRANCH   8  24
ATOM     24  O   UNL     1      16.971  48.519   5.820  1.00  0.00    -0.508 OA
ATOM     25  H   UNL     1      17.799  48.046   5.478  1.00  0.00     0.293 HD
ENDBRANCH   8  24
TORSDOF 5
ENDMDL
MODEL 7
REMARK VINA RESULT:    -3.228      1.491      1.966
REMARK INTER + INTRA:          -4.084
REMARK INTER:                  -3.772
REMARK INTRA:                  -0.312
REMARK UNBOUND:                -0.290
REMARK SMILES O=c1cc(-c2ccc(O)c(O)c2)oc2cc(O)cc(O)c12
REMARK SMILES IDX 4 1 3 2 2 3 1 4 21 5 19 6 18 7 16 8 15 9 14 10 13 11 5 12
REMARK SMILES IDX 6 13 7 14 8 15 12 16 10 17 9 18 11 20 20 22 17 24
REMARK H PARENT 9 19 11 21 20 23 17 25
REMARK Flexibility Score: inf
ROOT
ATOM      1  C   UNL     1      13.752  45.903   8.990  1.00  0.00     0.138 A 
ATOM      2  C   UNL     1      14.205  46.757   7.976  1.00  0.00     0.100 A 
ATOM      3  C   UNL     1      15.167  47.725   8.267  1.00  0.00     0.197 A 
ATOM      4  O   UNL     1      15.600  48.436   7.323  1.00  0.00    -0.289 OA
ATOM      5  C   UNL     1      15.655  47.857   9.589  1.00  0.00     0.107 A 
ATOM      6  C   UNL     1      16.607  48.833  10.011  1.00  0.00     0.134 A 
ATOM      7  C   UNL     1      17.103  48.793  11.319  1.00  0.00     0.093 A 
ATOM      8  C   UNL     1      16.637  47.849  12.239  1.00  0.00     0.123 A 
ATOM      9  C   UNL     1      15.668  46.926  11.851  1.00  0.00     0.094 A 
ATOM     10  C   UNL     1      15.179  46.919  10.543  1.00  0.00     0.146 A 
ATOM     11  O   UNL     1      14.266  46.012  10.211  1.00  0.00    -0.456 OA
ENDROOT
BRANCH   1  12
ATOM     12  C   UNL     1      12.728  44.857   8.737  1.00  0.00     0.021 A 
ATOM     13  C   UNL     1      12.443  44.404   7.435  1.00  0.00     0.016 A 
ATOM     14  C   UNL     1      11.467  43.424   7.223  1.00  0.00     0.051 A 
ATOM     15  C   UNL     1      10.757  42.890   8.305  1.00  0.00     0.157 A 
ATOM     16  C   UNL     1      12.001  44.323   9.815  1.00  0.00     0.062 A 
ATOM     17  C   UNL     1      11.022  43.341   9.603  1.00  0.00     0.158 A 
BRANCH  15  18
ATOM     18  O   UNL     1       9.784  41.913   8.098  1.00  0.00    -0.504 OA
ATOM     19  H   UNL     1       9.806  41.030   8.595  1.00  0.00     0.293 HD
ENDBRANCH  15  18
BRANCH  17  20
ATOM     20  O   UNL     1      10.312  42.810  10.678  1.00  0.00    -0.504 OA
ATOM     21  H   UNL     1       9.350  43.073  10.861  1.00  0.00     0.293 HD
ENDBRANCH  17  20
ENDBRANCH   1  12
BRANCH   6  22
ATOM     22  O   UNL     1      17.075  49.870   9.198  1.00  0.00    -0.507 OA
ATOM     23  H   UNL     1      18.016  50.234   9.212  1.00  0.00     0.293 HD
ENDBRANCH   6  22
BRANCH   8  24
ATOM     24  O   UNL     1      17.125  47.827  13.543  1.00  0.00    -0.508 OA
ATOM     25  H   UNL     1      18.064  47.508  13.752  1.00  0.00     0.293 HD
ENDBRANCH   8  24
TORSDOF 5
ENDMDL
MODEL 8
REMARK VINA RESULT:    -3.076      2.969      5.155
REMARK INTER + INTRA:          -3.905
REMARK INTER:                  -3.619
REMARK INTRA:                  -0.286
REMARK UNBOUND:                -0.290
REMARK SMILES O=c1cc(-c2ccc(O)c(O)c2)oc2cc(O)cc(O)c12
REMARK SMILES IDX 4 1 3 2 2 3 1 4 21 5 19 6 18 7 16 8 15 9 14 10 13 11 5 12
REMARK SMILES IDX 6 13 7 14 8 15 12 16 10 17 9 18 11 20 20 22 17 24
REMARK H PARENT 9 19 11 21 20 23 17 25
REMARK Flexibility Score: inf
ROOT
ATOM      1  C   UNL     1      14.144  46.326  10.150  1.00  0.00     0.138 A 
ATOM      2  C   UNL     1      15.492  46.510  10.487  1.00  0.00     0.100 A 
ATOM      3  C   UNL     1      15.832  46.899  11.784  1.00  0.00     0.197 A 
ATOM      4  O   UNL     1      17.052  46.997  12.074  1.00  0.00    -0.289 OA
ATOM      5  C   UNL     1      14.812  47.135  12.738  1.00  0.00     0.107 A 
ATOM      6  C   UNL     1      15.038  47.574  14.076  1.00  0.00     0.134 A 
ATOM      7  C   UNL     1      13.959  47.661  14.965  1.00  0.00     0.093 A 
ATOM      8  C   UNL     1      12.655  47.383  14.546  1.00  0.00     0.123 A 
ATOM      9  C   UNL     1      12.419  47.007  13.226  1.00  0.00     0.094 A 
ATOM     10  C   UNL     1      13.478  46.877  12.324  1.00  0.00     0.146 A 
ATOM     11  O   UNL     1      13.210  46.501  11.079  1.00  0.00    -0.456 OA
ENDROOT
BRANCH   1  12
ATOM     12  C   UNL     1      13.726  45.915   8.785  1.00  0.00     0.021 A 
ATOM     13  C   UNL     1      14.126  46.633   7.642  1.00  0.00     0.016 A 
ATOM     14  C   UNL     1      13.711  46.229   6.370  1.00  0.00     0.051 A 
ATOM     15  C   UNL     1      12.884  45.109   6.220  1.00  0.00     0.157 A 
ATOM     16  C   UNL     1      12.886  44.799   8.625  1.00  0.00     0.062 A 
ATOM     17  C   UNL     1      12.469  44.394   7.348  1.00  0.00     0.158 A 
BRANCH  15  18
ATOM     18  O   UNL     1      12.468  44.703   4.952  1.00  0.00    -0.504 OA
ATOM     19  H   UNL     1      13.108  44.680   4.167  1.00  0.00     0.293 HD
ENDBRANCH  15  18
BRANCH  17  20
ATOM     20  O   UNL     1      11.643  43.281   7.196  1.00  0.00    -0.504 OA
ATOM     21  H   UNL     1      11.317  42.749   7.995  1.00  0.00     0.293 HD
ENDBRANCH  17  20
ENDBRANCH   1  12
BRANCH   6  22
ATOM     22  O   UNL     1      16.288  47.957  14.573  1.00  0.00    -0.507 OA
ATOM     23  H   UNL     1      17.165  47.828  14.090  1.00  0.00     0.293 HD
ENDBRANCH   6  22
BRANCH   8  24
ATOM     24  O   UNL     1      11.586  47.488  15.433  1.00  0.00    -0.508 OA
ATOM     25  H   UNL     1      11.539  48.232  16.120  1.00  0.00     0.293 HD
ENDBRANCH   8  24
TORSDOF 5
ENDMDL
