MODEL 1
REMARK VINA RESULT:    -3.953      0.000      0.000
REMARK INTER + INTRA:          -6.579
REMARK INTER:                  -6.033
REMARK INTRA:                  -0.547
REMARK UNBOUND:                -0.547
REMARK SMILES CCCCCCCCCCC(=O)[O-]
REMARK SMILES IDX 7 1 8 2 9 3 10 4 11 5 12 6 13 7 6 8 5 9 4 10 3 11 2 12 1 13
REMARK H PARENT
REMARK Flexibility Score: inf
ROOT
ATOM      1  C   UNL     1     -31.235  24.104  29.538  1.00  0.00     0.000 C 
ENDROOT
BRANCH   1   2
ATOM      2  C   UNL     1     -32.034  24.894  30.594  1.00  0.00     0.000 C 
BRANCH   2   3
ATOM      3  C   UNL     1     -33.517  25.120  30.250  1.00  0.00     0.006 C 
BRANCH   3   4
ATOM      4  C   UNL     1     -34.302  25.769  31.397  1.00  0.00     0.053 C 
BRANCH   4   5
ATOM      5  C   UNL     1     -34.596  24.763  32.463  1.00  0.00     0.041 C 
ATOM      6  O   UNL     1     -34.070  24.874  33.602  1.00  0.00    -0.550 OA
ATOM      7  O   UNL     1     -35.412  23.673  32.186  1.00  0.00    -0.550 OA
ENDBRANCH   4   5
ENDBRANCH   3   4
ENDBRANCH   2   3
ENDBRANCH   1   2
BRANCH   1   8
ATOM      8  C   UNL     1     -31.770  22.690  29.233  1.00  0.00     0.000 C 
BRANCH   8   9
ATOM      9  C   UNL     1     -30.778  21.767  28.506  1.00  0.00    -0.000 C 
BRANCH   9  10
ATOM     10  C   UNL     1     -29.313  22.067  28.866  1.00  0.00    -0.000 C 
BRANCH  10  11
ATOM     11  C   UNL     1     -28.382  22.016  27.644  1.00  0.00    -0.000 C 
BRANCH  11  12
ATOM     12  C   UNL     1     -28.936  22.806  26.449  1.00  0.00    -0.003 C 
ATOM     13  C   UNL     1     -28.906  21.968  25.174  1.00  0.00     0.004 C 
ENDBRANCH  11  12
ENDBRANCH  10  11
ENDBRANCH   9  10
ENDBRANCH   8   9
ENDBRANCH   1   8
TORSDOF 9
ENDMDL
MODEL 2
REMARK VINA RESULT:    -3.940      4.978      7.890
REMARK INTER + INTRA:          -6.560
REMARK INTER:                  -6.230
REMARK INTRA:                  -0.329
REMARK UNBOUND:                -0.547
REMARK SMILES CCCCCCCCCCC(=O)[O-]
REMARK SMILES IDX 7 1 8 2 9 3 10 4 11 5 12 6 13 7 6 8 5 9 4 10 3 11 2 12 1 13
REMARK H PARENT
REMARK Flexibility Score: inf
ROOT
ATOM      1  C   UNL     1     -29.919  22.629  27.980  1.00  0.00     0.000 C 
ENDROOT
BRANCH   1   2
ATOM      2  C   UNL     1     -29.162  21.683  27.027  1.00  0.00     0.000 C 
BRANCH   2   3
ATOM      3  C   UNL     1     -28.726  22.317  25.694  1.00  0.00     0.006 C 
BRANCH   3   4
ATOM      4  C   UNL     1     -29.187  21.512  24.473  1.00  0.00     0.053 C 
BRANCH   4   5
ATOM      5  C   UNL     1     -28.105  21.461  23.442  1.00  0.00     0.041 C 
ATOM      6  O   UNL     1     -28.119  22.258  22.468  1.00  0.00    -0.550 OA
ATOM      7  O   UNL     1     -27.106  20.499  23.529  1.00  0.00    -0.550 OA
ENDBRANCH   4   5
ENDBRANCH   3   4
ENDBRANCH   2   3
ENDBRANCH   1   2
BRANCH   1   8
ATOM      8  C   UNL     1     -31.075  21.980  28.767  1.00  0.00     0.000 C 
BRANCH   8   9
ATOM      9  C   UNL     1     -31.997  22.972  29.498  1.00  0.00    -0.000 C 
BRANCH   9  10
ATOM     10  C   UNL     1     -31.354  24.358  29.676  1.00  0.00    -0.000 C 
BRANCH  10  11
ATOM     11  C   UNL     1     -32.084  25.216  30.723  1.00  0.00    -0.000 C 
BRANCH  11  12
ATOM     12  C   UNL     1     -33.602  25.262  30.492  1.00  0.00    -0.003 C 
ATOM     13  C   UNL     1     -34.360  24.777  31.724  1.00  0.00     0.004 C 
ENDBRANCH  11  12
ENDBRANCH  10  11
ENDBRANCH   9  10
ENDBRANCH   8   9
ENDBRANCH   1   8
TORSDOF 9
ENDMDL
MODEL 3
REMARK VINA RESULT:    -3.932      1.462      2.562
REMARK INTER + INTRA:          -6.547
REMARK INTER:                  -6.096
REMARK INTRA:                  -0.451
REMARK UNBOUND:                -0.547
REMARK SMILES CCCCCCCCCCC(=O)[O-]
REMARK SMILES IDX 7 1 8 2 9 3 10 4 11 5 12 6 13 7 6 8 5 9 4 10 3 11 2 12 1 13
REMARK H PARENT
REMARK Flexibility Score: inf
ROOT
ATOM      1  C   UNL     1     -30.978  22.067  28.512  1.00  0.00     0.000 C 
ENDROOT
BRANCH   1   2
ATOM      2  C   UNL     1     -31.681  22.800  29.671  1.00  0.00     0.000 C 
BRANCH   2   3
ATOM      3  C   UNL     1     -31.646  24.336  29.585  1.00  0.00     0.006 C 
BRANCH   3   4
ATOM      4  C   UNL     1     -31.986  25.016  30.916  1.00  0.00     0.053 C 
BRANCH   4   5
ATOM      5  C   UNL     1     -33.468  25.124  31.084  1.00  0.00     0.041 C 
ATOM      6  O   UNL     1     -34.095  26.092  30.576  1.00  0.00    -0.550 OA
ATOM      7  O   UNL     1     -34.153  24.184  31.843  1.00  0.00    -0.550 OA
ENDBRANCH   4   5
ENDBRANCH   3   4
ENDBRANCH   2   3
ENDBRANCH   1   2
BRANCH   1   8
ATOM      8  C   UNL     1     -29.636  22.681  28.066  1.00  0.00     0.000 C 
BRANCH   8   9
ATOM      9  C   UNL     1     -29.203  22.317  26.635  1.00  0.00    -0.000 C 
BRANCH   9  10
ATOM     10  C   UNL     1     -29.916  21.063  26.099  1.00  0.00    -0.000 C 
BRANCH  10  11
ATOM     11  C   UNL     1     -29.745  20.890  24.582  1.00  0.00    -0.000 C 
BRANCH  11  12
ATOM     12  C   UNL     1     -28.299  21.130  24.120  1.00  0.00    -0.003 C 
ATOM     13  C   UNL     1     -28.259  22.016  22.878  1.00  0.00     0.004 C 
ENDBRANCH  11  12
ENDBRANCH  10  11
ENDBRANCH   9  10
ENDBRANCH   8   9
ENDBRANCH   1   8
TORSDOF 9
ENDMDL
MODEL 4
REMARK VINA RESULT:    -3.887      1.443      2.367
REMARK INTER + INTRA:          -6.478
REMARK INTER:                  -5.657
REMARK INTRA:                  -0.821
REMARK UNBOUND:                -0.547
REMARK SMILES CCCCCCCCCCC(=O)[O-]
REMARK SMILES IDX 7 1 8 2 9 3 10 4 11 5 12 6 13 7 6 8 5 9 4 10 3 11 2 12 1 13
REMARK H PARENT
REMARK Flexibility Score: inf
ROOT
ATOM      1  C   UNL     1     -32.064  25.300  30.782  1.00  0.00     0.000 C 
ENDROOT
BRANCH   1   2
ATOM      2  C   UNL     1     -33.562  25.254  30.419  1.00  0.00     0.000 C 
BRANCH   2   3
ATOM      3  C   UNL     1     -34.523  25.384  31.614  1.00  0.00     0.006 C 
BRANCH   3   4
ATOM      4  C   UNL     1     -34.103  24.524  32.812  1.00  0.00     0.053 C 
BRANCH   4   5
ATOM      5  C   UNL     1     -34.441  23.088  32.569  1.00  0.00     0.041 C 
ATOM      6  O   UNL     1     -35.643  22.730  32.456  1.00  0.00    -0.550 OA
ATOM      7  O   UNL     1     -33.431  22.135  32.516  1.00  0.00    -0.550 OA
ENDBRANCH   4   5
ENDBRANCH   3   4
ENDBRANCH   2   3
ENDBRANCH   1   2
BRANCH   1   8
ATOM      8  C   UNL     1     -31.239  24.083  30.318  1.00  0.00     0.000 C 
BRANCH   8   9
ATOM      9  C   UNL     1     -31.971  23.137  29.350  1.00  0.00    -0.000 C 
BRANCH   9  10
ATOM     10  C   UNL     1     -31.071  21.998  28.840  1.00  0.00    -0.000 C 
BRANCH  10  11
ATOM     11  C   UNL     1     -29.787  22.514  28.173  1.00  0.00    -0.000 C 
BRANCH  11  12
ATOM     12  C   UNL     1     -28.558  21.659  28.519  1.00  0.00    -0.003 C 
ATOM     13  C   UNL     1     -28.199  21.785  29.996  1.00  0.00     0.004 C 
ENDBRANCH  11  12
ENDBRANCH  10  11
ENDBRANCH   9  10
ENDBRANCH   8   9
ENDBRANCH   1   8
TORSDOF 9
ENDMDL
MODEL 5
REMARK VINA RESULT:    -3.850      4.104      7.054
REMARK INTER + INTRA:          -6.422
REMARK INTER:                  -5.923
REMARK INTRA:                  -0.500
REMARK UNBOUND:                -0.547
REMARK SMILES CCCCCCCCCCC(=O)[O-]
REMARK SMILES IDX 7 1 8 2 9 3 10 4 11 5 12 6 13 7 6 8 5 9 4 10 3 11 2 12 1 13
REMARK H PARENT
REMARK Flexibility Score: inf
ROOT
ATOM      1  C   UNL     1     -29.458  20.762  25.001  1.00  0.00     0.000 C 
ENDROOT
BRANCH   1   2
ATOM      2  C   UNL     1     -30.130  20.733  23.614  1.00  0.00     0.000 C 
BRANCH   2   3
ATOM      3  C   UNL     1     -31.178  19.622  23.424  1.00  0.00     0.006 C 
BRANCH   3   4
ATOM      4  C   UNL     1     -31.745  19.105  24.752  1.00  0.00     0.053 C 
BRANCH   4   5
ATOM      5  C   UNL     1     -33.226  19.301  24.799  1.00  0.00     0.041 C 
ATOM      6  O   UNL     1     -33.744  20.340  24.312  1.00  0.00    -0.550 OA
ATOM      7  O   UNL     1     -34.033  18.360  25.426  1.00  0.00    -0.550 OA
ENDBRANCH   4   5
ENDBRANCH   3   4
ENDBRANCH   2   3
ENDBRANCH   1   2
BRANCH   1   8
ATOM      8  C   UNL     1     -28.586  22.002  25.282  1.00  0.00     0.000 C 
BRANCH   8   9
ATOM      9  C   UNL     1     -28.974  22.793  26.543  1.00  0.00    -0.000 C 
BRANCH   9  10
ATOM     10  C   UNL     1     -29.953  22.025  27.448  1.00  0.00    -0.000 C 
BRANCH  10  11
ATOM     11  C   UNL     1     -30.110  22.674  28.832  1.00  0.00    -0.000 C 
BRANCH  11  12
ATOM     12  C   UNL     1     -31.581  22.896  29.216  1.00  0.00    -0.003 C 
ATOM     13  C   UNL     1     -31.787  24.280  29.825  1.00  0.00     0.004 C 
ENDBRANCH  11  12
ENDBRANCH  10  11
ENDBRANCH   9  10
ENDBRANCH   8   9
ENDBRANCH   1   8
TORSDOF 9
ENDMDL
MODEL 6
REMARK VINA RESULT:    -3.805      5.922      7.523
REMARK INTER + INTRA:          -6.354
REMARK INTER:                  -5.672
REMARK INTRA:                  -0.681
REMARK UNBOUND:                -0.547
REMARK SMILES CCCCCCCCCCC(=O)[O-]
REMARK SMILES IDX 7 1 8 2 9 3 10 4 11 5 12 6 13 7 6 8 5 9 4 10 3 11 2 12 1 13
REMARK H PARENT
REMARK Flexibility Score: inf
ROOT
ATOM      1  C   UNL     1     -31.309  18.865  23.574  1.00  0.00     0.000 C 
ENDROOT
BRANCH   1   2
ATOM      2  C   UNL     1     -32.111  19.811  24.490  1.00  0.00     0.000 C 
BRANCH   2   3
ATOM      3  C   UNL     1     -33.536  19.336  24.825  1.00  0.00     0.006 C 
BRANCH   3   4
ATOM      4  C   UNL     1     -33.724  17.827  24.624  1.00  0.00     0.053 C 
BRANCH   4   5
ATOM      5  C   UNL     1     -33.753  17.125  25.944  1.00  0.00     0.041 C 
ATOM      6  O   UNL     1     -32.725  17.097  26.671  1.00  0.00    -0.550 OA
ATOM      7  O   UNL     1     -34.901  16.457  26.352  1.00  0.00    -0.550 OA
ENDBRANCH   4   5
ENDBRANCH   3   4
ENDBRANCH   2   3
ENDBRANCH   1   2
BRANCH   1   8
ATOM      8  C   UNL     1     -30.186  19.536  22.759  1.00  0.00     0.000 C 
BRANCH   8   9
ATOM      9  C   UNL     1     -30.051  21.054  22.973  1.00  0.00    -0.000 C 
BRANCH   9  10
ATOM     10  C   UNL     1     -28.594  21.540  22.872  1.00  0.00    -0.000 C 
BRANCH  10  11
ATOM     11  C   UNL     1     -28.019  21.963  24.233  1.00  0.00    -0.000 C 
BRANCH  11  12
ATOM     12  C   UNL     1     -29.032  21.802  25.377  1.00  0.00    -0.003 C 
ATOM     13  C   UNL     1     -28.689  22.719  26.548  1.00  0.00     0.004 C 
ENDBRANCH  11  12
ENDBRANCH  10  11
ENDBRANCH   9  10
ENDBRANCH   8   9
ENDBRANCH   1   8
TORSDOF 9
ENDMDL
MODEL 7
REMARK VINA RESULT:    -3.761      4.053      7.155
REMARK INTER + INTRA:          -6.287
REMARK INTER:                  -5.740
REMARK INTRA:                  -0.547
REMARK UNBOUND:                -0.547
REMARK SMILES CCCCCCCCCCC(=O)[O-]
REMARK SMILES IDX 7 1 8 2 9 3 10 4 11 5 12 6 13 7 6 8 5 9 4 10 3 11 2 12 1 13
REMARK H PARENT
REMARK Flexibility Score: inf
ROOT
ATOM      1  C   UNL     1     -31.238  22.640  30.181  1.00  0.00     0.000 C 
ENDROOT
BRANCH   1   2
ATOM      2  C   UNL     1     -30.385  21.802  29.209  1.00  0.00     0.000 C 
BRANCH   2   3
ATOM      3  C   UNL     1     -29.838  22.575  27.995  1.00  0.00     0.006 C 
BRANCH   3   4
ATOM      4  C   UNL     1     -29.738  21.708  26.734  1.00  0.00     0.053 C 
BRANCH   4   5
ATOM      5  C   UNL     1     -28.658  22.219  25.834  1.00  0.00     0.041 C 
ATOM      6  O   UNL     1     -27.943  23.192  26.190  1.00  0.00    -0.550 OA
ATOM      7  O   UNL     1     -28.473  21.652  24.579  1.00  0.00    -0.550 OA
ENDBRANCH   4   5
ENDBRANCH   3   4
ENDBRANCH   2   3
ENDBRANCH   1   2
BRANCH   1   8
ATOM      8  C   UNL     1     -31.798  23.953  29.600  1.00  0.00     0.000 C 
BRANCH   8   9
ATOM      9  C   UNL     1     -32.078  25.053  30.638  1.00  0.00    -0.000 C 
BRANCH   9  10
ATOM     10  C   UNL     1     -33.559  25.466  30.682  1.00  0.00    -0.000 C 
BRANCH  10  11
ATOM     11  C   UNL     1     -34.170  25.322  32.086  1.00  0.00    -0.000 C 
BRANCH  11  12
ATOM     12  C   UNL     1     -35.045  24.068  32.222  1.00  0.00    -0.003 C 
ATOM     13  C   UNL     1     -34.220  22.869  32.682  1.00  0.00     0.004 C 
ENDBRANCH  11  12
ENDBRANCH  10  11
ENDBRANCH   9  10
ENDBRANCH   8   9
ENDBRANCH   1   8
TORSDOF 9
ENDMDL
MODEL 8
REMARK VINA RESULT:    -3.724      1.545      2.126
REMARK INTER + INTRA:          -6.229
REMARK INTER:                  -5.452
REMARK INTRA:                  -0.777
REMARK UNBOUND:                -0.547
REMARK SMILES CCCCCCCCCCC(=O)[O-]
REMARK SMILES IDX 7 1 8 2 9 3 10 4 11 5 12 6 13 7 6 8 5 9 4 10 3 11 2 12 1 13
REMARK H PARENT
REMARK Flexibility Score: inf
ROOT
ATOM      1  C   UNL     1     -31.404  22.424  29.273  1.00  0.00     0.000 C 
ENDROOT
BRANCH   1   2
ATOM      2  C   UNL     1     -32.033  23.831  29.243  1.00  0.00     0.000 C 
BRANCH   2   3
ATOM      3  C   UNL     1     -31.650  24.738  30.425  1.00  0.00     0.006 C 
BRANCH   3   4
ATOM      4  C   UNL     1     -32.529  24.509  31.661  1.00  0.00     0.053 C 
BRANCH   4   5
ATOM      5  C   UNL     1     -33.901  25.061  31.436  1.00  0.00     0.041 C 
ATOM      6  O   UNL     1     -34.057  26.122  30.777  1.00  0.00    -0.550 OA
ATOM      7  O   UNL     1     -35.004  24.432  31.998  1.00  0.00    -0.550 OA
ENDBRANCH   4   5
ENDBRANCH   3   4
ENDBRANCH   2   3
ENDBRANCH   1   2
BRANCH   1   8
ATOM      8  C   UNL     1     -29.904  22.383  29.626  1.00  0.00     0.000 C 
BRANCH   8   9
ATOM      9  C   UNL     1     -28.986  21.884  28.496  1.00  0.00    -0.000 C 
BRANCH   9  10
ATOM     10  C   UNL     1     -29.225  22.623  27.168  1.00  0.00    -0.000 C 
BRANCH  10  11
ATOM     11  C   UNL     1     -29.463  21.661  25.993  1.00  0.00    -0.000 C 
BRANCH  11  12
ATOM     12  C   UNL     1     -29.872  20.254  26.457  1.00  0.00    -0.003 C 
ATOM     13  C   UNL     1     -31.354  19.999  26.196  1.00  0.00     0.004 C 
ENDBRANCH  11  12
ENDBRANCH  10  11
ENDBRANCH   9  10
ENDBRANCH   8   9
ENDBRANCH   1   8
TORSDOF 9
ENDMDL
MODEL 9
REMARK VINA RESULT:    -3.717     14.621     16.616
REMARK INTER + INTRA:          -6.219
REMARK INTER:                  -5.934
REMARK INTRA:                  -0.284
REMARK UNBOUND:                -0.547
REMARK SMILES CCCCCCCCCCC(=O)[O-]
REMARK SMILES IDX 7 1 8 2 9 3 10 4 11 5 12 6 13 7 6 8 5 9 4 10 3 11 2 12 1 13
REMARK H PARENT
REMARK Flexibility Score: inf
ROOT
ATOM      1  C   UNL     1     -44.798  26.385  21.487  1.00  0.00     0.000 C 
ENDROOT
BRANCH   1   2
ATOM      2  C   UNL     1     -44.169  25.741  20.236  1.00  0.00     0.000 C 
BRANCH   2   3
ATOM      3  C   UNL     1     -45.125  24.864  19.408  1.00  0.00     0.006 C 
BRANCH   3   4
ATOM      4  C   UNL     1     -44.940  25.045  17.896  1.00  0.00     0.053 C 
BRANCH   4   5
ATOM      5  C   UNL     1     -44.090  23.949  17.338  1.00  0.00     0.041 C 
ATOM      6  O   UNL     1     -43.160  24.215  16.533  1.00  0.00    -0.550 OA
ATOM      7  O   UNL     1     -44.357  22.626  17.668  1.00  0.00    -0.550 OA
ENDBRANCH   4   5
ENDBRANCH   3   4
ENDBRANCH   2   3
ENDBRANCH   1   2
BRANCH   1   8
ATOM      8  C   UNL     1     -44.364  25.767  22.831  1.00  0.00     0.000 C 
BRANCH   8   9
ATOM      9  C   UNL     1     -45.007  26.406  24.075  1.00  0.00    -0.000 C 
BRANCH   9  10
ATOM     10  C   UNL     1     -44.023  27.286  24.865  1.00  0.00    -0.000 C 
BRANCH  10  11
ATOM     11  C   UNL     1     -43.967  28.728  24.337  1.00  0.00    -0.000 C 
BRANCH  11  12
ATOM     12  C   UNL     1     -44.074  29.772  25.459  1.00  0.00    -0.003 C 
ATOM     13  C   UNL     1     -42.757  29.901  26.218  1.00  0.00     0.004 C 
ENDBRANCH  11  12
ENDBRANCH  10  11
ENDBRANCH   9  10
ENDBRANCH   8   9
ENDBRANCH   1   8
TORSDOF 9
ENDMDL
