MODEL 1
REMARK VINA RESULT:    -0.805      0.000      0.000
REMARK INTER + INTRA:          -1.730
REMARK INTER:                  -1.322
REMARK INTRA:                  -0.408
REMARK UNBOUND:                -0.408
REMARK SMILES C[C@@H]1O[C@@H](OC[C@H]2O[C@@H](Oc3c(-c4ccc(O)c(O)c4)oc4cc(O)cc(O)c4c3=O)[C@H](O)[C@H](O)[C@@H]2O)[C@H](O)[C@H](O)[C@@H]1O
REMARK SMILES IDX 7 1 36 2 34 3 32 4 9 5 8 6 6 7 5 8 4 9 1 10 2 11 42 12 3 13
REMARK SMILES IDX 40 14 38 15 43 16 41 18 39 20 37 22 35 24 10 26 11 27 12 28
REMARK SMILES IDX 30 29 21 30 29 31 31 32 22 33 27 34 23 35 26 36 24 37 13 38
REMARK SMILES IDX 20 39 14 40 18 41 15 42 16 43 19 44 17 46 28 48 25 50 33 52
REMARK H PARENT 43 17 41 19 39 21 37 23 35 25 19 45 17 47 28 49 25 51 33 53
REMARK Flexibility Score: inf
ROOT
ATOM      1  C   UNL     1      47.047   6.940  20.451  1.00  0.00     0.180 C 
ATOM      2  C   UNL     1      47.589   6.394  21.812  1.00  0.00     0.177 C 
ATOM      3  C   UNL     1      48.128   7.469  22.770  1.00  0.00     0.180 C 
ATOM      4  C   UNL     1      47.135   8.673  22.802  1.00  0.00     0.214 C 
ATOM      5  C   UNL     1      46.782   9.088  21.343  1.00  0.00     0.339 C 
ATOM      6  O   UNL     1      46.154   8.046  20.632  1.00  0.00    -0.332 OA
ENDROOT
BRANCH   1   7
ATOM      7  C   UNL     1      46.317   5.812  19.667  1.00  0.00     0.198 C 
BRANCH   7   8
ATOM      8  O   UNL     1      46.653   5.787  18.299  1.00  0.00    -0.347 OA
BRANCH   8   9
ATOM      9  C   UNL     1      46.345   7.006  17.644  1.00  0.00     0.281 C 
ATOM     10  C   UNL     1      42.947   6.347  16.369  1.00  0.00     0.041 C 
ATOM     11  C   UNL     1      44.486   6.293  16.383  1.00  0.00     0.150 C 
ATOM     12  C   UNL     1      45.069   6.766  15.036  1.00  0.00     0.174 C 
ATOM     13  O   UNL     1      44.943   7.144  17.422  1.00  0.00    -0.344 OA
ATOM     14  C   UNL     1      46.593   6.548  15.083  1.00  0.00     0.179 C 
ATOM     15  C   UNL     1      47.201   7.184  16.348  1.00  0.00     0.202 C 
BRANCH  12  16
ATOM     16  O   UNL     1      44.765   8.128  14.838  1.00  0.00    -0.388 OA
ATOM     17  H   UNL     1      44.599   8.258  13.850  1.00  0.00     0.211 HD
ENDBRANCH  12  16
BRANCH  14  18
ATOM     18  O   UNL     1      47.191   7.057  13.914  1.00  0.00    -0.387 OA
ATOM     19  H   UNL     1      48.106   7.350  14.151  1.00  0.00     0.211 HD
ENDBRANCH  14  18
BRANCH  15  20
ATOM     20  O   UNL     1      47.510   8.552  16.142  1.00  0.00    -0.385 OA
ATOM     21  H   UNL     1      46.803   8.958  15.597  1.00  0.00     0.211 HD
ENDBRANCH  15  20
ENDBRANCH   8   9
ENDBRANCH   7   8
ENDBRANCH   1   7
BRANCH   2  22
ATOM     22  O   UNL     1      48.569   5.395  21.613  1.00  0.00    -0.387 OA
ATOM     23  H   UNL     1      48.502   4.750  22.362  1.00  0.00     0.211 HD
ENDBRANCH   2  22
BRANCH   3  24
ATOM     24  O   UNL     1      49.456   7.849  22.513  1.00  0.00    -0.387 OA
ATOM     25  H   UNL     1      49.893   7.155  21.947  1.00  0.00     0.211 HD
ENDBRANCH   3  24
BRANCH   5  26
ATOM     26  O   UNL     1      45.989  10.293  21.354  1.00  0.00    -0.454 OA
BRANCH  26  27
ATOM     27  C   UNL     1      44.693  10.534  21.853  1.00  0.00     0.214 A 
ATOM     28  C   UNL     1      43.698  10.927  20.937  1.00  0.00     0.180 A 
ATOM     29  C   UNL     1      44.313  10.371  23.210  1.00  0.00     0.239 A 
ATOM     30  O   UNL     1      42.452  11.125  21.335  1.00  0.00    -0.452 OA
ATOM     31  C   UNL     1      42.957  10.540  23.576  1.00  0.00     0.111 A 
ATOM     32  O   UNL     1      45.153  10.030  24.077  1.00  0.00    -0.285 OA
ATOM     33  C   UNL     1      42.051  10.934  22.571  1.00  0.00     0.146 A 
ATOM     34  C   UNL     1      42.471  10.303  24.892  1.00  0.00     0.134 A 
ATOM     35  C   UNL     1      40.706  11.116  22.867  1.00  0.00     0.094 A 
ATOM     36  C   UNL     1      41.087  10.359  25.138  1.00  0.00     0.093 A 
ATOM     37  C   UNL     1      40.205  10.777  24.133  1.00  0.00     0.123 A 
BRANCH  28  38
ATOM     38  C   UNL     1      43.983  11.076  19.519  1.00  0.00     0.025 A 
ATOM     39  C   UNL     1      45.316  11.111  19.130  1.00  0.00     0.062 A 
ATOM     40  C   UNL     1      42.987  10.929  18.558  1.00  0.00     0.016 A 
ATOM     41  C   UNL     1      45.686  10.939  17.800  1.00  0.00     0.158 A 
ATOM     42  C   UNL     1      43.326  10.751  17.208  1.00  0.00     0.051 A 
ATOM     43  C   UNL     1      44.682  10.700  16.823  1.00  0.00     0.157 A 
BRANCH  41  44
ATOM     44  O   UNL     1      47.054  10.969  17.500  1.00  0.00    -0.504 OA
ATOM     45  H   UNL     1      47.428  11.233  16.586  1.00  0.00     0.293 HD
ENDBRANCH  41  44
BRANCH  43  46
ATOM     46  O   UNL     1      44.996  10.332  15.514  1.00  0.00    -0.504 OA
ATOM     47  H   UNL     1      44.929   9.390  15.186  1.00  0.00     0.293 HD
ENDBRANCH  43  46
ENDBRANCH  28  38
BRANCH  34  48
ATOM     48  O   UNL     1      43.334   9.989  25.935  1.00  0.00    -0.507 OA
ATOM     49  H   UNL     1      43.057   9.382  26.678  1.00  0.00     0.293 HD
ENDBRANCH  34  48
BRANCH  37  50
ATOM     50  O   UNL     1      38.839  10.827  24.367  1.00  0.00    -0.508 OA
ATOM     51  H   UNL     1      38.180  10.182  23.914  1.00  0.00     0.293 HD
ENDBRANCH  37  50
ENDBRANCH  26  27
ENDBRANCH   5  26
BRANCH   4  52
ATOM     52  O   UNL     1      47.710   9.763  23.472  1.00  0.00    -0.384 OA
ATOM     53  H   UNL     1      47.093  10.534  23.377  1.00  0.00     0.211 HD
ENDBRANCH   4  52
TORSDOF 16
ENDMDL
MODEL 2
REMARK VINA RESULT:    -0.061      1.210      1.927
REMARK INTER + INTRA:          -0.508
REMARK INTER:                  -4.795
REMARK INTRA:                   4.287
REMARK UNBOUND:                -0.408
REMARK SMILES C[C@@H]1O[C@@H](OC[C@H]2O[C@@H](Oc3c(-c4ccc(O)c(O)c4)oc4cc(O)cc(O)c4c3=O)[C@H](O)[C@H](O)[C@@H]2O)[C@H](O)[C@H](O)[C@@H]1O
REMARK SMILES IDX 7 1 36 2 34 3 32 4 9 5 8 6 6 7 5 8 4 9 1 10 2 11 42 12 3 13
REMARK SMILES IDX 40 14 38 15 43 16 41 18 39 20 37 22 35 24 10 26 11 27 12 28
REMARK SMILES IDX 30 29 21 30 29 31 31 32 22 33 27 34 23 35 26 36 24 37 13 38
REMARK SMILES IDX 20 39 14 40 18 41 15 42 16 43 19 44 17 46 28 48 25 50 33 52
REMARK H PARENT 43 17 41 19 39 21 37 23 35 25 19 45 17 47 28 49 25 51 33 53
REMARK Flexibility Score: inf
ROOT
ATOM      1  C   UNL     1      46.804   6.846  19.383  1.00  0.00     0.180 C 
ATOM      2  C   UNL     1      46.751   5.669  20.412  1.00  0.00     0.177 C 
ATOM      3  C   UNL     1      47.162   6.046  21.846  1.00  0.00     0.180 C 
ATOM      4  C   UNL     1      46.483   7.396  22.235  1.00  0.00     0.214 C 
ATOM      5  C   UNL     1      46.715   8.437  21.099  1.00  0.00     0.339 C 
ATOM      6  O   UNL     1      46.149   8.022  19.877  1.00  0.00    -0.332 OA
ENDROOT
BRANCH   1   7
ATOM      7  C   UNL     1      46.150   6.418  18.038  1.00  0.00     0.198 C 
BRANCH   7   8
ATOM      8  O   UNL     1      47.056   5.793  17.160  1.00  0.00    -0.347 OA
BRANCH   8   9
ATOM      9  C   UNL     1      46.772   6.073  15.800  1.00  0.00     0.281 C 
ATOM     10  C   UNL     1      47.605   9.660  15.573  1.00  0.00     0.041 C 
ATOM     11  C   UNL     1      46.742   8.428  15.903  1.00  0.00     0.150 C 
ATOM     12  C   UNL     1      45.336   8.555  15.282  1.00  0.00     0.174 C 
ATOM     13  O   UNL     1      47.393   7.285  15.372  1.00  0.00    -0.344 OA
ATOM     14  C   UNL     1      44.498   7.360  15.773  1.00  0.00     0.179 C 
ATOM     15  C   UNL     1      45.234   6.031  15.521  1.00  0.00     0.202 C 
BRANCH  12  16
ATOM     16  O   UNL     1      45.435   8.552  13.875  1.00  0.00    -0.388 OA
ATOM     17  H   UNL     1      46.238   9.112  13.629  1.00  0.00     0.211 HD
ENDBRANCH  12  16
BRANCH  14  18
ATOM     18  O   UNL     1      43.232   7.371  15.156  1.00  0.00    -0.387 OA
ATOM     19  H   UNL     1      42.564   7.594  15.851  1.00  0.00     0.211 HD
ENDBRANCH  14  18
BRANCH  15  20
ATOM     20  O   UNL     1      44.979   5.536  14.218  1.00  0.00    -0.385 OA
ATOM     21  H   UNL     1      44.837   6.295  13.613  1.00  0.00     0.211 HD
ENDBRANCH  15  20
ENDBRANCH   8   9
ENDBRANCH   7   8
ENDBRANCH   1   7
BRANCH   2  22
ATOM     22  O   UNL     1      47.514   4.564  19.970  1.00  0.00    -0.387 OA
ATOM     23  H   UNL     1      47.193   3.761  20.453  1.00  0.00     0.211 HD
ENDBRANCH   2  22
BRANCH   3  24
ATOM     24  O   UNL     1      48.550   6.036  22.062  1.00  0.00    -0.387 OA
ATOM     25  H   UNL     1      48.747   6.432  22.956  1.00  0.00     0.211 HD
ENDBRANCH   3  24
BRANCH   5  26
ATOM     26  O   UNL     1      46.228   9.730  21.512  1.00  0.00    -0.454 OA
BRANCH  26  27
ATOM     27  C   UNL     1      45.073  10.087  22.235  1.00  0.00     0.214 A 
ATOM     28  C   UNL     1      44.051  10.770  21.546  1.00  0.00     0.180 A 
ATOM     29  C   UNL     1      44.851   9.773  23.600  1.00  0.00     0.239 A 
ATOM     30  O   UNL     1      42.923  11.094  22.157  1.00  0.00    -0.452 OA
ATOM     31  C   UNL     1      43.607  10.091  24.193  1.00  0.00     0.111 A 
ATOM     32  O   UNL     1      45.724   9.174  24.272  1.00  0.00    -0.285 OA
ATOM     33  C   UNL     1      42.661  10.776  23.404  1.00  0.00     0.146 A 
ATOM     34  C   UNL     1      43.264   9.728  25.525  1.00  0.00     0.134 A 
ATOM     35  C   UNL     1      41.420  11.115  23.928  1.00  0.00     0.094 A 
ATOM     36  C   UNL     1      41.956   9.959  25.990  1.00  0.00     0.093 A 
ATOM     37  C   UNL     1      41.037  10.662  25.199  1.00  0.00     0.123 A 
BRANCH  28  38
ATOM     38  C   UNL     1      44.168  11.095  20.134  1.00  0.00     0.025 A 
ATOM     39  C   UNL     1      45.443  11.123  19.584  1.00  0.00     0.062 A 
ATOM     40  C   UNL     1      43.055  11.123  19.299  1.00  0.00     0.016 A 
ATOM     41  C   UNL     1      45.637  11.115  18.206  1.00  0.00     0.158 A 
ATOM     42  C   UNL     1      43.215  11.112  17.904  1.00  0.00     0.051 A 
ATOM     43  C   UNL     1      44.509  11.054  17.344  1.00  0.00     0.157 A 
BRANCH  41  44
ATOM     44  O   UNL     1      46.957  11.125  17.738  1.00  0.00    -0.504 OA
ATOM     45  H   UNL     1      47.761  10.849  18.305  1.00  0.00     0.293 HD
ENDBRANCH  41  44
BRANCH  43  46
ATOM     46  O   UNL     1      44.637  10.851  15.970  1.00  0.00    -0.504 OA
ATOM     47  H   UNL     1      44.053  10.220  15.459  1.00  0.00     0.293 HD
ENDBRANCH  43  46
ENDBRANCH  28  38
BRANCH  34  48
ATOM     48  O   UNL     1      44.187   9.123  26.369  1.00  0.00    -0.507 OA
ATOM     49  H   UNL     1      44.626   9.628  27.111  1.00  0.00     0.293 HD
ENDBRANCH  34  48
BRANCH  37  50
ATOM     50  O   UNL     1      39.744  10.887  25.648  1.00  0.00    -0.508 OA
ATOM     51  H   UNL     1      39.085  10.120  25.828  1.00  0.00     0.293 HD
ENDBRANCH  37  50
ENDBRANCH  26  27
ENDBRANCH   5  26
BRANCH   4  52
ATOM     52  O   UNL     1      47.023   7.886  23.434  1.00  0.00    -0.384 OA
ATOM     53  H   UNL     1      47.527   7.145  23.862  1.00  0.00     0.211 HD
ENDBRANCH   4  52
TORSDOF 16
ENDMDL
