MODEL 1
REMARK VINA RESULT:    -5.648      0.000      0.000
REMARK INTER + INTRA:          -9.479
REMARK INTER:                  -8.785
REMARK INTRA:                  -0.693
REMARK UNBOUND:                -0.693
REMARK SMILES COc1cc(CNC(=O)CCCCC=CC(C)C)ccc1O
REMARK SMILES IDX 11 1 12 2 13 3 14 4 15 5 16 6 17 7 18 8 10 9 8 10 9 11 7 12
REMARK SMILES IDX 6 14 5 15 4 16 19 17 3 18 20 19 21 20 2 21 1 22 22 23
REMARK H PARENT 7 13 22 24
REMARK Flexibility Score: inf
ROOT
ATOM      1  C   UNL     1      71.152  49.474  23.698  1.00  0.00     0.010 C 
ENDROOT
BRANCH   1   2
ATOM      2  C   UNL     1      69.961  50.386  23.353  1.00  0.00     0.005 C 
BRANCH   2   3
ATOM      3  C   UNL     1      70.171  51.173  22.052  1.00  0.00     0.027 C 
BRANCH   3   4
ATOM      4  C   UNL     1      69.393  50.558  20.924  1.00  0.00    -0.031 C 
ATOM      5  C   UNL     1      68.804  51.316  19.983  1.00  0.00    -0.028 C 
BRANCH   5   6
ATOM      6  C   UNL     1      68.051  50.730  18.812  1.00  0.00     0.005 C 
ATOM      7  C   UNL     1      67.617  51.816  17.821  1.00  0.00     0.012 C 
ATOM      8  C   UNL     1      66.856  49.890  19.280  1.00  0.00     0.012 C 
ENDBRANCH   5   6
ENDBRANCH   3   4
ENDBRANCH   2   3
ENDBRANCH   1   2
BRANCH   1   9
ATOM      9  C   UNL     1      71.834  49.806  25.034  1.00  0.00     0.100 C 
BRANCH   9  10
ATOM     10  C   UNL     1      72.348  51.216  25.063  1.00  0.00     0.220 C 
ATOM     11  O   UNL     1      73.062  51.630  24.110  1.00  0.00    -0.275 OA
ATOM     12  N   UNL     1      72.001  52.090  26.147  1.00  0.00    -0.352 N 
ATOM     13  H   UNL     1      71.406  51.721  26.923  1.00  0.00     0.163 HD
BRANCH  12  14
ATOM     14  C   UNL     1      72.248  53.530  26.106  1.00  0.00     0.151 C 
BRANCH  14  15
ATOM     15  C   UNL     1      70.950  54.273  26.261  1.00  0.00    -0.025 A 
ATOM     16  C   UNL     1      70.652  55.362  25.428  1.00  0.00     0.056 A 
ATOM     17  C   UNL     1      70.061  53.925  27.287  1.00  0.00     0.009 A 
ATOM     18  C   UNL     1      69.461  56.096  25.606  1.00  0.00     0.160 A 
ATOM     19  C   UNL     1      68.884  54.650  27.474  1.00  0.00     0.050 A 
ATOM     20  C   UNL     1      68.580  55.733  26.642  1.00  0.00     0.157 A 
BRANCH  18  21
ATOM     21  O   UNL     1      69.130  57.185  24.784  1.00  0.00    -0.493 OA
ATOM     22  C   UNL     1      69.483  58.538  25.056  1.00  0.00     0.278 C 
ENDBRANCH  18  21
BRANCH  20  23
ATOM     23  O   UNL     1      67.401  56.443  26.867  1.00  0.00    -0.504 OA
ATOM     24  H   UNL     1      67.144  56.788  27.785  1.00  0.00     0.293 HD
ENDBRANCH  20  23
ENDBRANCH  14  15
ENDBRANCH  12  14
ENDBRANCH   9  10
ENDBRANCH   1   9
TORSDOF 10
ENDMDL
MODEL 2
REMARK VINA RESULT:    -5.647      4.161      6.126
REMARK INTER + INTRA:          -9.477
REMARK INTER:                  -8.029
REMARK INTRA:                  -1.448
REMARK UNBOUND:                -0.693
REMARK SMILES COc1cc(CNC(=O)CCCCC=CC(C)C)ccc1O
REMARK SMILES IDX 11 1 12 2 13 3 14 4 15 5 16 6 17 7 18 8 10 9 8 10 9 11 7 12
REMARK SMILES IDX 6 14 5 15 4 16 19 17 3 18 20 19 21 20 2 21 1 22 22 23
REMARK H PARENT 7 13 22 24
REMARK Flexibility Score: inf
ROOT
ATOM      1  C   UNL     1      70.376  55.131  18.062  1.00  0.00     0.010 C 
ENDROOT
BRANCH   1   2
ATOM      2  C   UNL     1      70.582  54.181  16.869  1.00  0.00     0.005 C 
BRANCH   2   3
ATOM      3  C   UNL     1      70.296  52.713  17.220  1.00  0.00     0.027 C 
BRANCH   3   4
ATOM      4  C   UNL     1      69.024  52.591  18.008  1.00  0.00    -0.031 C 
ATOM      5  C   UNL     1      68.433  51.399  18.202  1.00  0.00    -0.028 C 
BRANCH   5   6
ATOM      6  C   UNL     1      67.176  51.233  19.025  1.00  0.00     0.005 C 
ATOM      7  C   UNL     1      66.953  49.770  19.422  1.00  0.00     0.012 C 
ATOM      8  C   UNL     1      65.954  51.810  18.301  1.00  0.00     0.012 C 
ENDBRANCH   5   6
ENDBRANCH   3   4
ENDBRANCH   2   3
ENDBRANCH   1   2
BRANCH   1   9
ATOM      9  C   UNL     1      71.616  55.958  18.431  1.00  0.00     0.100 C 
BRANCH   9  10
ATOM     10  C   UNL     1      72.404  55.320  19.539  1.00  0.00     0.220 C 
ATOM     11  O   UNL     1      73.454  55.883  19.950  1.00  0.00    -0.275 OA
ATOM     12  N   UNL     1      71.947  54.100  20.141  1.00  0.00    -0.352 N 
ATOM     13  H   UNL     1      71.072  53.656  19.781  1.00  0.00     0.163 HD
BRANCH  12  14
ATOM     14  C   UNL     1      72.516  53.574  21.381  1.00  0.00     0.151 C 
BRANCH  14  15
ATOM     15  C   UNL     1      71.613  52.513  21.945  1.00  0.00    -0.025 A 
ATOM     16  C   UNL     1      71.930  51.883  23.158  1.00  0.00     0.056 A 
ATOM     17  C   UNL     1      70.486  52.096  21.225  1.00  0.00     0.009 A 
ATOM     18  C   UNL     1      71.116  50.850  23.664  1.00  0.00     0.160 A 
ATOM     19  C   UNL     1      69.678  51.070  21.715  1.00  0.00     0.050 A 
ATOM     20  C   UNL     1      69.987  50.443  22.927  1.00  0.00     0.157 A 
BRANCH  18  21
ATOM     21  O   UNL     1      71.401  50.206  24.879  1.00  0.00    -0.493 OA
ATOM     22  C   UNL     1      72.204  49.037  25.004  1.00  0.00     0.278 C 
ENDBRANCH  18  21
BRANCH  20  23
ATOM     23  O   UNL     1      69.165  49.411  23.379  1.00  0.00    -0.504 OA
ATOM     24  H   UNL     1      69.503  48.679  23.992  1.00  0.00     0.293 HD
ENDBRANCH  20  23
ENDBRANCH  14  15
ENDBRANCH  12  14
ENDBRANCH   9  10
ENDBRANCH   1   9
TORSDOF 10
ENDMDL
MODEL 3
REMARK VINA RESULT:    -5.582      2.423      3.902
REMARK INTER + INTRA:          -9.375
REMARK INTER:                  -8.575
REMARK INTRA:                  -0.800
REMARK UNBOUND:                -0.693
REMARK SMILES COc1cc(CNC(=O)CCCCC=CC(C)C)ccc1O
REMARK SMILES IDX 11 1 12 2 13 3 14 4 15 5 16 6 17 7 18 8 10 9 8 10 9 11 7 12
REMARK SMILES IDX 6 14 5 15 4 16 19 17 3 18 20 19 21 20 2 21 1 22 22 23
REMARK H PARENT 7 13 22 24
REMARK Flexibility Score: inf
ROOT
ATOM      1  C   UNL     1      68.319  50.970  20.275  1.00  0.00     0.010 C 
ENDROOT
BRANCH   1   2
ATOM      2  C   UNL     1      67.869  50.490  18.885  1.00  0.00     0.005 C 
BRANCH   2   3
ATOM      3  C   UNL     1      67.727  51.639  17.875  1.00  0.00     0.027 C 
BRANCH   3   4
ATOM      4  C   UNL     1      68.793  52.674  18.093  1.00  0.00    -0.031 C 
ATOM      5  C   UNL     1      69.749  52.899  17.174  1.00  0.00    -0.028 C 
BRANCH   5   6
ATOM      6  C   UNL     1      70.810  53.962  17.341  1.00  0.00     0.005 C 
ATOM      7  C   UNL     1      71.559  54.219  16.029  1.00  0.00     0.012 C 
ATOM      8  C   UNL     1      71.777  53.613  18.479  1.00  0.00     0.012 C 
ENDBRANCH   5   6
ENDBRANCH   3   4
ENDBRANCH   2   3
ENDBRANCH   1   2
BRANCH   1   9
ATOM      9  C   UNL     1      69.736  50.526  20.667  1.00  0.00     0.100 C 
BRANCH   9  10
ATOM     10  C   UNL     1      69.918  50.489  22.157  1.00  0.00     0.220 C 
ATOM     11  O   UNL     1      69.024  49.962  22.873  1.00  0.00    -0.275 OA
ATOM     12  N   UNL     1      71.111  51.018  22.754  1.00  0.00    -0.352 N 
ATOM     13  H   UNL     1      71.837  51.448  22.137  1.00  0.00     0.163 HD
BRANCH  12  14
ATOM     14  C   UNL     1      71.462  50.780  24.153  1.00  0.00     0.151 C 
BRANCH  14  15
ATOM     15  C   UNL     1      71.376  52.067  24.925  1.00  0.00    -0.025 A 
ATOM     16  C   UNL     1      70.800  53.207  24.343  1.00  0.00     0.056 A 
ATOM     17  C   UNL     1      71.936  52.154  26.206  1.00  0.00     0.009 A 
ATOM     18  C   UNL     1      70.767  54.430  25.042  1.00  0.00     0.160 A 
ATOM     19  C   UNL     1      71.912  53.363  26.903  1.00  0.00     0.050 A 
ATOM     20  C   UNL     1      71.334  54.500  26.329  1.00  0.00     0.157 A 
BRANCH  18  21
ATOM     21  O   UNL     1      70.191  55.585  24.491  1.00  0.00    -0.493 OA
ATOM     22  C   UNL     1      68.846  56.001  24.712  1.00  0.00     0.278 C 
ENDBRANCH  18  21
BRANCH  20  23
ATOM     23  O   UNL     1      71.342  55.694  27.049  1.00  0.00    -0.504 OA
ATOM     24  H   UNL     1      71.003  55.754  28.002  1.00  0.00     0.293 HD
ENDBRANCH  20  23
ENDBRANCH  14  15
ENDBRANCH  12  14
ENDBRANCH   9  10
ENDBRANCH   1   9
TORSDOF 10
ENDMDL
MODEL 4
REMARK VINA RESULT:    -5.487      3.232      7.509
REMARK INTER + INTRA:          -9.228
REMARK INTER:                  -8.299
REMARK INTRA:                  -0.929
REMARK UNBOUND:                -0.693
REMARK SMILES COc1cc(CNC(=O)CCCCC=CC(C)C)ccc1O
REMARK SMILES IDX 11 1 12 2 13 3 14 4 15 5 16 6 17 7 18 8 10 9 8 10 9 11 7 12
REMARK SMILES IDX 6 14 5 15 4 16 19 17 3 18 20 19 21 20 2 21 1 22 22 23
REMARK H PARENT 7 13 22 24
REMARK Flexibility Score: inf
ROOT
ATOM      1  C   UNL     1      71.930  51.163  23.552  1.00  0.00     0.010 C 
ENDROOT
BRANCH   1   2
ATOM      2  C   UNL     1      72.804  51.570  24.752  1.00  0.00     0.005 C 
BRANCH   2   3
ATOM      3  C   UNL     1      72.134  51.278  26.103  1.00  0.00     0.027 C 
BRANCH   3   4
ATOM      4  C   UNL     1      71.776  52.554  26.808  1.00  0.00    -0.031 C 
ATOM      5  C   UNL     1      70.904  53.427  26.276  1.00  0.00    -0.028 C 
BRANCH   5   6
ATOM      6  C   UNL     1      70.488  54.700  26.978  1.00  0.00     0.005 C 
ATOM      7  C   UNL     1      71.606  55.237  27.878  1.00  0.00     0.012 C 
ATOM      8  C   UNL     1      69.184  54.505  27.760  1.00  0.00     0.012 C 
ENDBRANCH   5   6
ENDBRANCH   3   4
ENDBRANCH   2   3
ENDBRANCH   1   2
BRANCH   1   9
ATOM      9  C   UNL     1      70.851  50.121  23.884  1.00  0.00     0.100 C 
BRANCH   9  10
ATOM     10  C   UNL     1      69.832  50.005  22.786  1.00  0.00     0.220 C 
ATOM     11  O   UNL     1      68.653  49.667  23.075  1.00  0.00    -0.275 OA
ATOM     12  N   UNL     1      70.193  50.306  21.430  1.00  0.00    -0.352 N 
ATOM     13  H   UNL     1      71.178  50.585  21.219  1.00  0.00     0.163 HD
BRANCH  12  14
ATOM     14  C   UNL     1      69.200  50.464  20.369  1.00  0.00     0.151 C 
BRANCH  14  15
ATOM     15  C   UNL     1      69.658  51.515  19.396  1.00  0.00    -0.025 A 
ATOM     16  C   UNL     1      70.655  52.433  19.760  1.00  0.00     0.056 A 
ATOM     17  C   UNL     1      69.040  51.627  18.144  1.00  0.00     0.009 A 
ATOM     18  C   UNL     1      71.049  53.453  18.871  1.00  0.00     0.160 A 
ATOM     19  C   UNL     1      69.420  52.639  17.260  1.00  0.00     0.050 A 
ATOM     20  C   UNL     1      70.417  53.552  17.617  1.00  0.00     0.157 A 
BRANCH  18  21
ATOM     21  O   UNL     1      72.049  54.381  19.202  1.00  0.00    -0.493 OA
ATOM     22  C   UNL     1      73.446  54.155  19.038  1.00  0.00     0.278 C 
ENDBRANCH  18  21
BRANCH  20  23
ATOM     23  O   UNL     1      70.761  54.558  16.714  1.00  0.00    -0.504 OA
ATOM     24  H   UNL     1      70.287  55.453  16.695  1.00  0.00     0.293 HD
ENDBRANCH  20  23
ENDBRANCH  14  15
ENDBRANCH  12  14
ENDBRANCH   9  10
ENDBRANCH   1   9
TORSDOF 10
ENDMDL
MODEL 5
REMARK VINA RESULT:    -5.449      4.814      7.549
REMARK INTER + INTRA:          -9.169
REMARK INTER:                  -7.231
REMARK INTRA:                  -1.938
REMARK UNBOUND:                -0.693
REMARK SMILES COc1cc(CNC(=O)CCCCC=CC(C)C)ccc1O
REMARK SMILES IDX 11 1 12 2 13 3 14 4 15 5 16 6 17 7 18 8 10 9 8 10 9 11 7 12
REMARK SMILES IDX 6 14 5 15 4 16 19 17 3 18 20 19 21 20 2 21 1 22 22 23
REMARK H PARENT 7 13 22 24
REMARK Flexibility Score: inf
ROOT
ATOM      1  C   UNL     1      75.209  54.408  19.587  1.00  0.00     0.010 C 
ENDROOT
BRANCH   1   2
ATOM      2  C   UNL     1      74.259  53.854  20.663  1.00  0.00     0.005 C 
BRANCH   2   3
ATOM      3  C   UNL     1      73.211  54.881  21.118  1.00  0.00     0.027 C 
BRANCH   3   4
ATOM      4  C   UNL     1      72.009  54.193  21.700  1.00  0.00    -0.031 C 
ATOM      5  C   UNL     1      71.635  52.969  21.289  1.00  0.00    -0.028 C 
BRANCH   5   6
ATOM      6  C   UNL     1      70.458  52.231  21.881  1.00  0.00     0.005 C 
ATOM      7  C   UNL     1      70.729  51.809  23.329  1.00  0.00     0.012 C 
ATOM      8  C   UNL     1      70.057  51.031  21.014  1.00  0.00     0.012 C 
ENDBRANCH   5   6
ENDBRANCH   3   4
ENDBRANCH   2   3
ENDBRANCH   1   2
BRANCH   1   9
ATOM      9  C   UNL     1      74.986  53.819  18.186  1.00  0.00     0.100 C 
BRANCH   9  10
ATOM     10  C   UNL     1      73.672  54.251  17.601  1.00  0.00     0.220 C 
ATOM     11  O   UNL     1      73.560  55.417  17.135  1.00  0.00    -0.275 OA
ATOM     12  N   UNL     1      72.569  53.334  17.545  1.00  0.00    -0.352 N 
ATOM     13  H   UNL     1      72.691  52.374  17.937  1.00  0.00     0.163 HD
BRANCH  12  14
ATOM     14  C   UNL     1      71.363  53.602  16.763  1.00  0.00     0.151 C 
BRANCH  14  15
ATOM     15  C   UNL     1      70.156  53.550  17.657  1.00  0.00    -0.025 A 
ATOM     16  C   UNL     1      69.222  52.511  17.529  1.00  0.00     0.056 A 
ATOM     17  C   UNL     1      69.920  54.580  18.577  1.00  0.00     0.009 A 
ATOM     18  C   UNL     1      68.061  52.488  18.327  1.00  0.00     0.160 A 
ATOM     19  C   UNL     1      68.770  54.568  19.367  1.00  0.00     0.050 A 
ATOM     20  C   UNL     1      67.839  53.530  19.246  1.00  0.00     0.157 A 
BRANCH  18  21
ATOM     21  O   UNL     1      67.112  51.457  18.229  1.00  0.00    -0.493 OA
ATOM     22  C   UNL     1      67.080  50.306  19.067  1.00  0.00     0.278 C 
ENDBRANCH  18  21
BRANCH  20  23
ATOM     23  O   UNL     1      66.694  53.559  20.042  1.00  0.00    -0.504 OA
ATOM     24  H   UNL     1      65.776  53.335  19.678  1.00  0.00     0.293 HD
ENDBRANCH  20  23
ENDBRANCH  14  15
ENDBRANCH  12  14
ENDBRANCH   9  10
ENDBRANCH   1   9
TORSDOF 10
ENDMDL
MODEL 6
REMARK VINA RESULT:    -5.422      3.544      4.748
REMARK INTER + INTRA:          -9.127
REMARK INTER:                  -7.600
REMARK INTRA:                  -1.527
REMARK UNBOUND:                -0.693
REMARK SMILES COc1cc(CNC(=O)CCCCC=CC(C)C)ccc1O
REMARK SMILES IDX 11 1 12 2 13 3 14 4 15 5 16 6 17 7 18 8 10 9 8 10 9 11 7 12
REMARK SMILES IDX 6 14 5 15 4 16 19 17 3 18 20 19 21 20 2 21 1 22 22 23
REMARK H PARENT 7 13 22 24
REMARK Flexibility Score: inf
ROOT
ATOM      1  C   UNL     1      71.367  49.690  24.362  1.00  0.00     0.010 C 
ENDROOT
BRANCH   1   2
ATOM      2  C   UNL     1      70.337  50.457  23.514  1.00  0.00     0.005 C 
BRANCH   2   3
ATOM      3  C   UNL     1      69.763  49.612  22.367  1.00  0.00     0.027 C 
BRANCH   3   4
ATOM      4  C   UNL     1      69.559  50.451  21.138  1.00  0.00    -0.031 C 
ATOM      5  C   UNL     1      68.379  50.475  20.495  1.00  0.00    -0.028 C 
BRANCH   5   6
ATOM      6  C   UNL     1      68.125  51.340  19.281  1.00  0.00     0.005 C 
ATOM      7  C   UNL     1      66.764  51.034  18.648  1.00  0.00     0.012 C 
ATOM      8  C   UNL     1      69.261  51.213  18.258  1.00  0.00     0.012 C 
ENDBRANCH   5   6
ENDBRANCH   3   4
ENDBRANCH   2   3
ENDBRANCH   1   2
BRANCH   1   9
ATOM      9  C   UNL     1      72.673  50.459  24.615  1.00  0.00     0.100 C 
BRANCH   9  10
ATOM     10  C   UNL     1      72.640  51.831  24.004  1.00  0.00     0.220 C 
ATOM     11  O   UNL     1      72.424  52.828  24.744  1.00  0.00    -0.275 OA
ATOM     12  N   UNL     1      72.885  52.004  22.601  1.00  0.00    -0.352 N 
ATOM     13  H   UNL     1      73.063  51.159  22.011  1.00  0.00     0.163 HD
BRANCH  12  14
ATOM     14  C   UNL     1      73.123  53.315  22.000  1.00  0.00     0.151 C 
BRANCH  14  15
ATOM     15  C   UNL     1      71.921  53.735  21.203  1.00  0.00    -0.025 A 
ATOM     16  C   UNL     1      72.056  54.108  19.856  1.00  0.00     0.056 A 
ATOM     17  C   UNL     1      70.666  53.825  21.820  1.00  0.00     0.009 A 
ATOM     18  C   UNL     1      70.941  54.555  19.120  1.00  0.00     0.160 A 
ATOM     19  C   UNL     1      69.558  54.272  21.100  1.00  0.00     0.050 A 
ATOM     20  C   UNL     1      69.688  54.639  19.756  1.00  0.00     0.157 A 
BRANCH  18  21
ATOM     21  O   UNL     1      71.043  54.926  17.770  1.00  0.00    -0.493 OA
ATOM     22  C   UNL     1      70.903  54.029  16.673  1.00  0.00     0.278 C 
ENDBRANCH  18  21
BRANCH  20  23
ATOM     23  O   UNL     1      68.561  55.096  19.072  1.00  0.00    -0.504 OA
ATOM     24  H   UNL     1      67.721  54.537  18.980  1.00  0.00     0.293 HD
ENDBRANCH  20  23
ENDBRANCH  14  15
ENDBRANCH  12  14
ENDBRANCH   9  10
ENDBRANCH   1   9
TORSDOF 10
ENDMDL
MODEL 7
REMARK VINA RESULT:    -5.400      2.792      7.144
REMARK INTER + INTRA:          -9.093
REMARK INTER:                  -8.516
REMARK INTRA:                  -0.577
REMARK UNBOUND:                -0.693
REMARK SMILES COc1cc(CNC(=O)CCCCC=CC(C)C)ccc1O
REMARK SMILES IDX 11 1 12 2 13 3 14 4 15 5 16 6 17 7 18 8 10 9 8 10 9 11 7 12
REMARK SMILES IDX 6 14 5 15 4 16 19 17 3 18 20 19 21 20 2 21 1 22 22 23
REMARK H PARENT 7 13 22 24
REMARK Flexibility Score: inf
ROOT
ATOM      1  C   UNL     1      71.977  52.082  26.265  1.00  0.00     0.010 C 
ENDROOT
BRANCH   1   2
ATOM      2  C   UNL     1      71.657  53.586  26.216  1.00  0.00     0.005 C 
BRANCH   2   3
ATOM      3  C   UNL     1      70.488  53.977  27.132  1.00  0.00     0.027 C 
BRANCH   3   4
ATOM      4  C   UNL     1      69.721  55.131  26.555  1.00  0.00    -0.031 C 
ATOM      5  C   UNL     1      68.424  55.327  26.850  1.00  0.00    -0.028 C 
BRANCH   5   6
ATOM      6  C   UNL     1      67.633  56.502  26.321  1.00  0.00     0.005 C 
ATOM      7  C   UNL     1      66.893  56.145  25.027  1.00  0.00     0.012 C 
ATOM      8  C   UNL     1      68.523  57.737  26.136  1.00  0.00     0.012 C 
ENDBRANCH   5   6
ENDBRANCH   3   4
ENDBRANCH   2   3
ENDBRANCH   1   2
BRANCH   1   9
ATOM      9  C   UNL     1      72.634  51.535  24.989  1.00  0.00     0.100 C 
BRANCH   9  10
ATOM     10  C   UNL     1      71.689  50.674  24.201  1.00  0.00     0.220 C 
ATOM     11  O   UNL     1      71.467  49.494  24.584  1.00  0.00    -0.275 OA
ATOM     12  N   UNL     1      71.024  51.202  23.043  1.00  0.00    -0.352 N 
ATOM     13  H   UNL     1      71.226  52.184  22.749  1.00  0.00     0.163 HD
BRANCH  12  14
ATOM     14  C   UNL     1      69.911  50.512  22.394  1.00  0.00     0.151 C 
BRANCH  14  15
ATOM     15  C   UNL     1      69.748  51.021  20.989  1.00  0.00    -0.025 A 
ATOM     16  C   UNL     1      70.532  52.089  20.525  1.00  0.00     0.056 A 
ATOM     17  C   UNL     1      68.761  50.477  20.156  1.00  0.00     0.009 A 
ATOM     18  C   UNL     1      70.344  52.605  19.227  1.00  0.00     0.160 A 
ATOM     19  C   UNL     1      68.565  50.986  18.872  1.00  0.00     0.050 A 
ATOM     20  C   UNL     1      69.348  52.047  18.404  1.00  0.00     0.157 A 
BRANCH  18  21
ATOM     21  O   UNL     1      71.118  53.667  18.731  1.00  0.00    -0.493 OA
ATOM     22  C   UNL     1      72.237  53.514  17.863  1.00  0.00     0.278 C 
ENDBRANCH  18  21
BRANCH  20  23
ATOM     23  O   UNL     1      69.114  52.539  17.120  1.00  0.00    -0.504 OA
ATOM     24  H   UNL     1      68.808  53.490  16.953  1.00  0.00     0.293 HD
ENDBRANCH  20  23
ENDBRANCH  14  15
ENDBRANCH  12  14
ENDBRANCH   9  10
ENDBRANCH   1   9
TORSDOF 10
ENDMDL
MODEL 8
REMARK VINA RESULT:    -5.378      2.937      7.403
REMARK INTER + INTRA:          -9.058
REMARK INTER:                  -8.024
REMARK INTRA:                  -1.034
REMARK UNBOUND:                -0.693
REMARK SMILES COc1cc(CNC(=O)CCCCC=CC(C)C)ccc1O
REMARK SMILES IDX 11 1 12 2 13 3 14 4 15 5 16 6 17 7 18 8 10 9 8 10 9 11 7 12
REMARK SMILES IDX 6 14 5 15 4 16 19 17 3 18 20 19 21 20 2 21 1 22 22 23
REMARK H PARENT 7 13 22 24
REMARK Flexibility Score: inf
ROOT
ATOM      1  C   UNL     1      66.455  56.182  22.110  1.00  0.00     0.010 C 
ENDROOT
BRANCH   1   2
ATOM      2  C   UNL     1      65.642  55.974  23.399  1.00  0.00     0.005 C 
BRANCH   2   3
ATOM      3  C   UNL     1      66.209  56.754  24.594  1.00  0.00     0.027 C 
BRANCH   3   4
ATOM      4  C   UNL     1      67.549  56.211  24.999  1.00  0.00    -0.031 C 
ATOM      5  C   UNL     1      67.897  56.098  26.292  1.00  0.00    -0.028 C 
BRANCH   5   6
ATOM      6  C   UNL     1      69.219  55.516  26.736  1.00  0.00     0.005 C 
ATOM      7  C   UNL     1      70.035  55.000  25.545  1.00  0.00     0.012 C 
ATOM      8  C   UNL     1      69.021  54.424  27.794  1.00  0.00     0.012 C 
ENDBRANCH   5   6
ENDBRANCH   3   4
ENDBRANCH   2   3
ENDBRANCH   1   2
BRANCH   1   9
ATOM      9  C   UNL     1      66.329  55.038  21.093  1.00  0.00     0.100 C 
BRANCH   9  10
ATOM     10  C   UNL     1      67.671  54.583  20.595  1.00  0.00     0.220 C 
ATOM     11  O   UNL     1      68.621  55.410  20.546  1.00  0.00    -0.275 OA
ATOM     12  N   UNL     1      67.874  53.215  20.211  1.00  0.00    -0.352 N 
ATOM     13  H   UNL     1      67.069  52.551  20.262  1.00  0.00     0.163 HD
BRANCH  12  14
ATOM     14  C   UNL     1      69.203  52.655  19.970  1.00  0.00     0.151 C 
BRANCH  14  15
ATOM     15  C   UNL     1      69.620  51.815  21.144  1.00  0.00    -0.025 A 
ATOM     16  C   UNL     1      70.450  52.350  22.141  1.00  0.00     0.056 A 
ATOM     17  C   UNL     1      69.240  50.468  21.213  1.00  0.00     0.009 A 
ATOM     18  C   UNL     1      70.889  51.550  23.215  1.00  0.00     0.160 A 
ATOM     19  C   UNL     1      69.675  49.667  22.269  1.00  0.00     0.050 A 
ATOM     20  C   UNL     1      70.498  50.199  23.268  1.00  0.00     0.157 A 
BRANCH  18  21
ATOM     21  O   UNL     1      71.712  52.058  24.232  1.00  0.00    -0.493 OA
ATOM     22  C   UNL     1      73.052  52.504  24.040  1.00  0.00     0.278 C 
ENDBRANCH  18  21
BRANCH  20  23
ATOM     23  O   UNL     1      70.925  49.365  24.301  1.00  0.00    -0.504 OA
ATOM     24  H   UNL     1      71.758  48.793  24.226  1.00  0.00     0.293 HD
ENDBRANCH  20  23
ENDBRANCH  14  15
ENDBRANCH  12  14
ENDBRANCH   9  10
ENDBRANCH   1   9
TORSDOF 10
ENDMDL
MODEL 9
REMARK VINA RESULT:    -5.353      2.813      6.598
REMARK INTER + INTRA:          -9.020
REMARK INTER:                  -8.320
REMARK INTRA:                  -0.700
REMARK UNBOUND:                -0.693
REMARK SMILES COc1cc(CNC(=O)CCCCC=CC(C)C)ccc1O
REMARK SMILES IDX 11 1 12 2 13 3 14 4 15 5 16 6 17 7 18 8 10 9 8 10 9 11 7 12
REMARK SMILES IDX 6 14 5 15 4 16 19 17 3 18 20 19 21 20 2 21 1 22 22 23
REMARK H PARENT 7 13 22 24
REMARK Flexibility Score: inf
ROOT
ATOM      1  C   UNL     1      69.971  54.384  27.574  1.00  0.00     0.010 C 
ENDROOT
BRANCH   1   2
ATOM      2  C   UNL     1      68.539  54.655  27.082  1.00  0.00     0.005 C 
BRANCH   2   3
ATOM      3  C   UNL     1      68.365  56.066  26.502  1.00  0.00     0.027 C 
BRANCH   3   4
ATOM      4  C   UNL     1      67.408  56.054  25.345  1.00  0.00    -0.031 C 
ATOM      5  C   UNL     1      66.293  56.805  25.350  1.00  0.00    -0.028 C 
BRANCH   5   6
ATOM      6  C   UNL     1      65.331  56.850  24.186  1.00  0.00     0.005 C 
ATOM      7  C   UNL     1      65.951  56.249  22.920  1.00  0.00     0.012 C 
ATOM      8  C   UNL     1      64.821  58.275  23.938  1.00  0.00     0.012 C 
ENDBRANCH   5   6
ENDBRANCH   3   4
ENDBRANCH   2   3
ENDBRANCH   1   2
BRANCH   1   9
ATOM      9  C   UNL     1      71.049  54.531  26.489  1.00  0.00     0.100 C 
BRANCH   9  10
ATOM     10  C   UNL     1      71.564  53.197  26.030  1.00  0.00     0.220 C 
ATOM     11  O   UNL     1      72.000  52.379  26.884  1.00  0.00    -0.275 OA
ATOM     12  N   UNL     1      71.527  52.848  24.638  1.00  0.00    -0.352 N 
ATOM     13  H   UNL     1      71.159  53.545  23.952  1.00  0.00     0.163 HD
BRANCH  12  14
ATOM     14  C   UNL     1      71.765  51.486  24.163  1.00  0.00     0.151 C 
BRANCH  14  15
ATOM     15  C   UNL     1      70.868  51.192  22.993  1.00  0.00    -0.025 A 
ATOM     16  C   UNL     1      70.868  52.032  21.869  1.00  0.00     0.056 A 
ATOM     17  C   UNL     1      69.974  50.115  23.049  1.00  0.00     0.009 A 
ATOM     18  C   UNL     1      69.990  51.791  20.794  1.00  0.00     0.160 A 
ATOM     19  C   UNL     1      69.096  49.873  21.992  1.00  0.00     0.050 A 
ATOM     20  C   UNL     1      69.097  50.705  20.867  1.00  0.00     0.157 A 
BRANCH  18  21
ATOM     21  O   UNL     1      69.972  52.607  19.652  1.00  0.00    -0.493 OA
ATOM     22  C   UNL     1      70.717  52.352  18.465  1.00  0.00     0.278 C 
ENDBRANCH  18  21
BRANCH  20  23
ATOM     23  O   UNL     1      68.196  50.441  19.835  1.00  0.00    -0.504 OA
ATOM     24  H   UNL     1      67.573  51.149  19.467  1.00  0.00     0.293 HD
ENDBRANCH  20  23
ENDBRANCH  14  15
ENDBRANCH  12  14
ENDBRANCH   9  10
ENDBRANCH   1   9
TORSDOF 10
ENDMDL
