MODEL 1
REMARK VINA RESULT:    -1.375      0.000      0.000
REMARK INTER + INTRA:          -6.868
REMARK INTER:                  -2.983
REMARK INTRA:                  -3.885
REMARK UNBOUND:                -3.885
REMARK SMILES CCCCCCCCCCCCCCCCCCCCCC(=O)[O-]
REMARK SMILES IDX 12 1 11 2 10 3 9 4 8 5 7 6 6 7 5 8 4 9 3 10 2 11 1 12 13 13
REMARK SMILES IDX 14 14 15 15 16 16 17 17 18 18 19 19 20 20 21 21 22 22 23 23
REMARK SMILES IDX 24 24
REMARK H PARENT
REMARK Flexibility Score: inf
ROOT
ATOM      1  C   UNL     1      20.100 -30.023   0.763  1.00  0.00     0.000 C 
ENDROOT
BRANCH   1   2
ATOM      2  C   UNL     1      20.433 -29.361   2.109  1.00  0.00     0.000 C 
BRANCH   2   3
ATOM      3  C   UNL     1      21.918 -29.488   2.485  1.00  0.00     0.000 C 
BRANCH   3   4
ATOM      4  C   UNL     1      22.891 -29.497   1.290  1.00  0.00    -0.000 C 
BRANCH   4   5
ATOM      5  C   UNL     1      23.685 -30.814   1.143  1.00  0.00    -0.000 C 
BRANCH   5   6
ATOM      6  C   UNL     1      23.245 -31.625  -0.089  1.00  0.00    -0.000 C 
BRANCH   6   7
ATOM      7  C   UNL     1      22.326 -32.803   0.270  1.00  0.00    -0.000 C 
BRANCH   7   8
ATOM      8  C   UNL     1      22.357 -33.143   1.771  1.00  0.00    -0.000 C 
BRANCH   8   9
ATOM      9  C   UNL     1      21.017 -33.705   2.275  1.00  0.00    -0.000 C 
BRANCH   9  10
ATOM     10  C   UNL     1      19.928 -33.689   1.187  1.00  0.00    -0.000 C 
BRANCH  10  11
ATOM     11  C   UNL     1      18.571 -33.201   1.719  1.00  0.00    -0.003 C 
ATOM     12  C   UNL     1      18.676 -32.539   3.093  1.00  0.00     0.004 C 
ENDBRANCH  10  11
ENDBRANCH   9  10
ENDBRANCH   8   9
ENDBRANCH   7   8
ENDBRANCH   6   7
ENDBRANCH   5   6
ENDBRANCH   4   5
ENDBRANCH   3   4
ENDBRANCH   2   3
ENDBRANCH   1   2
BRANCH   1  13
ATOM     13  C   UNL     1      19.759 -28.966  -0.297  1.00  0.00     0.000 C 
BRANCH  13  14
ATOM     14  C   UNL     1      20.594 -29.112  -1.582  1.00  0.00     0.000 C 
BRANCH  14  15
ATOM     15  C   UNL     1      21.185 -27.798  -2.125  1.00  0.00     0.000 C 
BRANCH  15  16
ATOM     16  C   UNL     1      21.805 -26.921  -1.026  1.00  0.00     0.000 C 
BRANCH  16  17
ATOM     17  C   UNL     1      21.263 -25.486  -1.100  1.00  0.00     0.000 C 
BRANCH  17  18
ATOM     18  C   UNL     1      20.634 -25.019   0.223  1.00  0.00     0.000 C 
BRANCH  18  19
ATOM     19  C   UNL     1      21.160 -25.799   1.437  1.00  0.00     0.000 C 
BRANCH  19  20
ATOM     20  C   UNL     1      20.148 -25.767   2.590  1.00  0.00     0.006 C 
BRANCH  20  21
ATOM     21  C   UNL     1      20.814 -26.145   3.916  1.00  0.00     0.053 C 
BRANCH  21  22
ATOM     22  C   UNL     1      19.852 -26.880   4.796  1.00  0.00     0.041 C 
ATOM     23  O   UNL     1      18.612 -26.720   4.650  1.00  0.00    -0.550 OA
ATOM     24  O   UNL     1      20.326 -27.767   5.754  1.00  0.00    -0.550 OA
ENDBRANCH  21  22
ENDBRANCH  20  21
ENDBRANCH  19  20
ENDBRANCH  18  19
ENDBRANCH  17  18
ENDBRANCH  16  17
ENDBRANCH  15  16
ENDBRANCH  14  15
ENDBRANCH  13  14
ENDBRANCH   1  13
TORSDOF 20
ENDMDL
MODEL 2
REMARK VINA RESULT:    -1.312      4.399      7.477
REMARK INTER + INTRA:          -6.732
REMARK INTER:                  -2.476
REMARK INTRA:                  -4.256
REMARK UNBOUND:                -3.885
REMARK SMILES CCCCCCCCCCCCCCCCCCCCCC(=O)[O-]
REMARK SMILES IDX 12 1 11 2 10 3 9 4 8 5 7 6 6 7 5 8 4 9 3 10 2 11 1 12 13 13
REMARK SMILES IDX 14 14 15 15 16 16 17 17 18 18 19 19 20 20 21 21 22 22 23 23
REMARK SMILES IDX 24 24
REMARK H PARENT
REMARK Flexibility Score: inf
ROOT
ATOM      1  C   UNL     1      13.048 -31.645   3.207  1.00  0.00     0.000 C 
ENDROOT
BRANCH   1   2
ATOM      2  C   UNL     1      13.941 -30.498   3.705  1.00  0.00     0.000 C 
BRANCH   2   3
ATOM      3  C   UNL     1      15.008 -30.083   2.678  1.00  0.00     0.000 C 
BRANCH   3   4
ATOM      4  C   UNL     1      16.409 -30.677   2.924  1.00  0.00    -0.000 C 
BRANCH   4   5
ATOM      5  C   UNL     1      16.955 -30.417   4.345  1.00  0.00    -0.000 C 
BRANCH   5   6
ATOM      6  C   UNL     1      17.274 -31.723   5.094  1.00  0.00    -0.000 C 
BRANCH   6   7
ATOM      7  C   UNL     1      16.563 -32.945   4.491  1.00  0.00    -0.000 C 
BRANCH   7   8
ATOM      8  C   UNL     1      15.468 -33.508   5.415  1.00  0.00    -0.000 C 
BRANCH   8   9
ATOM      9  C   UNL     1      15.201 -35.003   5.167  1.00  0.00    -0.000 C 
BRANCH   9  10
ATOM     10  C   UNL     1      16.271 -35.649   4.269  1.00  0.00    -0.000 C 
BRANCH  10  11
ATOM     11  C   UNL     1      17.360 -36.370   5.078  1.00  0.00    -0.003 C 
ATOM     12  C   UNL     1      18.757 -36.193   4.483  1.00  0.00     0.004 C 
ENDBRANCH  10  11
ENDBRANCH   9  10
ENDBRANCH   8   9
ENDBRANCH   7   8
ENDBRANCH   6   7
ENDBRANCH   5   6
ENDBRANCH   4   5
ENDBRANCH   3   4
ENDBRANCH   2   3
ENDBRANCH   1   2
BRANCH   1  13
ATOM     13  C   UNL     1      12.861 -31.572   1.684  1.00  0.00     0.000 C 
BRANCH  13  14
ATOM     14  C   UNL     1      13.093 -32.923   0.985  1.00  0.00     0.000 C 
BRANCH  14  15
ATOM     15  C   UNL     1      14.047 -33.881   1.722  1.00  0.00     0.000 C 
BRANCH  15  16
ATOM     16  C   UNL     1      15.102 -34.505   0.795  1.00  0.00     0.000 C 
BRANCH  16  17
ATOM     17  C   UNL     1      16.500 -33.948   1.104  1.00  0.00     0.000 C 
BRANCH  17  18
ATOM     18  C   UNL     1      17.621 -34.957   0.806  1.00  0.00     0.000 C 
BRANCH  18  19
ATOM     19  C   UNL     1      19.020 -34.392   1.093  1.00  0.00     0.000 C 
BRANCH  19  20
ATOM     20  C   UNL     1      18.930 -32.985   1.697  1.00  0.00     0.006 C 
BRANCH  20  21
ATOM     21  C   UNL     1      19.897 -32.830   2.875  1.00  0.00     0.053 C 
BRANCH  21  22
ATOM     22  C   UNL     1      20.436 -31.435   2.931  1.00  0.00     0.041 C 
ATOM     23  O   UNL     1      21.196 -31.087   3.872  1.00  0.00    -0.550 OA
ATOM     24  O   UNL     1      20.123 -30.528   1.925  1.00  0.00    -0.550 OA
ENDBRANCH  21  22
ENDBRANCH  20  21
ENDBRANCH  19  20
ENDBRANCH  18  19
ENDBRANCH  17  18
ENDBRANCH  16  17
ENDBRANCH  15  16
ENDBRANCH  14  15
ENDBRANCH  13  14
ENDBRANCH   1  13
TORSDOF 20
ENDMDL
MODEL 3
REMARK VINA RESULT:    -1.307      4.110      7.806
REMARK INTER + INTRA:          -6.719
REMARK INTER:                  -2.583
REMARK INTRA:                  -4.136
REMARK UNBOUND:                -3.885
REMARK SMILES CCCCCCCCCCCCCCCCCCCCCC(=O)[O-]
REMARK SMILES IDX 12 1 11 2 10 3 9 4 8 5 7 6 6 7 5 8 4 9 3 10 2 11 1 12 13 13
REMARK SMILES IDX 14 14 15 15 16 16 17 17 18 18 19 19 20 20 21 21 22 22 23 23
REMARK SMILES IDX 24 24
REMARK H PARENT
REMARK Flexibility Score: inf
ROOT
ATOM      1  C   UNL     1      17.371 -33.272   3.449  1.00  0.00     0.000 C 
ENDROOT
BRANCH   1   2
ATOM      2  C   UNL     1      18.789 -33.539   2.920  1.00  0.00     0.000 C 
BRANCH   2   3
ATOM      3  C   UNL     1      19.053 -32.876   1.558  1.00  0.00     0.000 C 
BRANCH   3   4
ATOM      4  C   UNL     1      20.535 -32.583   1.256  1.00  0.00    -0.000 C 
BRANCH   4   5
ATOM      5  C   UNL     1      20.812 -31.116   0.859  1.00  0.00    -0.000 C 
BRANCH   5   6
ATOM      6  C   UNL     1      19.666 -30.176   1.272  1.00  0.00    -0.000 C 
BRANCH   6   7
ATOM      7  C   UNL     1      20.035 -29.270   2.457  1.00  0.00    -0.000 C 
BRANCH   7   8
ATOM      8  C   UNL     1      19.077 -29.435   3.650  1.00  0.00    -0.000 C 
BRANCH   8   9
ATOM      9  C   UNL     1      19.593 -30.451   4.683  1.00  0.00    -0.000 C 
BRANCH   9  10
ATOM     10  C   UNL     1      21.123 -30.606   4.640  1.00  0.00    -0.000 C 
BRANCH  10  11
ATOM     11  C   UNL     1      21.571 -32.070   4.784  1.00  0.00    -0.003 C 
ATOM     12  C   UNL     1      23.062 -32.207   5.095  1.00  0.00     0.004 C 
ENDBRANCH  10  11
ENDBRANCH   9  10
ENDBRANCH   8   9
ENDBRANCH   7   8
ENDBRANCH   6   7
ENDBRANCH   5   6
ENDBRANCH   4   5
ENDBRANCH   3   4
ENDBRANCH   2   3
ENDBRANCH   1   2
BRANCH   1  13
ATOM     13  C   UNL     1      16.752 -32.047   2.761  1.00  0.00     0.000 C 
BRANCH  13  14
ATOM     14  C   UNL     1      15.717 -31.322   3.640  1.00  0.00     0.000 C 
BRANCH  14  15
ATOM     15  C   UNL     1      14.248 -31.622   3.295  1.00  0.00     0.000 C 
BRANCH  15  16
ATOM     16  C   UNL     1      14.091 -32.430   1.997  1.00  0.00     0.000 C 
BRANCH  16  17
ATOM     17  C   UNL     1      13.680 -33.879   2.300  1.00  0.00     0.000 C 
BRANCH  17  18
ATOM     18  C   UNL     1      14.429 -34.903   1.432  1.00  0.00     0.000 C 
BRANCH  18  19
ATOM     19  C   UNL     1      15.237 -34.246   0.303  1.00  0.00     0.000 C 
BRANCH  19  20
ATOM     20  C   UNL     1      16.490 -35.067  -0.025  1.00  0.00     0.006 C 
BRANCH  20  21
ATOM     21  C   UNL     1      16.535 -36.355   0.802  1.00  0.00     0.053 C 
BRANCH  21  22
ATOM     22  C   UNL     1      17.922 -36.608   1.303  1.00  0.00     0.041 C 
ATOM     23  O   UNL     1      18.916 -36.355   0.572  1.00  0.00    -0.550 OA
ATOM     24  O   UNL     1      18.118 -37.091   2.592  1.00  0.00    -0.550 OA
ENDBRANCH  21  22
ENDBRANCH  20  21
ENDBRANCH  19  20
ENDBRANCH  18  19
ENDBRANCH  17  18
ENDBRANCH  16  17
ENDBRANCH  15  16
ENDBRANCH  14  15
ENDBRANCH  13  14
ENDBRANCH   1  13
TORSDOF 20
ENDMDL
MODEL 4
REMARK VINA RESULT:    -1.305      3.168      6.938
REMARK INTER + INTRA:          -6.716
REMARK INTER:                  -3.099
REMARK INTRA:                  -3.618
REMARK UNBOUND:                -3.885
REMARK SMILES CCCCCCCCCCCCCCCCCCCCCC(=O)[O-]
REMARK SMILES IDX 12 1 11 2 10 3 9 4 8 5 7 6 6 7 5 8 4 9 3 10 2 11 1 12 13 13
REMARK SMILES IDX 14 14 15 15 16 16 17 17 18 18 19 19 20 20 21 21 22 22 23 23
REMARK SMILES IDX 24 24
REMARK H PARENT
REMARK Flexibility Score: inf
ROOT
ATOM      1  C   UNL     1      16.277 -30.891   2.746  1.00  0.00     0.000 C 
ENDROOT
BRANCH   1   2
ATOM      2  C   UNL     1      17.780 -30.571   2.760  1.00  0.00     0.000 C 
BRANCH   2   3
ATOM      3  C   UNL     1      18.346 -30.431   4.182  1.00  0.00     0.000 C 
BRANCH   3   4
ATOM      4  C   UNL     1      19.661 -29.632   4.280  1.00  0.00    -0.000 C 
BRANCH   4   5
ATOM      5  C   UNL     1      20.309 -29.328   2.912  1.00  0.00    -0.000 C 
BRANCH   5   6
ATOM      6  C   UNL     1      21.764 -29.823   2.834  1.00  0.00    -0.000 C 
BRANCH   6   7
ATOM      7  C   UNL     1      21.884 -31.228   2.223  1.00  0.00    -0.000 C 
BRANCH   7   8
ATOM      8  C   UNL     1      21.007 -31.408   0.971  1.00  0.00    -0.000 C 
BRANCH   8   9
ATOM      9  C   UNL     1      21.840 -31.576  -0.311  1.00  0.00    -0.000 C 
BRANCH   9  10
ATOM     10  C   UNL     1      21.799 -30.324  -1.206  1.00  0.00    -0.000 C 
BRANCH  10  11
ATOM     11  C   UNL     1      20.628 -29.391  -0.858  1.00  0.00    -0.003 C 
ATOM     12  C   UNL     1      20.477 -28.235  -1.847  1.00  0.00     0.004 C 
ENDBRANCH  10  11
ENDBRANCH   9  10
ENDBRANCH   8   9
ENDBRANCH   7   8
ENDBRANCH   6   7
ENDBRANCH   5   6
ENDBRANCH   4   5
ENDBRANCH   3   4
ENDBRANCH   2   3
ENDBRANCH   1   2
BRANCH   1  13
ATOM     13  C   UNL     1      15.920 -31.892   3.855  1.00  0.00     0.000 C 
BRANCH  13  14
ATOM     14  C   UNL     1      15.072 -33.073   3.348  1.00  0.00     0.000 C 
BRANCH  14  15
ATOM     15  C   UNL     1      14.335 -32.820   2.021  1.00  0.00     0.000 C 
BRANCH  15  16
ATOM     16  C   UNL     1      14.794 -33.758   0.893  1.00  0.00     0.000 C 
BRANCH  16  17
ATOM     17  C   UNL     1      15.871 -34.730   1.395  1.00  0.00     0.000 C 
BRANCH  17  18
ATOM     18  C   UNL     1      17.175 -34.643   0.583  1.00  0.00     0.000 C 
BRANCH  18  19
ATOM     19  C   UNL     1      18.293 -33.906   1.335  1.00  0.00     0.000 C 
BRANCH  19  20
ATOM     20  C   UNL     1      18.441 -34.443   2.764  1.00  0.00     0.006 C 
BRANCH  20  21
ATOM     21  C   UNL     1      19.651 -33.817   3.462  1.00  0.00     0.053 C 
BRANCH  21  22
ATOM     22  C   UNL     1      20.809 -34.766   3.456  1.00  0.00     0.041 C 
ATOM     23  O   UNL     1      20.668 -35.934   3.009  1.00  0.00    -0.550 OA
ATOM     24  O   UNL     1      22.052 -34.347   3.914  1.00  0.00    -0.550 OA
ENDBRANCH  21  22
ENDBRANCH  20  21
ENDBRANCH  19  20
ENDBRANCH  18  19
ENDBRANCH  17  18
ENDBRANCH  16  17
ENDBRANCH  15  16
ENDBRANCH  14  15
ENDBRANCH  13  14
ENDBRANCH   1  13
TORSDOF 20
ENDMDL
MODEL 5
REMARK VINA RESULT:    -1.304      2.305      5.438
REMARK INTER + INTRA:          -6.714
REMARK INTER:                  -2.725
REMARK INTRA:                  -3.988
REMARK UNBOUND:                -3.885
REMARK SMILES CCCCCCCCCCCCCCCCCCCCCC(=O)[O-]
REMARK SMILES IDX 12 1 11 2 10 3 9 4 8 5 7 6 6 7 5 8 4 9 3 10 2 11 1 12 13 13
REMARK SMILES IDX 14 14 15 15 16 16 17 17 18 18 19 19 20 20 21 21 22 22 23 23
REMARK SMILES IDX 24 24
REMARK H PARENT
REMARK Flexibility Score: inf
ROOT
ATOM      1  C   UNL     1      20.481 -26.284   2.350  1.00  0.00     0.000 C 
ENDROOT
BRANCH   1   2
ATOM      2  C   UNL     1      20.489 -25.468   1.048  1.00  0.00     0.000 C 
BRANCH   2   3
ATOM      3  C   UNL     1      21.572 -25.931   0.060  1.00  0.00     0.000 C 
BRANCH   3   4
ATOM      4  C   UNL     1      21.041 -26.653  -1.194  1.00  0.00    -0.000 C 
BRANCH   4   5
ATOM      5  C   UNL     1      21.328 -28.170  -1.208  1.00  0.00    -0.000 C 
BRANCH   5   6
ATOM      6  C   UNL     1      20.070 -29.003  -0.902  1.00  0.00    -0.000 C 
BRANCH   6   7
ATOM      7  C   UNL     1      19.948 -29.376   0.584  1.00  0.00    -0.000 C 
BRANCH   7   8
ATOM      8  C   UNL     1      20.424 -30.811   0.875  1.00  0.00    -0.000 C 
BRANCH   8   9
ATOM      9  C   UNL     1      21.544 -30.855   1.929  1.00  0.00    -0.000 C 
BRANCH   9  10
ATOM     10  C   UNL     1      22.810 -30.110   1.472  1.00  0.00    -0.000 C 
BRANCH  10  11
ATOM     11  C   UNL     1      23.114 -28.878   2.340  1.00  0.00    -0.003 C 
ATOM     12  C   UNL     1      24.163 -27.957   1.717  1.00  0.00     0.004 C 
ENDBRANCH  10  11
ENDBRANCH   9  10
ENDBRANCH   8   9
ENDBRANCH   7   8
ENDBRANCH   6   7
ENDBRANCH   5   6
ENDBRANCH   4   5
ENDBRANCH   3   4
ENDBRANCH   2   3
ENDBRANCH   1   2
BRANCH   1  13
ATOM     13  C   UNL     1      20.889 -25.411   3.545  1.00  0.00     0.000 C 
BRANCH  13  14
ATOM     14  C   UNL     1      22.401 -25.449   3.830  1.00  0.00     0.000 C 
BRANCH  14  15
ATOM     15  C   UNL     1      22.809 -26.283   5.059  1.00  0.00     0.000 C 
BRANCH  15  16
ATOM     16  C   UNL     1      21.604 -26.868   5.812  1.00  0.00     0.000 C 
BRANCH  16  17
ATOM     17  C   UNL     1      21.592 -28.402   5.718  1.00  0.00     0.000 C 
BRANCH  17  18
ATOM     18  C   UNL     1      20.407 -28.938   4.898  1.00  0.00     0.000 C 
BRANCH  18  19
ATOM     19  C   UNL     1      20.067 -30.398   5.232  1.00  0.00     0.000 C 
BRANCH  19  20
ATOM     20  C   UNL     1      18.584 -30.690   4.969  1.00  0.00     0.006 C 
BRANCH  20  21
ATOM     21  C   UNL     1      18.075 -29.900   3.760  1.00  0.00     0.053 C 
BRANCH  21  22
ATOM     22  C   UNL     1      17.142 -30.738   2.942  1.00  0.00     0.041 C 
ATOM     23  O   UNL     1      17.485 -31.891   2.572  1.00  0.00    -0.550 OA
ATOM     24  O   UNL     1      15.880 -30.255   2.617  1.00  0.00    -0.550 OA
ENDBRANCH  21  22
ENDBRANCH  20  21
ENDBRANCH  19  20
ENDBRANCH  18  19
ENDBRANCH  17  18
ENDBRANCH  16  17
ENDBRANCH  15  16
ENDBRANCH  14  15
ENDBRANCH  13  14
ENDBRANCH   1  13
TORSDOF 20
ENDMDL
MODEL 6
REMARK VINA RESULT:    -1.287      3.267      7.108
REMARK INTER + INTRA:          -6.676
REMARK INTER:                  -3.070
REMARK INTRA:                  -3.606
REMARK UNBOUND:                -3.885
REMARK SMILES CCCCCCCCCCCCCCCCCCCCCC(=O)[O-]
REMARK SMILES IDX 12 1 11 2 10 3 9 4 8 5 7 6 6 7 5 8 4 9 3 10 2 11 1 12 13 13
REMARK SMILES IDX 14 14 15 15 16 16 17 17 18 18 19 19 20 20 21 21 22 22 23 23
REMARK SMILES IDX 24 24
REMARK H PARENT
REMARK Flexibility Score: inf
ROOT
ATOM      1  C   UNL     1      20.377 -30.029   0.441  1.00  0.00     0.000 C 
ENDROOT
BRANCH   1   2
ATOM      2  C   UNL     1      20.005 -28.917  -0.553  1.00  0.00     0.000 C 
BRANCH   2   3
ATOM      3  C   UNL     1      20.834 -28.972  -1.846  1.00  0.00     0.000 C 
BRANCH   3   4
ATOM      4  C   UNL     1      21.684 -27.716  -2.125  1.00  0.00    -0.000 C 
BRANCH   4   5
ATOM      5  C   UNL     1      21.188 -26.453  -1.387  1.00  0.00    -0.000 C 
BRANCH   5   6
ATOM      6  C   UNL     1      22.220 -25.929  -0.373  1.00  0.00    -0.000 C 
BRANCH   6   7
ATOM      7  C   UNL     1      21.647 -25.798   1.047  1.00  0.00    -0.000 C 
BRANCH   7   8
ATOM      8  C   UNL     1      22.071 -26.958   1.966  1.00  0.00    -0.000 C 
BRANCH   8   9
ATOM      9  C   UNL     1      23.550 -27.341   1.786  1.00  0.00    -0.000 C 
BRANCH   9  10
ATOM     10  C   UNL     1      23.739 -28.846   1.528  1.00  0.00    -0.000 C 
BRANCH  10  11
ATOM     11  C   UNL     1      24.209 -29.143   0.095  1.00  0.00    -0.003 C 
ATOM     12  C   UNL     1      23.966 -30.594  -0.321  1.00  0.00     0.004 C 
ENDBRANCH  10  11
ENDBRANCH   9  10
ENDBRANCH   8   9
ENDBRANCH   7   8
ENDBRANCH   6   7
ENDBRANCH   5   6
ENDBRANCH   4   5
ENDBRANCH   3   4
ENDBRANCH   2   3
ENDBRANCH   1   2
BRANCH   1  13
ATOM     13  C   UNL     1      19.717 -29.787   1.806  1.00  0.00     0.000 C 
BRANCH  13  14
ATOM     14  C   UNL     1      20.575 -30.282   2.984  1.00  0.00     0.000 C 
BRANCH  14  15
ATOM     15  C   UNL     1      21.331 -31.598   2.729  1.00  0.00     0.000 C 
BRANCH  15  16
ATOM     16  C   UNL     1      20.602 -32.827   3.295  1.00  0.00     0.000 C 
BRANCH  16  17
ATOM     17  C   UNL     1      20.247 -33.817   2.176  1.00  0.00     0.000 C 
BRANCH  17  18
ATOM     18  C   UNL     1      19.026 -33.373   1.354  1.00  0.00     0.000 C 
BRANCH  18  19
ATOM     19  C   UNL     1      17.794 -33.093   2.226  1.00  0.00     0.000 C 
BRANCH  19  20
ATOM     20  C   UNL     1      16.837 -34.292   2.226  1.00  0.00     0.006 C 
BRANCH  20  21
ATOM     21  C   UNL     1      16.360 -34.613   0.806  1.00  0.00     0.053 C 
BRANCH  21  22
ATOM     22  C   UNL     1      14.865 -34.620   0.745  1.00  0.00     0.041 C 
ATOM     23  O   UNL     1      14.240 -33.587   0.387  1.00  0.00    -0.550 OA
ATOM     24  O   UNL     1      14.163 -35.780   1.050  1.00  0.00    -0.550 OA
ENDBRANCH  21  22
ENDBRANCH  20  21
ENDBRANCH  19  20
ENDBRANCH  18  19
ENDBRANCH  17  18
ENDBRANCH  16  17
ENDBRANCH  15  16
ENDBRANCH  14  15
ENDBRANCH  13  14
ENDBRANCH   1  13
TORSDOF 20
ENDMDL
MODEL 7
REMARK VINA RESULT:    -1.280      2.054      6.000
REMARK INTER + INTRA:          -6.662
REMARK INTER:                  -2.291
REMARK INTRA:                  -4.371
REMARK UNBOUND:                -3.885
REMARK SMILES CCCCCCCCCCCCCCCCCCCCCC(=O)[O-]
REMARK SMILES IDX 12 1 11 2 10 3 9 4 8 5 7 6 6 7 5 8 4 9 3 10 2 11 1 12 13 13
REMARK SMILES IDX 14 14 15 15 16 16 17 17 18 18 19 19 20 20 21 21 22 22 23 23
REMARK SMILES IDX 24 24
REMARK H PARENT
REMARK Flexibility Score: inf
ROOT
ATOM      1  C   UNL     1      24.019 -30.293   2.086  1.00  0.00     0.000 C 
ENDROOT
BRANCH   1   2
ATOM      2  C   UNL     1      23.082 -29.133   2.459  1.00  0.00     0.000 C 
BRANCH   2   3
ATOM      3  C   UNL     1      21.650 -29.600   2.769  1.00  0.00     0.000 C 
BRANCH   3   4
ATOM      4  C   UNL     1      20.549 -28.569   2.451  1.00  0.00    -0.000 C 
BRANCH   4   5
ATOM      5  C   UNL     1      20.539 -28.103   0.979  1.00  0.00    -0.000 C 
BRANCH   5   6
ATOM      6  C   UNL     1      19.938 -29.162   0.038  1.00  0.00    -0.000 C 
BRANCH   6   7
ATOM      7  C   UNL     1      20.670 -29.246  -1.311  1.00  0.00    -0.000 C 
BRANCH   7   8
ATOM      8  C   UNL     1      22.127 -29.722  -1.165  1.00  0.00    -0.000 C 
BRANCH   8   9
ATOM      9  C   UNL     1      23.131 -28.742  -1.797  1.00  0.00    -0.000 C 
BRANCH   9  10
ATOM     10  C   UNL     1      22.494 -27.380  -2.124  1.00  0.00    -0.000 C 
BRANCH  10  11
ATOM     11  C   UNL     1      22.858 -26.297  -1.095  1.00  0.00    -0.003 C 
ATOM     12  C   UNL     1      24.094 -26.654  -0.270  1.00  0.00     0.004 C 
ENDBRANCH  10  11
ENDBRANCH   9  10
ENDBRANCH   8   9
ENDBRANCH   7   8
ENDBRANCH   6   7
ENDBRANCH   5   6
ENDBRANCH   4   5
ENDBRANCH   3   4
ENDBRANCH   2   3
ENDBRANCH   1   2
BRANCH   1  13
ATOM     13  C   UNL     1      25.128 -29.816   1.137  1.00  0.00     0.000 C 
BRANCH  13  14
ATOM     14  C   UNL     1      25.761 -30.963   0.329  1.00  0.00     0.000 C 
BRANCH  14  15
ATOM     15  C   UNL     1      25.008 -32.304   0.404  1.00  0.00     0.000 C 
BRANCH  15  16
ATOM     16  C   UNL     1      24.419 -32.736  -0.948  1.00  0.00     0.000 C 
BRANCH  16  17
ATOM     17  C   UNL     1      23.136 -33.557  -0.749  1.00  0.00     0.000 C 
BRANCH  17  18
ATOM     18  C   UNL     1      22.535 -33.390   0.656  1.00  0.00     0.000 C 
BRANCH  18  19
ATOM     19  C   UNL     1      21.187 -32.655   0.641  1.00  0.00     0.000 C 
BRANCH  19  20
ATOM     20  C   UNL     1      20.409 -32.909   1.938  1.00  0.00     0.006 C 
BRANCH  20  21
ATOM     21  C   UNL     1      18.931 -32.544   1.771  1.00  0.00     0.053 C 
BRANCH  21  22
ATOM     22  C   UNL     1      18.503 -31.590   2.842  1.00  0.00     0.041 C 
ATOM     23  O   UNL     1      17.656 -30.692   2.589  1.00  0.00    -0.550 OA
ATOM     24  O   UNL     1      19.014 -31.713   4.128  1.00  0.00    -0.550 OA
ENDBRANCH  21  22
ENDBRANCH  20  21
ENDBRANCH  19  20
ENDBRANCH  18  19
ENDBRANCH  17  18
ENDBRANCH  16  17
ENDBRANCH  15  16
ENDBRANCH  14  15
ENDBRANCH  13  14
ENDBRANCH   1  13
TORSDOF 20
ENDMDL
MODEL 8
REMARK VINA RESULT:    -1.272      3.555      6.530
REMARK INTER + INTRA:          -6.645
REMARK INTER:                  -2.360
REMARK INTRA:                  -4.285
REMARK UNBOUND:                -3.885
REMARK SMILES CCCCCCCCCCCCCCCCCCCCCC(=O)[O-]
REMARK SMILES IDX 12 1 11 2 10 3 9 4 8 5 7 6 6 7 5 8 4 9 3 10 2 11 1 12 13 13
REMARK SMILES IDX 14 14 15 15 16 16 17 17 18 18 19 19 20 20 21 21 22 22 23 23
REMARK SMILES IDX 24 24
REMARK H PARENT
REMARK Flexibility Score: inf
ROOT
ATOM      1  C   UNL     1      18.904 -32.726   5.218  1.00  0.00     0.000 C 
ENDROOT
BRANCH   1   2
ATOM      2  C   UNL     1      20.265 -32.105   5.566  1.00  0.00     0.000 C 
BRANCH   2   3
ATOM      3  C   UNL     1      20.314 -30.590   5.307  1.00  0.00     0.000 C 
BRANCH   3   4
ATOM      4  C   UNL     1      19.171 -30.046   4.428  1.00  0.00    -0.000 C 
BRANCH   4   5
ATOM      5  C   UNL     1      19.653 -29.398   3.111  1.00  0.00    -0.000 C 
BRANCH   5   6
ATOM      6  C   UNL     1      20.329 -30.416   2.175  1.00  0.00    -0.000 C 
BRANCH   6   7
ATOM      7  C   UNL     1      19.414 -31.597   1.818  1.00  0.00    -0.000 C 
BRANCH   7   8
ATOM      8  C   UNL     1      20.194 -32.809   1.277  1.00  0.00    -0.000 C 
BRANCH   8   9
ATOM      9  C   UNL     1      21.687 -32.758   1.643  1.00  0.00    -0.000 C 
BRANCH   9  10
ATOM     10  C   UNL     1      22.066 -33.802   2.708  1.00  0.00    -0.000 C 
BRANCH  10  11
ATOM     11  C   UNL     1      23.174 -33.306   3.651  1.00  0.00    -0.003 C 
ATOM     12  C   UNL     1      23.428 -31.804   3.530  1.00  0.00     0.004 C 
ENDBRANCH  10  11
ENDBRANCH   9  10
ENDBRANCH   8   9
ENDBRANCH   7   8
ENDBRANCH   6   7
ENDBRANCH   5   6
ENDBRANCH   4   5
ENDBRANCH   3   4
ENDBRANCH   2   3
ENDBRANCH   1   2
BRANCH   1  13
ATOM     13  C   UNL     1      19.074 -34.157   4.687  1.00  0.00     0.000 C 
BRANCH  13  14
ATOM     14  C   UNL     1      17.834 -34.670   3.933  1.00  0.00     0.000 C 
BRANCH  14  15
ATOM     15  C   UNL     1      18.137 -35.557   2.712  1.00  0.00     0.000 C 
BRANCH  15  16
ATOM     16  C   UNL     1      17.127 -35.369   1.570  1.00  0.00     0.000 C 
BRANCH  16  17
ATOM     17  C   UNL     1      16.652 -33.910   1.494  1.00  0.00     0.000 C 
BRANCH  17  18
ATOM     18  C   UNL     1      15.121 -33.780   1.534  1.00  0.00     0.000 C 
BRANCH  18  19
ATOM     19  C   UNL     1      14.654 -32.471   2.188  1.00  0.00     0.000 C 
BRANCH  19  20
ATOM     20  C   UNL     1      15.749 -31.884   3.087  1.00  0.00     0.006 C 
BRANCH  20  21
ATOM     21  C   UNL     1      15.983 -30.404   2.772  1.00  0.00     0.053 C 
BRANCH  21  22
ATOM     22  C   UNL     1      14.727 -29.619   2.986  1.00  0.00     0.041 C 
ATOM     23  O   UNL     1      14.207 -29.553   4.131  1.00  0.00    -0.550 OA
ATOM     24  O   UNL     1      14.149 -28.931   1.925  1.00  0.00    -0.550 OA
ENDBRANCH  21  22
ENDBRANCH  20  21
ENDBRANCH  19  20
ENDBRANCH  18  19
ENDBRANCH  17  18
ENDBRANCH  16  17
ENDBRANCH  15  16
ENDBRANCH  14  15
ENDBRANCH  13  14
ENDBRANCH   1  13
TORSDOF 20
ENDMDL
MODEL 9
REMARK VINA RESULT:    -1.266      3.627      6.629
REMARK INTER + INTRA:          -6.632
REMARK INTER:                  -2.776
REMARK INTRA:                  -3.856
REMARK UNBOUND:                -3.885
REMARK SMILES CCCCCCCCCCCCCCCCCCCCCC(=O)[O-]
REMARK SMILES IDX 12 1 11 2 10 3 9 4 8 5 7 6 6 7 5 8 4 9 3 10 2 11 1 12 13 13
REMARK SMILES IDX 14 14 15 15 16 16 17 17 18 18 19 19 20 20 21 21 22 22 23 23
REMARK SMILES IDX 24 24
REMARK H PARENT
REMARK Flexibility Score: inf
ROOT
ATOM      1  C   UNL     1      16.310 -33.528   2.311  1.00  0.00     0.000 C 
ENDROOT
BRANCH   1   2
ATOM      2  C   UNL     1      14.940 -33.256   1.670  1.00  0.00     0.000 C 
BRANCH   2   3
ATOM      3  C   UNL     1      14.432 -34.437   0.826  1.00  0.00     0.000 C 
BRANCH   3   4
ATOM      4  C   UNL     1      13.734 -34.040  -0.490  1.00  0.00    -0.000 C 
BRANCH   4   5
ATOM      5  C   UNL     1      14.037 -34.992  -1.667  1.00  0.00    -0.000 C 
BRANCH   5   6
ATOM      6  C   UNL     1      15.545 -35.101  -1.954  1.00  0.00    -0.000 C 
BRANCH   6   7
ATOM      7  C   UNL     1      16.087 -36.526  -1.760  1.00  0.00    -0.000 C 
BRANCH   7   8
ATOM      8  C   UNL     1      17.565 -36.544  -1.328  1.00  0.00    -0.000 C 
BRANCH   8   9
ATOM      9  C   UNL     1      17.809 -37.447  -0.107  1.00  0.00    -0.000 C 
BRANCH   9  10
ATOM     10  C   UNL     1      16.539 -37.645   0.740  1.00  0.00    -0.000 C 
BRANCH  10  11
ATOM     11  C   UNL     1      16.834 -37.658   2.249  1.00  0.00    -0.003 C 
ATOM     12  C   UNL     1      15.683 -37.098   3.083  1.00  0.00     0.004 C 
ENDBRANCH  10  11
ENDBRANCH   9  10
ENDBRANCH   8   9
ENDBRANCH   7   8
ENDBRANCH   6   7
ENDBRANCH   5   6
ENDBRANCH   4   5
ENDBRANCH   3   4
ENDBRANCH   2   3
ENDBRANCH   1   2
BRANCH   1  13
ATOM     13  C   UNL     1      17.347 -33.908   1.244  1.00  0.00     0.000 C 
BRANCH  13  14
ATOM     14  C   UNL     1      18.670 -34.414   1.846  1.00  0.00     0.000 C 
BRANCH  14  15
ATOM     15  C   UNL     1      19.859 -34.443   0.869  1.00  0.00     0.000 C 
BRANCH  15  16
ATOM     16  C   UNL     1      21.065 -33.631   1.368  1.00  0.00     0.000 C 
BRANCH  16  17
ATOM     17  C   UNL     1      21.046 -32.210   0.785  1.00  0.00     0.000 C 
BRANCH  17  18
ATOM     18  C   UNL     1      20.760 -31.136   1.847  1.00  0.00     0.000 C 
BRANCH  18  19
ATOM     19  C   UNL     1      19.513 -30.300   1.524  1.00  0.00     0.000 C 
BRANCH  19  20
ATOM     20  C   UNL     1      18.412 -30.531   2.567  1.00  0.00     0.006 C 
BRANCH  20  21
ATOM     21  C   UNL     1      18.965 -31.257   3.797  1.00  0.00     0.053 C 
BRANCH  21  22
ATOM     22  C   UNL     1      18.868 -30.383   5.008  1.00  0.00     0.041 C 
ATOM     23  O   UNL     1      19.493 -29.291   5.053  1.00  0.00    -0.550 OA
ATOM     24  O   UNL     1      18.061 -30.761   6.075  1.00  0.00    -0.550 OA
ENDBRANCH  21  22
ENDBRANCH  20  21
ENDBRANCH  19  20
ENDBRANCH  18  19
ENDBRANCH  17  18
ENDBRANCH  16  17
ENDBRANCH  15  16
ENDBRANCH  14  15
ENDBRANCH  13  14
ENDBRANCH   1  13
TORSDOF 20
ENDMDL
