MODEL 1
REMARK VINA RESULT:    -5.856      0.000      0.000
REMARK INTER + INTRA:          -6.615
REMARK INTER:                  -6.370
REMARK INTRA:                  -0.245
REMARK UNBOUND:                -0.245
REMARK SMILES CC1=C2C[C@@H](C(C)(C)O)CC[C@]2(C)CCC1
REMARK SMILES IDX 6 1 7 2 8 3 5 4 1 5 2 6 3 7 16 8 4 9 12 10 15 11 11 12 14 13
REMARK SMILES IDX 13 14 10 15 9 16
REMARK H PARENT 9 17
REMARK Flexibility Score: inf
ROOT
ATOM      1  C   UNL     1       2.996  17.157  46.334  1.00  0.00     0.062 C 
ATOM      2  C   UNL     1       3.612  16.971  47.738  1.00  0.00     0.042 C 
ATOM      3  C   UNL     1       3.318  15.875  45.524  1.00  0.00     0.042 C 
ENDROOT
BRANCH   1   4
ATOM      4  C   UNL     1       1.441  17.405  46.452  1.00  0.00     0.024 C 
ATOM      5  C   UNL     1      -0.186  20.522  48.877  1.00  0.00     0.039 C 
ATOM      6  C   UNL     1      -1.045  19.356  48.438  1.00  0.00    -0.074 C 
ATOM      7  C   UNL     1      -0.499  18.215  47.904  1.00  0.00    -0.065 C 
ATOM      8  C   UNL     1      -2.544  19.581  48.496  1.00  0.00     0.031 C 
ATOM      9  C   UNL     1       1.014  18.018  47.813  1.00  0.00     0.038 C 
ATOM     10  C   UNL     1      -1.366  16.993  47.568  1.00  0.00    -0.011 C 
ATOM     11  C   UNL     1      -3.354  18.291  48.494  1.00  0.00     0.005 C 
ATOM     12  C   UNL     1      -0.879  16.368  46.233  1.00  0.00     0.011 C 
ATOM     13  C   UNL     1      -2.861  17.374  47.381  1.00  0.00     0.011 C 
ATOM     14  C   UNL     1      -1.248  15.953  48.711  1.00  0.00     0.016 C 
ATOM     15  C   UNL     1       0.632  16.112  46.184  1.00  0.00     0.008 C 
ENDBRANCH   1   4
BRANCH   1  16
ATOM     16  O   UNL     1       3.634  18.262  45.738  1.00  0.00    -0.390 OA
ATOM     17  H   UNL     1       3.907  18.009  44.820  1.00  0.00     0.211 HD
ENDBRANCH   1  16
TORSDOF 2
ENDMDL
MODEL 2
REMARK VINA RESULT:    -5.718      1.274      2.916
REMARK INTER + INTRA:          -6.465
REMARK INTER:                  -6.260
REMARK INTRA:                  -0.205
REMARK UNBOUND:                -0.245
REMARK SMILES CC1=C2C[C@@H](C(C)(C)O)CC[C@]2(C)CCC1
REMARK SMILES IDX 6 1 7 2 8 3 5 4 1 5 2 6 3 7 16 8 4 9 12 10 15 11 11 12 14 13
REMARK SMILES IDX 13 14 10 15 9 16
REMARK H PARENT 9 17
REMARK Flexibility Score: inf
ROOT
ATOM      1  C   UNL     1       3.452  17.711  46.603  1.00  0.00     0.062 C 
ATOM      2  C   UNL     1       4.293  18.900  46.086  1.00  0.00     0.042 C 
ATOM      3  C   UNL     1       4.397  16.825  47.453  1.00  0.00     0.042 C 
ENDROOT
BRANCH   1   4
ATOM      4  C   UNL     1       2.224  18.240  47.443  1.00  0.00     0.024 C 
ATOM      5  C   UNL     1      -1.274  15.876  48.091  1.00  0.00     0.039 C 
ATOM      6  C   UNL     1      -1.310  17.377  48.276  1.00  0.00    -0.074 C 
ATOM      7  C   UNL     1      -0.303  18.189  47.816  1.00  0.00    -0.065 C 
ATOM      8  C   UNL     1      -2.452  17.911  49.119  1.00  0.00     0.031 C 
ATOM      9  C   UNL     1       0.866  17.632  47.003  1.00  0.00     0.038 C 
ATOM     10  C   UNL     1      -0.401  19.718  47.906  1.00  0.00    -0.011 C 
ATOM     11  C   UNL     1      -2.720  19.397  48.912  1.00  0.00     0.005 C 
ATOM     12  C   UNL     1       0.985  20.301  48.291  1.00  0.00     0.011 C 
ATOM     13  C   UNL     1      -1.412  20.172  48.995  1.00  0.00     0.011 C 
ATOM     14  C   UNL     1      -0.848  20.283  46.533  1.00  0.00     0.016 C 
ATOM     15  C   UNL     1       2.137  19.785  47.421  1.00  0.00     0.008 C 
ENDBRANCH   1   4
BRANCH   1  16
ATOM     16  O   UNL     1       3.013  16.987  45.477  1.00  0.00    -0.390 OA
ATOM     17  H   UNL     1       2.023  17.010  45.457  1.00  0.00     0.211 HD
ENDBRANCH   1  16
TORSDOF 2
ENDMDL
MODEL 3
REMARK VINA RESULT:    -5.535      3.060      5.329
REMARK INTER + INTRA:          -6.266
REMARK INTER:                  -6.020
REMARK INTRA:                  -0.246
REMARK UNBOUND:                -0.245
REMARK SMILES CC1=C2C[C@@H](C(C)(C)O)CC[C@]2(C)CCC1
REMARK SMILES IDX 6 1 7 2 8 3 5 4 1 5 2 6 3 7 16 8 4 9 12 10 15 11 11 12 14 13
REMARK SMILES IDX 13 14 10 15 9 16
REMARK H PARENT 9 17
REMARK Flexibility Score: inf
ROOT
ATOM      1  C   UNL     1      -1.540  17.783  49.329  1.00  0.00     0.062 C 
ATOM      2  C   UNL     1      -3.031  17.728  48.931  1.00  0.00     0.042 C 
ATOM      3  C   UNL     1      -0.784  16.810  48.389  1.00  0.00     0.042 C 
ENDROOT
BRANCH   1   4
ATOM      4  C   UNL     1      -1.000  19.262  49.206  1.00  0.00     0.024 C 
ATOM      5  C   UNL     1      -2.956  22.559  51.091  1.00  0.00     0.039 C 
ATOM      6  C   UNL     1      -1.988  22.784  49.949  1.00  0.00    -0.074 C 
ATOM      7  C   UNL     1      -1.561  21.754  49.148  1.00  0.00    -0.065 C 
ATOM      8  C   UNL     1      -1.416  24.184  49.833  1.00  0.00     0.031 C 
ATOM      9  C   UNL     1      -2.115  20.337  49.301  1.00  0.00     0.038 C 
ATOM     10  C   UNL     1      -0.671  22.007  47.922  1.00  0.00    -0.011 C 
ATOM     11  C   UNL     1      -0.833  24.493  48.460  1.00  0.00     0.005 C 
ATOM     12  C   UNL     1       0.396  20.885  47.821  1.00  0.00     0.011 C 
ATOM     13  C   UNL     1       0.087  23.359  48.024  1.00  0.00     0.011 C 
ATOM     14  C   UNL     1      -1.550  22.015  46.645  1.00  0.00     0.016 C 
ATOM     15  C   UNL     1      -0.183  19.468  47.908  1.00  0.00     0.008 C 
ENDBRANCH   1   4
BRANCH   1  16
ATOM     16  O   UNL     1      -1.443  17.324  50.658  1.00  0.00    -0.390 OA
ATOM     17  H   UNL     1      -1.599  18.091  51.266  1.00  0.00     0.211 HD
ENDBRANCH   1  16
TORSDOF 2
ENDMDL
MODEL 4
REMARK VINA RESULT:    -5.425      3.395      6.135
REMARK INTER + INTRA:          -6.146
REMARK INTER:                  -5.939
REMARK INTRA:                  -0.207
REMARK UNBOUND:                -0.245
REMARK SMILES CC1=C2C[C@@H](C(C)(C)O)CC[C@]2(C)CCC1
REMARK SMILES IDX 6 1 7 2 8 3 5 4 1 5 2 6 3 7 16 8 4 9 12 10 15 11 11 12 14 13
REMARK SMILES IDX 13 14 10 15 9 16
REMARK H PARENT 9 17
REMARK Flexibility Score: inf
ROOT
ATOM      1  C   UNL     1      -2.279  18.979  48.330  1.00  0.00     0.062 C 
ATOM      2  C   UNL     1      -1.331  18.495  47.211  1.00  0.00     0.042 C 
ATOM      3  C   UNL     1      -2.771  17.717  49.084  1.00  0.00     0.042 C 
ENDROOT
BRANCH   1   4
ATOM      4  C   UNL     1      -1.521  19.980  49.288  1.00  0.00     0.024 C 
ATOM      5  C   UNL     1      -3.580  22.969  51.540  1.00  0.00     0.039 C 
ATOM      6  C   UNL     1      -2.093  23.081  51.284  1.00  0.00    -0.074 C 
ATOM      7  C   UNL     1      -1.458  22.304  50.348  1.00  0.00    -0.065 C 
ATOM      8  C   UNL     1      -1.328  24.000  52.219  1.00  0.00     0.031 C 
ATOM      9  C   UNL     1      -2.234  21.350  49.439  1.00  0.00     0.038 C 
ATOM     10  C   UNL     1       0.028  22.503  50.013  1.00  0.00    -0.011 C 
ATOM     11  C   UNL     1       0.025  24.437  51.672  1.00  0.00     0.005 C 
ATOM     12  C   UNL     1       0.699  21.119  49.811  1.00  0.00     0.011 C 
ATOM     13  C   UNL     1       0.789  23.224  51.160  1.00  0.00     0.011 C 
ATOM     14  C   UNL     1       0.151  23.344  48.716  1.00  0.00     0.016 C 
ATOM     15  C   UNL     1      -0.055  20.199  48.843  1.00  0.00     0.008 C 
ENDBRANCH   1   4
BRANCH   1  16
ATOM     16  O   UNL     1      -3.373  19.612  47.709  1.00  0.00    -0.390 OA
ATOM     17  H   UNL     1      -4.093  18.942  47.583  1.00  0.00     0.211 HD
ENDBRANCH   1  16
TORSDOF 2
ENDMDL
MODEL 5
REMARK VINA RESULT:    -5.417      2.867      5.523
REMARK INTER + INTRA:          -6.137
REMARK INTER:                  -5.926
REMARK INTRA:                  -0.212
REMARK UNBOUND:                -0.245
REMARK SMILES CC1=C2C[C@@H](C(C)(C)O)CC[C@]2(C)CCC1
REMARK SMILES IDX 6 1 7 2 8 3 5 4 1 5 2 6 3 7 16 8 4 9 12 10 15 11 11 12 14 13
REMARK SMILES IDX 13 14 10 15 9 16
REMARK H PARENT 9 17
REMARK Flexibility Score: inf
ROOT
ATOM      1  C   UNL     1      -1.621  22.239  50.335  1.00  0.00     0.062 C 
ATOM      2  C   UNL     1      -1.003  23.528  49.748  1.00  0.00     0.042 C 
ATOM      3  C   UNL     1      -3.043  22.603  50.830  1.00  0.00     0.042 C 
ENDROOT
BRANCH   1   4
ATOM      4  C   UNL     1      -1.650  21.103  49.239  1.00  0.00     0.024 C 
ATOM      5  C   UNL     1      -1.249  16.969  50.236  1.00  0.00     0.039 C 
ATOM      6  C   UNL     1      -1.000  17.452  48.823  1.00  0.00    -0.074 C 
ATOM      7  C   UNL     1      -0.848  18.784  48.529  1.00  0.00    -0.065 C 
ATOM      8  C   UNL     1      -1.069  16.391  47.741  1.00  0.00     0.031 C 
ATOM      9  C   UNL     1      -0.822  19.849  49.625  1.00  0.00     0.038 C 
ATOM     10  C   UNL     1      -0.482  19.256  47.114  1.00  0.00    -0.011 C 
ATOM     11  C   UNL     1      -0.384  16.799  46.443  1.00  0.00     0.005 C 
ATOM     12  C   UNL     1      -1.281  20.543  46.778  1.00  0.00     0.011 C 
ATOM     13  C   UNL     1      -0.841  18.194  46.037  1.00  0.00     0.011 C 
ATOM     14  C   UNL     1       1.039  19.548  47.050  1.00  0.00     0.016 C 
ATOM     15  C   UNL     1      -1.189  21.628  47.857  1.00  0.00     0.008 C 
ENDBRANCH   1   4
BRANCH   1  16
ATOM     16  O   UNL     1      -0.825  21.855  51.433  1.00  0.00    -0.390 OA
ATOM     17  H   UNL     1      -0.110  22.530  51.552  1.00  0.00     0.211 HD
ENDBRANCH   1  16
TORSDOF 2
ENDMDL
MODEL 6
REMARK VINA RESULT:    -5.267      7.904      9.797
REMARK INTER + INTRA:          -5.975
REMARK INTER:                  -5.729
REMARK INTRA:                  -0.245
REMARK UNBOUND:                -0.245
REMARK SMILES CC1=C2C[C@@H](C(C)(C)O)CC[C@]2(C)CCC1
REMARK SMILES IDX 6 1 7 2 8 3 5 4 1 5 2 6 3 7 16 8 4 9 12 10 15 11 11 12 14 13
REMARK SMILES IDX 13 14 10 15 9 16
REMARK H PARENT 9 17
REMARK Flexibility Score: inf
ROOT
ATOM      1  C   UNL     1      10.050  17.438  42.066  1.00  0.00     0.062 C 
ATOM      2  C   UNL     1      11.123  18.534  41.886  1.00  0.00     0.042 C 
ATOM      3  C   UNL     1      10.385  16.688  43.381  1.00  0.00     0.042 C 
ENDROOT
BRANCH   1   4
ATOM      4  C   UNL     1       8.611  18.088  42.108  1.00  0.00     0.024 C 
ATOM      5  C   UNL     1       7.160  20.597  38.970  1.00  0.00     0.039 C 
ATOM      6  C   UNL     1       6.522  20.626  40.341  1.00  0.00    -0.074 C 
ATOM      7  C   UNL     1       7.124  20.053  41.434  1.00  0.00    -0.065 C 
ATOM      8  C   UNL     1       5.119  21.202  40.405  1.00  0.00     0.031 C 
ATOM      9  C   UNL     1       8.521  19.438  41.347  1.00  0.00     0.038 C 
ATOM     10  C   UNL     1       6.526  20.186  42.842  1.00  0.00    -0.011 C 
ATOM     11  C   UNL     1       4.700  21.631  41.806  1.00  0.00     0.005 C 
ATOM     12  C   UNL     1       6.683  18.839  43.597  1.00  0.00     0.011 C 
ATOM     13  C   UNL     1       5.008  20.518  42.799  1.00  0.00     0.011 C 
ATOM     14  C   UNL     1       7.269  21.311  43.608  1.00  0.00     0.016 C 
ATOM     15  C   UNL     1       8.106  18.270  43.559  1.00  0.00     0.008 C 
ENDBRANCH   1   4
BRANCH   1  16
ATOM     16  O   UNL     1      10.167  16.552  40.977  1.00  0.00    -0.390 OA
ATOM     17  H   UNL     1       9.335  16.603  40.442  1.00  0.00     0.211 HD
ENDBRANCH   1  16
TORSDOF 2
ENDMDL
MODEL 7
REMARK VINA RESULT:    -5.236      2.205      5.434
REMARK INTER + INTRA:          -5.941
REMARK INTER:                  -5.727
REMARK INTRA:                  -0.213
REMARK UNBOUND:                -0.245
REMARK SMILES CC1=C2C[C@@H](C(C)(C)O)CC[C@]2(C)CCC1
REMARK SMILES IDX 6 1 7 2 8 3 5 4 1 5 2 6 3 7 16 8 4 9 12 10 15 11 11 12 14 13
REMARK SMILES IDX 13 14 10 15 9 16
REMARK H PARENT 9 17
REMARK Flexibility Score: inf
ROOT
ATOM      1  C   UNL     1      -0.089  19.781  46.867  1.00  0.00     0.062 C 
ATOM      2  C   UNL     1      -1.051  20.101  48.033  1.00  0.00     0.042 C 
ATOM      3  C   UNL     1       0.482  21.133  46.367  1.00  0.00     0.042 C 
ENDROOT
BRANCH   1   4
ATOM      4  C   UNL     1       1.051  18.804  47.355  1.00  0.00     0.024 C 
ATOM      5  C   UNL     1       4.764  20.236  48.906  1.00  0.00     0.039 C 
ATOM      6  C   UNL     1       4.632  18.815  48.404  1.00  0.00    -0.074 C 
ATOM      7  C   UNL     1       3.557  18.407  47.655  1.00  0.00    -0.065 C 
ATOM      8  C   UNL     1       5.686  17.840  48.895  1.00  0.00     0.031 C 
ATOM      9  C   UNL     1       2.479  19.392  47.200  1.00  0.00     0.038 C 
ATOM     10  C   UNL     1       3.486  16.996  47.053  1.00  0.00    -0.011 C 
ATOM     11  C   UNL     1       5.798  16.582  48.043  1.00  0.00     0.005 C 
ATOM     12  C   UNL     1       2.035  16.459  47.170  1.00  0.00     0.011 C 
ATOM     13  C   UNL     1       4.411  15.998  47.803  1.00  0.00     0.011 C 
ATOM     14  C   UNL     1       3.908  17.055  45.562  1.00  0.00     0.016 C 
ATOM     15  C   UNL     1       0.970  17.430  46.647  1.00  0.00     0.008 C 
ENDBRANCH   1   4
BRANCH   1  16
ATOM     16  O   UNL     1      -0.853  19.187  45.843  1.00  0.00    -0.390 OA
ATOM     17  H   UNL     1      -0.572  19.576  44.977  1.00  0.00     0.211 HD
ENDBRANCH   1  16
TORSDOF 2
ENDMDL
MODEL 8
REMARK VINA RESULT:    -5.217     11.583     12.929
REMARK INTER + INTRA:          -5.920
REMARK INTER:                  -5.677
REMARK INTRA:                  -0.244
REMARK UNBOUND:                -0.245
REMARK SMILES CC1=C2C[C@@H](C(C)(C)O)CC[C@]2(C)CCC1
REMARK SMILES IDX 6 1 7 2 8 3 5 4 1 5 2 6 3 7 16 8 4 9 12 10 15 11 11 12 14 13
REMARK SMILES IDX 13 14 10 15 9 16
REMARK H PARENT 9 17
REMARK Flexibility Score: inf
ROOT
ATOM      1  C   UNL     1      -3.029  27.714  38.722  1.00  0.00     0.062 C 
ATOM      2  C   UNL     1      -2.722  28.750  39.826  1.00  0.00     0.042 C 
ATOM      3  C   UNL     1      -3.344  28.509  37.430  1.00  0.00     0.042 C 
ENDROOT
BRANCH   1   4
ATOM      4  C   UNL     1      -1.798  26.743  38.533  1.00  0.00     0.024 C 
ATOM      5  C   UNL     1      -0.503  24.088  41.618  1.00  0.00     0.039 C 
ATOM      6  C   UNL     1       0.420  24.456  40.476  1.00  0.00    -0.074 C 
ATOM      7  C   UNL     1       0.146  25.503  39.632  1.00  0.00    -0.065 C 
ATOM      8  C   UNL     1       1.586  23.514  40.239  1.00  0.00     0.031 C 
ATOM      9  C   UNL     1      -1.056  26.420  39.857  1.00  0.00     0.038 C 
ATOM     10  C   UNL     1       1.142  25.941  38.548  1.00  0.00    -0.011 C 
ATOM     11  C   UNL     1       2.712  24.132  39.420  1.00  0.00     0.005 C 
ATOM     12  C   UNL     1       0.367  26.312  37.256  1.00  0.00     0.011 C 
ATOM     13  C   UNL     1       2.137  24.805  38.181  1.00  0.00     0.011 C 
ATOM     14  C   UNL     1       1.941  27.169  39.055  1.00  0.00     0.016 C 
ATOM     15  C   UNL     1      -0.794  27.287  37.489  1.00  0.00     0.008 C 
ENDBRANCH   1   4
BRANCH   1  16
ATOM     16  O   UNL     1      -4.174  26.998  39.125  1.00  0.00    -0.390 OA
ATOM     17  H   UNL     1      -4.337  27.184  40.085  1.00  0.00     0.211 HD
ENDBRANCH   1  16
TORSDOF 2
ENDMDL
MODEL 9
REMARK VINA RESULT:    -5.177      6.752      9.906
REMARK INTER + INTRA:          -5.876
REMARK INTER:                  -5.671
REMARK INTRA:                  -0.204
REMARK UNBOUND:                -0.245
REMARK SMILES CC1=C2C[C@@H](C(C)(C)O)CC[C@]2(C)CCC1
REMARK SMILES IDX 6 1 7 2 8 3 5 4 1 5 2 6 3 7 16 8 4 9 12 10 15 11 11 12 14 13
REMARK SMILES IDX 13 14 10 15 9 16
REMARK H PARENT 9 17
REMARK Flexibility Score: inf
ROOT
ATOM      1  C   UNL     1       6.079  21.027  40.681  1.00  0.00     0.062 C 
ATOM      2  C   UNL     1       5.853  20.830  39.166  1.00  0.00     0.042 C 
ATOM      3  C   UNL     1       4.681  21.191  41.330  1.00  0.00     0.042 C 
ENDROOT
BRANCH   1   4
ATOM      4  C   UNL     1       6.866  19.795  41.277  1.00  0.00     0.024 C 
ATOM      5  C   UNL     1       5.321  17.454  44.500  1.00  0.00     0.039 C 
ATOM      6  C   UNL     1       6.795  17.424  44.159  1.00  0.00    -0.074 C 
ATOM      7  C   UNL     1       7.367  18.356  43.328  1.00  0.00    -0.065 C 
ATOM      8  C   UNL     1       7.569  16.226  44.678  1.00  0.00     0.031 C 
ATOM      9  C   UNL     1       6.565  19.536  42.778  1.00  0.00     0.038 C 
ATOM     10  C   UNL     1       8.881  18.387  43.079  1.00  0.00    -0.011 C 
ATOM     11  C   UNL     1       9.076  16.446  44.719  1.00  0.00     0.005 C 
ATOM     12  C   UNL     1       9.151  18.705  41.584  1.00  0.00     0.011 C 
ATOM     13  C   UNL     1       9.549  17.019  43.389  1.00  0.00     0.011 C 
ATOM     14  C   UNL     1       9.524  19.478  43.974  1.00  0.00     0.016 C 
ATOM     15  C   UNL     1       8.393  19.933  41.066  1.00  0.00     0.008 C 
ENDBRANCH   1   4
BRANCH   1  16
ATOM     16  O   UNL     1       6.815  22.217  40.844  1.00  0.00    -0.390 OA
ATOM     17  H   UNL     1       7.759  22.036  40.601  1.00  0.00     0.211 HD
ENDBRANCH   1  16
TORSDOF 2
ENDMDL
