MODEL 1
REMARK VINA RESULT:    -3.200      0.000      0.000
REMARK INTER + INTRA:          -5.299
REMARK INTER:                  -4.884
REMARK INTRA:                  -0.415
REMARK UNBOUND:                -0.415
REMARK SMILES CC1=CCC[C@H](C)C(=O)C[C@@H](C(C)C)C(=O)C1
REMARK SMILES IDX 8 1 9 2 6 3 7 4 5 5 4 6 3 7 2 8 1 9 10 11 11 12 15 13 16 14
REMARK SMILES IDX 17 15 12 17 13 18 14 19
REMARK H PARENT
REMARK Flexibility Score: 70.00
ROOT
ATOM      1  C   UNL     1       5.847  27.390  16.581  1.00  0.00     0.136 C 
ATOM      2  O   UNL     1       4.692  27.523  16.961  1.00  0.00    -0.299 OA
ENDROOT
BRANCH   1   3
ATOM      3  C   UNL     1       6.218  26.196  15.721  1.00  0.00     0.053 C 
ATOM      4  C   UNL     1       5.842  26.454  14.256  1.00  0.00     0.016 C 
BRANCH   3   5
ATOM      5  C   UNL     1       7.724  25.878  15.856  1.00  0.00     0.015 C 
BRANCH   5   6
ATOM      6  C   UNL     1       8.475  26.114  14.532  1.00  0.00     0.028 C 
BRANCH   6   7
ATOM      7  C   UNL     1       9.892  26.597  14.729  1.00  0.00    -0.028 C 
ATOM      8  C   UNL     1      10.274  27.897  14.791  1.00  0.00    -0.070 CG0
ATOM      9  C   UNL     1      11.721  28.220  15.065  1.00  0.00     0.039 C 
ATOM     10  G   UNL     1       9.345  29.063  14.489  1.00  0.00     0.000 G0
ENDBRANCH   6   7
ENDBRANCH   5   6
ENDBRANCH   3   5
ENDBRANCH   1   3
BRANCH   1  11
ATOM     11  C   UNL     1       6.878  28.415  16.997  1.00  0.00     0.087 C 
BRANCH  11  12
ATOM     12  C   UNL     1       7.157  29.454  15.877  1.00  0.00     0.066 C 
BRANCH  12  13
ATOM     13  C   UNL     1       8.652  29.669  15.685  1.00  0.00     0.140 C 
ATOM     14  O   UNL     1       9.285  30.359  16.472  1.00  0.00    -0.299 OA
BRANCH  13  15
ATOM     15  C   UNL     1       9.351  29.075  14.486  1.00  0.00     0.106 CG0
ATOM     16  G   UNL     1      10.256  27.898  14.819  1.00  0.00     0.000 G0
ENDBRANCH  13  15
ENDBRANCH  12  13
BRANCH  12  17
ATOM     17  C   UNL     1       6.397  30.806  16.079  1.00  0.00    -0.006 C 
ATOM     18  C   UNL     1       5.877  31.020  17.512  1.00  0.00     0.008 C 
ATOM     19  C   UNL     1       5.236  30.954  15.080  1.00  0.00     0.008 C 
ENDBRANCH  12  17
ENDBRANCH  11  12
ENDBRANCH   1  11
TORSDOF 1
ENDMDL
MODEL 2
REMARK VINA RESULT:    -2.962      2.633      5.423
REMARK INTER + INTRA:          -4.934
REMARK INTER:                  -4.506
REMARK INTRA:                  -0.428
REMARK UNBOUND:                -0.415
REMARK SMILES CC1=CCC[C@H](C)C(=O)C[C@@H](C(C)C)C(=O)C1
REMARK SMILES IDX 8 1 9 2 6 3 7 4 5 5 4 6 3 7 2 8 1 9 10 11 11 12 15 13 16 14
REMARK SMILES IDX 17 15 12 17 13 18 14 19
REMARK H PARENT
REMARK Flexibility Score: 70.00
ROOT
ATOM      1  C   UNL     1       7.373  29.290  17.096  1.00  0.00     0.136 C 
ATOM      2  O   UNL     1       8.501  29.750  17.206  1.00  0.00    -0.299 OA
ENDROOT
BRANCH   1   3
ATOM      3  C   UNL     1       6.173  30.192  17.319  1.00  0.00     0.053 C 
ATOM      4  C   UNL     1       5.859  30.992  16.048  1.00  0.00     0.016 C 
BRANCH   3   5
ATOM      5  C   UNL     1       4.947  29.363  17.766  1.00  0.00     0.015 C 
BRANCH   5   6
ATOM      6  C   UNL     1       3.870  29.306  16.666  1.00  0.00     0.028 C 
BRANCH   6   7
ATOM      7  C   UNL     1       3.117  27.999  16.638  1.00  0.00    -0.028 C 
ATOM      8  C   UNL     1       3.405  26.946  15.831  1.00  0.00    -0.070 CG0
ATOM      9  C   UNL     1       2.603  25.677  15.971  1.00  0.00     0.039 C 
ATOM     10  G   UNL     1       4.426  27.004  14.705  1.00  0.00     0.000 G0
ENDBRANCH   6   7
ENDBRANCH   5   6
ENDBRANCH   3   5
ENDBRANCH   1   3
BRANCH   1  11
ATOM     11  C   UNL     1       7.208  27.826  16.755  1.00  0.00     0.087 C 
BRANCH  11  12
ATOM     12  C   UNL     1       6.901  27.604  15.250  1.00  0.00     0.066 C 
BRANCH  12  13
ATOM     13  C   UNL     1       5.816  26.555  15.058  1.00  0.00     0.140 C 
ATOM     14  O   UNL     1       6.079  25.365  15.159  1.00  0.00    -0.299 OA
BRANCH  13  15
ATOM     15  C   UNL     1       4.416  26.978  14.684  1.00  0.00     0.106 CG0
ATOM     16  G   UNL     1       3.428  26.938  15.840  1.00  0.00     0.000 G0
ENDBRANCH  13  15
ENDBRANCH  12  13
BRANCH  12  17
ATOM     17  C   UNL     1       8.173  27.289  14.395  1.00  0.00    -0.006 C 
ATOM     18  C   UNL     1       9.295  26.587  15.184  1.00  0.00     0.008 C 
ATOM     19  C   UNL     1       8.727  28.555  13.721  1.00  0.00     0.008 C 
ENDBRANCH  12  17
ENDBRANCH  11  12
ENDBRANCH   1  11
TORSDOF 1
ENDMDL
MODEL 3
REMARK VINA RESULT:    -2.913      2.350      4.801
REMARK INTER + INTRA:          -4.861
REMARK INTER:                  -4.644
REMARK INTRA:                  -0.217
REMARK UNBOUND:                -0.415
REMARK SMILES CC1=CCC[C@H](C)C(=O)C[C@@H](C(C)C)C(=O)C1
REMARK SMILES IDX 8 1 9 2 6 3 7 4 5 5 4 6 3 7 2 8 1 9 10 11 11 12 15 13 16 14
REMARK SMILES IDX 17 15 12 17 13 18 14 19
REMARK H PARENT
REMARK Flexibility Score: 70.00
ROOT
ATOM      1  C   UNL     1       3.526  28.377  15.893  1.00  0.00     0.136 C 
ATOM      2  O   UNL     1       2.504  28.378  16.567  1.00  0.00    -0.299 OA
ENDROOT
BRANCH   1   3
ATOM      3  C   UNL     1       4.257  29.683  15.644  1.00  0.00     0.053 C 
ATOM      4  C   UNL     1       3.493  30.540  14.626  1.00  0.00     0.016 C 
BRANCH   3   5
ATOM      5  C   UNL     1       4.458  30.453  16.970  1.00  0.00     0.015 C 
BRANCH   5   6
ATOM      6  C   UNL     1       5.663  29.911  17.763  1.00  0.00     0.028 C 
BRANCH   6   7
ATOM      7  C   UNL     1       6.886  29.687  16.908  1.00  0.00    -0.028 C 
ATOM      8  C   UNL     1       7.427  28.478  16.616  1.00  0.00    -0.070 CG0
ATOM      9  C   UNL     1       8.612  28.413  15.686  1.00  0.00     0.039 C 
ATOM     10  G   UNL     1       6.976  27.176  17.262  1.00  0.00     0.000 G0
ENDBRANCH   6   7
ENDBRANCH   5   6
ENDBRANCH   3   5
ENDBRANCH   1   3
BRANCH   1  11
ATOM     11  C   UNL     1       4.020  27.072  15.314  1.00  0.00     0.087 C 
BRANCH  11  12
ATOM     12  C   UNL     1       4.692  26.171  16.385  1.00  0.00     0.066 C 
BRANCH  12  13
ATOM     13  C   UNL     1       6.210  26.255  16.303  1.00  0.00     0.140 C 
ATOM     14  O   UNL     1       6.827  25.562  15.507  1.00  0.00    -0.299 OA
BRANCH  13  15
ATOM     15  C   UNL     1       6.966  27.157  17.248  1.00  0.00     0.106 CG0
ATOM     16  G   UNL     1       7.411  28.471  16.625  1.00  0.00     0.000 G0
ENDBRANCH  13  15
ENDBRANCH  12  13
BRANCH  12  17
ATOM     17  C   UNL     1       4.190  24.689  16.355  1.00  0.00    -0.006 C 
ATOM     18  C   UNL     1       3.334  24.346  15.122  1.00  0.00     0.008 C 
ATOM     19  C   UNL     1       3.418  24.330  17.637  1.00  0.00     0.008 C 
ENDBRANCH  12  17
ENDBRANCH  11  12
ENDBRANCH   1  11
TORSDOF 1
ENDMDL
MODEL 4
REMARK VINA RESULT:    -2.846      1.633      2.136
REMARK INTER + INTRA:          -4.758
REMARK INTER:                  -4.620
REMARK INTRA:                  -0.138
REMARK UNBOUND:                -0.415
REMARK SMILES CC1=CCC[C@H](C)C(=O)C[C@@H](C(C)C)C(=O)C1
REMARK SMILES IDX 8 1 9 2 6 3 7 4 5 5 4 6 3 7 2 8 1 9 10 11 11 12 15 13 16 14
REMARK SMILES IDX 17 15 12 17 13 18 14 19
REMARK H PARENT
REMARK Flexibility Score: 70.00
ROOT
ATOM      1  C   UNL     1       5.975  26.561  15.436  1.00  0.00     0.136 C 
ATOM      2  O   UNL     1       5.032  26.519  14.656  1.00  0.00    -0.299 OA
ENDROOT
BRANCH   1   3
ATOM      3  C   UNL     1       7.149  25.619  15.239  1.00  0.00     0.053 C 
ATOM      4  C   UNL     1       7.176  25.090  13.798  1.00  0.00     0.016 C 
BRANCH   3   5
ATOM      5  C   UNL     1       8.477  26.327  15.592  1.00  0.00     0.015 C 
BRANCH   5   6
ATOM      6  C   UNL     1       8.913  27.301  14.481  1.00  0.00     0.028 C 
BRANCH   6   7
ATOM      7  C   UNL     1       9.674  28.496  15.002  1.00  0.00    -0.028 C 
ATOM      8  C   UNL     1       9.124  29.694  15.325  1.00  0.00    -0.070 CG0
ATOM      9  C   UNL     1      10.007  30.771  15.904  1.00  0.00     0.039 C 
ATOM     10  G   UNL     1       7.677  30.062  15.035  1.00  0.00     0.000 G0
ENDBRANCH   6   7
ENDBRANCH   5   6
ENDBRANCH   3   5
ENDBRANCH   1   3
BRANCH   1  11
ATOM     11  C   UNL     1       5.933  27.542  16.585  1.00  0.00     0.087 C 
BRANCH  11  12
ATOM     12  C   UNL     1       5.554  28.974  16.120  1.00  0.00     0.066 C 
BRANCH  12  13
ATOM     13  C   UNL     1       6.743  29.919  16.223  1.00  0.00     0.140 C 
ATOM     14  O   UNL     1       6.924  30.580  17.236  1.00  0.00    -0.299 OA
BRANCH  13  15
ATOM     15  C   UNL     1       7.675  30.088  15.048  1.00  0.00     0.106 CG0
ATOM     16  G   UNL     1       9.116  29.700  15.342  1.00  0.00     0.000 G0
ENDBRANCH  13  15
ENDBRANCH  12  13
BRANCH  12  17
ATOM     17  C   UNL     1       4.291  29.548  16.842  1.00  0.00    -0.006 C 
ATOM     18  C   UNL     1       3.142  28.533  16.988  1.00  0.00     0.008 C 
ATOM     19  C   UNL     1       3.774  30.819  16.147  1.00  0.00     0.008 C 
ENDBRANCH  12  17
ENDBRANCH  11  12
ENDBRANCH   1  11
TORSDOF 1
ENDMDL
MODEL 5
REMARK VINA RESULT:    -2.823      2.870      5.587
REMARK INTER + INTRA:          -4.724
REMARK INTER:                  -4.309
REMARK INTRA:                  -0.415
REMARK UNBOUND:                -0.415
REMARK SMILES CC1=CCC[C@H](C)C(=O)C[C@@H](C(C)C)C(=O)C1
REMARK SMILES IDX 8 1 9 2 6 3 7 4 5 5 4 6 3 7 2 8 1 9 10 11 11 12 15 13 16 14
REMARK SMILES IDX 17 15 12 17 13 18 14 19
REMARK H PARENT
REMARK Flexibility Score: 70.00
ROOT
ATOM      1  C   UNL     1       6.700  27.526  17.000  1.00  0.00     0.136 C 
ATOM      2  O   UNL     1       7.440  26.556  17.107  1.00  0.00    -0.299 OA
ENDROOT
BRANCH   1   3
ATOM      3  C   UNL     1       7.207  28.899  17.397  1.00  0.00     0.053 C 
ATOM      4  C   UNL     1       7.937  29.562  16.220  1.00  0.00     0.016 C 
BRANCH   3   5
ATOM      5  C   UNL     1       6.041  29.785  17.892  1.00  0.00     0.015 C 
BRANCH   5   6
ATOM      6  C   UNL     1       5.774  30.961  16.932  1.00  0.00     0.028 C 
BRANCH   6   7
ATOM      7  C   UNL     1       4.321  31.099  16.550  1.00  0.00    -0.028 C 
ATOM      8  C   UNL     1       3.728  30.488  15.493  1.00  0.00    -0.070 CG0
ATOM      9  C   UNL     1       2.245  30.668  15.283  1.00  0.00     0.039 C 
ATOM     10  G   UNL     1       4.493  29.714  14.430  1.00  0.00     0.000 G0
ENDBRANCH   6   7
ENDBRANCH   5   6
ENDBRANCH   3   5
ENDBRANCH   1   3
BRANCH   1  11
ATOM     11  C   UNL     1       5.292  27.320  16.489  1.00  0.00     0.087 C 
BRANCH  11  12
ATOM     12  C   UNL     1       5.234  27.250  14.939  1.00  0.00     0.066 C 
BRANCH  12  13
ATOM     13  C   UNL     1       4.209  28.227  14.381  1.00  0.00     0.140 C 
ATOM     14  O   UNL     1       3.177  27.816  13.869  1.00  0.00    -0.299 OA
BRANCH  13  15
ATOM     15  C   UNL     1       4.490  29.710  14.405  1.00  0.00     0.106 CG0
ATOM     16  G   UNL     1       3.734  30.464  15.488  1.00  0.00     0.000 G0
ENDBRANCH  13  15
ENDBRANCH  12  13
BRANCH  12  17
ATOM     17  C   UNL     1       5.017  25.802  14.389  1.00  0.00    -0.006 C 
ATOM     18  C   UNL     1       4.436  24.823  15.426  1.00  0.00     0.008 C 
ATOM     19  C   UNL     1       6.314  25.222  13.800  1.00  0.00     0.008 C 
ENDBRANCH  12  17
ENDBRANCH  11  12
ENDBRANCH   1  11
TORSDOF 1
ENDMDL
MODEL 6
REMARK VINA RESULT:    -2.822      1.994      4.368
REMARK INTER + INTRA:          -4.722
REMARK INTER:                  -4.541
REMARK INTRA:                  -0.181
REMARK UNBOUND:                -0.415
REMARK SMILES CC1=CCC[C@H](C)C(=O)C[C@@H](C(C)C)C(=O)C1
REMARK SMILES IDX 8 1 9 2 6 3 7 4 5 5 4 6 3 7 2 8 1 9 10 11 11 12 15 13 16 14
REMARK SMILES IDX 17 15 12 17 13 18 14 19
REMARK H PARENT
REMARK Flexibility Score: 70.00
ROOT
ATOM      1  C   UNL     1       8.930  26.180  14.875  1.00  0.00     0.136 C 
ATOM      2  O   UNL     1       9.633  25.209  15.123  1.00  0.00    -0.299 OA
ENDROOT
BRANCH   1   3
ATOM      3  C   UNL     1       7.488  26.197  15.347  1.00  0.00     0.053 C 
ATOM      4  C   UNL     1       6.731  24.978  14.803  1.00  0.00     0.016 C 
BRANCH   3   5
ATOM      5  C   UNL     1       7.424  26.242  16.891  1.00  0.00     0.015 C 
BRANCH   5   6
ATOM      6  C   UNL     1       7.348  27.689  17.415  1.00  0.00     0.028 C 
BRANCH   6   7
ATOM      7  C   UNL     1       6.810  28.663  16.396  1.00  0.00    -0.028 C 
ATOM      8  C   UNL     1       7.534  29.629  15.777  1.00  0.00    -0.070 CG0
ATOM      9  C   UNL     1       6.868  30.480  14.725  1.00  0.00     0.039 C 
ATOM     10  G   UNL     1       8.963  29.985  16.159  1.00  0.00     0.000 G0
ENDBRANCH   6   7
ENDBRANCH   5   6
ENDBRANCH   3   5
ENDBRANCH   1   3
BRANCH   1  11
ATOM     11  C   UNL     1       9.518  27.328  14.087  1.00  0.00     0.087 C 
BRANCH  11  12
ATOM     12  C   UNL     1      10.487  28.190  14.940  1.00  0.00     0.066 C 
BRANCH  12  13
ATOM     13  C   UNL     1       9.983  29.620  15.071  1.00  0.00     0.140 C 
ATOM     14  O   UNL     1      10.421  30.501  14.345  1.00  0.00    -0.299 OA
BRANCH  13  15
ATOM     15  C   UNL     1       8.977  29.970  16.142  1.00  0.00     0.106 CG0
ATOM     16  G   UNL     1       7.539  29.644  15.768  1.00  0.00     0.000 G0
ENDBRANCH  13  15
ENDBRANCH  12  13
BRANCH  12  17
ATOM     17  C   UNL     1      11.969  28.139  14.440  1.00  0.00    -0.006 C 
ATOM     18  C   UNL     1      12.162  27.321  13.150  1.00  0.00     0.008 C 
ATOM     19  C   UNL     1      12.915  27.615  15.533  1.00  0.00     0.008 C 
ENDBRANCH  12  17
ENDBRANCH  11  12
ENDBRANCH   1  11
TORSDOF 1
ENDMDL
MODEL 7
REMARK VINA RESULT:    -2.735      4.389      7.914
REMARK INTER + INTRA:          -4.589
REMARK INTER:                  -4.524
REMARK INTRA:                  -0.065
REMARK UNBOUND:                -0.415
REMARK SMILES CC1=CCC[C@H](C)C(=O)C[C@@H](C(C)C)C(=O)C1
REMARK SMILES IDX 8 1 9 2 6 3 7 4 5 5 4 6 3 7 2 8 1 9 10 11 11 12 15 13 16 14
REMARK SMILES IDX 17 15 12 17 13 18 14 19
REMARK H PARENT
REMARK Flexibility Score: 70.00
ROOT
ATOM      1  C   UNL     1      15.803  25.831  15.923  1.00  0.00     0.136 C 
ATOM      2  O   UNL     1      16.671  25.180  16.490  1.00  0.00    -0.299 OA
ENDROOT
BRANCH   1   3
ATOM      3  C   UNL     1      16.205  26.911  14.936  1.00  0.00     0.053 C 
ATOM      4  C   UNL     1      16.210  26.355  13.505  1.00  0.00     0.016 C 
BRANCH   3   5
ATOM      5  C   UNL     1      15.259  28.129  15.051  1.00  0.00     0.015 C 
BRANCH   5   6
ATOM      6  C   UNL     1      14.538  28.415  13.719  1.00  0.00     0.028 C 
BRANCH   6   7
ATOM      7  C   UNL     1      13.103  28.845  13.900  1.00  0.00    -0.028 C 
ATOM      8  C   UNL     1      12.033  28.011  13.927  1.00  0.00    -0.070 CG0
ATOM      9  C   UNL     1      10.664  28.587  14.189  1.00  0.00     0.039 C 
ATOM     10  G   UNL     1      12.113  26.528  13.596  1.00  0.00     0.000 G0
ENDBRANCH   6   7
ENDBRANCH   5   6
ENDBRANCH   3   5
ENDBRANCH   1   3
BRANCH   1  11
ATOM     11  C   UNL     1      14.352  25.548  16.238  1.00  0.00     0.087 C 
BRANCH  11  12
ATOM     12  C   UNL     1      13.602  24.916  15.034  1.00  0.00     0.066 C 
BRANCH  12  13
ATOM     13  C   UNL     1      12.270  25.612  14.787  1.00  0.00     0.140 C 
ATOM     14  O   UNL     1      11.320  25.411  15.531  1.00  0.00    -0.299 OA
BRANCH  13  15
ATOM     15  C   UNL     1      12.100  26.511  13.587  1.00  0.00     0.106 CG0
ATOM     16  G   UNL     1      12.054  27.993  13.926  1.00  0.00     0.000 G0
ENDBRANCH  13  15
ENDBRANCH  12  13
BRANCH  12  17
ATOM     17  C   UNL     1      13.435  23.365  15.149  1.00  0.00    -0.006 C 
ATOM     18  C   UNL     1      14.768  22.593  15.138  1.00  0.00     0.008 C 
ATOM     19  C   UNL     1      12.509  22.815  14.051  1.00  0.00     0.008 C 
ENDBRANCH  12  17
ENDBRANCH  11  12
ENDBRANCH   1  11
TORSDOF 1
ENDMDL
MODEL 8
REMARK VINA RESULT:    -2.673      2.910      4.670
REMARK INTER + INTRA:          -4.494
REMARK INTER:                  -4.612
REMARK INTRA:                   0.118
REMARK UNBOUND:                -0.415
REMARK SMILES CC1=CCC[C@H](C)C(=O)C[C@@H](C(C)C)C(=O)C1
REMARK SMILES IDX 8 1 9 2 6 3 7 4 5 5 4 6 3 7 2 8 1 9 10 11 11 12 15 13 16 14
REMARK SMILES IDX 17 15 12 17 13 18 14 19
REMARK H PARENT
REMARK Flexibility Score: 70.00
ROOT
ATOM      1  C   UNL     1       7.241  26.471  15.526  1.00  0.00     0.136 C 
ATOM      2  O   UNL     1       8.046  25.896  16.247  1.00  0.00    -0.299 OA
ENDROOT
BRANCH   1   3
ATOM      3  C   UNL     1       6.212  25.661  14.760  1.00  0.00     0.053 C 
ATOM      4  C   UNL     1       6.905  24.649  13.837  1.00  0.00     0.016 C 
BRANCH   3   5
ATOM      5  C   UNL     1       5.250  24.946  15.736  1.00  0.00     0.015 C 
BRANCH   5   6
ATOM      6  C   UNL     1       4.623  25.933  16.740  1.00  0.00     0.028 C 
BRANCH   6   7
ATOM      7  C   UNL     1       3.407  26.642  16.197  1.00  0.00    -0.028 C 
ATOM      8  C   UNL     1       3.201  27.983  16.235  1.00  0.00    -0.070 CG0
ATOM      9  C   UNL     1       1.964  28.550  15.584  1.00  0.00     0.039 C 
ATOM     10  G   UNL     1       4.093  28.951  16.996  1.00  0.00     0.000 G0
ENDBRANCH   6   7
ENDBRANCH   5   6
ENDBRANCH   3   5
ENDBRANCH   1   3
BRANCH   1  11
ATOM     11  C   UNL     1       7.309  27.976  15.407  1.00  0.00     0.087 C 
BRANCH  11  12
ATOM     12  C   UNL     1       6.682  28.691  16.633  1.00  0.00     0.066 C 
BRANCH  12  13
ATOM     13  C   UNL     1       5.362  29.355  16.269  1.00  0.00     0.140 C 
ATOM     14  O   UNL     1       5.323  30.234  15.420  1.00  0.00    -0.299 OA
BRANCH  13  15
ATOM     15  C   UNL     1       4.097  28.969  16.998  1.00  0.00     0.106 CG0
ATOM     16  G   UNL     1       3.226  27.977  16.241  1.00  0.00     0.000 G0
ENDBRANCH  13  15
ENDBRANCH  12  13
BRANCH  12  17
ATOM     17  C   UNL     1       7.659  29.689  17.339  1.00  0.00    -0.006 C 
ATOM     18  C   UNL     1       6.948  30.840  18.076  1.00  0.00     0.008 C 
ATOM     19  C   UNL     1       8.688  30.264  16.351  1.00  0.00     0.008 C 
ENDBRANCH  12  17
ENDBRANCH  11  12
ENDBRANCH   1  11
TORSDOF 1
ENDMDL
MODEL 9
REMARK VINA RESULT:    -2.664      2.117      4.829
REMARK INTER + INTRA:          -4.480
REMARK INTER:                  -4.438
REMARK INTRA:                  -0.042
REMARK UNBOUND:                -0.415
REMARK SMILES CC1=CCC[C@H](C)C(=O)C[C@@H](C(C)C)C(=O)C1
REMARK SMILES IDX 8 1 9 2 6 3 7 4 5 5 4 6 3 7 2 8 1 9 10 11 11 12 15 13 16 14
REMARK SMILES IDX 17 15 12 17 13 18 14 19
REMARK H PARENT
REMARK Flexibility Score: 70.00
ROOT
ATOM      1  C   UNL     1       6.218  28.119  16.976  1.00  0.00     0.136 C 
ATOM      2  O   UNL     1       5.133  27.564  16.868  1.00  0.00    -0.299 OA
ENDROOT
BRANCH   1   3
ATOM      3  C   UNL     1       6.314  29.430  17.734  1.00  0.00     0.053 C 
ATOM      4  C   UNL     1       7.664  30.109  17.462  1.00  0.00     0.016 C 
BRANCH   3   5
ATOM      5  C   UNL     1       5.142  30.363  17.352  1.00  0.00     0.015 C 
BRANCH   5   6
ATOM      6  C   UNL     1       5.369  31.030  15.982  1.00  0.00     0.028 C 
BRANCH   6   7
ATOM      7  C   UNL     1       4.446  30.509  14.907  1.00  0.00    -0.028 C 
ATOM      8  C   UNL     1       4.832  29.777  13.832  1.00  0.00    -0.070 CG0
ATOM      9  C   UNL     1       3.778  29.267  12.880  1.00  0.00     0.039 C 
ATOM     10  G   UNL     1       6.285  29.526  13.461  1.00  0.00     0.000 G0
ENDBRANCH   6   7
ENDBRANCH   5   6
ENDBRANCH   3   5
ENDBRANCH   1   3
BRANCH   1  11
ATOM     11  C   UNL     1       7.432  27.486  16.335  1.00  0.00     0.087 C 
BRANCH  11  12
ATOM     12  C   UNL     1       7.908  28.267  15.081  1.00  0.00     0.066 C 
BRANCH  12  13
ATOM     13  C   UNL     1       6.857  28.235  13.980  1.00  0.00     0.140 C 
ATOM     14  O   UNL     1       6.503  27.170  13.492  1.00  0.00    -0.299 OA
BRANCH  13  15
ATOM     15  C   UNL     1       6.287  29.525  13.444  1.00  0.00     0.106 CG0
ATOM     16  G   UNL     1       4.834  29.765  13.827  1.00  0.00     0.000 G0
ENDBRANCH  13  15
ENDBRANCH  12  13
BRANCH  12  17
ATOM     17  C   UNL     1       9.311  27.812  14.559  1.00  0.00    -0.006 C 
ATOM     18  C   UNL     1       9.731  26.412  15.045  1.00  0.00     0.008 C 
ATOM     19  C   UNL     1      10.403  28.834  14.916  1.00  0.00     0.008 C 
ENDBRANCH  12  17
ENDBRANCH  11  12
ENDBRANCH   1  11
TORSDOF 1
ENDMDL
