MODEL 1
REMARK VINA RESULT:    -4.246      0.000      0.000
REMARK INTER + INTRA:          -5.333
REMARK INTER:                  -5.115
REMARK INTRA:                  -0.218
REMARK UNBOUND:                -0.218
REMARK SMILES NC(=O)C[C@H]([NH3+])C(=O)[O-]
REMARK SMILES IDX 4 1 5 2 6 3 7 7 8 8 9 9 2 10 3 11 1 12
REMARK H PARENT 6 4 6 5 6 6 1 13 1 14
REMARK Flexibility Score: inf
ROOT
ATOM      1  C   UNL     1     -19.770  -4.132 -13.178  1.00  0.00     0.171 C 
ENDROOT
BRANCH   1   2
ATOM      2  C   UNL     1     -19.688  -2.595 -13.076  1.00  0.00     0.237 C 
BRANCH   2   3
ATOM      3  N   UNL     1     -18.691  -2.198 -12.076  1.00  0.00    -0.350 N 
ATOM      4  H   UNL     1     -19.021  -2.434 -11.110  1.00  0.00     0.345 HD
ATOM      5  H   UNL     1     -17.788  -2.694 -12.259  1.00  0.00     0.345 HD
ATOM      6  H   UNL     1     -18.517  -1.168 -12.137  1.00  0.00     0.345 HD
ENDBRANCH   2   3
BRANCH   2   7
ATOM      7  C   UNL     1     -21.033  -2.003 -12.737  1.00  0.00     0.100 C 
ATOM      8  O   UNL     1     -21.637  -1.273 -13.568  1.00  0.00    -0.544 OA
ATOM      9  O   UNL     1     -21.607  -2.250 -11.498  1.00  0.00    -0.544 OA
ENDBRANCH   2   7
ENDBRANCH   1   2
BRANCH   1  10
ATOM     10  C   UNL     1     -18.435  -4.737 -13.505  1.00  0.00     0.223 C 
ATOM     11  O   UNL     1     -17.491  -4.662 -12.674  1.00  0.00    -0.275 OA
ATOM     12  N   UNL     1     -18.239  -5.429 -14.737  1.00  0.00    -0.369 N 
ATOM     13  H   UNL     1     -19.016  -5.514 -15.430  1.00  0.00     0.159 HD
ATOM     14  H   UNL     1     -17.314  -5.862 -14.958  1.00  0.00     0.159 HD
ENDBRANCH   1  10
TORSDOF 4
ENDMDL
MODEL 2
REMARK VINA RESULT:    -4.236      0.101      1.082
REMARK INTER + INTRA:          -5.322
REMARK INTER:                  -5.101
REMARK INTRA:                  -0.220
REMARK UNBOUND:                -0.218
REMARK SMILES NC(=O)C[C@H]([NH3+])C(=O)[O-]
REMARK SMILES IDX 4 1 5 2 6 3 7 7 8 8 9 9 2 10 3 11 1 12
REMARK H PARENT 6 4 6 5 6 6 1 13 1 14
REMARK Flexibility Score: inf
ROOT
ATOM      1  C   UNL     1     -19.818  -4.075 -13.193  1.00  0.00     0.171 C 
ENDROOT
BRANCH   1   2
ATOM      2  C   UNL     1     -19.706  -2.542 -13.065  1.00  0.00     0.237 C 
BRANCH   2   3
ATOM      3  N   UNL     1     -18.674  -2.181 -12.085  1.00  0.00    -0.350 N 
ATOM      4  H   UNL     1     -18.039  -1.443 -12.470  1.00  0.00     0.345 HD
ATOM      5  H   UNL     1     -19.125  -1.822 -11.212  1.00  0.00     0.345 HD
ATOM      6  H   UNL     1     -18.109  -3.026 -11.837  1.00  0.00     0.345 HD
ENDBRANCH   2   3
BRANCH   2   7
ATOM      7  C   UNL     1     -21.030  -1.932 -12.678  1.00  0.00     0.100 C 
ATOM      8  O   UNL     1     -21.543  -2.180 -11.554  1.00  0.00    -0.544 OA
ATOM      9  O   UNL     1     -21.697  -1.101 -13.567  1.00  0.00    -0.544 OA
ENDBRANCH   2   7
ENDBRANCH   1   2
BRANCH   1  10
ATOM     10  C   UNL     1     -18.498  -4.700 -13.541  1.00  0.00     0.223 C 
ATOM     11  O   UNL     1     -17.554  -4.677 -12.708  1.00  0.00    -0.275 OA
ATOM     12  N   UNL     1     -18.317  -5.352 -14.797  1.00  0.00    -0.369 N 
ATOM     13  H   UNL     1     -19.095  -5.393 -15.493  1.00  0.00     0.159 HD
ATOM     14  H   UNL     1     -17.403  -5.799 -15.033  1.00  0.00     0.159 HD
ENDBRANCH   1  10
TORSDOF 4
ENDMDL
MODEL 3
REMARK VINA RESULT:    -4.101      2.597      4.635
REMARK INTER + INTRA:          -5.159
REMARK INTER:                  -4.898
REMARK INTRA:                  -0.261
REMARK UNBOUND:                -0.218
REMARK SMILES NC(=O)C[C@H]([NH3+])C(=O)[O-]
REMARK SMILES IDX 4 1 5 2 6 3 7 7 8 8 9 9 2 10 3 11 1 12
REMARK H PARENT 6 4 6 5 6 6 1 13 1 14
REMARK Flexibility Score: inf
ROOT
ATOM      1  C   UNL     1     -21.280  -1.044 -12.577  1.00  0.00     0.171 C 
ENDROOT
BRANCH   1   2
ATOM      2  C   UNL     1     -20.959  -2.523 -12.276  1.00  0.00     0.237 C 
BRANCH   2   3
ATOM      3  N   UNL     1     -21.066  -2.790 -10.838  1.00  0.00    -0.350 N 
ATOM      4  H   UNL     1     -21.607  -3.670 -10.664  1.00  0.00     0.345 HD
ATOM      5  H   UNL     1     -20.110  -2.890 -10.424  1.00  0.00     0.345 HD
ATOM      6  H   UNL     1     -21.546  -1.992 -10.363  1.00  0.00     0.345 HD
ENDBRANCH   2   3
BRANCH   2   7
ATOM      7  C   UNL     1     -19.584  -2.890 -12.775  1.00  0.00     0.100 C 
ATOM      8  O   UNL     1     -18.581  -2.201 -12.451  1.00  0.00    -0.544 OA
ATOM      9  O   UNL     1     -19.420  -3.988 -13.609  1.00  0.00    -0.544 OA
ENDBRANCH   2   7
ENDBRANCH   1   2
BRANCH   1  10
ATOM     10  C   UNL     1     -22.759  -0.786 -12.567  1.00  0.00     0.223 C 
ATOM     11  O   UNL     1     -23.554  -1.704 -12.232  1.00  0.00    -0.275 OA
ATOM     12  N   UNL     1     -23.269   0.505 -12.899  1.00  0.00    -0.369 N 
ATOM     13  H   UNL     1     -22.623   1.281 -13.163  1.00  0.00     0.159 HD
ATOM     14  H   UNL     1     -24.298   0.687 -12.878  1.00  0.00     0.159 HD
ENDBRANCH   1  10
TORSDOF 4
ENDMDL
MODEL 4
REMARK VINA RESULT:    -3.946      2.619      3.451
REMARK INTER + INTRA:          -4.971
REMARK INTER:                  -4.763
REMARK INTRA:                  -0.209
REMARK UNBOUND:                -0.218
REMARK SMILES NC(=O)C[C@H]([NH3+])C(=O)[O-]
REMARK SMILES IDX 4 1 5 2 6 3 7 7 8 8 9 9 2 10 3 11 1 12
REMARK H PARENT 6 4 6 5 6 6 1 13 1 14
REMARK Flexibility Score: inf
ROOT
ATOM      1  C   UNL     1     -20.920  -1.246 -12.440  1.00  0.00     0.171 C 
ENDROOT
BRANCH   1   2
ATOM      2  C   UNL     1     -22.427  -1.176 -12.763  1.00  0.00     0.237 C 
BRANCH   2   3
ATOM      3  N   UNL     1     -22.804   0.182 -13.169  1.00  0.00    -0.350 N 
ATOM      4  H   UNL     1     -23.568   0.554 -12.556  1.00  0.00     0.345 HD
ATOM      5  H   UNL     1     -21.974   0.816 -13.100  1.00  0.00     0.345 HD
ATOM      6  H   UNL     1     -23.131   0.178 -14.162  1.00  0.00     0.345 HD
ENDBRANCH   2   3
BRANCH   2   7
ATOM      7  C   UNL     1     -23.255  -1.617 -11.581  1.00  0.00     0.100 C 
ATOM      8  O   UNL     1     -24.379  -2.157 -11.755  1.00  0.00    -0.544 OA
ATOM      9  O   UNL     1     -22.784  -1.415 -10.291  1.00  0.00    -0.544 OA
ENDBRANCH   2   7
ENDBRANCH   1   2
BRANCH   1  10
ATOM     10  C   UNL     1     -20.449  -2.665 -12.303  1.00  0.00     0.223 C 
ATOM     11  O   UNL     1     -20.220  -3.352 -13.334  1.00  0.00    -0.275 OA
ATOM     12  N   UNL     1     -20.222  -3.230 -11.012  1.00  0.00    -0.369 N 
ATOM     13  H   UNL     1     -20.391  -2.668 -10.149  1.00  0.00     0.159 HD
ATOM     14  H   UNL     1     -19.880  -4.212 -10.919  1.00  0.00     0.159 HD
ENDBRANCH   1  10
TORSDOF 4
ENDMDL
MODEL 5
REMARK VINA RESULT:    -3.900      1.672      1.784
REMARK INTER + INTRA:          -4.917
REMARK INTER:                  -4.656
REMARK INTRA:                  -0.261
REMARK UNBOUND:                -0.218
REMARK SMILES NC(=O)C[C@H]([NH3+])C(=O)[O-]
REMARK SMILES IDX 4 1 5 2 6 3 7 7 8 8 9 9 2 10 3 11 1 12
REMARK H PARENT 6 4 6 5 6 6 1 13 1 14
REMARK Flexibility Score: inf
ROOT
ATOM      1  C   UNL     1     -20.348  -2.914 -13.221  1.00  0.00     0.171 C 
ENDROOT
BRANCH   1   2
ATOM      2  C   UNL     1     -20.852  -2.082 -12.023  1.00  0.00     0.237 C 
BRANCH   2   3
ATOM      3  N   UNL     1     -20.948  -2.917 -10.820  1.00  0.00    -0.350 N 
ATOM      4  H   UNL     1     -20.355  -2.527 -10.051  1.00  0.00     0.345 HD
ATOM      5  H   UNL     1     -21.942  -2.959 -10.497  1.00  0.00     0.345 HD
ATOM      6  H   UNL     1     -20.633  -3.890 -11.038  1.00  0.00     0.345 HD
ENDBRANCH   2   3
BRANCH   2   7
ATOM      7  C   UNL     1     -22.187  -1.449 -12.328  1.00  0.00     0.100 C 
ATOM      8  O   UNL     1     -22.247  -0.319 -12.881  1.00  0.00    -0.544 OA
ATOM      9  O   UNL     1     -23.361  -2.107 -11.985  1.00  0.00    -0.544 OA
ENDBRANCH   2   7
ENDBRANCH   1   2
BRANCH   1  10
ATOM     10  C   UNL     1     -18.869  -3.160 -13.140  1.00  0.00     0.223 C 
ATOM     11  O   UNL     1     -18.203  -2.672 -12.188  1.00  0.00    -0.275 OA
ATOM     12  N   UNL     1     -18.218  -3.975 -14.113  1.00  0.00    -0.369 N 
ATOM     13  H   UNL     1     -18.759  -4.400 -14.899  1.00  0.00     0.159 HD
ATOM     14  H   UNL     1     -17.192  -4.157 -14.048  1.00  0.00     0.159 HD
ENDBRANCH   1  10
TORSDOF 4
ENDMDL
MODEL 6
REMARK VINA RESULT:    -3.899      2.455      3.031
REMARK INTER + INTRA:          -4.915
REMARK INTER:                  -4.773
REMARK INTRA:                  -0.142
REMARK UNBOUND:                -0.218
REMARK SMILES NC(=O)C[C@H]([NH3+])C(=O)[O-]
REMARK SMILES IDX 4 1 5 2 6 3 7 7 8 8 9 9 2 10 3 11 1 12
REMARK H PARENT 6 4 6 5 6 6 1 13 1 14
REMARK Flexibility Score: inf
ROOT
ATOM      1  C   UNL     1     -19.324  -3.675 -13.146  1.00  0.00     0.171 C 
ENDROOT
BRANCH   1   2
ATOM      2  C   UNL     1     -18.854  -3.778 -11.680  1.00  0.00     0.237 C 
BRANCH   2   3
ATOM      3  N   UNL     1     -19.932  -3.385 -10.765  1.00  0.00    -0.350 N 
ATOM      4  H   UNL     1     -20.350  -4.226 -10.303  1.00  0.00     0.345 HD
ATOM      5  H   UNL     1     -19.555  -2.744 -10.029  1.00  0.00     0.345 HD
ATOM      6  H   UNL     1     -20.677  -2.876 -11.293  1.00  0.00     0.345 HD
ENDBRANCH   2   3
BRANCH   2   7
ATOM      7  C   UNL     1     -17.631  -2.928 -11.442  1.00  0.00     0.100 C 
ATOM      8  O   UNL     1     -16.699  -3.342 -10.703  1.00  0.00    -0.544 OA
ATOM      9  O   UNL     1     -17.533  -1.674 -12.030  1.00  0.00    -0.544 OA
ENDBRANCH   2   7
ENDBRANCH   1   2
BRANCH   1  10
ATOM     10  C   UNL     1     -18.400  -4.407 -14.076  1.00  0.00     0.223 C 
ATOM     11  O   UNL     1     -17.933  -5.529 -13.742  1.00  0.00    -0.275 OA
ATOM     12  N   UNL     1     -18.077  -3.859 -15.353  1.00  0.00    -0.369 N 
ATOM     13  H   UNL     1     -18.469  -2.939 -15.652  1.00  0.00     0.159 HD
ATOM     14  H   UNL     1     -17.446  -4.376 -16.005  1.00  0.00     0.159 HD
ENDBRANCH   1  10
TORSDOF 4
ENDMDL
MODEL 7
REMARK VINA RESULT:    -3.862      1.698      4.115
REMARK INTER + INTRA:          -4.870
REMARK INTER:                  -4.621
REMARK INTRA:                  -0.249
REMARK UNBOUND:                -0.218
REMARK SMILES NC(=O)C[C@H]([NH3+])C(=O)[O-]
REMARK SMILES IDX 4 1 5 2 6 3 7 7 8 8 9 9 2 10 3 11 1 12
REMARK H PARENT 6 4 6 5 6 6 1 13 1 14
REMARK Flexibility Score: inf
ROOT
ATOM      1  C   UNL     1     -20.495  -2.865 -13.199  1.00  0.00     0.171 C 
ENDROOT
BRANCH   1   2
ATOM      2  C   UNL     1     -19.200  -3.290 -12.476  1.00  0.00     0.237 C 
BRANCH   2   3
ATOM      3  N   UNL     1     -18.421  -2.112 -12.080  1.00  0.00    -0.350 N 
ATOM      4  H   UNL     1     -17.870  -2.307 -11.211  1.00  0.00     0.345 HD
ATOM      5  H   UNL     1     -17.762  -1.848 -12.848  1.00  0.00     0.345 HD
ATOM      6  H   UNL     1     -19.062  -1.304 -11.906  1.00  0.00     0.345 HD
ENDBRANCH   2   3
BRANCH   2   7
ATOM      7  C   UNL     1     -18.368  -4.199 -13.346  1.00  0.00     0.100 C 
ATOM      8  O   UNL     1     -17.597  -5.049 -12.827  1.00  0.00    -0.544 OA
ATOM      9  O   UNL     1     -18.439  -4.092 -14.728  1.00  0.00    -0.544 OA
ENDBRANCH   2   7
ENDBRANCH   1   2
BRANCH   1  10
ATOM     10  C   UNL     1     -21.402  -2.081 -12.296  1.00  0.00     0.223 C 
ATOM     11  O   UNL     1     -21.339  -0.822 -12.282  1.00  0.00    -0.275 OA
ATOM     12  N   UNL     1     -22.361  -2.750 -11.478  1.00  0.00    -0.369 N 
ATOM     13  H   UNL     1     -22.437  -3.791 -11.490  1.00  0.00     0.159 HD
ATOM     14  H   UNL     1     -23.001  -2.202 -10.861  1.00  0.00     0.159 HD
ENDBRANCH   1  10
TORSDOF 4
ENDMDL
MODEL 8
REMARK VINA RESULT:    -3.843      2.239      2.784
REMARK INTER + INTRA:          -4.848
REMARK INTER:                  -4.584
REMARK INTRA:                  -0.263
REMARK UNBOUND:                -0.218
REMARK SMILES NC(=O)C[C@H]([NH3+])C(=O)[O-]
REMARK SMILES IDX 4 1 5 2 6 3 7 7 8 8 9 9 2 10 3 11 1 12
REMARK H PARENT 6 4 6 5 6 6 1 13 1 14
REMARK Flexibility Score: inf
ROOT
ATOM      1  C   UNL     1     -21.262  -2.324 -12.993  1.00  0.00     0.171 C 
ENDROOT
BRANCH   1   2
ATOM      2  C   UNL     1     -21.795  -1.917 -11.604  1.00  0.00     0.237 C 
BRANCH   2   3
ATOM      3  N   UNL     1     -21.220  -2.774 -10.561  1.00  0.00    -0.350 N 
ATOM      4  H   UNL     1     -21.669  -2.584  -9.635  1.00  0.00     0.345 HD
ATOM      5  H   UNL     1     -21.365  -3.780 -10.810  1.00  0.00     0.345 HD
ATOM      6  H   UNL     1     -20.191  -2.601 -10.486  1.00  0.00     0.345 HD
ENDBRANCH   2   3
BRANCH   2   7
ATOM      7  C   UNL     1     -23.301  -1.982 -11.561  1.00  0.00     0.100 C 
ATOM      8  O   UNL     1     -23.883  -2.949 -11.003  1.00  0.00    -0.544 OA
ATOM      9  O   UNL     1     -24.055  -0.976 -12.150  1.00  0.00    -0.544 OA
ENDBRANCH   2   7
ENDBRANCH   1   2
BRANCH   1  10
ATOM     10  C   UNL     1     -19.901  -2.950 -12.903  1.00  0.00     0.223 C 
ATOM     11  O   UNL     1     -18.923  -2.270 -12.492  1.00  0.00    -0.275 OA
ATOM     12  N   UNL     1     -19.713  -4.323 -13.245  1.00  0.00    -0.369 N 
ATOM     13  H   UNL     1     -20.517  -4.905 -13.572  1.00  0.00     0.159 HD
ATOM     14  H   UNL     1     -18.769  -4.761 -13.168  1.00  0.00     0.159 HD
ENDBRANCH   1  10
TORSDOF 4
ENDMDL
MODEL 9
REMARK VINA RESULT:    -3.797      1.910      3.983
REMARK INTER + INTRA:          -4.792
REMARK INTER:                  -4.580
REMARK INTRA:                  -0.212
REMARK UNBOUND:                -0.218
REMARK SMILES NC(=O)C[C@H]([NH3+])C(=O)[O-]
REMARK SMILES IDX 4 1 5 2 6 3 7 7 8 8 9 9 2 10 3 11 1 12
REMARK H PARENT 6 4 6 5 6 6 1 13 1 14
REMARK Flexibility Score: inf
ROOT
ATOM      1  C   UNL     1     -20.528  -2.920 -12.992  1.00  0.00     0.171 C 
ENDROOT
BRANCH   1   2
ATOM      2  C   UNL     1     -19.002  -2.800 -12.803  1.00  0.00     0.237 C 
BRANCH   2   3
ATOM      3  N   UNL     1     -18.293  -3.533 -13.858  1.00  0.00    -0.350 N 
ATOM      4  H   UNL     1     -17.258  -3.419 -13.757  1.00  0.00     0.345 HD
ATOM      5  H   UNL     1     -18.531  -4.551 -13.802  1.00  0.00     0.345 HD
ATOM      6  H   UNL     1     -18.589  -3.179 -14.796  1.00  0.00     0.345 HD
ENDBRANCH   2   3
BRANCH   2   7
ATOM      7  C   UNL     1     -18.583  -3.305 -11.444  1.00  0.00     0.100 C 
ATOM      8  O   UNL     1     -17.394  -3.170 -11.052  1.00  0.00    -0.544 OA
ATOM      9  O   UNL     1     -19.509  -3.934 -10.623  1.00  0.00    -0.544 OA
ENDBRANCH   2   7
ENDBRANCH   1   2
BRANCH   1  10
ATOM     10  C   UNL     1     -21.242  -1.680 -12.534  1.00  0.00     0.223 C 
ATOM     11  O   UNL     1     -21.625  -0.829 -13.379  1.00  0.00    -0.275 OA
ATOM     12  N   UNL     1     -21.521  -1.478 -11.149  1.00  0.00    -0.369 N 
ATOM     13  H   UNL     1     -21.224  -2.182 -10.438  1.00  0.00     0.159 HD
ATOM     14  H   UNL     1     -22.030  -0.622 -10.833  1.00  0.00     0.159 HD
ENDBRANCH   1  10
TORSDOF 4
ENDMDL
