MODEL 1
REMARK VINA RESULT:    29.669      0.000      0.000
REMARK INTER + INTRA:          36.317
REMARK INTER:                  36.607
REMARK INTRA:                  -0.290
REMARK UNBOUND:                -0.290
REMARK SMILES O=c1c(O)c(-c2cc(O)c(O)c(O)c2)oc2cc(O)cc(O)c12
REMARK SMILES IDX 5 1 3 2 2 3 1 4 23 5 21 6 20 7 18 8 17 9 16 10 15 11 6 12
REMARK SMILES IDX 7 13 8 14 14 15 10 16 12 17 9 18 11 20 13 22 4 24 22 26
REMARK SMILES IDX 19 28
REMARK H PARENT 9 19 11 21 13 23 4 25 22 27 19 29
REMARK Flexibility Score: inf
ROOT
ATOM      1  C   UNL     1      20.296 -12.638 -16.405  1.00  0.00     0.180 A 
ATOM      2  C   UNL     1      20.181 -12.868 -17.790  1.00  0.00     0.208 A 
ATOM      3  C   UNL     1      21.202 -12.415 -18.640  1.00  0.00     0.238 A 
ATOM      4  O   UNL     1      21.104 -12.604 -19.882  1.00  0.00    -0.285 OA
ATOM      5  C   UNL     1      22.324 -11.759 -18.093  1.00  0.00     0.111 A 
ATOM      6  C   UNL     1      23.397 -11.275 -18.880  1.00  0.00     0.134 A 
ATOM      7  C   UNL     1      24.485 -10.642 -18.259  1.00  0.00     0.093 A 
ATOM      8  C   UNL     1      24.519 -10.486 -16.869  1.00  0.00     0.123 A 
ATOM      9  C   UNL     1      23.463 -10.960 -16.089  1.00  0.00     0.094 A 
ATOM     10  C   UNL     1      22.370 -11.592 -16.689  1.00  0.00     0.146 A 
ATOM     11  O   UNL     1      21.377 -12.030 -15.923  1.00  0.00    -0.452 OA
ENDROOT
BRANCH   1  12
ATOM     12  C   UNL     1      19.253 -13.069 -15.447  1.00  0.00     0.029 A 
ATOM     13  C   UNL     1      18.368 -12.118 -14.916  1.00  0.00     0.062 A 
ATOM     14  C   UNL     1      17.359 -12.504 -14.024  1.00  0.00     0.162 A 
ATOM     15  C   UNL     1      19.091 -14.422 -15.101  1.00  0.00     0.062 A 
ATOM     16  C   UNL     1      17.215 -13.852 -13.667  1.00  0.00     0.200 A 
ATOM     17  C   UNL     1      18.083 -14.815 -14.211  1.00  0.00     0.162 A 
BRANCH  14  18
ATOM     18  O   UNL     1      16.491 -11.554 -13.488  1.00  0.00    -0.504 OA
ATOM     19  H   UNL     1      16.685 -10.561 -13.554  1.00  0.00     0.293 HD
ENDBRANCH  14  18
BRANCH  16  20
ATOM     20  O   UNL     1      16.207 -14.217 -12.774  1.00  0.00    -0.502 OA
ATOM     21  H   UNL     1      16.306 -15.000 -12.140  1.00  0.00     0.293 HD
ENDBRANCH  16  20
BRANCH  17  22
ATOM     22  O   UNL     1      17.935 -16.158 -13.869  1.00  0.00    -0.504 OA
ATOM     23  H   UNL     1      17.158 -16.479 -13.302  1.00  0.00     0.293 HD
ENDBRANCH  17  22
ENDBRANCH   1  12
BRANCH   2  24
ATOM     24  O   UNL     1      19.081 -13.563 -18.300  1.00  0.00    -0.502 OA
ATOM     25  H   UNL     1      18.464 -14.109 -17.711  1.00  0.00     0.293 HD
ENDBRANCH   2  24
BRANCH   6  26
ATOM     26  O   UNL     1      23.391 -11.419 -20.268  1.00  0.00    -0.507 OA
ATOM     27  H   UNL     1      24.003 -10.871 -20.863  1.00  0.00     0.293 HD
ENDBRANCH   6  26
BRANCH   8  28
ATOM     28  O   UNL     1      25.598  -9.858 -16.253  1.00  0.00    -0.508 OA
ATOM     29  H   UNL     1      25.651  -9.761 -15.245  1.00  0.00     0.293 HD
ENDBRANCH   8  28
TORSDOF 7
ENDMDL
MODEL 2
REMARK VINA RESULT:    30.355      1.200      2.796
REMARK INTER + INTRA:          37.164
REMARK INTER:                  37.504
REMARK INTRA:                  -0.340
REMARK UNBOUND:                -0.290
REMARK SMILES O=c1c(O)c(-c2cc(O)c(O)c(O)c2)oc2cc(O)cc(O)c12
REMARK SMILES IDX 5 1 3 2 2 3 1 4 23 5 21 6 20 7 18 8 17 9 16 10 15 11 6 12
REMARK SMILES IDX 7 13 8 14 14 15 10 16 12 17 9 18 11 20 13 22 4 24 22 26
REMARK SMILES IDX 19 28
REMARK H PARENT 9 19 11 21 13 23 4 25 22 27 19 29
REMARK Flexibility Score: inf
ROOT
ATOM      1  C   UNL     1      20.329 -12.667 -15.726  1.00  0.00     0.180 A 
ATOM      2  C   UNL     1      21.465 -12.158 -15.066  1.00  0.00     0.208 A 
ATOM      3  C   UNL     1      22.571 -11.757 -15.833  1.00  0.00     0.238 A 
ATOM      4  O   UNL     1      23.598 -11.311 -15.254  1.00  0.00    -0.285 OA
ATOM      5  C   UNL     1      22.515 -11.851 -17.239  1.00  0.00     0.111 A 
ATOM      6  C   UNL     1      23.585 -11.465 -18.083  1.00  0.00     0.134 A 
ATOM      7  C   UNL     1      23.449 -11.580 -19.475  1.00  0.00     0.093 A 
ATOM      8  C   UNL     1      22.265 -12.073 -20.036  1.00  0.00     0.123 A 
ATOM      9  C   UNL     1      21.209 -12.456 -19.208  1.00  0.00     0.094 A 
ATOM     10  C   UNL     1      21.325 -12.351 -17.819  1.00  0.00     0.146 A 
ATOM     11  O   UNL     1      20.307 -12.727 -17.054  1.00  0.00    -0.452 OA
ENDROOT
BRANCH   1  12
ATOM     12  C   UNL     1      19.132 -13.127 -14.987  1.00  0.00     0.029 A 
ATOM     13  C   UNL     1      18.166 -12.191 -14.586  1.00  0.00     0.062 A 
ATOM     14  C   UNL     1      17.013 -12.603 -13.904  1.00  0.00     0.162 A 
ATOM     15  C   UNL     1      18.911 -14.490 -14.727  1.00  0.00     0.062 A 
ATOM     16  C   UNL     1      16.809 -13.962 -13.629  1.00  0.00     0.200 A 
ATOM     17  C   UNL     1      17.760 -14.910 -14.046  1.00  0.00     0.162 A 
BRANCH  14  18
ATOM     18  O   UNL     1      16.064 -11.669 -13.495  1.00  0.00    -0.504 OA
ATOM     19  H   UNL     1      15.077 -11.898 -13.454  1.00  0.00     0.293 HD
ENDBRANCH  14  18
BRANCH  16  20
ATOM     20  O   UNL     1      15.658 -14.354 -12.946  1.00  0.00    -0.502 OA
ATOM     21  H   UNL     1      14.774 -13.871 -13.058  1.00  0.00     0.293 HD
ENDBRANCH  16  20
BRANCH  17  22
ATOM     22  O   UNL     1      17.554 -16.264 -13.788  1.00  0.00    -0.504 OA
ATOM     23  H   UNL     1      17.592 -16.637 -12.845  1.00  0.00     0.293 HD
ENDBRANCH  17  22
ENDBRANCH   1  12
BRANCH   2  24
ATOM     24  O   UNL     1      21.475 -12.030 -13.675  1.00  0.00    -0.502 OA
ATOM     25  H   UNL     1      22.055 -11.349 -13.198  1.00  0.00     0.293 HD
ENDBRANCH   2  24
BRANCH   6  26
ATOM     26  O   UNL     1      24.775 -10.969 -17.552  1.00  0.00    -0.507 OA
ATOM     27  H   UNL     1      25.279 -11.460 -16.822  1.00  0.00     0.293 HD
ENDBRANCH   6  26
BRANCH   8  28
ATOM     28  O   UNL     1      22.130 -12.187 -21.418  1.00  0.00    -0.508 OA
ATOM     29  H   UNL     1      21.983 -11.374 -22.005  1.00  0.00     0.293 HD
ENDBRANCH   8  28
TORSDOF 7
ENDMDL
MODEL 3
REMARK VINA RESULT:    31.623      1.540      7.342
REMARK INTER + INTRA:          38.729
REMARK INTER:                  39.076
REMARK INTRA:                  -0.347
REMARK UNBOUND:                -0.290
REMARK SMILES O=c1c(O)c(-c2cc(O)c(O)c(O)c2)oc2cc(O)cc(O)c12
REMARK SMILES IDX 5 1 3 2 2 3 1 4 23 5 21 6 20 7 18 8 17 9 16 10 15 11 6 12
REMARK SMILES IDX 7 13 8 14 14 15 10 16 12 17 9 18 11 20 13 22 4 24 22 26
REMARK SMILES IDX 19 28
REMARK H PARENT 9 19 11 21 13 23 4 25 22 27 19 29
REMARK Flexibility Score: inf
ROOT
ATOM      1  C   UNL     1      19.805 -13.111 -15.639  1.00  0.00     0.180 A 
ATOM      2  C   UNL     1      18.891 -12.315 -14.921  1.00  0.00     0.208 A 
ATOM      3  C   UNL     1      17.851 -12.943 -14.217  1.00  0.00     0.238 A 
ATOM      4  O   UNL     1      17.020 -12.240 -13.580  1.00  0.00    -0.285 OA
ATOM      5  C   UNL     1      17.754 -14.350 -14.226  1.00  0.00     0.111 A 
ATOM      6  C   UNL     1      16.738 -15.059 -13.540  1.00  0.00     0.134 A 
ATOM      7  C   UNL     1      16.714 -16.461 -13.590  1.00  0.00     0.093 A 
ATOM      8  C   UNL     1      17.686 -17.165 -14.310  1.00  0.00     0.123 A 
ATOM      9  C   UNL     1      18.689 -16.469 -14.989  1.00  0.00     0.094 A 
ATOM     10  C   UNL     1      18.728 -15.073 -14.953  1.00  0.00     0.146 A 
ATOM     11  O   UNL     1      19.690 -14.437 -15.612  1.00  0.00    -0.452 OA
ENDROOT
BRANCH   1  12
ATOM     12  C   UNL     1      20.916 -12.523 -16.420  1.00  0.00     0.029 A 
ATOM     13  C   UNL     1      22.123 -12.212 -15.775  1.00  0.00     0.062 A 
ATOM     14  C   UNL     1      23.197 -11.674 -16.496  1.00  0.00     0.162 A 
ATOM     15  C   UNL     1      20.810 -12.322 -17.807  1.00  0.00     0.062 A 
ATOM     16  C   UNL     1      23.079 -11.456 -17.875  1.00  0.00     0.200 A 
ATOM     17  C   UNL     1      21.881 -11.785 -18.533  1.00  0.00     0.162 A 
BRANCH  14  18
ATOM     18  O   UNL     1      24.389 -11.353 -15.849  1.00  0.00    -0.504 OA
ATOM     19  H   UNL     1      25.146 -10.883 -16.333  1.00  0.00     0.293 HD
ENDBRANCH  14  18
BRANCH  16  20
ATOM     20  O   UNL     1      24.158 -10.916 -18.575  1.00  0.00    -0.502 OA
ATOM     21  H   UNL     1      25.111 -11.003 -18.245  1.00  0.00     0.293 HD
ENDBRANCH  16  20
BRANCH  17  22
ATOM     22  O   UNL     1      21.764 -11.584 -19.908  1.00  0.00    -0.504 OA
ATOM     23  H   UNL     1      20.883 -11.721 -20.391  1.00  0.00     0.293 HD
ENDBRANCH  17  22
ENDBRANCH   1  12
BRANCH   2  24
ATOM     24  O   UNL     1      19.039 -10.926 -14.889  1.00  0.00    -0.502 OA
ATOM     25  H   UNL     1      19.459 -10.444 -14.103  1.00  0.00     0.293 HD
ENDBRANCH   2  24
BRANCH   6  26
ATOM     26  O   UNL     1      15.757 -14.385 -12.812  1.00  0.00    -0.507 OA
ATOM     27  H   UNL     1      14.880 -14.827 -12.563  1.00  0.00     0.293 HD
ENDBRANCH   6  26
BRANCH   8  28
ATOM     28  O   UNL     1      17.664 -18.557 -14.359  1.00  0.00    -0.508 OA
ATOM     29  H   UNL     1      18.486 -19.109 -14.141  1.00  0.00     0.293 HD
ENDBRANCH   8  28
TORSDOF 7
ENDMDL
MODEL 4
REMARK VINA RESULT:    32.501      4.514      7.879
REMARK INTER + INTRA:          39.811
REMARK INTER:                  40.131
REMARK INTRA:                  -0.320
REMARK UNBOUND:                -0.290
REMARK SMILES O=c1c(O)c(-c2cc(O)c(O)c(O)c2)oc2cc(O)cc(O)c12
REMARK SMILES IDX 5 1 3 2 2 3 1 4 23 5 21 6 20 7 18 8 17 9 16 10 15 11 6 12
REMARK SMILES IDX 7 13 8 14 14 15 10 16 12 17 9 18 11 20 13 22 4 24 22 26
REMARK SMILES IDX 19 28
REMARK H PARENT 9 19 11 21 13 23 4 25 22 27 19 29
REMARK Flexibility Score: inf
ROOT
ATOM      1  C   UNL     1      22.602  -8.350 -18.420  1.00  0.00     0.180 A 
ATOM      2  C   UNL     1      23.352  -8.670 -17.271  1.00  0.00     0.208 A 
ATOM      3  C   UNL     1      23.567 -10.021 -16.956  1.00  0.00     0.238 A 
ATOM      4  O   UNL     1      24.227 -10.319 -15.924  1.00  0.00    -0.285 OA
ATOM      5  C   UNL     1      23.048 -11.024 -17.800  1.00  0.00     0.111 A 
ATOM      6  C   UNL     1      23.224 -12.408 -17.555  1.00  0.00     0.134 A 
ATOM      7  C   UNL     1      22.684 -13.346 -18.448  1.00  0.00     0.093 A 
ATOM      8  C   UNL     1      21.976 -12.927 -19.579  1.00  0.00     0.123 A 
ATOM      9  C   UNL     1      21.800 -11.564 -19.825  1.00  0.00     0.094 A 
ATOM     10  C   UNL     1      22.328 -10.614 -18.946  1.00  0.00     0.146 A 
ATOM     11  O   UNL     1      22.141  -9.324 -19.201  1.00  0.00    -0.452 OA
ENDROOT
BRANCH   1  12
ATOM     12  C   UNL     1      22.317  -6.951 -18.808  1.00  0.00     0.029 A 
ATOM     13  C   UNL     1      21.069  -6.388 -18.496  1.00  0.00     0.062 A 
ATOM     14  C   UNL     1      20.783  -5.059 -18.833  1.00  0.00     0.162 A 
ATOM     15  C   UNL     1      23.290  -6.152 -19.432  1.00  0.00     0.062 A 
ATOM     16  C   UNL     1      21.750  -4.273 -19.474  1.00  0.00     0.200 A 
ATOM     17  C   UNL     1      23.010  -4.821 -19.771  1.00  0.00     0.162 A 
BRANCH  14  18
ATOM     18  O   UNL     1      19.538  -4.509 -18.534  1.00  0.00    -0.504 OA
ATOM     19  H   UNL     1      18.746  -4.617 -19.158  1.00  0.00     0.293 HD
ENDBRANCH  14  18
BRANCH  16  20
ATOM     20  O   UNL     1      21.445  -2.953 -19.806  1.00  0.00    -0.502 OA
ATOM     21  H   UNL     1      21.598  -2.187 -19.161  1.00  0.00     0.293 HD
ENDBRANCH  16  20
BRANCH  17  22
ATOM     22  O   UNL     1      23.980  -4.038 -20.395  1.00  0.00    -0.504 OA
ATOM     23  H   UNL     1      24.601  -4.423 -21.099  1.00  0.00     0.293 HD
ENDBRANCH  17  22
ENDBRANCH   1  12
BRANCH   2  24
ATOM     24  O   UNL     1      23.896  -7.656 -16.479  1.00  0.00    -0.502 OA
ATOM     25  H   UNL     1      23.844  -7.671 -15.467  1.00  0.00     0.293 HD
ENDBRANCH   2  24
BRANCH   6  26
ATOM     26  O   UNL     1      23.927 -12.856 -16.436  1.00  0.00    -0.507 OA
ATOM     27  H   UNL     1      24.216 -13.823 -16.340  1.00  0.00     0.293 HD
ENDBRANCH   6  26
BRANCH   8  28
ATOM     28  O   UNL     1      21.441 -13.858 -20.467  1.00  0.00    -0.508 OA
ATOM     29  H   UNL     1      20.462 -13.839 -20.730  1.00  0.00     0.293 HD
ENDBRANCH   8  28
TORSDOF 7
ENDMDL
