MODEL 1
REMARK VINA RESULT:    -2.922      0.000      0.000
REMARK INTER + INTRA:          -2.922
REMARK INTER:                  -2.922
REMARK INTRA:                   0.000
REMARK UNBOUND:                 0.000
REMARK SMILES CC(=O)[O-]
REMARK SMILES IDX 1 1 2 2 3 3 4 4
REMARK H PARENT
REMARK Flexibility Score: inf
ROOT
ATOM      1  C   UNL     1      -6.890   5.447 -12.080  1.00  0.00     0.063 C 
ATOM      2  C   UNL     1      -6.032   5.432 -13.299  1.00  0.00     0.038 C 
ATOM      3  O   UNL     1      -6.287   4.637 -14.241  1.00  0.00    -0.550 OA
ATOM      4  O   UNL     1      -4.981   6.331 -13.423  1.00  0.00    -0.550 OA
ENDROOT
TORSDOF 0
ENDMDL
MODEL 2
REMARK VINA RESULT:    -2.860      0.824      1.803
REMARK INTER + INTRA:          -2.860
REMARK INTER:                  -2.860
REMARK INTRA:                   0.000
REMARK UNBOUND:                 0.000
REMARK SMILES CC(=O)[O-]
REMARK SMILES IDX 1 1 2 2 3 3 4 4
REMARK H PARENT
REMARK Flexibility Score: inf
ROOT
ATOM      1  C   UNL     1      -7.432   6.553 -12.810  1.00  0.00     0.063 C 
ATOM      2  C   UNL     1      -6.225   5.779 -13.216  1.00  0.00     0.038 C 
ATOM      3  O   UNL     1      -5.087   6.118 -12.798  1.00  0.00    -0.550 OA
ATOM      4  O   UNL     1      -6.357   4.649 -14.013  1.00  0.00    -0.550 OA
ENDROOT
TORSDOF 0
ENDMDL
MODEL 3
REMARK VINA RESULT:    -2.834      8.700      9.176
REMARK INTER + INTRA:          -2.834
REMARK INTER:                  -2.834
REMARK INTRA:                   0.000
REMARK UNBOUND:                 0.000
REMARK SMILES CC(=O)[O-]
REMARK SMILES IDX 1 1 2 2 3 3 4 4
REMARK H PARENT
REMARK Flexibility Score: inf
ROOT
ATOM      1  C   UNL     1      -6.255  -3.983 -13.632  1.00  0.00     0.063 C 
ATOM      2  C   UNL     1      -6.598  -3.353 -12.325  1.00  0.00     0.038 C 
ATOM      3  O   UNL     1      -7.051  -2.179 -12.291  1.00  0.00    -0.550 OA
ATOM      4  O   UNL     1      -6.472  -4.077 -11.147  1.00  0.00    -0.550 OA
ENDROOT
TORSDOF 0
ENDMDL
MODEL 4
REMARK VINA RESULT:    -2.777      9.538      9.976
REMARK INTER + INTRA:          -2.777
REMARK INTER:                  -2.777
REMARK INTRA:                   0.000
REMARK UNBOUND:                 0.000
REMARK SMILES CC(=O)[O-]
REMARK SMILES IDX 1 1 2 2 3 3 4 4
REMARK H PARENT
REMARK Flexibility Score: inf
ROOT
ATOM      1  C   UNL     1      -6.867  -3.028 -12.932  1.00  0.00     0.063 C 
ATOM      2  C   UNL     1      -6.478  -4.399 -13.369  1.00  0.00     0.038 C 
ATOM      3  O   UNL     1      -5.941  -5.193 -12.553  1.00  0.00    -0.550 OA
ATOM      4  O   UNL     1      -6.755  -4.823 -14.662  1.00  0.00    -0.550 OA
ENDROOT
TORSDOF 0
ENDMDL
MODEL 5
REMARK VINA RESULT:    -2.746      8.756      9.187
REMARK INTER + INTRA:          -2.746
REMARK INTER:                  -2.746
REMARK INTRA:                   0.000
REMARK UNBOUND:                 0.000
REMARK SMILES CC(=O)[O-]
REMARK SMILES IDX 1 1 2 2 3 3 4 4
REMARK H PARENT
REMARK Flexibility Score: inf
ROOT
ATOM      1  C   UNL     1      -6.126  -3.993 -13.593  1.00  0.00     0.063 C 
ATOM      2  C   UNL     1      -6.591  -3.469 -12.277  1.00  0.00     0.038 C 
ATOM      3  O   UNL     1      -6.520  -4.192 -11.249  1.00  0.00    -0.550 OA
ATOM      4  O   UNL     1      -7.054  -2.164 -12.170  1.00  0.00    -0.550 OA
ENDROOT
TORSDOF 0
ENDMDL
MODEL 6
REMARK VINA RESULT:    -2.668      9.382      9.839
REMARK INTER + INTRA:          -2.668
REMARK INTER:                  -2.668
REMARK INTRA:                   0.000
REMARK UNBOUND:                 0.000
REMARK SMILES CC(=O)[O-]
REMARK SMILES IDX 1 1 2 2 3 3 4 4
REMARK H PARENT
REMARK Flexibility Score: inf
ROOT
ATOM      1  C   UNL     1      -6.886  -2.911 -12.806  1.00  0.00     0.063 C 
ATOM      2  C   UNL     1      -6.562  -4.297 -13.248  1.00  0.00     0.038 C 
ATOM      3  O   UNL     1      -6.645  -4.608 -14.465  1.00  0.00    -0.550 OA
ATOM      4  O   UNL     1      -6.117  -5.236 -12.326  1.00  0.00    -0.550 OA
ENDROOT
TORSDOF 0
ENDMDL
MODEL 7
REMARK VINA RESULT:    -2.629      9.889     10.243
REMARK INTER + INTRA:          -2.629
REMARK INTER:                  -2.629
REMARK INTRA:                   0.000
REMARK UNBOUND:                 0.000
REMARK SMILES CC(=O)[O-]
REMARK SMILES IDX 1 1 2 2 3 3 4 4
REMARK H PARENT
REMARK Flexibility Score: inf
ROOT
ATOM      1  C   UNL     1      -7.655  -5.372 -12.521  1.00  0.00     0.063 C 
ATOM      2  C   UNL     1      -6.642  -4.749 -13.420  1.00  0.00     0.038 C 
ATOM      3  O   UNL     1      -6.704  -4.933 -14.665  1.00  0.00    -0.550 OA
ATOM      4  O   UNL     1      -5.659  -3.921 -12.895  1.00  0.00    -0.550 OA
ENDROOT
TORSDOF 0
ENDMDL
MODEL 8
REMARK VINA RESULT:    -2.627      9.286      9.763
REMARK INTER + INTRA:          -2.627
REMARK INTER:                  -2.627
REMARK INTRA:                   0.000
REMARK UNBOUND:                 0.000
REMARK SMILES CC(=O)[O-]
REMARK SMILES IDX 1 1 2 2 3 3 4 4
REMARK H PARENT
REMARK Flexibility Score: inf
ROOT
ATOM      1  C   UNL     1      -6.955  -2.831 -12.808  1.00  0.00     0.063 C 
ATOM      2  C   UNL     1      -6.468  -4.043 -12.091  1.00  0.00     0.038 C 
ATOM      3  O   UNL     1      -6.548  -4.109 -10.836  1.00  0.00    -0.550 OA
ATOM      4  O   UNL     1      -5.973  -5.125 -12.807  1.00  0.00    -0.550 OA
ENDROOT
TORSDOF 0
ENDMDL
MODEL 9
REMARK VINA RESULT:    -2.517      9.990     10.376
REMARK INTER + INTRA:          -2.517
REMARK INTER:                  -2.517
REMARK INTRA:                   0.000
REMARK UNBOUND:                 0.000
REMARK SMILES CC(=O)[O-]
REMARK SMILES IDX 1 1 2 2 3 3 4 4
REMARK H PARENT
REMARK Flexibility Score: inf
ROOT
ATOM      1  C   UNL     1      -7.583  -5.510 -10.379  1.00  0.00     0.063 C 
ATOM      2  C   UNL     1      -6.679  -4.327 -10.319  1.00  0.00     0.038 C 
ATOM      3  O   UNL     1      -6.618  -3.529 -11.291  1.00  0.00    -0.550 OA
ATOM      4  O   UNL     1      -5.941  -4.071  -9.171  1.00  0.00    -0.550 OA
ENDROOT
TORSDOF 0
ENDMDL
