MODEL 1
REMARK VINA RESULT:    -6.128      0.000      0.000
REMARK INTER + INTRA:          -7.721
REMARK INTER:                  -7.382
REMARK INTRA:                  -0.339
REMARK UNBOUND:                -0.339
REMARK SMILES Oc1cc(O)c2cc(O)c(-c3ccc(O)c(O)c3)[o+]c2c1.[Cl-]
REMARK SMILES IDX 10 1 19 2 20 3 21 4 2 5 3 6 4 7 6 8 7 9 8 10 11 11 12 12
REMARK SMILES IDX 13 13 14 14 18 15 16 16 15 17 17 19 9 21 1 23 5 25
REMARK H PARENT 15 18 17 20 9 22 1 24 5 26
REMARK Flexibility Score: inf
ROOT
ATOM      1  C   UNL     1     131.874 136.324 126.818  1.00  0.00     0.402 A 
ATOM      2  O   UNL     1     131.976 135.137 126.224  1.00  0.00    -0.202 OA
ATOM      3  C   UNL     1     131.376 134.041 126.677  1.00  0.00     0.368 A 
ATOM      4  C   UNL     1     131.541 132.840 125.983  1.00  0.00     0.162 A 
ATOM      5  C   UNL     1     130.919 131.672 126.435  1.00  0.00     0.128 A 
ATOM      6  C   UNL     1     130.128 131.707 127.587  1.00  0.00     0.093 A 
ATOM      7  C   UNL     1     129.948 132.899 128.301  1.00  0.00     0.136 A 
ATOM      8  C   UNL     1     130.579 134.086 127.847  1.00  0.00     0.125 A 
ATOM      9  C   UNL     1     130.464 135.321 128.505  1.00  0.00     0.078 A 
ATOM     10  C   UNL     1     131.121 136.447 128.000  1.00  0.00     0.223 A 
ENDROOT
BRANCH   1  11
ATOM     11  C   UNL     1     132.582 137.474 126.210  1.00  0.00     0.087 A 
ATOM     12  C   UNL     1     133.935 137.733 126.490  1.00  0.00     0.022 A 
ATOM     13  C   UNL     1     134.575 138.837 125.923  1.00  0.00     0.051 A 
ATOM     14  C   UNL     1     133.874 139.705 125.079  1.00  0.00     0.157 A 
ATOM     15  C   UNL     1     131.875 138.360 125.379  1.00  0.00     0.068 A 
ATOM     16  C   UNL     1     132.516 139.468 124.808  1.00  0.00     0.158 A 
BRANCH  14  17
ATOM     17  O   UNL     1     134.541 140.798 124.527  1.00  0.00    -0.504 OA
ATOM     18  H   UNL     1     134.046 141.555 124.069  1.00  0.00     0.293 HD
ENDBRANCH  14  17
BRANCH  16  19
ATOM     19  O   UNL     1     131.810 140.334 123.974  1.00  0.00    -0.504 OA
ATOM     20  H   UNL     1     131.831 141.338 124.112  1.00  0.00     0.293 HD
ENDBRANCH  16  19
ENDBRANCH   1  11
BRANCH  10  21
ATOM     21  O   UNL     1     131.049 137.663 128.680  1.00  0.00    -0.500 OA
ATOM     22  H   UNL     1     130.829 137.708 129.669  1.00  0.00     0.294 HD
ENDBRANCH  10  21
BRANCH   5  23
ATOM     23  O   UNL     1     131.079 130.471 125.749  1.00  0.00    -0.507 OA
ATOM     24  H   UNL     1     131.713 129.753 126.077  1.00  0.00     0.293 HD
ENDBRANCH   5  23
BRANCH   7  25
ATOM     25  O   UNL     1     129.139 132.850 129.439  1.00  0.00    -0.507 OA
ATOM     26  H   UNL     1     129.110 133.567 130.149  1.00  0.00     0.293 HD
ENDBRANCH   7  25
TORSDOF 6
ENDMDL
MODEL 2
REMARK VINA RESULT:    -6.127      8.336     11.017
REMARK INTER + INTRA:          -7.720
REMARK INTER:                  -7.378
REMARK INTRA:                  -0.342
REMARK UNBOUND:                -0.339
REMARK SMILES Oc1cc(O)c2cc(O)c(-c3ccc(O)c(O)c3)[o+]c2c1.[Cl-]
REMARK SMILES IDX 10 1 19 2 20 3 21 4 2 5 3 6 4 7 6 8 7 9 8 10 11 11 12 12
REMARK SMILES IDX 13 13 14 14 18 15 16 16 15 17 17 19 9 21 1 23 5 25
REMARK H PARENT 15 18 17 20 9 22 1 24 5 26
REMARK Flexibility Score: inf
ROOT
ATOM      1  C   UNL     1     137.139 142.902 123.328  1.00  0.00     0.402 A 
ATOM      2  O   UNL     1     137.769 142.851 122.157  1.00  0.00    -0.202 OA
ATOM      3  C   UNL     1     139.042 142.487 122.029  1.00  0.00     0.368 A 
ATOM      4  C   UNL     1     139.617 142.462 120.756  1.00  0.00     0.162 A 
ATOM      5  C   UNL     1     140.952 142.080 120.592  1.00  0.00     0.128 A 
ATOM      6  C   UNL     1     141.714 141.722 121.707  1.00  0.00     0.093 A 
ATOM      7  C   UNL     1     141.161 141.740 122.994  1.00  0.00     0.136 A 
ATOM      8  C   UNL     1     139.807 142.129 123.165  1.00  0.00     0.125 A 
ATOM      9  C   UNL     1     139.173 142.188 124.417  1.00  0.00     0.078 A 
ATOM     10  C   UNL     1     137.836 142.586 124.507  1.00  0.00     0.223 A 
ENDROOT
BRANCH   1  11
ATOM     11  C   UNL     1     135.716 143.313 123.338  1.00  0.00     0.087 A 
ATOM     12  C   UNL     1     135.341 144.650 123.559  1.00  0.00     0.022 A 
ATOM     13  C   UNL     1     133.991 145.009 123.588  1.00  0.00     0.051 A 
ATOM     14  C   UNL     1     132.997 144.041 123.411  1.00  0.00     0.157 A 
ATOM     15  C   UNL     1     134.714 142.340 123.182  1.00  0.00     0.068 A 
ATOM     16  C   UNL     1     133.359 142.699 123.210  1.00  0.00     0.158 A 
BRANCH  14  17
ATOM     17  O   UNL     1     131.659 144.432 123.443  1.00  0.00    -0.504 OA
ATOM     18  H   UNL     1     130.913 143.819 123.135  1.00  0.00     0.293 HD
ENDBRANCH  14  17
BRANCH  16  19
ATOM     19  O   UNL     1     132.373 141.728 123.040  1.00  0.00    -0.504 OA
ATOM     20  H   UNL     1     132.384 141.095 122.249  1.00  0.00     0.293 HD
ENDBRANCH  16  19
ENDBRANCH   1  11
BRANCH  10  21
ATOM     21  O   UNL     1     137.221 142.694 125.755  1.00  0.00    -0.500 OA
ATOM     22  H   UNL     1     137.567 143.328 126.466  1.00  0.00     0.294 HD
ENDBRANCH  10  21
BRANCH   5  23
ATOM     23  O   UNL     1     141.531 142.052 119.326  1.00  0.00    -0.507 OA
ATOM     24  H   UNL     1     141.633 141.188 118.808  1.00  0.00     0.293 HD
ENDBRANCH   5  23
BRANCH   7  25
ATOM     25  O   UNL     1     141.989 141.364 124.054  1.00  0.00    -0.507 OA
ATOM     26  H   UNL     1     142.777 140.738 123.968  1.00  0.00     0.293 HD
ENDBRANCH   7  25
TORSDOF 6
ENDMDL
MODEL 3
REMARK VINA RESULT:    -5.992      1.561      3.007
REMARK INTER + INTRA:          -7.557
REMARK INTER:                  -7.206
REMARK INTRA:                  -0.351
REMARK UNBOUND:                -0.339
REMARK SMILES Oc1cc(O)c2cc(O)c(-c3ccc(O)c(O)c3)[o+]c2c1.[Cl-]
REMARK SMILES IDX 10 1 19 2 20 3 21 4 2 5 3 6 4 7 6 8 7 9 8 10 11 11 12 12
REMARK SMILES IDX 13 13 14 14 18 15 16 16 15 17 17 19 9 21 1 23 5 25
REMARK H PARENT 15 18 17 20 9 22 1 24 5 26
REMARK Flexibility Score: inf
ROOT
ATOM      1  C   UNL     1     131.712 134.602 126.609  1.00  0.00     0.402 A 
ATOM      2  O   UNL     1     131.321 134.509 127.878  1.00  0.00    -0.202 OA
ATOM      3  C   UNL     1     130.776 133.411 128.394  1.00  0.00     0.368 A 
ATOM      4  C   UNL     1     130.400 133.407 129.739  1.00  0.00     0.162 A 
ATOM      5  C   UNL     1     129.827 132.266 130.309  1.00  0.00     0.128 A 
ATOM      6  C   UNL     1     129.631 131.124 129.528  1.00  0.00     0.093 A 
ATOM      7  C   UNL     1     129.999 131.103 128.177  1.00  0.00     0.136 A 
ATOM      8  C   UNL     1     130.578 132.260 127.594  1.00  0.00     0.125 A 
ATOM      9  C   UNL     1     130.966 132.333 126.246  1.00  0.00     0.078 A 
ATOM     10  C   UNL     1     131.526 133.510 125.742  1.00  0.00     0.223 A 
ENDROOT
BRANCH   1  11
ATOM     11  C   UNL     1     132.316 135.876 126.155  1.00  0.00     0.087 A 
ATOM     12  C   UNL     1     133.698 136.111 126.261  1.00  0.00     0.022 A 
ATOM     13  C   UNL     1     134.241 137.329 125.848  1.00  0.00     0.051 A 
ATOM     14  C   UNL     1     133.415 138.335 125.336  1.00  0.00     0.157 A 
ATOM     15  C   UNL     1     131.486 136.897 125.661  1.00  0.00     0.068 A 
ATOM     16  C   UNL     1     132.030 138.120 125.245  1.00  0.00     0.158 A 
BRANCH  14  17
ATOM     17  O   UNL     1     133.988 139.540 124.930  1.00  0.00    -0.504 OA
ATOM     18  H   UNL     1     134.723 139.992 125.462  1.00  0.00     0.293 HD
ENDBRANCH  14  17
BRANCH  16  19
ATOM     19  O   UNL     1     131.200 139.122 124.742  1.00  0.00    -0.504 OA
ATOM     20  H   UNL     1     131.562 140.036 124.496  1.00  0.00     0.293 HD
ENDBRANCH  16  19
ENDBRANCH   1  11
BRANCH  10  21
ATOM     21  O   UNL     1     131.865 133.601 124.391  1.00  0.00    -0.500 OA
ATOM     22  H   UNL     1     132.805 133.836 124.093  1.00  0.00     0.294 HD
ENDBRANCH  10  21
BRANCH   5  23
ATOM     23  O   UNL     1     129.450 132.255 131.649  1.00  0.00    -0.507 OA
ATOM     24  H   UNL     1     129.580 133.066 132.243  1.00  0.00     0.293 HD
ENDBRANCH   5  23
BRANCH   7  25
ATOM     25  O   UNL     1     129.772 129.920 127.468  1.00  0.00    -0.507 OA
ATOM     26  H   UNL     1     129.160 129.179 127.777  1.00  0.00     0.293 HD
ENDBRANCH   7  25
TORSDOF 6
ENDMDL
MODEL 4
REMARK VINA RESULT:    -5.985      2.818      6.801
REMARK INTER + INTRA:          -7.549
REMARK INTER:                  -7.442
REMARK INTRA:                  -0.107
REMARK UNBOUND:                -0.339
REMARK SMILES Oc1cc(O)c2cc(O)c(-c3ccc(O)c(O)c3)[o+]c2c1.[Cl-]
REMARK SMILES IDX 10 1 19 2 20 3 21 4 2 5 3 6 4 7 6 8 7 9 8 10 11 11 12 12
REMARK SMILES IDX 13 13 14 14 18 15 16 16 15 17 17 19 9 21 1 23 5 25
REMARK H PARENT 15 18 17 20 9 22 1 24 5 26
REMARK Flexibility Score: inf
ROOT
ATOM      1  C   UNL     1     132.743 134.058 126.074  1.00  0.00     0.402 A 
ATOM      2  O   UNL     1     133.084 134.785 127.135  1.00  0.00    -0.202 OA
ATOM      3  C   UNL     1     132.657 136.028 127.336  1.00  0.00     0.368 A 
ATOM      4  C   UNL     1     133.067 136.710 128.483  1.00  0.00     0.162 A 
ATOM      5  C   UNL     1     132.631 138.017 128.721  1.00  0.00     0.128 A 
ATOM      6  C   UNL     1     131.780 138.643 127.807  1.00  0.00     0.093 A 
ATOM      7  C   UNL     1     131.354 137.980 126.649  1.00  0.00     0.136 A 
ATOM      8  C   UNL     1     131.797 136.654 126.402  1.00  0.00     0.125 A 
ATOM      9  C   UNL     1     131.431 135.918 125.263  1.00  0.00     0.078 A 
ATOM     10  C   UNL     1     131.911 134.617 125.087  1.00  0.00     0.223 A 
ENDROOT
BRANCH   1  11
ATOM     11  C   UNL     1     133.275 132.681 125.969  1.00  0.00     0.087 A 
ATOM     12  C   UNL     1     133.040 131.725 126.972  1.00  0.00     0.022 A 
ATOM     13  C   UNL     1     133.573 130.438 126.862  1.00  0.00     0.051 A 
ATOM     14  C   UNL     1     134.358 130.090 125.758  1.00  0.00     0.157 A 
ATOM     15  C   UNL     1     134.082 132.333 124.871  1.00  0.00     0.068 A 
ATOM     16  C   UNL     1     134.617 131.042 124.758  1.00  0.00     0.158 A 
BRANCH  14  17
ATOM     17  O   UNL     1     134.874 128.797 125.675  1.00  0.00    -0.504 OA
ATOM     18  H   UNL     1     134.439 128.013 126.148  1.00  0.00     0.293 HD
ENDBRANCH  14  17
BRANCH  16  19
ATOM     19  O   UNL     1     135.404 130.703 123.658  1.00  0.00    -0.504 OA
ATOM     20  H   UNL     1     136.403 130.875 123.648  1.00  0.00     0.293 HD
ENDBRANCH  16  19
ENDBRANCH   1  11
BRANCH  10  21
ATOM     21  O   UNL     1     131.590 133.904 123.931  1.00  0.00    -0.500 OA
ATOM     22  H   UNL     1     131.606 134.339 123.015  1.00  0.00     0.294 HD
ENDBRANCH  10  21
BRANCH   5  23
ATOM     23  O   UNL     1     133.037 138.704 129.863  1.00  0.00    -0.507 OA
ATOM     24  H   UNL     1     132.371 139.174 130.463  1.00  0.00     0.293 HD
ENDBRANCH   5  23
BRANCH   7  25
ATOM     25  O   UNL     1     130.500 138.674 125.788  1.00  0.00    -0.507 OA
ATOM     26  H   UNL     1     130.606 138.708 124.785  1.00  0.00     0.293 HD
ENDBRANCH   7  25
TORSDOF 6
ENDMDL
MODEL 5
REMARK VINA RESULT:    -5.939      2.554      3.869
REMARK INTER + INTRA:          -7.493
REMARK INTER:                  -7.158
REMARK INTRA:                  -0.335
REMARK UNBOUND:                -0.339
REMARK SMILES Oc1cc(O)c2cc(O)c(-c3ccc(O)c(O)c3)[o+]c2c1.[Cl-]
REMARK SMILES IDX 10 1 19 2 20 3 21 4 2 5 3 6 4 7 6 8 7 9 8 10 11 11 12 12
REMARK SMILES IDX 13 13 14 14 18 15 16 16 15 17 17 19 9 21 1 23 5 25
REMARK H PARENT 15 18 17 20 9 22 1 24 5 26
REMARK Flexibility Score: inf
ROOT
ATOM      1  C   UNL     1     131.221 137.110 126.735  1.00  0.00     0.402 A 
ATOM      2  O   UNL     1     130.801 136.006 127.347  1.00  0.00    -0.202 OA
ATOM      3  C   UNL     1     131.160 134.782 126.972  1.00  0.00     0.368 A 
ATOM      4  C   UNL     1     130.670 133.682 127.680  1.00  0.00     0.162 A 
ATOM      5  C   UNL     1     131.034 132.384 127.308  1.00  0.00     0.128 A 
ATOM      6  C   UNL     1     131.892 132.187 126.224  1.00  0.00     0.093 A 
ATOM      7  C   UNL     1     132.397 133.273 125.498  1.00  0.00     0.136 A 
ATOM      8  C   UNL     1     132.028 134.592 125.870  1.00  0.00     0.125 A 
ATOM      9  C   UNL     1     132.476 135.738 125.192  1.00  0.00     0.078 A 
ATOM     10  C   UNL     1     132.065 137.006 125.615  1.00  0.00     0.223 A 
ENDROOT
BRANCH   1  11
ATOM     11  C   UNL     1     130.758 138.417 127.255  1.00  0.00     0.087 A 
ATOM     12  C   UNL     1     129.655 139.082 126.691  1.00  0.00     0.022 A 
ATOM     13  C   UNL     1     129.252 140.325 127.183  1.00  0.00     0.051 A 
ATOM     14  C   UNL     1     129.948 140.929 128.235  1.00  0.00     0.157 A 
ATOM     15  C   UNL     1     131.468 139.037 128.297  1.00  0.00     0.068 A 
ATOM     16  C   UNL     1     131.064 140.285 128.793  1.00  0.00     0.158 A 
BRANCH  14  17
ATOM     17  O   UNL     1     129.520 142.170 128.706  1.00  0.00    -0.504 OA
ATOM     18  H   UNL     1     129.301 142.327 129.683  1.00  0.00     0.293 HD
ENDBRANCH  14  17
BRANCH  16  19
ATOM     19  O   UNL     1     131.768 140.885 129.837  1.00  0.00    -0.504 OA
ATOM     20  H   UNL     1     131.292 141.392 130.574  1.00  0.00     0.293 HD
ENDBRANCH  16  19
ENDBRANCH   1  11
BRANCH  10  21
ATOM     21  O   UNL     1     132.468 138.142 124.912  1.00  0.00    -0.500 OA
ATOM     22  H   UNL     1     133.071 138.079 124.100  1.00  0.00     0.294 HD
ENDBRANCH  10  21
BRANCH   5  23
ATOM     23  O   UNL     1     130.548 131.283 128.010  1.00  0.00    -0.507 OA
ATOM     24  H   UNL     1     130.794 130.337 127.746  1.00  0.00     0.293 HD
ENDBRANCH   5  23
BRANCH   7  25
ATOM     25  O   UNL     1     133.253 132.990 124.430  1.00  0.00    -0.507 OA
ATOM     26  H   UNL     1     132.984 133.031 123.458  1.00  0.00     0.293 HD
ENDBRANCH   7  25
TORSDOF 6
ENDMDL
MODEL 6
REMARK VINA RESULT:    -5.935      2.699      3.203
REMARK INTER + INTRA:          -7.488
REMARK INTER:                  -7.137
REMARK INTRA:                  -0.351
REMARK UNBOUND:                -0.339
REMARK SMILES Oc1cc(O)c2cc(O)c(-c3ccc(O)c(O)c3)[o+]c2c1.[Cl-]
REMARK SMILES IDX 10 1 19 2 20 3 21 4 2 5 3 6 4 7 6 8 7 9 8 10 11 11 12 12
REMARK SMILES IDX 13 13 14 14 18 15 16 16 15 17 17 19 9 21 1 23 5 25
REMARK H PARENT 15 18 17 20 9 22 1 24 5 26
REMARK Flexibility Score: inf
ROOT
ATOM      1  C   UNL     1     133.189 135.796 126.356  1.00  0.00     0.402 A 
ATOM      2  O   UNL     1     133.309 134.859 125.418  1.00  0.00    -0.202 OA
ATOM      3  C   UNL     1     133.731 133.624 125.670  1.00  0.00     0.368 A 
ATOM      4  C   UNL     1     133.821 132.708 124.619  1.00  0.00     0.162 A 
ATOM      5  C   UNL     1     134.258 131.402 124.856  1.00  0.00     0.128 A 
ATOM      6  C   UNL     1     134.606 131.010 126.151  1.00  0.00     0.093 A 
ATOM      7  C   UNL     1     134.525 131.909 127.222  1.00  0.00     0.136 A 
ATOM      8  C   UNL     1     134.084 133.237 126.986  1.00  0.00     0.125 A 
ATOM      9  C   UNL     1     133.983 134.208 127.996  1.00  0.00     0.078 A 
ATOM     10  C   UNL     1     133.545 135.498 127.684  1.00  0.00     0.223 A 
ENDROOT
BRANCH   1  11
ATOM     11  C   UNL     1     132.698 137.132 125.951  1.00  0.00     0.087 A 
ATOM     12  C   UNL     1     131.326 137.437 125.939  1.00  0.00     0.022 A 
ATOM     13  C   UNL     1     130.885 138.697 125.530  1.00  0.00     0.051 A 
ATOM     14  C   UNL     1     131.803 139.669 125.117  1.00  0.00     0.157 A 
ATOM     15  C   UNL     1     133.616 138.103 125.515  1.00  0.00     0.068 A 
ATOM     16  C   UNL     1     133.176 139.370 125.106  1.00  0.00     0.158 A 
BRANCH  14  17
ATOM     17  O   UNL     1     131.332 140.918 124.717  1.00  0.00    -0.504 OA
ATOM     18  H   UNL     1     130.639 141.022 123.985  1.00  0.00     0.293 HD
ENDBRANCH  14  17
BRANCH  16  19
ATOM     19  O   UNL     1     134.096 140.331 124.688  1.00  0.00    -0.504 OA
ATOM     20  H   UNL     1     133.829 141.300 124.564  1.00  0.00     0.293 HD
ENDBRANCH  16  19
ENDBRANCH   1  11
BRANCH  10  21
ATOM     21  O   UNL     1     133.493 136.478 128.677  1.00  0.00    -0.500 OA
ATOM     22  H   UNL     1     132.640 136.672 129.189  1.00  0.00     0.294 HD
ENDBRANCH  10  21
BRANCH   5  23
ATOM     23  O   UNL     1     134.350 130.484 123.813  1.00  0.00    -0.507 OA
ATOM     24  H   UNL     1     133.865 129.595 123.844  1.00  0.00     0.293 HD
ENDBRANCH   5  23
BRANCH   7  25
ATOM     25  O   UNL     1     134.888 131.437 128.487  1.00  0.00    -0.507 OA
ATOM     26  H   UNL     1     135.639 131.817 129.043  1.00  0.00     0.293 HD
ENDBRANCH   7  25
TORSDOF 6
ENDMDL
MODEL 7
REMARK VINA RESULT:    -5.872      2.308      6.822
REMARK INTER + INTRA:          -7.412
REMARK INTER:                  -7.133
REMARK INTRA:                  -0.278
REMARK UNBOUND:                -0.339
REMARK SMILES Oc1cc(O)c2cc(O)c(-c3ccc(O)c(O)c3)[o+]c2c1.[Cl-]
REMARK SMILES IDX 10 1 19 2 20 3 21 4 2 5 3 6 4 7 6 8 7 9 8 10 11 11 12 12
REMARK SMILES IDX 13 13 14 14 18 15 16 16 15 17 17 19 9 21 1 23 5 25
REMARK H PARENT 15 18 17 20 9 22 1 24 5 26
REMARK Flexibility Score: inf
ROOT
ATOM      1  C   UNL     1     132.981 134.269 126.368  1.00  0.00     0.402 A 
ATOM      2  O   UNL     1     133.842 135.241 126.078  1.00  0.00    -0.202 OA
ATOM      3  C   UNL     1     133.545 136.533 126.178  1.00  0.00     0.368 A 
ATOM      4  C   UNL     1     134.517 137.482 125.854  1.00  0.00     0.162 A 
ATOM      5  C   UNL     1     134.233 138.847 125.954  1.00  0.00     0.128 A 
ATOM      6  C   UNL     1     132.969 139.264 126.380  1.00  0.00     0.093 A 
ATOM      7  C   UNL     1     131.977 138.333 126.711  1.00  0.00     0.136 A 
ATOM      8  C   UNL     1     132.261 136.946 126.609  1.00  0.00     0.125 A 
ATOM      9  C   UNL     1     131.324 135.943 126.907  1.00  0.00     0.078 A 
ATOM     10  C   UNL     1     131.676 134.596 126.778  1.00  0.00     0.223 A 
ENDROOT
BRANCH   1  11
ATOM     11  C   UNL     1     133.435 132.867 126.226  1.00  0.00     0.087 A 
ATOM     12  C   UNL     1     133.648 132.048 127.348  1.00  0.00     0.022 A 
ATOM     13  C   UNL     1     134.099 130.736 127.190  1.00  0.00     0.051 A 
ATOM     14  C   UNL     1     134.357 130.224 125.914  1.00  0.00     0.157 A 
ATOM     15  C   UNL     1     133.716 132.357 124.947  1.00  0.00     0.068 A 
ATOM     16  C   UNL     1     134.168 131.040 124.786  1.00  0.00     0.158 A 
BRANCH  14  17
ATOM     17  O   UNL     1     134.804 128.910 125.789  1.00  0.00    -0.504 OA
ATOM     18  H   UNL     1     134.644 128.365 124.949  1.00  0.00     0.293 HD
ENDBRANCH  14  17
BRANCH  16  19
ATOM     19  O   UNL     1     134.430 130.539 123.511  1.00  0.00    -0.504 OA
ATOM     20  H   UNL     1     135.255 129.983 123.319  1.00  0.00     0.293 HD
ENDBRANCH  16  19
ENDBRANCH   1  11
BRANCH  10  21
ATOM     21  O   UNL     1     130.731 133.599 127.025  1.00  0.00    -0.500 OA
ATOM     22  H   UNL     1     130.853 132.653 126.682  1.00  0.00     0.294 HD
ENDBRANCH  10  21
BRANCH   5  23
ATOM     23  O   UNL     1     135.198 139.798 125.632  1.00  0.00    -0.507 OA
ATOM     24  H   UNL     1     136.044 139.901 126.180  1.00  0.00     0.293 HD
ENDBRANCH   5  23
BRANCH   7  25
ATOM     25  O   UNL     1     130.742 138.832 127.132  1.00  0.00    -0.507 OA
ATOM     26  H   UNL     1     129.935 138.260 127.337  1.00  0.00     0.293 HD
ENDBRANCH   7  25
TORSDOF 6
ENDMDL
MODEL 8
REMARK VINA RESULT:    -5.838      1.482      2.371
REMARK INTER + INTRA:          -7.371
REMARK INTER:                  -7.024
REMARK INTRA:                  -0.347
REMARK UNBOUND:                -0.339
REMARK SMILES Oc1cc(O)c2cc(O)c(-c3ccc(O)c(O)c3)[o+]c2c1.[Cl-]
REMARK SMILES IDX 10 1 19 2 20 3 21 4 2 5 3 6 4 7 6 8 7 9 8 10 11 11 12 12
REMARK SMILES IDX 13 13 14 14 18 15 16 16 15 17 17 19 9 21 1 23 5 25
REMARK H PARENT 15 18 17 20 9 22 1 24 5 26
REMARK Flexibility Score: inf
ROOT
ATOM      1  C   UNL     1     131.886 138.174 126.191  1.00  0.00     0.402 A 
ATOM      2  O   UNL     1     132.041 136.970 125.645  1.00  0.00    -0.202 OA
ATOM      3  C   UNL     1     131.631 135.847 126.226  1.00  0.00     0.368 A 
ATOM      4  C   UNL     1     131.836 134.629 125.573  1.00  0.00     0.162 A 
ATOM      5  C   UNL     1     131.413 133.433 126.160  1.00  0.00     0.128 A 
ATOM      6  C   UNL     1     130.781 133.456 127.406  1.00  0.00     0.093 A 
ATOM      7  C   UNL     1     130.564 134.663 128.081  1.00  0.00     0.136 A 
ATOM      8  C   UNL     1     130.995 135.880 127.490  1.00  0.00     0.125 A 
ATOM      9  C   UNL     1     130.830 137.134 128.100  1.00  0.00     0.078 A 
ATOM     10  C   UNL     1     131.285 138.290 127.458  1.00  0.00     0.223 A 
ENDROOT
BRANCH   1  11
ATOM     11  C   UNL     1     132.375 139.351 125.439  1.00  0.00     0.087 A 
ATOM     12  C   UNL     1     131.508 140.135 124.658  1.00  0.00     0.022 A 
ATOM     13  C   UNL     1     131.998 141.228 123.939  1.00  0.00     0.051 A 
ATOM     14  C   UNL     1     133.359 141.548 123.978  1.00  0.00     0.157 A 
ATOM     15  C   UNL     1     133.745 139.663 125.458  1.00  0.00     0.068 A 
ATOM     16  C   UNL     1     134.238 140.760 124.738  1.00  0.00     0.158 A 
BRANCH  14  17
ATOM     17  O   UNL     1     133.817 142.646 123.250  1.00  0.00    -0.504 OA
ATOM     18  H   UNL     1     133.381 142.935 122.382  1.00  0.00     0.293 HD
ENDBRANCH  14  17
BRANCH  16  19
ATOM     19  O   UNL     1     135.598 141.069 124.775  1.00  0.00    -0.504 OA
ATOM     20  H   UNL     1     135.954 141.939 124.396  1.00  0.00     0.293 HD
ENDBRANCH  16  19
ENDBRANCH   1  11
BRANCH  10  21
ATOM     21  O   UNL     1     131.168 139.531 128.085  1.00  0.00    -0.500 OA
ATOM     22  H   UNL     1     130.340 139.785 128.612  1.00  0.00     0.294 HD
ENDBRANCH  10  21
BRANCH   5  23
ATOM     23  O   UNL     1     131.614 132.216 125.514  1.00  0.00    -0.507 OA
ATOM     24  H   UNL     1     131.009 131.421 125.680  1.00  0.00     0.293 HD
ENDBRANCH   5  23
BRANCH   7  25
ATOM     25  O   UNL     1     129.922 134.600 129.321  1.00  0.00    -0.507 OA
ATOM     26  H   UNL     1     130.400 134.550 130.209  1.00  0.00     0.293 HD
ENDBRANCH   7  25
TORSDOF 6
ENDMDL
MODEL 9
REMARK VINA RESULT:    -5.811      2.294      6.910
REMARK INTER + INTRA:          -7.339
REMARK INTER:                  -6.991
REMARK INTRA:                  -0.348
REMARK UNBOUND:                -0.339
REMARK SMILES Oc1cc(O)c2cc(O)c(-c3ccc(O)c(O)c3)[o+]c2c1.[Cl-]
REMARK SMILES IDX 10 1 19 2 20 3 21 4 2 5 3 6 4 7 6 8 7 9 8 10 11 11 12 12
REMARK SMILES IDX 13 13 14 14 18 15 16 16 15 17 17 19 9 21 1 23 5 25
REMARK H PARENT 15 18 17 20 9 22 1 24 5 26
REMARK Flexibility Score: inf
ROOT
ATOM      1  C   UNL     1     132.434 133.351 126.926  1.00  0.00     0.402 A 
ATOM      2  O   UNL     1     132.049 134.281 126.056  1.00  0.00    -0.202 OA
ATOM      3  C   UNL     1     131.900 135.563 126.375  1.00  0.00     0.368 A 
ATOM      4  C   UNL     1     131.494 136.467 125.391  1.00  0.00     0.162 A 
ATOM      5  C   UNL     1     131.333 137.821 125.699  1.00  0.00     0.128 A 
ATOM      6  C   UNL     1     131.580 138.272 126.997  1.00  0.00     0.093 A 
ATOM      7  C   UNL     1     131.988 137.386 128.003  1.00  0.00     0.136 A 
ATOM      8  C   UNL     1     132.150 136.010 127.695  1.00  0.00     0.125 A 
ATOM      9  C   UNL     1     132.544 135.050 128.641  1.00  0.00     0.078 A 
ATOM     10  C   UNL     1     132.678 133.710 128.264  1.00  0.00     0.223 A 
ENDROOT
BRANCH   1  11
ATOM     11  C   UNL     1     132.574 131.958 126.446  1.00  0.00     0.087 A 
ATOM     12  C   UNL     1     131.486 131.067 126.454  1.00  0.00     0.022 A 
ATOM     13  C   UNL     1     131.647 129.750 126.017  1.00  0.00     0.051 A 
ATOM     14  C   UNL     1     132.896 129.298 125.578  1.00  0.00     0.157 A 
ATOM     15  C   UNL     1     133.832 131.494 126.024  1.00  0.00     0.068 A 
ATOM     16  C   UNL     1     133.995 130.173 125.585  1.00  0.00     0.158 A 
BRANCH  14  17
ATOM     17  O   UNL     1     133.026 127.979 125.147  1.00  0.00    -0.504 OA
ATOM     18  H   UNL     1     133.905 127.609 124.805  1.00  0.00     0.293 HD
ENDBRANCH  14  17
BRANCH  16  19
ATOM     19  O   UNL     1     135.245 129.727 125.156  1.00  0.00    -0.504 OA
ATOM     20  H   UNL     1     135.798 129.085 125.711  1.00  0.00     0.293 HD
ENDBRANCH  16  19
ENDBRANCH   1  11
BRANCH  10  21
ATOM     21  O   UNL     1     133.019 132.747 129.214  1.00  0.00    -0.500 OA
ATOM     22  H   UNL     1     132.460 131.912 129.351  1.00  0.00     0.294 HD
ENDBRANCH  10  21
BRANCH   5  23
ATOM     23  O   UNL     1     130.928 138.727 124.722  1.00  0.00    -0.507 OA
ATOM     24  H   UNL     1     130.929 139.726 124.892  1.00  0.00     0.293 HD
ENDBRANCH   5  23
BRANCH   7  25
ATOM     25  O   UNL     1     132.218 137.919 129.274  1.00  0.00    -0.507 OA
ATOM     26  H   UNL     1     131.923 138.839 129.569  1.00  0.00     0.293 HD
ENDBRANCH   7  25
TORSDOF 6
ENDMDL
