MODEL 1
REMARK VINA RESULT:    -2.887      0.000      0.000
REMARK INTER + INTRA:          -5.816
REMARK INTER:                  -4.913
REMARK INTRA:                  -0.903
REMARK UNBOUND:                -0.903
REMARK SMILES CCCCCCCCCCCCCC(=O)[O-]
REMARK SMILES IDX 8 1 9 2 10 3 11 4 12 5 13 6 14 7 15 8 16 9 7 10 6 11 5 12
REMARK SMILES IDX 4 13 3 14 2 15 1 16
REMARK H PARENT
REMARK Flexibility Score: inf
ROOT
ATOM      1  C   UNL     1      22.340   5.682  24.059  1.00  0.00     0.000 C 
ENDROOT
BRANCH   1   2
ATOM      2  C   UNL     1      20.973   4.986  23.939  1.00  0.00     0.000 C 
BRANCH   2   3
ATOM      3  C   UNL     1      21.081   3.577  23.335  1.00  0.00     0.000 C 
BRANCH   3   4
ATOM      4  C   UNL     1      21.562   3.592  21.874  1.00  0.00     0.000 C 
BRANCH   4   5
ATOM      5  C   UNL     1      20.404   3.622  20.859  1.00  0.00     0.006 C 
BRANCH   5   6
ATOM      6  C   UNL     1      19.136   2.894  21.339  1.00  0.00     0.053 C 
BRANCH   6   7
ATOM      7  C   UNL     1      17.937   3.791  21.388  1.00  0.00     0.041 C 
ATOM      8  O   UNL     1      17.955   4.839  22.086  1.00  0.00    -0.550 OA
ATOM      9  O   UNL     1      16.809   3.485  20.638  1.00  0.00    -0.550 OA
ENDBRANCH   6   7
ENDBRANCH   5   6
ENDBRANCH   4   5
ENDBRANCH   3   4
ENDBRANCH   2   3
ENDBRANCH   1   2
BRANCH   1  10
ATOM     10  C   UNL     1      22.759   5.926  25.521  1.00  0.00     0.000 C 
BRANCH  10  11
ATOM     11  C   UNL     1      24.068   5.233  25.950  1.00  0.00    -0.000 C 
BRANCH  11  12
ATOM     12  C   UNL     1      25.184   5.218  24.887  1.00  0.00    -0.000 C 
BRANCH  12  13
ATOM     13  C   UNL     1      25.953   3.890  24.767  1.00  0.00    -0.000 C 
BRANCH  13  14
ATOM     14  C   UNL     1      27.341   3.943  25.427  1.00  0.00    -0.000 C 
BRANCH  14  15
ATOM     15  C   UNL     1      27.344   3.341  26.841  1.00  0.00    -0.003 C 
ATOM     16  C   UNL     1      26.479   2.086  26.954  1.00  0.00     0.004 C 
ENDBRANCH  14  15
ENDBRANCH  13  14
ENDBRANCH  12  13
ENDBRANCH  11  12
ENDBRANCH  10  11
ENDBRANCH   1  10
TORSDOF 12
ENDMDL
MODEL 2
REMARK VINA RESULT:    -2.806      1.539      2.827
REMARK INTER + INTRA:          -5.677
REMARK INTER:                  -4.116
REMARK INTRA:                  -1.561
REMARK UNBOUND:                -0.903
REMARK SMILES CCCCCCCCCCCCCC(=O)[O-]
REMARK SMILES IDX 8 1 9 2 10 3 11 4 12 5 13 6 14 7 15 8 16 9 7 10 6 11 5 12
REMARK SMILES IDX 4 13 3 14 2 15 1 16
REMARK H PARENT
REMARK Flexibility Score: inf
ROOT
ATOM      1  C   UNL     1      25.075   5.877  24.772  1.00  0.00     0.000 C 
ENDROOT
BRANCH   1   2
ATOM      2  C   UNL     1      24.700   5.385  23.363  1.00  0.00     0.000 C 
BRANCH   2   3
ATOM      3  C   UNL     1      24.850   3.863  23.211  1.00  0.00     0.000 C 
BRANCH   3   4
ATOM      4  C   UNL     1      23.563   3.186  22.709  1.00  0.00     0.000 C 
BRANCH   4   5
ATOM      5  C   UNL     1      22.287   3.954  23.101  1.00  0.00     0.006 C 
BRANCH   5   6
ATOM      6  C   UNL     1      20.999   3.119  22.992  1.00  0.00     0.053 C 
BRANCH   6   7
ATOM      7  C   UNL     1      19.956   3.772  22.137  1.00  0.00     0.041 C 
ATOM      8  O   UNL     1      19.376   3.117  21.230  1.00  0.00    -0.550 OA
ATOM      9  O   UNL     1      19.601   5.095  22.360  1.00  0.00    -0.550 OA
ENDBRANCH   6   7
ENDBRANCH   5   6
ENDBRANCH   4   5
ENDBRANCH   3   4
ENDBRANCH   2   3
ENDBRANCH   1   2
BRANCH   1  10
ATOM     10  C   UNL     1      24.336   5.113  25.886  1.00  0.00     0.000 C 
BRANCH  10  11
ATOM     11  C   UNL     1      25.224   4.640  27.054  1.00  0.00    -0.000 C 
BRANCH  11  12
ATOM     12  C   UNL     1      25.462   3.118  27.125  1.00  0.00    -0.000 C 
BRANCH  12  13
ATOM     13  C   UNL     1      26.722   2.620  26.395  1.00  0.00    -0.000 C 
BRANCH  13  14
ATOM     14  C   UNL     1      27.876   3.635  26.437  1.00  0.00    -0.000 C 
BRANCH  14  15
ATOM     15  C   UNL     1      28.356   4.040  25.035  1.00  0.00    -0.003 C 
ATOM     16  C   UNL     1      28.734   5.519  24.939  1.00  0.00     0.004 C 
ENDBRANCH  14  15
ENDBRANCH  13  14
ENDBRANCH  12  13
ENDBRANCH  11  12
ENDBRANCH  10  11
ENDBRANCH   1  10
TORSDOF 12
ENDMDL
MODEL 3
REMARK VINA RESULT:    -2.782      2.827      4.007
REMARK INTER + INTRA:          -5.636
REMARK INTER:                  -4.072
REMARK INTRA:                  -1.564
REMARK UNBOUND:                -0.903
REMARK SMILES CCCCCCCCCCCCCC(=O)[O-]
REMARK SMILES IDX 8 1 9 2 10 3 11 4 12 5 13 6 14 7 15 8 16 9 7 10 6 11 5 12
REMARK SMILES IDX 4 13 3 14 2 15 1 16
REMARK H PARENT
REMARK Flexibility Score: inf
ROOT
ATOM      1  C   UNL     1      25.029   3.753  21.922  1.00  0.00     0.000 C 
ENDROOT
BRANCH   1   2
ATOM      2  C   UNL     1      24.017   2.647  22.270  1.00  0.00     0.000 C 
BRANCH   2   3
ATOM      3  C   UNL     1      22.587   2.997  21.828  1.00  0.00     0.000 C 
BRANCH   3   4
ATOM      4  C   UNL     1      21.665   3.338  23.012  1.00  0.00     0.000 C 
BRANCH   4   5
ATOM      5  C   UNL     1      21.288   4.830  23.071  1.00  0.00     0.006 C 
BRANCH   5   6
ATOM      6  C   UNL     1      22.003   5.610  24.188  1.00  0.00     0.053 C 
BRANCH   6   7
ATOM      7  C   UNL     1      22.874   6.709  23.662  1.00  0.00     0.041 C 
ATOM      8  O   UNL     1      23.155   6.765  22.435  1.00  0.00    -0.550 OA
ATOM      9  O   UNL     1      23.351   7.691  24.520  1.00  0.00    -0.550 OA
ENDBRANCH   6   7
ENDBRANCH   5   6
ENDBRANCH   4   5
ENDBRANCH   3   4
ENDBRANCH   2   3
ENDBRANCH   1   2
BRANCH   1  10
ATOM     10  C   UNL     1      25.721   4.341  23.165  1.00  0.00     0.000 C 
BRANCH  10  11
ATOM     11  C   UNL     1      25.331   3.682  24.504  1.00  0.00    -0.000 C 
BRANCH  11  12
ATOM     12  C   UNL     1      25.148   4.654  25.687  1.00  0.00    -0.000 C 
BRANCH  12  13
ATOM     13  C   UNL     1      25.789   4.199  27.009  1.00  0.00    -0.000 C 
BRANCH  13  14
ATOM     14  C   UNL     1      26.317   2.756  26.951  1.00  0.00    -0.000 C 
BRANCH  14  15
ATOM     15  C   UNL     1      27.842   2.679  27.125  1.00  0.00    -0.003 C 
ATOM     16  C   UNL     1      28.582   3.797  26.390  1.00  0.00     0.004 C 
ENDBRANCH  14  15
ENDBRANCH  13  14
ENDBRANCH  12  13
ENDBRANCH  11  12
ENDBRANCH  10  11
ENDBRANCH   1  10
TORSDOF 12
ENDMDL
MODEL 4
REMARK VINA RESULT:    -2.767      3.938      6.846
REMARK INTER + INTRA:          -5.611
REMARK INTER:                  -3.903
REMARK INTRA:                  -1.708
REMARK UNBOUND:                -0.903
REMARK SMILES CCCCCCCCCCCCCC(=O)[O-]
REMARK SMILES IDX 8 1 9 2 10 3 11 4 12 5 13 6 14 7 15 8 16 9 7 10 6 11 5 12
REMARK SMILES IDX 4 13 3 14 2 15 1 16
REMARK H PARENT
REMARK Flexibility Score: inf
ROOT
ATOM      1  C   UNL     1      22.633   3.822  20.731  1.00  0.00     0.000 C 
ENDROOT
BRANCH   1   2
ATOM      2  C   UNL     1      23.576   2.609  20.656  1.00  0.00     0.000 C 
BRANCH   2   3
ATOM      3  C   UNL     1      24.876   2.824  21.447  1.00  0.00     0.000 C 
BRANCH   3   4
ATOM      4  C   UNL     1      24.632   2.995  22.957  1.00  0.00     0.000 C 
BRANCH   4   5
ATOM      5  C   UNL     1      25.584   4.016  23.608  1.00  0.00     0.006 C 
BRANCH   5   6
ATOM      6  C   UNL     1      25.546   4.011  25.146  1.00  0.00     0.053 C 
BRANCH   6   7
ATOM      7  C   UNL     1      26.636   3.177  25.749  1.00  0.00     0.041 C 
ATOM      8  O   UNL     1      26.361   2.092  26.326  1.00  0.00    -0.550 OA
ATOM      9  O   UNL     1      27.960   3.584  25.648  1.00  0.00    -0.550 OA
ENDBRANCH   6   7
ENDBRANCH   5   6
ENDBRANCH   4   5
ENDBRANCH   3   4
ENDBRANCH   2   3
ENDBRANCH   1   2
BRANCH   1  10
ATOM     10  C   UNL     1      21.162   3.453  20.465  1.00  0.00     0.000 C 
BRANCH  10  11
ATOM     11  C   UNL     1      20.246   3.481  21.704  1.00  0.00    -0.000 C 
BRANCH  11  12
ATOM     12  C   UNL     1      20.976   3.508  23.062  1.00  0.00    -0.000 C 
BRANCH  12  13
ATOM     13  C   UNL     1      20.805   4.807  23.869  1.00  0.00    -0.000 C 
BRANCH  13  14
ATOM     14  C   UNL     1      22.148   5.428  24.290  1.00  0.00    -0.000 C 
BRANCH  14  15
ATOM     15  C   UNL     1      22.368   6.822  23.683  1.00  0.00    -0.003 C 
ATOM     16  C   UNL     1      23.415   6.827  22.569  1.00  0.00     0.004 C 
ENDBRANCH  14  15
ENDBRANCH  13  14
ENDBRANCH  12  13
ENDBRANCH  11  12
ENDBRANCH  10  11
ENDBRANCH   1  10
TORSDOF 12
ENDMDL
MODEL 5
REMARK VINA RESULT:    -2.717      1.963      2.996
REMARK INTER + INTRA:          -5.526
REMARK INTER:                  -3.961
REMARK INTRA:                  -1.565
REMARK UNBOUND:                -0.903
REMARK SMILES CCCCCCCCCCCCCC(=O)[O-]
REMARK SMILES IDX 8 1 9 2 10 3 11 4 12 5 13 6 14 7 15 8 16 9 7 10 6 11 5 12
REMARK SMILES IDX 4 13 3 14 2 15 1 16
REMARK H PARENT
REMARK Flexibility Score: inf
ROOT
ATOM      1  C   UNL     1      24.490   6.470  22.191  1.00  0.00     0.000 C 
ENDROOT
BRANCH   1   2
ATOM      2  C   UNL     1      24.813   5.120  21.526  1.00  0.00     0.000 C 
BRANCH   2   3
ATOM      3  C   UNL     1      25.399   4.101  22.517  1.00  0.00     0.000 C 
BRANCH   3   4
ATOM      4  C   UNL     1      24.406   2.982  22.877  1.00  0.00     0.000 C 
BRANCH   4   5
ATOM      5  C   UNL     1      23.085   3.074  22.090  1.00  0.00     0.006 C 
BRANCH   5   6
ATOM      6  C   UNL     1      21.851   3.332  22.971  1.00  0.00     0.053 C 
BRANCH   6   7
ATOM      7  C   UNL     1      20.703   3.914  22.205  1.00  0.00     0.041 C 
ATOM      8  O   UNL     1      20.328   3.387  21.124  1.00  0.00    -0.550 OA
ATOM      9  O   UNL     1      20.026   5.022  22.699  1.00  0.00    -0.550 OA
ENDBRANCH   6   7
ENDBRANCH   5   6
ENDBRANCH   4   5
ENDBRANCH   3   4
ENDBRANCH   2   3
ENDBRANCH   1   2
BRANCH   1  10
ATOM     10  C   UNL     1      24.625   6.427  23.724  1.00  0.00     0.000 C 
BRANCH  10  11
ATOM     11  C   UNL     1      23.295   6.308  24.495  1.00  0.00    -0.000 C 
BRANCH  11  12
ATOM     12  C   UNL     1      23.418   5.811  25.949  1.00  0.00    -0.000 C 
BRANCH  12  13
ATOM     13  C   UNL     1      24.859   5.675  26.471  1.00  0.00    -0.000 C 
BRANCH  13  14
ATOM     14  C   UNL     1      25.159   4.276  27.036  1.00  0.00    -0.000 C 
BRANCH  14  15
ATOM     15  C   UNL     1      26.161   3.495  26.172  1.00  0.00    -0.003 C 
ATOM     16  C   UNL     1      26.525   2.134  26.767  1.00  0.00     0.004 C 
ENDBRANCH  14  15
ENDBRANCH  13  14
ENDBRANCH  12  13
ENDBRANCH  11  12
ENDBRANCH  10  11
ENDBRANCH   1  10
TORSDOF 12
ENDMDL
MODEL 6
REMARK VINA RESULT:    -2.716      2.239      3.180
REMARK INTER + INTRA:          -5.525
REMARK INTER:                  -3.845
REMARK INTRA:                  -1.680
REMARK UNBOUND:                -0.903
REMARK SMILES CCCCCCCCCCCCCC(=O)[O-]
REMARK SMILES IDX 8 1 9 2 10 3 11 4 12 5 13 6 14 7 15 8 16 9 7 10 6 11 5 12
REMARK SMILES IDX 4 13 3 14 2 15 1 16
REMARK H PARENT
REMARK Flexibility Score: inf
ROOT
ATOM      1  C   UNL     1      25.113   4.825  21.361  1.00  0.00     0.000 C 
ENDROOT
BRANCH   1   2
ATOM      2  C   UNL     1      25.409   3.423  21.922  1.00  0.00     0.000 C 
BRANCH   2   3
ATOM      3  C   UNL     1      24.162   2.752  22.519  1.00  0.00     0.000 C 
BRANCH   3   4
ATOM      4  C   UNL     1      22.871   3.124  21.770  1.00  0.00     0.000 C 
BRANCH   4   5
ATOM      5  C   UNL     1      21.670   3.338  22.710  1.00  0.00     0.006 C 
BRANCH   5   6
ATOM      6  C   UNL     1      21.851   4.503  23.698  1.00  0.00     0.053 C 
BRANCH   6   7
ATOM      7  C   UNL     1      20.772   5.536  23.579  1.00  0.00     0.041 C 
ATOM      8  O   UNL     1      20.087   5.858  24.587  1.00  0.00    -0.550 OA
ATOM      9  O   UNL     1      20.543   6.167  22.364  1.00  0.00    -0.550 OA
ENDBRANCH   6   7
ENDBRANCH   5   6
ENDBRANCH   4   5
ENDBRANCH   3   4
ENDBRANCH   2   3
ENDBRANCH   1   2
BRANCH   1  10
ATOM     10  C   UNL     1      25.724   5.951  22.215  1.00  0.00     0.000 C 
BRANCH  10  11
ATOM     11  C   UNL     1      24.966   6.265  23.521  1.00  0.00    -0.000 C 
BRANCH  11  12
ATOM     12  C   UNL     1      25.660   5.792  24.814  1.00  0.00    -0.000 C 
BRANCH  12  13
ATOM     13  C   UNL     1      27.145   5.419  24.659  1.00  0.00    -0.000 C 
BRANCH  13  14
ATOM     14  C   UNL     1      27.477   4.037  25.247  1.00  0.00    -0.000 C 
BRANCH  14  15
ATOM     15  C   UNL     1      26.219   3.250  25.650  1.00  0.00    -0.003 C 
ATOM     16  C   UNL     1      26.490   2.217  26.743  1.00  0.00     0.004 C 
ENDBRANCH  14  15
ENDBRANCH  13  14
ENDBRANCH  12  13
ENDBRANCH  11  12
ENDBRANCH  10  11
ENDBRANCH   1  10
TORSDOF 12
ENDMDL
MODEL 7
REMARK VINA RESULT:    -2.704      2.026      3.069
REMARK INTER + INTRA:          -5.505
REMARK INTER:                  -4.061
REMARK INTRA:                  -1.444
REMARK UNBOUND:                -0.903
REMARK SMILES CCCCCCCCCCCCCC(=O)[O-]
REMARK SMILES IDX 8 1 9 2 10 3 11 4 12 5 13 6 14 7 15 8 16 9 7 10 6 11 5 12
REMARK SMILES IDX 4 13 3 14 2 15 1 16
REMARK H PARENT
REMARK Flexibility Score: inf
ROOT
ATOM      1  C   UNL     1      24.165   4.072  21.024  1.00  0.00     0.000 C 
ENDROOT
BRANCH   1   2
ATOM      2  C   UNL     1      23.079   2.989  21.145  1.00  0.00     0.000 C 
BRANCH   2   3
ATOM      3  C   UNL     1      21.693   3.577  21.452  1.00  0.00     0.000 C 
BRANCH   3   4
ATOM      4  C   UNL     1      21.208   3.246  22.874  1.00  0.00     0.000 C 
BRANCH   4   5
ATOM      5  C   UNL     1      20.889   4.501  23.708  1.00  0.00     0.006 C 
BRANCH   5   6
ATOM      6  C   UNL     1      21.276   5.821  23.020  1.00  0.00     0.053 C 
BRANCH   6   7
ATOM      7  C   UNL     1      20.146   6.804  22.975  1.00  0.00     0.041 C 
ATOM      8  O   UNL     1      19.782   7.403  24.021  1.00  0.00    -0.550 OA
ATOM      9  O   UNL     1      19.513   7.081  21.770  1.00  0.00    -0.550 OA
ENDBRANCH   6   7
ENDBRANCH   5   6
ENDBRANCH   4   5
ENDBRANCH   3   4
ENDBRANCH   2   3
ENDBRANCH   1   2
BRANCH   1  10
ATOM     10  C   UNL     1      25.343   3.846  21.989  1.00  0.00     0.000 C 
BRANCH  10  11
ATOM     11  C   UNL     1      24.948   3.383  23.406  1.00  0.00    -0.000 C 
BRANCH  11  12
ATOM     12  C   UNL     1      24.542   4.509  24.377  1.00  0.00    -0.000 C 
BRANCH  12  13
ATOM     13  C   UNL     1      25.425   4.640  25.630  1.00  0.00    -0.000 C 
BRANCH  13  14
ATOM     14  C   UNL     1      26.882   4.214  25.379  1.00  0.00    -0.000 C 
BRANCH  14  15
ATOM     15  C   UNL     1      27.413   3.263  26.463  1.00  0.00    -0.003 C 
ATOM     16  C   UNL     1      26.408   2.174  26.842  1.00  0.00     0.004 C 
ENDBRANCH  14  15
ENDBRANCH  13  14
ENDBRANCH  12  13
ENDBRANCH  11  12
ENDBRANCH  10  11
ENDBRANCH   1  10
TORSDOF 12
ENDMDL
MODEL 8
REMARK VINA RESULT:    -2.687      3.532      4.925
REMARK INTER + INTRA:          -5.476
REMARK INTER:                  -4.017
REMARK INTRA:                  -1.459
REMARK UNBOUND:                -0.903
REMARK SMILES CCCCCCCCCCCCCC(=O)[O-]
REMARK SMILES IDX 8 1 9 2 10 3 11 4 12 5 13 6 14 7 15 8 16 9 7 10 6 11 5 12
REMARK SMILES IDX 4 13 3 14 2 15 1 16
REMARK H PARENT
REMARK Flexibility Score: inf
ROOT
ATOM      1  C   UNL     1      22.482   3.712  21.492  1.00  0.00     0.000 C 
ENDROOT
BRANCH   1   2
ATOM      2  C   UNL     1      21.544   3.395  22.670  1.00  0.00     0.000 C 
BRANCH   2   3
ATOM      3  C   UNL     1      21.585   4.477  23.762  1.00  0.00     0.000 C 
BRANCH   3   4
ATOM      4  C   UNL     1      22.102   5.829  23.240  1.00  0.00     0.000 C 
BRANCH   4   5
ATOM      5  C   UNL     1      22.202   6.901  24.342  1.00  0.00     0.006 C 
BRANCH   5   6
ATOM      6  C   UNL     1      22.591   6.341  25.721  1.00  0.00     0.053 C 
BRANCH   6   7
ATOM      7  C   UNL     1      24.027   6.595  26.066  1.00  0.00     0.041 C 
ATOM      8  O   UNL     1      24.520   6.123  27.125  1.00  0.00    -0.550 OA
ATOM      9  O   UNL     1      24.830   7.329  25.203  1.00  0.00    -0.550 OA
ENDBRANCH   6   7
ENDBRANCH   5   6
ENDBRANCH   4   5
ENDBRANCH   3   4
ENDBRANCH   2   3
ENDBRANCH   1   2
BRANCH   1  10
ATOM     10  C   UNL     1      23.535   2.614  21.257  1.00  0.00     0.000 C 
BRANCH  10  11
ATOM     11  C   UNL     1      24.511   2.382  22.428  1.00  0.00    -0.000 C 
BRANCH  11  12
ATOM     12  C   UNL     1      25.238   3.642  22.939  1.00  0.00    -0.000 C 
BRANCH  12  13
ATOM     13  C   UNL     1      25.399   3.729  24.467  1.00  0.00    -0.000 C 
BRANCH  13  14
ATOM     14  C   UNL     1      26.801   4.194  24.893  1.00  0.00    -0.000 C 
BRANCH  14  15
ATOM     15  C   UNL     1      27.369   3.365  26.056  1.00  0.00    -0.003 C 
ATOM     16  C   UNL     1      26.398   2.293  26.550  1.00  0.00     0.004 C 
ENDBRANCH  14  15
ENDBRANCH  13  14
ENDBRANCH  12  13
ENDBRANCH  11  12
ENDBRANCH  10  11
ENDBRANCH   1  10
TORSDOF 12
ENDMDL
MODEL 9
REMARK VINA RESULT:    -2.560      1.625      3.345
REMARK INTER + INTRA:          -5.259
REMARK INTER:                  -3.823
REMARK INTRA:                  -1.436
REMARK UNBOUND:                -0.903
REMARK SMILES CCCCCCCCCCCCCC(=O)[O-]
REMARK SMILES IDX 8 1 9 2 10 3 11 4 12 5 13 6 14 7 15 8 16 9 7 10 6 11 5 12
REMARK SMILES IDX 4 13 3 14 2 15 1 16
REMARK H PARENT
REMARK Flexibility Score: inf
ROOT
ATOM      1  C   UNL     1      25.360   4.165  22.575  1.00  0.00     0.000 C 
ENDROOT
BRANCH   1   2
ATOM      2  C   UNL     1      24.636   2.809  22.629  1.00  0.00     0.000 C 
BRANCH   2   3
ATOM      3  C   UNL     1      23.165   2.910  22.195  1.00  0.00     0.000 C 
BRANCH   3   4
ATOM      4  C   UNL     1      22.378   3.960  22.998  1.00  0.00     0.000 C 
BRANCH   4   5
ATOM      5  C   UNL     1      20.918   3.546  23.263  1.00  0.00     0.006 C 
BRANCH   5   6
ATOM      6  C   UNL     1      19.880   4.447  22.572  1.00  0.00     0.053 C 
BRANCH   6   7
ATOM      7  C   UNL     1      19.097   3.725  21.517  1.00  0.00     0.041 C 
ATOM      8  O   UNL     1      17.838   3.770  21.518  1.00  0.00    -0.550 OA
ATOM      9  O   UNL     1      19.758   3.028  20.515  1.00  0.00    -0.550 OA
ENDBRANCH   6   7
ENDBRANCH   5   6
ENDBRANCH   4   5
ENDBRANCH   3   4
ENDBRANCH   2   3
ENDBRANCH   1   2
BRANCH   1  10
ATOM     10  C   UNL     1      26.145   4.474  23.863  1.00  0.00     0.000 C 
BRANCH  10  11
ATOM     11  C   UNL     1      25.877   3.513  25.038  1.00  0.00    -0.000 C 
BRANCH  11  12
ATOM     12  C   UNL     1      26.009   4.137  26.442  1.00  0.00    -0.000 C 
BRANCH  12  13
ATOM     13  C   UNL     1      24.678   4.494  27.125  1.00  0.00    -0.000 C 
BRANCH  13  14
ATOM     14  C   UNL     1      24.266   5.959  26.899  1.00  0.00    -0.000 C 
BRANCH  14  15
ATOM     15  C   UNL     1      23.147   6.103  25.856  1.00  0.00    -0.003 C 
ATOM     16  C   UNL     1      23.541   6.999  24.682  1.00  0.00     0.004 C 
ENDBRANCH  14  15
ENDBRANCH  13  14
ENDBRANCH  12  13
ENDBRANCH  11  12
ENDBRANCH  10  11
ENDBRANCH   1  10
TORSDOF 12
ENDMDL
