MODEL 1
REMARK VINA RESULT:    -3.600      0.000      0.000
REMARK INTER + INTRA:         -10.087
REMARK INTER:                  -6.968
REMARK INTRA:                  -3.119
REMARK UNBOUND:                -3.119
REMARK SMILES CCCCCCCCCCCCCCCCCC(=O)[O-]
REMARK SMILES IDX 10 1 11 2 12 3 13 4 14 5 15 6 16 7 17 8 18 9 19 10 20 11
REMARK SMILES IDX 9 12 8 13 7 14 6 15 5 16 4 17 3 18 2 19 1 20
REMARK H PARENT
REMARK Flexibility Score: inf
ROOT
ATOM      1  C   UNL     1      26.665  -2.337  54.731  1.00  0.00     0.000 C 
ENDROOT
BRANCH   1   2
ATOM      2  C   UNL     1      25.133  -2.433  54.671  1.00  0.00     0.000 C 
BRANCH   2   3
ATOM      3  C   UNL     1      24.619  -3.860  54.915  1.00  0.00     0.000 C 
BRANCH   3   4
ATOM      4  C   UNL     1      25.784  -4.834  55.127  1.00  0.00     0.000 C 
BRANCH   4   5
ATOM      5  C   UNL     1      25.704  -5.499  56.510  1.00  0.00     0.000 C 
BRANCH   5   6
ATOM      6  C   UNL     1      24.699  -4.808  57.450  1.00  0.00     0.000 C 
BRANCH   6   7
ATOM      7  C   UNL     1      25.330  -4.013  58.607  1.00  0.00     0.006 C 
BRANCH   7   8
ATOM      8  C   UNL     1      24.978  -2.521  58.571  1.00  0.00     0.053 C 
BRANCH   8   9
ATOM      9  C   UNL     1      23.497  -2.336  58.473  1.00  0.00     0.041 C 
ATOM     10  O   UNL     1      22.744  -2.754  59.394  1.00  0.00    -0.550 OA
ATOM     11  O   UNL     1      22.950  -1.659  57.392  1.00  0.00    -0.550 OA
ENDBRANCH   8   9
ENDBRANCH   7   8
ENDBRANCH   6   7
ENDBRANCH   5   6
ENDBRANCH   4   5
ENDBRANCH   3   4
ENDBRANCH   2   3
ENDBRANCH   1   2
BRANCH   1  12
ATOM     12  C   UNL     1      27.253  -1.564  53.536  1.00  0.00     0.000 C 
BRANCH  12  13
ATOM     13  C   UNL     1      26.395  -1.692  52.266  1.00  0.00    -0.000 C 
BRANCH  13  14
ATOM     14  C   UNL     1      26.860  -2.836  51.349  1.00  0.00    -0.000 C 
BRANCH  14  15
ATOM     15  C   UNL     1      25.880  -4.021  51.342  1.00  0.00    -0.000 C 
BRANCH  15  16
ATOM     16  C   UNL     1      26.543  -5.347  51.757  1.00  0.00    -0.000 C 
BRANCH  16  17
ATOM     17  C   UNL     1      28.084  -5.258  51.736  1.00  0.00    -0.000 C 
BRANCH  17  18
ATOM     18  C   UNL     1      28.746  -5.703  53.051  1.00  0.00    -0.000 C 
BRANCH  18  19
ATOM     19  C   UNL     1      29.448  -4.554  53.787  1.00  0.00    -0.003 C 
ATOM     20  C   UNL     1      29.488  -4.804  55.291  1.00  0.00     0.004 C 
ENDBRANCH  18  19
ENDBRANCH  17  18
ENDBRANCH  16  17
ENDBRANCH  15  16
ENDBRANCH  14  15
ENDBRANCH  13  14
ENDBRANCH  12  13
ENDBRANCH   1  12
TORSDOF 16
ENDMDL
MODEL 2
REMARK VINA RESULT:    -3.579      9.212     11.882
REMARK INTER + INTRA:         -10.045
REMARK INTER:                  -7.266
REMARK INTRA:                  -2.779
REMARK UNBOUND:                -3.119
REMARK SMILES CCCCCCCCCCCCCCCCCC(=O)[O-]
REMARK SMILES IDX 10 1 11 2 12 3 13 4 14 5 15 6 16 7 17 8 18 9 19 10 20 11
REMARK SMILES IDX 9 12 8 13 7 14 6 15 5 16 4 17 3 18 2 19 1 20
REMARK H PARENT
REMARK Flexibility Score: inf
ROOT
ATOM      1  C   UNL     1      19.238  -0.248  57.299  1.00  0.00     0.000 C 
ENDROOT
BRANCH   1   2
ATOM      2  C   UNL     1      18.944   0.267  58.717  1.00  0.00     0.000 C 
BRANCH   2   3
ATOM      3  C   UNL     1      19.621  -0.579  59.806  1.00  0.00     0.000 C 
BRANCH   3   4
ATOM      4  C   UNL     1      18.817  -0.537  61.112  1.00  0.00     0.000 C 
BRANCH   4   5
ATOM      5  C   UNL     1      17.370  -0.089  60.855  1.00  0.00     0.000 C 
BRANCH   5   6
ATOM      6  C   UNL     1      16.704   0.529  62.097  1.00  0.00     0.000 C 
BRANCH   6   7
ATOM      7  C   UNL     1      16.258   1.994  61.937  1.00  0.00     0.006 C 
BRANCH   7   8
ATOM      8  C   UNL     1      16.979   2.948  62.898  1.00  0.00     0.053 C 
BRANCH   8   9
ATOM      9  C   UNL     1      16.003   3.568  63.847  1.00  0.00     0.041 C 
ATOM     10  O   UNL     1      14.834   3.106  63.946  1.00  0.00    -0.550 OA
ATOM     11  O   UNL     1      16.397   4.622  64.660  1.00  0.00    -0.550 OA
ENDBRANCH   8   9
ENDBRANCH   7   8
ENDBRANCH   6   7
ENDBRANCH   5   6
ENDBRANCH   4   5
ENDBRANCH   3   4
ENDBRANCH   2   3
ENDBRANCH   1   2
BRANCH   1  12
ATOM     12  C   UNL     1      17.955  -0.485  56.481  1.00  0.00     0.000 C 
BRANCH  12  13
ATOM     13  C   UNL     1      16.740  -0.816  57.365  1.00  0.00    -0.000 C 
BRANCH  13  14
ATOM     14  C   UNL     1      15.516   0.057  57.041  1.00  0.00    -0.000 C 
BRANCH  14  15
ATOM     15  C   UNL     1      15.098   0.948  58.223  1.00  0.00    -0.000 C 
BRANCH  15  16
ATOM     16  C   UNL     1      15.323   2.446  57.950  1.00  0.00    -0.000 C 
BRANCH  16  17
ATOM     17  C   UNL     1      16.718   2.918  58.410  1.00  0.00    -0.000 C 
BRANCH  17  18
ATOM     18  C   UNL     1      17.573   3.513  57.277  1.00  0.00    -0.000 C 
BRANCH  18  19
ATOM     19  C   UNL     1      16.898   3.411  55.903  1.00  0.00    -0.003 C 
ATOM     20  C   UNL     1      17.850   2.828  54.862  1.00  0.00     0.004 C 
ENDBRANCH  18  19
ENDBRANCH  17  18
ENDBRANCH  16  17
ENDBRANCH  15  16
ENDBRANCH  14  15
ENDBRANCH  13  14
ENDBRANCH  12  13
ENDBRANCH   1  12
TORSDOF 16
ENDMDL
MODEL 3
REMARK VINA RESULT:    -3.549      8.380     11.525
REMARK INTER + INTRA:          -9.987
REMARK INTER:                  -6.811
REMARK INTRA:                  -3.176
REMARK UNBOUND:                -3.119
REMARK SMILES CCCCCCCCCCCCCCCCCC(=O)[O-]
REMARK SMILES IDX 10 1 11 2 12 3 13 4 14 5 15 6 16 7 17 8 18 9 19 10 20 11
REMARK SMILES IDX 9 12 8 13 7 14 6 15 5 16 4 17 3 18 2 19 1 20
REMARK H PARENT
REMARK Flexibility Score: inf
ROOT
ATOM      1  C   UNL     1      19.090   1.093  56.701  1.00  0.00     0.000 C 
ENDROOT
BRANCH   1   2
ATOM      2  C   UNL     1      17.873   0.864  55.790  1.00  0.00     0.000 C 
BRANCH   2   3
ATOM      3  C   UNL     1      17.161  -0.467  56.075  1.00  0.00     0.000 C 
BRANCH   3   4
ATOM      4  C   UNL     1      15.964  -0.259  57.011  1.00  0.00     0.000 C 
BRANCH   4   5
ATOM      5  C   UNL     1      16.206  -0.925  58.374  1.00  0.00     0.000 C 
BRANCH   5   6
ATOM      6  C   UNL     1      15.112  -0.597  59.406  1.00  0.00     0.000 C 
BRANCH   6   7
ATOM      7  C   UNL     1      14.932  -1.644  60.519  1.00  0.00     0.006 C 
BRANCH   7   8
ATOM      8  C   UNL     1      15.802  -1.366  61.752  1.00  0.00     0.053 C 
BRANCH   8   9
ATOM      9  C   UNL     1      16.797  -2.465  61.947  1.00  0.00     0.041 C 
ATOM     10  O   UNL     1      17.759  -2.598  61.144  1.00  0.00    -0.550 OA
ATOM     11  O   UNL     1      16.694  -3.310  63.044  1.00  0.00    -0.550 OA
ENDBRANCH   8   9
ENDBRANCH   7   8
ENDBRANCH   6   7
ENDBRANCH   5   6
ENDBRANCH   4   5
ENDBRANCH   3   4
ENDBRANCH   2   3
ENDBRANCH   1   2
BRANCH   1  12
ATOM     12  C   UNL     1      19.705  -0.226  57.203  1.00  0.00     0.000 C 
BRANCH  12  13
ATOM     13  C   UNL     1      19.799  -0.293  58.737  1.00  0.00    -0.000 C 
BRANCH  13  14
ATOM     14  C   UNL     1      19.462   1.049  59.410  1.00  0.00    -0.000 C 
BRANCH  14  15
ATOM     15  C   UNL     1      18.623   0.875  60.687  1.00  0.00    -0.000 C 
BRANCH  15  16
ATOM     16  C   UNL     1      17.416   1.828  60.743  1.00  0.00    -0.000 C 
BRANCH  16  17
ATOM     17  C   UNL     1      17.248   2.631  59.435  1.00  0.00    -0.000 C 
BRANCH  17  18
ATOM     18  C   UNL     1      15.820   3.163  59.218  1.00  0.00    -0.000 C 
BRANCH  18  19
ATOM     19  C   UNL     1      15.345   3.024  57.765  1.00  0.00    -0.003 C 
ATOM     20  C   UNL     1      16.058   4.020  56.854  1.00  0.00     0.004 C 
ENDBRANCH  18  19
ENDBRANCH  17  18
ENDBRANCH  16  17
ENDBRANCH  15  16
ENDBRANCH  14  15
ENDBRANCH  13  14
ENDBRANCH  12  13
ENDBRANCH   1  12
TORSDOF 16
ENDMDL
MODEL 4
REMARK VINA RESULT:    -3.547     10.141     12.940
REMARK INTER + INTRA:          -9.983
REMARK INTER:                  -7.222
REMARK INTRA:                  -2.761
REMARK UNBOUND:                -3.119
REMARK SMILES CCCCCCCCCCCCCCCCCC(=O)[O-]
REMARK SMILES IDX 10 1 11 2 12 3 13 4 14 5 15 6 16 7 17 8 18 9 19 10 20 11
REMARK SMILES IDX 9 12 8 13 7 14 6 15 5 16 4 17 3 18 2 19 1 20
REMARK H PARENT
REMARK Flexibility Score: inf
ROOT
ATOM      1  C   UNL     1      17.097  -1.003  57.873  1.00  0.00     0.000 C 
ENDROOT
BRANCH   1   2
ATOM      2  C   UNL     1      18.392  -0.547  58.563  1.00  0.00     0.000 C 
BRANCH   2   3
ATOM      3  C   UNL     1      18.487  -1.022  60.021  1.00  0.00     0.000 C 
BRANCH   3   4
ATOM      4  C   UNL     1      18.178   0.123  60.993  1.00  0.00     0.000 C 
BRANCH   4   5
ATOM      5  C   UNL     1      18.581   1.479  60.393  1.00  0.00     0.000 C 
BRANCH   5   6
ATOM      6  C   UNL     1      17.464   2.533  60.487  1.00  0.00     0.000 C 
BRANCH   6   7
ATOM      7  C   UNL     1      17.523   3.435  61.734  1.00  0.00     0.006 C 
BRANCH   7   8
ATOM      8  C   UNL     1      17.046   2.727  63.009  1.00  0.00     0.053 C 
BRANCH   8   9
ATOM      9  C   UNL     1      16.009   3.549  63.705  1.00  0.00     0.041 C 
ATOM     10  O   UNL     1      16.317   4.661  64.213  1.00  0.00    -0.550 OA
ATOM     11  O   UNL     1      14.690   3.114  63.750  1.00  0.00    -0.550 OA
ENDBRANCH   8   9
ENDBRANCH   7   8
ENDBRANCH   6   7
ENDBRANCH   5   6
ENDBRANCH   4   5
ENDBRANCH   3   4
ENDBRANCH   2   3
ENDBRANCH   1   2
BRANCH   1  12
ATOM     12  C   UNL     1      16.383   0.148  57.143  1.00  0.00     0.000 C 
BRANCH  12  13
ATOM     13  C   UNL     1      15.171   0.686  57.924  1.00  0.00    -0.000 C 
BRANCH  13  14
ATOM     14  C   UNL     1      14.881  -0.124  59.199  1.00  0.00    -0.000 C 
BRANCH  14  15
ATOM     15  C   UNL     1      14.491   0.769  60.389  1.00  0.00    -0.000 C 
BRANCH  15  16
ATOM     16  C   UNL     1      14.550   0.027  61.737  1.00  0.00    -0.000 C 
BRANCH  16  17
ATOM     17  C   UNL     1      13.371  -0.955  61.911  1.00  0.00    -0.000 C 
BRANCH  17  18
ATOM     18  C   UNL     1      13.798  -2.433  61.939  1.00  0.00    -0.000 C 
BRANCH  18  19
ATOM     19  C   UNL     1      15.322  -2.615  61.953  1.00  0.00    -0.003 C 
ATOM     20  C   UNL     1      15.801  -3.354  60.707  1.00  0.00     0.004 C 
ENDBRANCH  18  19
ENDBRANCH  17  18
ENDBRANCH  16  17
ENDBRANCH  15  16
ENDBRANCH  14  15
ENDBRANCH  13  14
ENDBRANCH  12  13
ENDBRANCH   1  12
TORSDOF 16
ENDMDL
MODEL 5
REMARK VINA RESULT:    -3.536     10.591     12.738
REMARK INTER + INTRA:          -9.961
REMARK INTER:                  -7.153
REMARK INTRA:                  -2.809
REMARK UNBOUND:                -3.119
REMARK SMILES CCCCCCCCCCCCCCCCCC(=O)[O-]
REMARK SMILES IDX 10 1 11 2 12 3 13 4 14 5 15 6 16 7 17 8 18 9 19 10 20 11
REMARK SMILES IDX 9 12 8 13 7 14 6 15 5 16 4 17 3 18 2 19 1 20
REMARK H PARENT
REMARK Flexibility Score: inf
ROOT
ATOM      1  C   UNL     1      17.148  -0.960  58.013  1.00  0.00     0.000 C 
ENDROOT
BRANCH   1   2
ATOM      2  C   UNL     1      16.066  -0.290  57.152  1.00  0.00     0.000 C 
BRANCH   2   3
ATOM      3  C   UNL     1      15.961   1.222  57.403  1.00  0.00     0.000 C 
BRANCH   3   4
ATOM      4  C   UNL     1      14.852   1.534  58.415  1.00  0.00     0.000 C 
BRANCH   4   5
ATOM      5  C   UNL     1      15.421   2.233  59.659  1.00  0.00     0.000 C 
BRANCH   5   6
ATOM      6  C   UNL     1      16.905   2.613  59.508  1.00  0.00     0.000 C 
BRANCH   6   7
ATOM      7  C   UNL     1      17.805   2.209  60.689  1.00  0.00     0.006 C 
BRANCH   7   8
ATOM      8  C   UNL     1      18.138   3.383  61.618  1.00  0.00     0.053 C 
BRANCH   8   9
ATOM      9  C   UNL     1      17.446   3.220  62.934  1.00  0.00     0.041 C 
ATOM     10  O   UNL     1      17.749   3.963  63.906  1.00  0.00    -0.550 OA
ATOM     11  O   UNL     1      16.431   2.284  63.075  1.00  0.00    -0.550 OA
ENDBRANCH   8   9
ENDBRANCH   7   8
ENDBRANCH   6   7
ENDBRANCH   5   6
ENDBRANCH   4   5
ENDBRANCH   3   4
ENDBRANCH   2   3
ENDBRANCH   1   2
BRANCH   1  12
ATOM     12  C   UNL     1      16.553  -1.836  59.130  1.00  0.00     0.000 C 
BRANCH  12  13
ATOM     13  C   UNL     1      17.048  -1.432  60.530  1.00  0.00    -0.000 C 
BRANCH  13  14
ATOM     14  C   UNL     1      15.925  -0.866  61.415  1.00  0.00    -0.000 C 
BRANCH  14  15
ATOM     15  C   UNL     1      14.531  -1.351  60.982  1.00  0.00    -0.000 C 
BRANCH  15  16
ATOM     16  C   UNL     1      13.992  -2.486  61.872  1.00  0.00    -0.000 C 
BRANCH  16  17
ATOM     17  C   UNL     1      14.171  -3.872  61.217  1.00  0.00    -0.000 C 
BRANCH  17  18
ATOM     18  C   UNL     1      14.843  -4.906  62.138  1.00  0.00    -0.000 C 
BRANCH  18  19
ATOM     19  C   UNL     1      16.338  -4.635  62.352  1.00  0.00    -0.003 C 
ATOM     20  C   UNL     1      17.157  -5.080  61.144  1.00  0.00     0.004 C 
ENDBRANCH  18  19
ENDBRANCH  17  18
ENDBRANCH  16  17
ENDBRANCH  15  16
ENDBRANCH  14  15
ENDBRANCH  13  14
ENDBRANCH  12  13
ENDBRANCH   1  12
TORSDOF 16
ENDMDL
MODEL 6
REMARK VINA RESULT:    -3.527      9.077     11.829
REMARK INTER + INTRA:          -9.944
REMARK INTER:                  -6.997
REMARK INTRA:                  -2.947
REMARK UNBOUND:                -3.119
REMARK SMILES CCCCCCCCCCCCCCCCCC(=O)[O-]
REMARK SMILES IDX 10 1 11 2 12 3 13 4 14 5 15 6 16 7 17 8 18 9 19 10 20 11
REMARK SMILES IDX 9 12 8 13 7 14 6 15 5 16 4 17 3 18 2 19 1 20
REMARK H PARENT
REMARK Flexibility Score: inf
ROOT
ATOM      1  C   UNL     1      16.970   2.464  61.161  1.00  0.00     0.000 C 
ENDROOT
BRANCH   1   2
ATOM      2  C   UNL     1      17.933   1.535  60.405  1.00  0.00     0.000 C 
BRANCH   2   3
ATOM      3  C   UNL     1      17.469   0.070  60.410  1.00  0.00     0.000 C 
BRANCH   3   4
ATOM      4  C   UNL     1      16.719  -0.263  61.705  1.00  0.00     0.000 C 
BRANCH   4   5
ATOM      5  C   UNL     1      15.268  -0.675  61.413  1.00  0.00     0.000 C 
BRANCH   5   6
ATOM      6  C   UNL     1      15.166  -1.853  60.427  1.00  0.00     0.000 C 
BRANCH   6   7
ATOM      7  C   UNL     1      15.839  -3.155  60.897  1.00  0.00     0.006 C 
BRANCH   7   8
ATOM      8  C   UNL     1      15.342  -3.626  62.269  1.00  0.00     0.053 C 
BRANCH   8   9
ATOM      9  C   UNL     1      16.497  -4.003  63.142  1.00  0.00     0.041 C 
ATOM     10  O   UNL     1      17.628  -3.478  62.958  1.00  0.00    -0.550 OA
ATOM     11  O   UNL     1      16.315  -4.894  64.191  1.00  0.00    -0.550 OA
ENDBRANCH   8   9
ENDBRANCH   7   8
ENDBRANCH   6   7
ENDBRANCH   5   6
ENDBRANCH   4   5
ENDBRANCH   3   4
ENDBRANCH   2   3
ENDBRANCH   1   2
BRANCH   1  12
ATOM     12  C   UNL     1      15.913   3.094  60.236  1.00  0.00     0.000 C 
BRANCH  12  13
ATOM     13  C   UNL     1      16.434   3.322  58.806  1.00  0.00    -0.000 C 
BRANCH  13  14
ATOM     14  C   UNL     1      15.537   2.674  57.738  1.00  0.00    -0.000 C 
BRANCH  14  15
ATOM     15  C   UNL     1      14.755   1.466  58.279  1.00  0.00    -0.000 C 
BRANCH  15  16
ATOM     16  C   UNL     1      15.031   0.173  57.489  1.00  0.00    -0.000 C 
BRANCH  16  17
ATOM     17  C   UNL     1      16.305   0.282  56.625  1.00  0.00    -0.000 C 
BRANCH  17  18
ATOM     18  C   UNL     1      17.322  -0.845  56.881  1.00  0.00    -0.000 C 
BRANCH  18  19
ATOM     19  C   UNL     1      18.771  -0.343  56.931  1.00  0.00    -0.003 C 
ATOM     20  C   UNL     1      18.837   1.171  56.750  1.00  0.00     0.004 C 
ENDBRANCH  18  19
ENDBRANCH  17  18
ENDBRANCH  16  17
ENDBRANCH  15  16
ENDBRANCH  14  15
ENDBRANCH  13  14
ENDBRANCH  12  13
ENDBRANCH   1  12
TORSDOF 16
ENDMDL
MODEL 7
REMARK VINA RESULT:    -3.522      9.655     12.555
REMARK INTER + INTRA:          -9.935
REMARK INTER:                  -6.921
REMARK INTRA:                  -3.015
REMARK UNBOUND:                -3.119
REMARK SMILES CCCCCCCCCCCCCCCCCC(=O)[O-]
REMARK SMILES IDX 10 1 11 2 12 3 13 4 14 5 15 6 16 7 17 8 18 9 19 10 20 11
REMARK SMILES IDX 9 12 8 13 7 14 6 15 5 16 4 17 3 18 2 19 1 20
REMARK H PARENT
REMARK Flexibility Score: inf
ROOT
ATOM      1  C   UNL     1      18.867   1.659  60.647  1.00  0.00     0.000 C 
ENDROOT
BRANCH   1   2
ATOM      2  C   UNL     1      18.032   0.393  60.898  1.00  0.00     0.000 C 
BRANCH   2   3
ATOM      3  C   UNL     1      17.166   0.496  62.163  1.00  0.00     0.000 C 
BRANCH   3   4
ATOM      4  C   UNL     1      15.821   1.166  61.854  1.00  0.00     0.000 C 
BRANCH   4   5
ATOM      5  C   UNL     1      15.606   2.405  62.736  1.00  0.00     0.000 C 
BRANCH   5   6
ATOM      6  C   UNL     1      15.654   3.723  61.942  1.00  0.00     0.000 C 
BRANCH   6   7
ATOM      7  C   UNL     1      16.938   4.551  62.131  1.00  0.00     0.006 C 
BRANCH   7   8
ATOM      8  C   UNL     1      17.820   4.036  63.276  1.00  0.00     0.053 C 
BRANCH   8   9
ATOM      9  C   UNL     1      17.736   4.955  64.453  1.00  0.00     0.041 C 
ATOM     10  O   UNL     1      18.457   5.987  64.504  1.00  0.00    -0.550 OA
ATOM     11  O   UNL     1      16.827   4.700  65.471  1.00  0.00    -0.550 OA
ENDBRANCH   8   9
ENDBRANCH   7   8
ENDBRANCH   6   7
ENDBRANCH   5   6
ENDBRANCH   4   5
ENDBRANCH   3   4
ENDBRANCH   2   3
ENDBRANCH   1   2
BRANCH   1  12
ATOM     12  C   UNL     1      18.846   2.093  59.170  1.00  0.00     0.000 C 
BRANCH  12  13
ATOM     13  C   UNL     1      17.860   3.243  58.902  1.00  0.00    -0.000 C 
BRANCH  13  14
ATOM     14  C   UNL     1      16.931   2.961  57.708  1.00  0.00    -0.000 C 
BRANCH  14  15
ATOM     15  C   UNL     1      15.460   2.813  58.128  1.00  0.00    -0.000 C 
BRANCH  15  16
ATOM     16  C   UNL     1      15.126   1.403  58.648  1.00  0.00    -0.000 C 
BRANCH  16  17
ATOM     17  C   UNL     1      15.261   0.330  57.547  1.00  0.00    -0.000 C 
BRANCH  17  18
ATOM     18  C   UNL     1      16.356  -0.713  57.832  1.00  0.00    -0.000 C 
BRANCH  18  19
ATOM     19  C   UNL     1      17.189  -1.059  56.592  1.00  0.00    -0.003 C 
ATOM     20  C   UNL     1      18.469  -0.230  56.538  1.00  0.00     0.004 C 
ENDBRANCH  18  19
ENDBRANCH  17  18
ENDBRANCH  16  17
ENDBRANCH  15  16
ENDBRANCH  14  15
ENDBRANCH  13  14
ENDBRANCH  12  13
ENDBRANCH   1  12
TORSDOF 16
ENDMDL
MODEL 8
REMARK VINA RESULT:    -3.519      9.908     11.984
REMARK INTER + INTRA:          -9.929
REMARK INTER:                  -6.984
REMARK INTRA:                  -2.945
REMARK UNBOUND:                -3.119
REMARK SMILES CCCCCCCCCCCCCCCCCC(=O)[O-]
REMARK SMILES IDX 10 1 11 2 12 3 13 4 14 5 15 6 16 7 17 8 18 9 19 10 20 11
REMARK SMILES IDX 9 12 8 13 7 14 6 15 5 16 4 17 3 18 2 19 1 20
REMARK H PARENT
REMARK Flexibility Score: inf
ROOT
ATOM      1  C   UNL     1      15.611   2.904  60.209  1.00  0.00     0.000 C 
ENDROOT
BRANCH   1   2
ATOM      2  C   UNL     1      16.506   2.286  61.295  1.00  0.00     0.000 C 
BRANCH   2   3
ATOM      3  C   UNL     1      15.844   1.093  62.001  1.00  0.00     0.000 C 
BRANCH   3   4
ATOM      4  C   UNL     1      14.398   0.908  61.526  1.00  0.00     0.000 C 
BRANCH   4   5
ATOM      5  C   UNL     1      13.939  -0.547  61.708  1.00  0.00     0.000 C 
BRANCH   5   6
ATOM      6  C   UNL     1      14.656  -1.525  60.760  1.00  0.00     0.000 C 
BRANCH   6   7
ATOM      7  C   UNL     1      14.771  -2.969  61.281  1.00  0.00     0.006 C 
BRANCH   7   8
ATOM      8  C   UNL     1      15.881  -3.769  60.588  1.00  0.00     0.053 C 
BRANCH   8   9
ATOM      9  C   UNL     1      16.762  -4.425  61.603  1.00  0.00     0.041 C 
ATOM     10  O   UNL     1      17.918  -3.975  61.824  1.00  0.00    -0.550 OA
ATOM     11  O   UNL     1      16.290  -5.502  62.342  1.00  0.00    -0.550 OA
ENDBRANCH   8   9
ENDBRANCH   7   8
ENDBRANCH   6   7
ENDBRANCH   5   6
ENDBRANCH   4   5
ENDBRANCH   3   4
ENDBRANCH   2   3
ENDBRANCH   1   2
BRANCH   1  12
ATOM     12  C   UNL     1      16.259   2.851  58.813  1.00  0.00     0.000 C 
BRANCH  12  13
ATOM     13  C   UNL     1      15.335   2.228  57.753  1.00  0.00    -0.000 C 
BRANCH  13  14
ATOM     14  C   UNL     1      15.115   0.721  57.970  1.00  0.00    -0.000 C 
BRANCH  14  15
ATOM     15  C   UNL     1      15.945  -0.141  57.005  1.00  0.00    -0.000 C 
BRANCH  15  16
ATOM     16  C   UNL     1      16.879  -1.123  57.736  1.00  0.00    -0.000 C 
BRANCH  16  17
ATOM     17  C   UNL     1      17.971  -0.393  58.547  1.00  0.00    -0.000 C 
BRANCH  17  18
ATOM     18  C   UNL     1      18.130  -0.922  59.983  1.00  0.00    -0.000 C 
BRANCH  18  19
ATOM     19  C   UNL     1      19.247  -0.215  60.761  1.00  0.00    -0.003 C 
ATOM     20  C   UNL     1      19.736   1.026  60.019  1.00  0.00     0.004 C 
ENDBRANCH  18  19
ENDBRANCH  17  18
ENDBRANCH  16  17
ENDBRANCH  15  16
ENDBRANCH  14  15
ENDBRANCH  13  14
ENDBRANCH  12  13
ENDBRANCH   1  12
TORSDOF 16
ENDMDL
MODEL 9
REMARK VINA RESULT:    -3.484      9.702     11.678
REMARK INTER + INTRA:          -9.861
REMARK INTER:                  -7.663
REMARK INTRA:                  -2.197
REMARK UNBOUND:                -3.119
REMARK SMILES CCCCCCCCCCCCCCCCCC(=O)[O-]
REMARK SMILES IDX 10 1 11 2 12 3 13 4 14 5 15 6 16 7 17 8 18 9 19 10 20 11
REMARK SMILES IDX 9 12 8 13 7 14 6 15 5 16 4 17 3 18 2 19 1 20
REMARK H PARENT
REMARK Flexibility Score: inf
ROOT
ATOM      1  C   UNL     1      17.487   0.794  61.321  1.00  0.00     0.000 C 
ENDROOT
BRANCH   1   2
ATOM      2  C   UNL     1      16.062   1.053  61.837  1.00  0.00     0.000 C 
BRANCH   2   3
ATOM      3  C   UNL     1      14.982   0.477  60.909  1.00  0.00     0.000 C 
BRANCH   3   4
ATOM      4  C   UNL     1      13.756   0.021  61.710  1.00  0.00     0.000 C 
BRANCH   4   5
ATOM      5  C   UNL     1      13.768  -1.501  61.918  1.00  0.00     0.000 C 
BRANCH   5   6
ATOM      6  C   UNL     1      14.947  -2.194  61.211  1.00  0.00     0.000 C 
BRANCH   6   7
ATOM      7  C   UNL     1      15.931  -2.920  62.146  1.00  0.00     0.006 C 
BRANCH   7   8
ATOM      8  C   UNL     1      16.941  -3.793  61.391  1.00  0.00     0.053 C 
BRANCH   8   9
ATOM      9  C   UNL     1      18.310  -3.627  61.971  1.00  0.00     0.041 C 
ATOM     10  O   UNL     1      19.038  -4.635  62.175  1.00  0.00    -0.550 OA
ATOM     11  O   UNL     1      18.803  -2.357  62.237  1.00  0.00    -0.550 OA
ENDBRANCH   8   9
ENDBRANCH   7   8
ENDBRANCH   6   7
ENDBRANCH   5   6
ENDBRANCH   4   5
ENDBRANCH   3   4
ENDBRANCH   2   3
ENDBRANCH   1   2
BRANCH   1  12
ATOM     12  C   UNL     1      17.556   0.745  59.784  1.00  0.00     0.000 C 
BRANCH  12  13
ATOM     13  C   UNL     1      18.065  -0.608  59.255  1.00  0.00    -0.000 C 
BRANCH  13  14
ATOM     14  C   UNL     1      17.001  -1.362  58.439  1.00  0.00    -0.000 C 
BRANCH  14  15
ATOM     15  C   UNL     1      16.239  -0.443  57.470  1.00  0.00    -0.000 C 
BRANCH  15  16
ATOM     16  C   UNL     1      16.702  -0.599  56.010  1.00  0.00    -0.000 C 
BRANCH  16  17
ATOM     17  C   UNL     1      17.640   0.546  55.572  1.00  0.00    -0.000 C 
BRANCH  17  18
ATOM     18  C   UNL     1      17.348   1.885  56.274  1.00  0.00    -0.000 C 
BRANCH  18  19
ATOM     19  C   UNL     1      17.407   3.085  55.320  1.00  0.00    -0.003 C 
ATOM     20  C   UNL     1      16.573   4.249  55.846  1.00  0.00     0.004 C 
ENDBRANCH  18  19
ENDBRANCH  17  18
ENDBRANCH  16  17
ENDBRANCH  15  16
ENDBRANCH  14  15
ENDBRANCH  13  14
ENDBRANCH  12  13
ENDBRANCH   1  12
TORSDOF 16
ENDMDL
