MODEL 1
REMARK VINA RESULT:    -2.994      0.000      0.000
REMARK INTER + INTRA:          -4.703
REMARK INTER:                  -4.044
REMARK INTRA:                  -0.659
REMARK UNBOUND:                -0.659
REMARK SMILES C[C@@H](O)[C@@H](O)[C@@H](O)[C@@H](O)C=O
REMARK SMILES IDX 4 1 2 2 1 3 3 4 6 6 8 7 10 8 11 9 9 10 7 12 5 14
REMARK H PARENT 3 5 9 11 7 13 5 15
REMARK Flexibility Score: inf
ROOT
ATOM      1  C   UNL     1       7.933  18.577  24.973  1.00  0.00     0.174 C 
ENDROOT
BRANCH   1   2
ATOM      2  C   UNL     1       7.847  18.273  26.495  1.00  0.00     0.142 C 
ATOM      3  C   UNL     1       8.723  17.095  26.926  1.00  0.00     0.041 C 
BRANCH   2   4
ATOM      4  O   UNL     1       8.232  19.407  27.228  1.00  0.00    -0.391 OA
ATOM      5  H   UNL     1       9.118  19.204  27.629  1.00  0.00     0.211 HD
ENDBRANCH   2   4
ENDBRANCH   1   2
BRANCH   1   6
ATOM      6  C   UNL     1       6.565  18.974  24.337  1.00  0.00     0.181 C 
BRANCH   6   7
ATOM      7  C   UNL     1       6.646  19.343  22.825  1.00  0.00     0.209 C 
BRANCH   7   8
ATOM      8  C   UNL     1       5.357  19.911  22.277  1.00  0.00     0.258 C 
ATOM      9  O   UNL     1       4.287  19.679  22.818  1.00  0.00    -0.300 OA
ENDBRANCH   7   8
BRANCH   7  10
ATOM     10  O   UNL     1       7.054  18.236  22.060  1.00  0.00    -0.383 OA
ATOM     11  H   UNL     1       7.070  18.511  21.107  1.00  0.00     0.211 HD
ENDBRANCH   7  10
ENDBRANCH   6   7
BRANCH   6  12
ATOM     12  O   UNL     1       6.017  20.045  25.069  1.00  0.00    -0.387 OA
ATOM     13  H   UNL     1       6.085  19.813  26.032  1.00  0.00     0.211 HD
ENDBRANCH   6  12
ENDBRANCH   1   6
BRANCH   1  14
ATOM     14  O   UNL     1       8.523  17.502  24.283  1.00  0.00    -0.388 OA
ATOM     15  H   UNL     1       9.429  17.368  24.666  1.00  0.00     0.211 HD
ENDBRANCH   1  14
TORSDOF 8
ENDMDL
MODEL 2
REMARK VINA RESULT:    -2.842      1.624      4.351
REMARK INTER + INTRA:          -4.498
REMARK INTER:                  -3.859
REMARK INTRA:                  -0.638
REMARK UNBOUND:                -0.659
REMARK SMILES C[C@@H](O)[C@@H](O)[C@@H](O)[C@@H](O)C=O
REMARK SMILES IDX 4 1 2 2 1 3 3 4 6 6 8 7 10 8 11 9 9 10 7 12 5 14
REMARK H PARENT 3 5 9 11 7 13 5 15
REMARK Flexibility Score: inf
ROOT
ATOM      1  C   UNL     1       7.741  18.195  25.103  1.00  0.00     0.174 C 
ENDROOT
BRANCH   1   2
ATOM      2  C   UNL     1       7.019  19.532  24.776  1.00  0.00     0.142 C 
ATOM      3  C   UNL     1       6.831  19.766  23.276  1.00  0.00     0.041 C 
BRANCH   2   4
ATOM      4  O   UNL     1       5.756  19.551  25.391  1.00  0.00    -0.391 OA
ATOM      5  H   UNL     1       5.285  18.722  25.112  1.00  0.00     0.211 HD
ENDBRANCH   2   4
ENDBRANCH   1   2
BRANCH   1   6
ATOM      6  C   UNL     1       8.192  18.077  26.592  1.00  0.00     0.181 C 
BRANCH   6   7
ATOM      7  C   UNL     1       7.304  17.131  27.456  1.00  0.00     0.209 C 
BRANCH   7   8
ATOM      8  C   UNL     1       7.013  15.807  26.788  1.00  0.00     0.258 C 
ATOM      9  O   UNL     1       7.893  14.974  26.631  1.00  0.00    -0.300 OA
ENDBRANCH   7   8
BRANCH   7  10
ATOM     10  O   UNL     1       6.103  17.766  27.821  1.00  0.00    -0.383 OA
ATOM     11  H   UNL     1       5.351  17.185  27.537  1.00  0.00     0.211 HD
ENDBRANCH   7  10
ENDBRANCH   6   7
BRANCH   6  12
ATOM     12  O   UNL     1       8.226  19.364  27.160  1.00  0.00    -0.387 OA
ATOM     13  H   UNL     1       7.288  19.635  27.340  1.00  0.00     0.211 HD
ENDBRANCH   6  12
ENDBRANCH   1   6
BRANCH   1  14
ATOM     14  O   UNL     1       8.820  17.985  24.225  1.00  0.00    -0.388 OA
ATOM     15  H   UNL     1       8.449  17.941  23.306  1.00  0.00     0.211 HD
ENDBRANCH   1  14
TORSDOF 8
ENDMDL
MODEL 3
REMARK VINA RESULT:    -2.834      1.121      4.822
REMARK INTER + INTRA:          -4.487
REMARK INTER:                  -3.773
REMARK INTRA:                  -0.713
REMARK UNBOUND:                -0.659
REMARK SMILES C[C@@H](O)[C@@H](O)[C@@H](O)[C@@H](O)C=O
REMARK SMILES IDX 4 1 2 2 1 3 3 4 6 6 8 7 10 8 11 9 9 10 7 12 5 14
REMARK H PARENT 3 5 9 11 7 13 5 15
REMARK Flexibility Score: inf
ROOT
ATOM      1  C   UNL     1       7.060  19.000  24.219  1.00  0.00     0.174 C 
ENDROOT
BRANCH   1   2
ATOM      2  C   UNL     1       6.254  18.611  22.949  1.00  0.00     0.142 C 
ATOM      3  C   UNL     1       5.509  19.790  22.321  1.00  0.00     0.041 C 
BRANCH   2   4
ATOM      4  O   UNL     1       7.121  18.069  21.985  1.00  0.00    -0.391 OA
ATOM      5  H   UNL     1       7.453  18.826  21.435  1.00  0.00     0.211 HD
ENDBRANCH   2   4
ENDBRANCH   1   2
BRANCH   1   6
ATOM      6  C   UNL     1       7.242  17.824  25.228  1.00  0.00     0.181 C 
BRANCH   6   7
ATOM      7  C   UNL     1       8.297  18.096  26.343  1.00  0.00     0.209 C 
BRANCH   7   8
ATOM      8  C   UNL     1       8.633  16.869  27.160  1.00  0.00     0.258 C 
ATOM      9  O   UNL     1       9.232  15.928  26.665  1.00  0.00    -0.300 OA
ENDBRANCH   7   8
BRANCH   7  10
ATOM     10  O   UNL     1       7.880  19.142  27.185  1.00  0.00    -0.383 OA
ATOM     11  H   UNL     1       8.686  19.533  27.610  1.00  0.00     0.211 HD
ENDBRANCH   7  10
ENDBRANCH   6   7
BRANCH   6  12
ATOM     12  O   UNL     1       7.580  16.660  24.513  1.00  0.00    -0.387 OA
ATOM     13  H   UNL     1       6.733  16.197  24.281  1.00  0.00     0.211 HD
ENDBRANCH   6  12
ENDBRANCH   1   6
BRANCH   1  14
ATOM     14  O   UNL     1       6.491  20.125  24.844  1.00  0.00    -0.388 OA
ATOM     15  H   UNL     1       6.836  20.152  25.774  1.00  0.00     0.211 HD
ENDBRANCH   1  14
TORSDOF 8
ENDMDL
MODEL 4
REMARK VINA RESULT:    -2.825      9.466     11.067
REMARK INTER + INTRA:          -4.475
REMARK INTER:                  -3.954
REMARK INTRA:                  -0.521
REMARK UNBOUND:                -0.659
REMARK SMILES C[C@@H](O)[C@@H](O)[C@@H](O)[C@@H](O)C=O
REMARK SMILES IDX 4 1 2 2 1 3 3 4 6 6 8 7 10 8 11 9 9 10 7 12 5 14
REMARK H PARENT 3 5 9 11 7 13 5 15
REMARK Flexibility Score: inf
ROOT
ATOM      1  C   UNL     1      16.671  15.920  25.652  1.00  0.00     0.174 C 
ENDROOT
BRANCH   1   2
ATOM      2  C   UNL     1      16.269  15.044  24.432  1.00  0.00     0.142 C 
ATOM      3  C   UNL     1      15.080  14.124  24.716  1.00  0.00     0.041 C 
BRANCH   2   4
ATOM      4  O   UNL     1      15.944  15.868  23.343  1.00  0.00    -0.391 OA
ATOM      5  H   UNL     1      16.757  15.933  22.776  1.00  0.00     0.211 HD
ENDBRANCH   2   4
ENDBRANCH   1   2
BRANCH   1   6
ATOM      6  C   UNL     1      16.828  15.111  26.977  1.00  0.00     0.181 C 
BRANCH   6   7
ATOM      7  C   UNL     1      16.034  15.699  28.182  1.00  0.00     0.209 C 
BRANCH   7   8
ATOM      8  C   UNL     1      16.731  15.506  29.509  1.00  0.00     0.258 C 
ATOM      9  O   UNL     1      16.882  14.391  29.984  1.00  0.00    -0.300 OA
ENDBRANCH   7   8
BRANCH   7  10
ATOM     10  O   UNL     1      14.733  15.168  28.233  1.00  0.00    -0.383 OA
ATOM     11  H   UNL     1      14.154  15.720  27.647  1.00  0.00     0.211 HD
ENDBRANCH   7  10
ENDBRANCH   6   7
BRANCH   6  12
ATOM     12  O   UNL     1      18.196  15.020  27.294  1.00  0.00    -0.387 OA
ATOM     13  H   UNL     1      18.542  14.185  26.883  1.00  0.00     0.211 HD
ENDBRANCH   6  12
ENDBRANCH   1   6
BRANCH   1  14
ATOM     14  O   UNL     1      15.774  16.992  25.812  1.00  0.00    -0.388 OA
ATOM     15  H   UNL     1      15.932  17.623  25.062  1.00  0.00     0.211 HD
ENDBRANCH   1  14
TORSDOF 8
ENDMDL
MODEL 5
REMARK VINA RESULT:    -2.802      1.390      4.119
REMARK INTER + INTRA:          -4.443
REMARK INTER:                  -3.724
REMARK INTRA:                  -0.719
REMARK UNBOUND:                -0.659
REMARK SMILES C[C@@H](O)[C@@H](O)[C@@H](O)[C@@H](O)C=O
REMARK SMILES IDX 4 1 2 2 1 3 3 4 6 6 8 7 10 8 11 9 9 10 7 12 5 14
REMARK H PARENT 3 5 9 11 7 13 5 15
REMARK Flexibility Score: inf
ROOT
ATOM      1  C   UNL     1       6.022  17.964  23.560  1.00  0.00     0.174 C 
ENDROOT
BRANCH   1   2
ATOM      2  C   UNL     1       6.269  19.028  22.455  1.00  0.00     0.142 C 
ATOM      3  C   UNL     1       5.007  19.805  22.072  1.00  0.00     0.041 C 
BRANCH   2   4
ATOM      4  O   UNL     1       7.242  19.945  22.887  1.00  0.00    -0.391 OA
ATOM      5  H   UNL     1       7.648  20.341  22.072  1.00  0.00     0.211 HD
ENDBRANCH   2   4
ENDBRANCH   1   2
BRANCH   1   6
ATOM      6  C   UNL     1       6.561  18.384  24.963  1.00  0.00     0.181 C 
BRANCH   6   7
ATOM      7  C   UNL     1       7.894  17.687  25.371  1.00  0.00     0.209 C 
BRANCH   7   8
ATOM      8  C   UNL     1       8.442  18.172  26.694  1.00  0.00     0.258 C 
ATOM      9  O   UNL     1       8.136  19.268  27.138  1.00  0.00    -0.300 OA
ENDBRANCH   7   8
BRANCH   7  10
ATOM     10  O   UNL     1       8.862  17.826  24.362  1.00  0.00    -0.383 OA
ATOM     11  H   UNL     1       8.427  18.247  23.576  1.00  0.00     0.211 HD
ENDBRANCH   7  10
ENDBRANCH   6   7
BRANCH   6  12
ATOM     12  O   UNL     1       5.566  18.131  25.926  1.00  0.00    -0.387 OA
ATOM     13  H   UNL     1       4.870  18.833  25.826  1.00  0.00     0.211 HD
ENDBRANCH   6  12
ENDBRANCH   1   6
BRANCH   1  14
ATOM     14  O   UNL     1       6.537  16.713  23.170  1.00  0.00    -0.388 OA
ATOM     15  H   UNL     1       6.624  16.162  23.990  1.00  0.00     0.211 HD
ENDBRANCH   1  14
TORSDOF 8
ENDMDL
MODEL 6
REMARK VINA RESULT:    -2.758      2.270      3.157
REMARK INTER + INTRA:          -4.385
REMARK INTER:                  -3.566
REMARK INTRA:                  -0.819
REMARK UNBOUND:                -0.659
REMARK SMILES C[C@@H](O)[C@@H](O)[C@@H](O)[C@@H](O)C=O
REMARK SMILES IDX 4 1 2 2 1 3 3 4 6 6 8 7 10 8 11 9 9 10 7 12 5 14
REMARK H PARENT 3 5 9 11 7 13 5 15
REMARK Flexibility Score: inf
ROOT
ATOM      1  C   UNL     1       7.883  18.124  26.974  1.00  0.00     0.174 C 
ENDROOT
BRANCH   1   2
ATOM      2  C   UNL     1       8.706  17.409  25.866  1.00  0.00     0.142 C 
ATOM      3  C   UNL     1       8.174  16.017  25.522  1.00  0.00     0.041 C 
BRANCH   2   4
ATOM      4  O   UNL     1       8.705  18.188  24.697  1.00  0.00    -0.391 OA
ATOM      5  H   UNL     1       7.780  18.166  24.335  1.00  0.00     0.211 HD
ENDBRANCH   2   4
ENDBRANCH   1   2
BRANCH   1   6
ATOM      6  C   UNL     1       6.341  18.055  26.748  1.00  0.00     0.181 C 
BRANCH   6   7
ATOM      7  C   UNL     1       5.709  19.384  26.233  1.00  0.00     0.209 C 
BRANCH   7   8
ATOM      8  C   UNL     1       4.205  19.318  26.096  1.00  0.00     0.258 C 
ATOM      9  O   UNL     1       3.478  19.454  27.068  1.00  0.00    -0.300 OA
ENDBRANCH   7   8
BRANCH   7  10
ATOM     10  O   UNL     1       6.292  19.778  25.016  1.00  0.00    -0.383 OA
ATOM     11  H   UNL     1       5.665  19.540  24.285  1.00  0.00     0.211 HD
ENDBRANCH   7  10
ENDBRANCH   6   7
BRANCH   6  12
ATOM     12  O   UNL     1       5.723  17.657  27.949  1.00  0.00    -0.387 OA
ATOM     13  H   UNL     1       6.403  17.173  28.487  1.00  0.00     0.211 HD
ENDBRANCH   6  12
ENDBRANCH   1   6
BRANCH   1  14
ATOM     14  O   UNL     1       8.315  19.454  27.135  1.00  0.00    -0.388 OA
ATOM     15  H   UNL     1       7.681  19.897  27.756  1.00  0.00     0.211 HD
ENDBRANCH   1  14
TORSDOF 8
ENDMDL
MODEL 7
REMARK VINA RESULT:    -2.754      9.529     10.913
REMARK INTER + INTRA:          -4.379
REMARK INTER:                  -3.788
REMARK INTRA:                  -0.591
REMARK UNBOUND:                -0.659
REMARK SMILES C[C@@H](O)[C@@H](O)[C@@H](O)[C@@H](O)C=O
REMARK SMILES IDX 4 1 2 2 1 3 3 4 6 6 8 7 10 8 11 9 9 10 7 12 5 14
REMARK H PARENT 3 5 9 11 7 13 5 15
REMARK Flexibility Score: inf
ROOT
ATOM      1  C   UNL     1      16.582  15.088  28.183  1.00  0.00     0.174 C 
ENDROOT
BRANCH   1   2
ATOM      2  C   UNL     1      17.650  15.183  29.307  1.00  0.00     0.142 C 
ATOM      3  C   UNL     1      17.075  14.959  30.707  1.00  0.00     0.041 C 
BRANCH   2   4
ATOM      4  O   UNL     1      18.660  14.232  29.084  1.00  0.00    -0.391 OA
ATOM      5  H   UNL     1      18.209  13.385  28.826  1.00  0.00     0.211 HD
ENDBRANCH   2   4
ENDBRANCH   1   2
BRANCH   1   6
ATOM      6  C   UNL     1      17.167  15.271  26.748  1.00  0.00     0.181 C 
BRANCH   6   7
ATOM      7  C   UNL     1      16.176  15.913  25.731  1.00  0.00     0.209 C 
BRANCH   7   8
ATOM      8  C   UNL     1      15.495  14.900  24.838  1.00  0.00     0.258 C 
ATOM      9  O   UNL     1      14.776  14.031  25.306  1.00  0.00    -0.300 OA
ENDBRANCH   7   8
BRANCH   7  10
ATOM     10  O   UNL     1      16.819  16.892  24.953  1.00  0.00    -0.383 OA
ATOM     11  H   UNL     1      16.121  17.466  24.544  1.00  0.00     0.211 HD
ENDBRANCH   7  10
ENDBRANCH   6   7
BRANCH   6  12
ATOM     12  O   UNL     1      17.608  14.021  26.274  1.00  0.00    -0.387 OA
ATOM     13  H   UNL     1      18.367  13.737  26.847  1.00  0.00     0.211 HD
ENDBRANCH   6  12
ENDBRANCH   1   6
BRANCH   1  14
ATOM     14  O   UNL     1      15.527  15.988  28.422  1.00  0.00    -0.388 OA
ATOM     15  H   UNL     1      14.840  15.503  28.949  1.00  0.00     0.211 HD
ENDBRANCH   1  14
TORSDOF 8
ENDMDL
MODEL 8
REMARK VINA RESULT:    -2.722      1.809      2.877
REMARK INTER + INTRA:          -4.336
REMARK INTER:                  -3.512
REMARK INTRA:                  -0.824
REMARK UNBOUND:                -0.659
REMARK SMILES C[C@@H](O)[C@@H](O)[C@@H](O)[C@@H](O)C=O
REMARK SMILES IDX 4 1 2 2 1 3 3 4 6 6 8 7 10 8 11 9 9 10 7 12 5 14
REMARK H PARENT 3 5 9 11 7 13 5 15
REMARK Flexibility Score: inf
ROOT
ATOM      1  C   UNL     1       6.679  17.714  27.009  1.00  0.00     0.174 C 
ENDROOT
BRANCH   1   2
ATOM      2  C   UNL     1       8.227  17.577  26.987  1.00  0.00     0.142 C 
ATOM      3  C   UNL     1       8.712  16.156  27.284  1.00  0.00     0.041 C 
BRANCH   2   4
ATOM      4  O   UNL     1       8.720  17.961  25.729  1.00  0.00    -0.391 OA
ATOM      5  H   UNL     1       9.029  17.134  25.274  1.00  0.00     0.211 HD
ENDBRANCH   2   4
ENDBRANCH   1   2
BRANCH   1   6
ATOM      6  C   UNL     1       6.178  19.169  26.750  1.00  0.00     0.181 C 
BRANCH   6   7
ATOM      7  C   UNL     1       5.438  19.358  25.391  1.00  0.00     0.209 C 
BRANCH   7   8
ATOM      8  C   UNL     1       6.248  20.125  24.371  1.00  0.00     0.258 C 
ATOM      9  O   UNL     1       7.194  19.607  23.799  1.00  0.00    -0.300 OA
ENDBRANCH   7   8
BRANCH   7  10
ATOM     10  O   UNL     1       4.187  19.971  25.582  1.00  0.00    -0.383 OA
ATOM     11  H   UNL     1       4.201  20.427  26.463  1.00  0.00     0.211 HD
ENDBRANCH   7  10
ENDBRANCH   6   7
BRANCH   6  12
ATOM     12  O   UNL     1       7.273  20.049  26.833  1.00  0.00    -0.387 OA
ATOM     13  H   UNL     1       6.969  20.934  26.504  1.00  0.00     0.211 HD
ENDBRANCH   6  12
ENDBRANCH   1   6
BRANCH   1  14
ATOM     14  O   UNL     1       6.151  17.199  28.207  1.00  0.00    -0.388 OA
ATOM     15  H   UNL     1       6.155  16.210  28.130  1.00  0.00     0.211 HD
ENDBRANCH   1  14
TORSDOF 8
ENDMDL
MODEL 9
REMARK VINA RESULT:    -2.716      1.125      2.408
REMARK INTER + INTRA:          -4.327
REMARK INTER:                  -3.499
REMARK INTRA:                  -0.828
REMARK UNBOUND:                -0.659
REMARK SMILES C[C@@H](O)[C@@H](O)[C@@H](O)[C@@H](O)C=O
REMARK SMILES IDX 4 1 2 2 1 3 3 4 6 6 8 7 10 8 11 9 9 10 7 12 5 14
REMARK H PARENT 3 5 9 11 7 13 5 15
REMARK Flexibility Score: inf
ROOT
ATOM      1  C   UNL     1       6.845  18.845  25.250  1.00  0.00     0.174 C 
ENDROOT
BRANCH   1   2
ATOM      2  C   UNL     1       8.253  18.211  25.076  1.00  0.00     0.142 C 
ATOM      3  C   UNL     1       8.714  17.419  26.301  1.00  0.00     0.041 C 
BRANCH   2   4
ATOM      4  O   UNL     1       8.253  17.352  23.965  1.00  0.00    -0.391 OA
ATOM      5  H   UNL     1       8.079  17.914  23.164  1.00  0.00     0.211 HD
ENDBRANCH   2   4
ENDBRANCH   1   2
BRANCH   1   6
ATOM      6  C   UNL     1       6.388  19.696  24.025  1.00  0.00     0.181 C 
BRANCH   6   7
ATOM      7  C   UNL     1       5.266  19.033  23.169  1.00  0.00     0.209 C 
BRANCH   7   8
ATOM      8  C   UNL     1       5.710  18.689  21.766  1.00  0.00     0.258 C 
ATOM      9  O   UNL     1       6.627  17.907  21.569  1.00  0.00    -0.300 OA
ENDBRANCH   7   8
BRANCH   7  10
ATOM     10  O   UNL     1       4.118  19.843  23.132  1.00  0.00    -0.383 OA
ATOM     11  H   UNL     1       4.411  20.791  23.153  1.00  0.00     0.211 HD
ENDBRANCH   7  10
ENDBRANCH   6   7
BRANCH   6  12
ATOM     12  O   UNL     1       7.509  19.977  23.223  1.00  0.00    -0.387 OA
ATOM     13  H   UNL     1       7.326  19.613  22.317  1.00  0.00     0.211 HD
ENDBRANCH   6  12
ENDBRANCH   1   6
BRANCH   1  14
ATOM     14  O   UNL     1       6.779  19.591  26.442  1.00  0.00    -0.388 OA
ATOM     15  H   UNL     1       7.536  19.300  27.014  1.00  0.00     0.211 HD
ENDBRANCH   1  14
TORSDOF 8
ENDMDL
