MODEL 1
REMARK VINA RESULT:    -5.111      0.000      0.000
REMARK INTER + INTRA:          -5.854
REMARK INTER:                  -5.559
REMARK INTRA:                  -0.294
REMARK UNBOUND:                -0.294
REMARK SMILES C=C1C[C@]2(O)O[C@]3(C[C@H]2C(C)C)[C@H](C)CC[C@H]13
REMARK SMILES IDX 14 1 13 2 15 3 16 4 17 5 7 6 8 7 9 8 4 9 6 10 3 11 2 12 1 13
REMARK SMILES IDX 10 14 11 15 12 16 5 17
REMARK H PARENT 5 18
REMARK Flexibility Score: inf
ROOT
ATOM      1  C   UNL     1      67.745  12.346  14.808  1.00  0.00     0.011 C 
ATOM      2  C   UNL     1      68.801  11.286  15.156  1.00  0.00     0.019 C 
ATOM      3  C   UNL     1      69.995  11.309  14.190  1.00  0.00     0.007 C 
ATOM      4  C   UNL     1      70.391   9.853  13.931  1.00  0.00     0.011 C 
ATOM      5  C   UNL     1      69.538   9.002  14.872  1.00  0.00     0.047 C 
ATOM      6  C   UNL     1      68.274   9.844  15.116  1.00  0.00     0.081 C 
ATOM      7  C   UNL     1      67.531   9.404  16.384  1.00  0.00     0.046 C 
ATOM      8  C   UNL     1      66.498   8.413  15.849  1.00  0.00     0.054 C 
ATOM      9  C   UNL     1      66.778   8.413  14.316  1.00  0.00     0.173 C 
ATOM     10  O   UNL     1      67.384   9.651  14.037  1.00  0.00    -0.342 OA
ATOM     11  C   UNL     1      67.778   7.295  13.900  1.00  0.00     0.096 C 
ATOM     12  C   UNL     1      69.203   7.635  14.294  1.00  0.00    -0.066 C 
ATOM     13  C   UNL     1      70.172   6.725  14.124  1.00  0.00     0.008 C 
ENDROOT
BRANCH   8  14
ATOM     14  C   UNL     1      65.027   8.756  16.257  1.00  0.00    -0.009 C 
ATOM     15  C   UNL     1      64.402   7.620  17.080  1.00  0.00     0.008 C 
ATOM     16  C   UNL     1      64.863  10.099  16.999  1.00  0.00     0.008 C 
ENDBRANCH   8  14
BRANCH   9  17
ATOM     17  O   UNL     1      65.601   8.295  13.555  1.00  0.00    -0.365 OA
ATOM     18  H   UNL     1      65.526   7.348  13.267  1.00  0.00     0.214 HD
ENDBRANCH   9  17
TORSDOF 2
ENDMDL
MODEL 2
REMARK VINA RESULT:    -4.998      1.543      4.258
REMARK INTER + INTRA:          -5.731
REMARK INTER:                  -5.406
REMARK INTRA:                  -0.324
REMARK UNBOUND:                -0.294
REMARK SMILES C=C1C[C@]2(O)O[C@]3(C[C@H]2C(C)C)[C@H](C)CC[C@H]13
REMARK SMILES IDX 14 1 13 2 15 3 16 4 17 5 7 6 8 7 9 8 4 9 6 10 3 11 2 12 1 13
REMARK SMILES IDX 10 14 11 15 12 16 5 17
REMARK H PARENT 5 18
REMARK Flexibility Score: inf
ROOT
ATOM      1  C   UNL     1      65.224  10.774  17.292  1.00  0.00     0.011 C 
ATOM      2  C   UNL     1      65.042   9.865  16.067  1.00  0.00     0.019 C 
ATOM      3  C   UNL     1      64.638   8.435  16.455  1.00  0.00     0.007 C 
ATOM      4  C   UNL     1      65.393   7.486  15.518  1.00  0.00     0.011 C 
ATOM      5  C   UNL     1      66.100   8.369  14.490  1.00  0.00     0.047 C 
ATOM      6  C   UNL     1      66.309   9.711  15.212  1.00  0.00     0.081 C 
ATOM      7  C   UNL     1      66.551  10.860  14.223  1.00  0.00     0.046 C 
ATOM      8  C   UNL     1      68.076  10.922  14.137  1.00  0.00     0.054 C 
ATOM      9  C   UNL     1      68.525   9.788  15.107  1.00  0.00     0.173 C 
ATOM     10  O   UNL     1      67.466   9.620  16.017  1.00  0.00    -0.342 OA
ATOM     11  C   UNL     1      68.734   8.433  14.372  1.00  0.00     0.096 C 
ATOM     12  C   UNL     1      67.415   7.777  14.006  1.00  0.00    -0.066 C 
ATOM     13  C   UNL     1      67.413   6.666  13.257  1.00  0.00     0.008 C 
ENDROOT
BRANCH   8  14
ATOM     14  C   UNL     1      68.666  12.337  14.449  1.00  0.00    -0.009 C 
ATOM     15  C   UNL     1      68.966  13.108  13.155  1.00  0.00     0.008 C 
ATOM     16  C   UNL     1      67.801  13.200  15.391  1.00  0.00     0.008 C 
ENDBRANCH   8  14
BRANCH   9  17
ATOM     17  O   UNL     1      69.693  10.120  15.818  1.00  0.00    -0.365 OA
ATOM     18  H   UNL     1      70.053  10.956  15.422  1.00  0.00     0.214 HD
ENDBRANCH   9  17
TORSDOF 2
ENDMDL
MODEL 3
REMARK VINA RESULT:    -4.908      2.192      5.401
REMARK INTER + INTRA:          -5.633
REMARK INTER:                  -5.309
REMARK INTRA:                  -0.324
REMARK UNBOUND:                -0.294
REMARK SMILES C=C1C[C@]2(O)O[C@]3(C[C@H]2C(C)C)[C@H](C)CC[C@H]13
REMARK SMILES IDX 14 1 13 2 15 3 16 4 17 5 7 6 8 7 9 8 4 9 6 10 3 11 2 12 1 13
REMARK SMILES IDX 10 14 11 15 12 16 5 17
REMARK H PARENT 5 18
REMARK Flexibility Score: inf
ROOT
ATOM      1  C   UNL     1      63.921   8.537  11.997  1.00  0.00     0.011 C 
ATOM      2  C   UNL     1      63.799   7.395  13.017  1.00  0.00     0.019 C 
ATOM      3  C   UNL     1      62.348   7.164  13.466  1.00  0.00     0.007 C 
ATOM      4  C   UNL     1      62.386   6.862  14.967  1.00  0.00     0.011 C 
ATOM      5  C   UNL     1      63.863   6.756  15.347  1.00  0.00     0.047 C 
ATOM      6  C   UNL     1      64.592   7.629  14.312  1.00  0.00     0.081 C 
ATOM      7  C   UNL     1      66.082   7.276  14.216  1.00  0.00     0.046 C 
ATOM      8  C   UNL     1      66.731   8.269  15.181  1.00  0.00     0.054 C 
ATOM      9  C   UNL     1      65.514   9.083  15.713  1.00  0.00     0.173 C 
ATOM     10  O   UNL     1      64.521   8.978  14.723  1.00  0.00    -0.342 OA
ATOM     11  C   UNL     1      64.935   8.484  17.027  1.00  0.00     0.096 C 
ATOM     12  C   UNL     1      64.142   7.216  16.770  1.00  0.00    -0.066 C 
ATOM     13  C   UNL     1      63.681   6.502  17.807  1.00  0.00     0.008 C 
ENDROOT
BRANCH   8  14
ATOM     14  C   UNL     1      67.871   9.121  14.531  1.00  0.00    -0.009 C 
ATOM     15  C   UNL     1      69.251   8.511  14.819  1.00  0.00     0.008 C 
ATOM     16  C   UNL     1      67.707   9.368  13.017  1.00  0.00     0.008 C 
ENDBRANCH   8  14
BRANCH   9  17
ATOM     17  O   UNL     1      65.823  10.441  15.912  1.00  0.00    -0.365 OA
ATOM     18  H   UNL     1      66.272  10.767  15.090  1.00  0.00     0.214 HD
ENDBRANCH   9  17
TORSDOF 2
ENDMDL
MODEL 4
REMARK VINA RESULT:    -4.791      1.948      2.984
REMARK INTER + INTRA:          -5.505
REMARK INTER:                  -5.254
REMARK INTRA:                  -0.251
REMARK UNBOUND:                -0.294
REMARK SMILES C=C1C[C@]2(O)O[C@]3(C[C@H]2C(C)C)[C@H](C)CC[C@H]13
REMARK SMILES IDX 14 1 13 2 15 3 16 4 17 5 7 6 8 7 9 8 4 9 6 10 3 11 2 12 1 13
REMARK SMILES IDX 10 14 11 15 12 16 5 17
REMARK H PARENT 5 18
REMARK Flexibility Score: inf
ROOT
ATOM      1  C   UNL     1      65.285  10.468  16.809  1.00  0.00     0.011 C 
ATOM      2  C   UNL     1      66.314   9.366  16.516  1.00  0.00     0.019 C 
ATOM      3  C   UNL     1      67.694   9.934  16.154  1.00  0.00     0.007 C 
ATOM      4  C   UNL     1      68.258   9.061  15.029  1.00  0.00     0.011 C 
ATOM      5  C   UNL     1      67.282   7.897  14.858  1.00  0.00     0.047 C 
ATOM      6  C   UNL     1      65.931   8.451  15.343  1.00  0.00     0.081 C 
ATOM      7  C   UNL     1      64.951   7.328  15.706  1.00  0.00     0.046 C 
ATOM      8  C   UNL     1      64.156   7.136  14.415  1.00  0.00     0.054 C 
ATOM      9  C   UNL     1      64.786   8.193  13.459  1.00  0.00     0.173 C 
ATOM     10  O   UNL     1      65.336   9.184  14.292  1.00  0.00    -0.342 OA
ATOM     11  C   UNL     1      65.943   7.600  12.605  1.00  0.00     0.096 C 
ATOM     12  C   UNL     1      67.204   7.396  13.424  1.00  0.00    -0.066 C 
ATOM     13  C   UNL     1      68.257   6.775  12.874  1.00  0.00     0.008 C 
ENDROOT
BRANCH   8  14
ATOM     14  C   UNL     1      62.607   7.250  14.607  1.00  0.00    -0.009 C 
ATOM     15  C   UNL     1      61.875   6.109  13.885  1.00  0.00     0.008 C 
ATOM     16  C   UNL     1      62.147   7.328  16.078  1.00  0.00     0.008 C 
ENDBRANCH   8  14
BRANCH   9  17
ATOM     17  O   UNL     1      63.833   8.785  12.610  1.00  0.00    -0.365 OA
ATOM     18  H   UNL     1      62.939   8.463  12.898  1.00  0.00     0.214 HD
ENDBRANCH   9  17
TORSDOF 2
ENDMDL
MODEL 5
REMARK VINA RESULT:    -4.671      1.907      4.384
REMARK INTER + INTRA:          -5.374
REMARK INTER:                  -5.150
REMARK INTRA:                  -0.225
REMARK UNBOUND:                -0.294
REMARK SMILES C=C1C[C@]2(O)O[C@]3(C[C@H]2C(C)C)[C@H](C)CC[C@H]13
REMARK SMILES IDX 14 1 13 2 15 3 16 4 17 5 7 6 8 7 9 8 4 9 6 10 3 11 2 12 1 13
REMARK SMILES IDX 10 14 11 15 12 16 5 17
REMARK H PARENT 5 18
REMARK Flexibility Score: inf
ROOT
ATOM      1  C   UNL     1      65.611  10.497  15.979  1.00  0.00     0.011 C 
ATOM      2  C   UNL     1      66.418   9.359  15.337  1.00  0.00     0.019 C 
ATOM      3  C   UNL     1      66.820   8.280  16.353  1.00  0.00     0.007 C 
ATOM      4  C   UNL     1      68.246   7.843  16.004  1.00  0.00     0.011 C 
ATOM      5  C   UNL     1      68.603   8.547  14.695  1.00  0.00     0.047 C 
ATOM      6  C   UNL     1      67.734   9.816  14.689  1.00  0.00     0.081 C 
ATOM      7  C   UNL     1      67.579  10.396  13.277  1.00  0.00     0.046 C 
ATOM      8  C   UNL     1      68.701  11.431  13.207  1.00  0.00     0.054 C 
ATOM      9  C   UNL     1      69.366  11.319  14.611  1.00  0.00     0.173 C 
ATOM     10  O   UNL     1      68.372  10.808  15.466  1.00  0.00    -0.342 OA
ATOM     11  C   UNL     1      70.556  10.317  14.621  1.00  0.00     0.096 C 
ATOM     12  C   UNL     1      70.084   8.875  14.584  1.00  0.00    -0.066 C 
ATOM     13  C   UNL     1      70.981   7.887  14.459  1.00  0.00     0.008 C 
ENDROOT
BRANCH   8  14
ATOM     14  C   UNL     1      68.210  12.864  12.814  1.00  0.00    -0.009 C 
ATOM     15  C   UNL     1      69.180  13.531  11.828  1.00  0.00     0.008 C 
ATOM     16  C   UNL     1      66.771  12.921  12.262  1.00  0.00     0.008 C 
ENDBRANCH   8  14
BRANCH   9  17
ATOM     17  O   UNL     1      69.798  12.564  15.102  1.00  0.00    -0.365 OA
ATOM     18  H   UNL     1      69.139  12.859  15.784  1.00  0.00     0.214 HD
ENDBRANCH   9  17
TORSDOF 2
ENDMDL
MODEL 6
REMARK VINA RESULT:    -4.600      2.009      3.787
REMARK INTER + INTRA:          -5.297
REMARK INTER:                  -4.994
REMARK INTRA:                  -0.303
REMARK UNBOUND:                -0.294
REMARK SMILES C=C1C[C@]2(O)O[C@]3(C[C@H]2C(C)C)[C@H](C)CC[C@H]13
REMARK SMILES IDX 14 1 13 2 15 3 16 4 17 5 7 6 8 7 9 8 4 9 6 10 3 11 2 12 1 13
REMARK SMILES IDX 10 14 11 15 12 16 5 17
REMARK H PARENT 5 18
REMARK Flexibility Score: inf
ROOT
ATOM      1  C   UNL     1      67.501   7.185  12.743  1.00  0.00     0.011 C 
ATOM      2  C   UNL     1      67.322   8.583  12.132  1.00  0.00     0.019 C 
ATOM      3  C   UNL     1      68.351   8.877  11.031  1.00  0.00     0.007 C 
ATOM      4  C   UNL     1      68.773  10.340  11.191  1.00  0.00     0.011 C 
ATOM      5  C   UNL     1      67.871  10.933  12.273  1.00  0.00     0.047 C 
ATOM      6  C   UNL     1      67.471   9.730  13.144  1.00  0.00     0.081 C 
ATOM      7  C   UNL     1      66.210  10.016  13.969  1.00  0.00     0.046 C 
ATOM      8  C   UNL     1      66.777  10.508  15.301  1.00  0.00     0.054 C 
ATOM      9  C   UNL     1      68.316  10.435  15.071  1.00  0.00     0.173 C 
ATOM     10  O   UNL     1      68.508   9.470  14.066  1.00  0.00    -0.342 OA
ATOM     11  C   UNL     1      68.898  11.781  14.549  1.00  0.00     0.096 C 
ATOM     12  C   UNL     1      68.559  12.016  13.089  1.00  0.00    -0.066 C 
ATOM     13  C   UNL     1      68.875  13.186  12.517  1.00  0.00     0.008 C 
ENDROOT
BRANCH   8  14
ATOM     14  C   UNL     1      66.249   9.713  16.541  1.00  0.00    -0.009 C 
ATOM     15  C   UNL     1      64.942  10.318  17.070  1.00  0.00     0.008 C 
ATOM     16  C   UNL     1      66.074   8.198  16.305  1.00  0.00     0.008 C 
ENDBRANCH   8  14
BRANCH   9  17
ATOM     17  O   UNL     1      69.014  10.040  16.227  1.00  0.00    -0.365 OA
ATOM     18  H   UNL     1      69.969  10.275  16.092  1.00  0.00     0.214 HD
ENDBRANCH   9  17
TORSDOF 2
ENDMDL
MODEL 7
REMARK VINA RESULT:    -4.573      2.043      5.165
REMARK INTER + INTRA:          -5.268
REMARK INTER:                  -5.003
REMARK INTRA:                  -0.265
REMARK UNBOUND:                -0.294
REMARK SMILES C=C1C[C@]2(O)O[C@]3(C[C@H]2C(C)C)[C@H](C)CC[C@H]13
REMARK SMILES IDX 14 1 13 2 15 3 16 4 17 5 7 6 8 7 9 8 4 9 6 10 3 11 2 12 1 13
REMARK SMILES IDX 10 14 11 15 12 16 5 17
REMARK H PARENT 5 18
REMARK Flexibility Score: inf
ROOT
ATOM      1  C   UNL     1      68.033   7.859  15.857  1.00  0.00     0.011 C 
ATOM      2  C   UNL     1      68.116   9.391  15.791  1.00  0.00     0.019 C 
ATOM      3  C   UNL     1      66.761  10.038  15.467  1.00  0.00     0.007 C 
ATOM      4  C   UNL     1      67.036  11.203  14.512  1.00  0.00     0.011 C 
ATOM      5  C   UNL     1      68.556  11.331  14.416  1.00  0.00     0.047 C 
ATOM      6  C   UNL     1      69.083   9.918  14.719  1.00  0.00     0.081 C 
ATOM      7  C   UNL     1      70.556   9.936  15.147  1.00  0.00     0.046 C 
ATOM      8  C   UNL     1      71.298   9.691  13.833  1.00  0.00     0.054 C 
ATOM      9  C   UNL     1      70.139   9.554  12.801  1.00  0.00     0.173 C 
ATOM     10  O   UNL     1      69.014   9.145  13.539  1.00  0.00    -0.342 OA
ATOM     11  C   UNL     1      69.790  10.910  12.124  1.00  0.00     0.096 C 
ATOM     12  C   UNL     1      69.025  11.829  13.058  1.00  0.00    -0.066 C 
ATOM     13  C   UNL     1      68.756  13.086  12.677  1.00  0.00     0.008 C 
ENDROOT
BRANCH   8  14
ATOM     14  C   UNL     1      72.289   8.481  13.888  1.00  0.00    -0.009 C 
ATOM     15  C   UNL     1      73.674   8.877  13.355  1.00  0.00     0.008 C 
ATOM     16  C   UNL     1      72.424   7.824  15.277  1.00  0.00     0.008 C 
ENDBRANCH   8  14
BRANCH   9  17
ATOM     17  O   UNL     1      70.413   8.593  11.811  1.00  0.00    -0.365 OA
ATOM     18  H   UNL     1      69.859   8.817  11.018  1.00  0.00     0.214 HD
ENDBRANCH   9  17
TORSDOF 2
ENDMDL
MODEL 8
REMARK VINA RESULT:    -4.495      1.710      3.446
REMARK INTER + INTRA:          -5.183
REMARK INTER:                  -4.867
REMARK INTRA:                  -0.317
REMARK UNBOUND:                -0.294
REMARK SMILES C=C1C[C@]2(O)O[C@]3(C[C@H]2C(C)C)[C@H](C)CC[C@H]13
REMARK SMILES IDX 14 1 13 2 15 3 16 4 17 5 7 6 8 7 9 8 4 9 6 10 3 11 2 12 1 13
REMARK SMILES IDX 10 14 11 15 12 16 5 17
REMARK H PARENT 5 18
REMARK Flexibility Score: inf
ROOT
ATOM      1  C   UNL     1      65.559   6.357  13.225  1.00  0.00     0.011 C 
ATOM      2  C   UNL     1      66.175   7.625  12.616  1.00  0.00     0.019 C 
ATOM      3  C   UNL     1      67.340   7.312  11.665  1.00  0.00     0.007 C 
ATOM      4  C   UNL     1      68.411   8.381  11.901  1.00  0.00     0.011 C 
ATOM      5  C   UNL     1      67.799   9.399  12.863  1.00  0.00     0.047 C 
ATOM      6  C   UNL     1      66.750   8.600  13.655  1.00  0.00     0.081 C 
ATOM      7  C   UNL     1      65.709   9.516  14.311  1.00  0.00     0.046 C 
ATOM      8  C   UNL     1      66.278   9.733  15.713  1.00  0.00     0.054 C 
ATOM      9  C   UNL     1      67.592   8.896  15.688  1.00  0.00     0.173 C 
ATOM     10  O   UNL     1      67.400   7.910  14.703  1.00  0.00    -0.342 OA
ATOM     11  C   UNL     1      68.825   9.747  15.267  1.00  0.00     0.096 C 
ATOM     12  C   UNL     1      68.829  10.042  13.779  1.00  0.00    -0.066 C 
ATOM     13  C   UNL     1      69.752  10.870  13.271  1.00  0.00     0.008 C 
ENDROOT
BRANCH   8  14
ATOM     14  C   UNL     1      65.278   9.370  16.860  1.00  0.00    -0.009 C 
ATOM     15  C   UNL     1      64.443  10.591  17.272  1.00  0.00     0.008 C 
ATOM     16  C   UNL     1      64.353   8.175  16.551  1.00  0.00     0.008 C 
ENDBRANCH   8  14
BRANCH   9  17
ATOM     17  O   UNL     1      67.853   8.269  16.920  1.00  0.00    -0.365 OA
ATOM     18  H   UNL     1      67.479   7.351  16.871  1.00  0.00     0.214 HD
ENDBRANCH   9  17
TORSDOF 2
ENDMDL
MODEL 9
REMARK VINA RESULT:    -4.478      2.375      4.530
REMARK INTER + INTRA:          -5.165
REMARK INTER:                  -4.841
REMARK INTRA:                  -0.325
REMARK UNBOUND:                -0.294
REMARK SMILES C=C1C[C@]2(O)O[C@]3(C[C@H]2C(C)C)[C@H](C)CC[C@H]13
REMARK SMILES IDX 14 1 13 2 15 3 16 4 17 5 7 6 8 7 9 8 4 9 6 10 3 11 2 12 1 13
REMARK SMILES IDX 10 14 11 15 12 16 5 17
REMARK H PARENT 5 18
REMARK Flexibility Score: inf
ROOT
ATOM      1  C   UNL     1      67.795   7.083  13.829  1.00  0.00     0.011 C 
ATOM      2  C   UNL     1      67.192   8.454  14.168  1.00  0.00     0.019 C 
ATOM      3  C   UNL     1      68.060   9.246  15.159  1.00  0.00     0.007 C 
ATOM      4  C   UNL     1      67.105   9.952  16.126  1.00  0.00     0.011 C 
ATOM      5  C   UNL     1      65.693   9.702  15.597  1.00  0.00     0.047 C 
ATOM      6  C   UNL     1      65.801   8.381  14.816  1.00  0.00     0.081 C 
ATOM      7  C   UNL     1      64.646   8.208  13.822  1.00  0.00     0.046 C 
ATOM      8  C   UNL     1      63.626   7.396  14.619  1.00  0.00     0.054 C 
ATOM      9  C   UNL     1      64.337   7.195  15.991  1.00  0.00     0.173 C 
ATOM     10  O   UNL     1      65.715   7.305  15.728  1.00  0.00    -0.342 OA
ATOM     11  C   UNL     1      63.964   8.305  17.016  1.00  0.00     0.096 C 
ATOM     12  C   UNL     1      64.652   9.621  16.702  1.00  0.00    -0.066 C 
ATOM     13  C   UNL     1      64.342  10.715  17.412  1.00  0.00     0.008 C 
ENDROOT
BRANCH   8  14
ATOM     14  C   UNL     1      63.174   6.080  13.904  1.00  0.00    -0.009 C 
ATOM     15  C   UNL     1      61.875   6.298  13.114  1.00  0.00     0.008 C 
ATOM     16  C   UNL     1      64.245   5.441  12.997  1.00  0.00     0.008 C 
ENDBRANCH   8  14
BRANCH   9  17
ATOM     17  O   UNL     1      64.076   5.932  16.552  1.00  0.00    -0.365 OA
ATOM     18  H   UNL     1      63.192   5.634  16.212  1.00  0.00     0.214 HD
ENDBRANCH   9  17
TORSDOF 2
ENDMDL
