MODEL 1
REMARK VINA RESULT:    -1.492      0.000      0.000
REMARK INTER + INTRA:          -1.576
REMARK INTER:                  -1.754
REMARK INTRA:                   0.178
REMARK UNBOUND:                 0.178
REMARK SMILES O=c1c(O)c(-c2ccc(O)cc2)oc2cc(O)cc(O)c12
REMARK SMILES IDX 5 1 3 2 2 3 1 4 21 5 19 6 18 7 16 8 15 9 14 10 13 11 6 12
REMARK SMILES IDX 7 13 8 14 9 15 12 16 11 17 10 18 4 20 20 22 17 24
REMARK H PARENT 10 19 4 21 20 23 17 25
REMARK Flexibility Score: inf
ROOT
ATOM      1  C   UNL     1     -37.310 -35.603 -33.991  1.00  0.00     0.180 A 
ATOM      2  C   UNL     1     -35.915 -35.764 -34.033  1.00  0.00     0.208 A 
ATOM      3  C   UNL     1     -35.285 -35.922 -35.278  1.00  0.00     0.238 A 
ATOM      4  O   UNL     1     -34.042 -36.120 -35.304  1.00  0.00    -0.285 OA
ATOM      5  C   UNL     1     -36.054 -35.902 -36.465  1.00  0.00     0.111 A 
ATOM      6  C   UNL     1     -35.516 -36.014 -37.782  1.00  0.00     0.134 A 
ATOM      7  C   UNL     1     -36.384 -36.114 -38.877  1.00  0.00     0.093 A 
ATOM      8  C   UNL     1     -37.769 -36.040 -38.706  1.00  0.00     0.123 A 
ATOM      9  C   UNL     1     -38.302 -35.872 -37.431  1.00  0.00     0.094 A 
ATOM     10  C   UNL     1     -37.463 -35.805 -36.316  1.00  0.00     0.146 A 
ATOM     11  O   UNL     1     -38.013 -35.655 -35.117  1.00  0.00    -0.452 OA
ENDROOT
BRANCH   1  12
ATOM     12  C   UNL     1     -38.044 -35.405 -32.719  1.00  0.00     0.021 A 
ATOM     13  C   UNL     1     -37.705 -36.124 -31.558  1.00  0.00     0.016 A 
ATOM     14  C   UNL     1     -38.397 -35.903 -30.363  1.00  0.00     0.047 A 
ATOM     15  C   UNL     1     -39.426 -34.953 -30.310  1.00  0.00     0.115 A 
ATOM     16  C   UNL     1     -39.063 -34.440 -32.652  1.00  0.00     0.016 A 
ATOM     17  C   UNL     1     -39.753 -34.222 -31.455  1.00  0.00     0.047 A 
BRANCH  15  18
ATOM     18  O   UNL     1     -40.122 -34.725 -29.125  1.00  0.00    -0.508 OA
ATOM     19  H   UNL     1     -39.816 -34.027 -28.457  1.00  0.00     0.293 HD
ENDBRANCH  15  18
ENDBRANCH   1  12
BRANCH   2  20
ATOM     20  O   UNL     1     -35.176 -35.802 -32.847  1.00  0.00    -0.502 OA
ATOM     21  H   UNL     1     -34.509 -35.081 -32.598  1.00  0.00     0.293 HD
ENDBRANCH   2  20
BRANCH   6  22
ATOM     22  O   UNL     1     -34.149 -36.003 -38.069  1.00  0.00    -0.507 OA
ATOM     23  H   UNL     1     -33.757 -35.984 -38.999  1.00  0.00     0.293 HD
ENDBRANCH   6  22
BRANCH   8  24
ATOM     24  O   UNL     1     -38.624 -36.124 -39.803  1.00  0.00    -0.508 OA
ATOM     25  H   UNL     1     -38.792 -35.329 -40.408  1.00  0.00     0.293 HD
ENDBRANCH   8  24
TORSDOF 5
ENDMDL
