MODEL 1
REMARK VINA RESULT:    -4.676      0.000      0.000
REMARK INTER + INTRA:          -6.620
REMARK INTER:                  -6.590
REMARK INTRA:                  -0.030
REMARK UNBOUND:                -0.030
REMARK SMILES CC1=CCC(=C(C)C)C(=O)CC(C)=CCC1
REMARK SMILES IDX 12 1 14 2 13 3 15 4 16 5 2 6 1 7 3 8 11 10 9 11 10 12 5 13
REMARK SMILES IDX 6 14 7 15 8 16 4 17
REMARK H PARENT
REMARK Flexibility Score: 60.00
ROOT
ATOM      1  C   UNL     1       3.877  -1.113 -22.493  1.00  0.00    -0.070 C 
ATOM      2  C   UNL     1       2.854  -1.972 -22.241  1.00  0.00    -0.027 C 
ATOM      3  C   UNL     1       3.753   0.285 -21.934  1.00  0.00     0.039 C 
ENDROOT
BRANCH   2   4
ATOM      4  C   UNL     1       2.816  -3.446 -22.565  1.00  0.00     0.032 C 
BRANCH   4   5
ATOM      5  C   UNL     1       2.209  -3.755 -23.941  1.00  0.00     0.034 C 
BRANCH   5   6
ATOM      6  C   UNL     1       1.124  -2.770 -24.339  1.00  0.00    -0.077 C 
ATOM      7  C   UNL     1      -0.211  -2.851 -23.640  1.00  0.00     0.039 C 
ATOM      8  C   UNL     1       1.310  -1.752 -25.219  1.00  0.00    -0.023 CG0
ATOM      9  G   UNL     1       2.500  -1.521 -26.131  1.00  0.00     0.000 G0
ENDBRANCH   5   6
ENDBRANCH   4   5
ENDBRANCH   2   4
BRANCH   1  10
ATOM     10  C   UNL     1       5.067  -1.417 -23.395  1.00  0.00     0.111 C 
BRANCH  10  11
ATOM     11  C   UNL     1       4.715  -1.609 -24.847  1.00  0.00     0.163 C 
ATOM     12  O   UNL     1       5.297  -2.517 -25.498  1.00  0.00    -0.294 OA
BRANCH  11  13
ATOM     13  C   UNL     1       3.676  -0.780 -25.523  1.00  0.00    -0.002 C 
ATOM     14  C   UNL     1       3.822   0.564 -25.691  1.00  0.00    -0.069 C 
ATOM     15  C   UNL     1       2.746   1.392 -26.358  1.00  0.00     0.039 C 
ATOM     16  C   UNL     1       5.089   1.282 -25.284  1.00  0.00     0.039 C 
BRANCH  13  17
ATOM     17  C   UNL     1       2.508  -1.533 -26.141  1.00  0.00     0.066 CG0
ATOM     18  G   UNL     1       1.311  -1.746 -25.233  1.00  0.00     0.000 G0
ENDBRANCH  13  17
ENDBRANCH  11  13
ENDBRANCH  10  11
ENDBRANCH   1  10
TORSDOF 0
ENDMDL
MODEL 2
REMARK VINA RESULT:    -4.585      1.466      3.232
REMARK INTER + INTRA:          -6.491
REMARK INTER:                  -6.575
REMARK INTRA:                   0.084
REMARK UNBOUND:                -0.030
REMARK SMILES CC1=CCC(=C(C)C)C(=O)CC(C)=CCC1
REMARK SMILES IDX 12 1 14 2 13 3 15 4 16 5 2 6 1 7 3 8 11 10 9 11 10 12 5 13
REMARK SMILES IDX 6 14 7 15 8 16 4 17
REMARK H PARENT
REMARK Flexibility Score: 60.00
ROOT
ATOM      1  C   UNL     1       2.223  -2.880 -23.428  1.00  0.00    -0.070 C 
ATOM      2  C   UNL     1       1.200  -2.643 -24.292  1.00  0.00    -0.027 C 
ATOM      3  C   UNL     1       2.479  -4.317 -23.044  1.00  0.00     0.039 C 
ENDROOT
BRANCH   2   4
ATOM      4  C   UNL     1       0.848  -1.321 -24.930  1.00  0.00     0.032 C 
BRANCH   4   5
ATOM      5  C   UNL     1       1.467  -1.129 -26.322  1.00  0.00     0.034 C 
BRANCH   5   6
ATOM      6  C   UNL     1       2.011   0.272 -26.533  1.00  0.00    -0.077 C 
ATOM      7  C   UNL     1       1.100   1.314 -27.135  1.00  0.00     0.039 C 
ATOM      8  C   UNL     1       3.242   0.677 -26.124  1.00  0.00    -0.023 CG0
ATOM      9  G   UNL     1       4.377  -0.185 -25.607  1.00  0.00     0.000 G0
ENDBRANCH   5   6
ENDBRANCH   4   5
ENDBRANCH   2   4
BRANCH   1  10
ATOM     10  C   UNL     1       3.041  -1.798 -22.731  1.00  0.00     0.111 C 
BRANCH  10  11
ATOM     11  C   UNL     1       4.351  -1.479 -23.400  1.00  0.00     0.163 C 
ATOM     12  O   UNL     1       5.264  -2.348 -23.392  1.00  0.00    -0.294 OA
BRANCH  11  13
ATOM     13  C   UNL     1       4.587  -0.183 -24.098  1.00  0.00    -0.002 C 
ATOM     14  C   UNL     1       5.076   0.909 -23.445  1.00  0.00    -0.069 C 
ATOM     15  C   UNL     1       5.286   2.223 -24.164  1.00  0.00     0.039 C 
ATOM     16  C   UNL     1       5.497   0.844 -21.994  1.00  0.00     0.039 C 
BRANCH  13  17
ATOM     17  C   UNL     1       4.387  -0.180 -25.605  1.00  0.00     0.066 CG0
ATOM     18  G   UNL     1       3.248   0.683 -26.114  1.00  0.00     0.000 G0
ENDBRANCH  13  17
ENDBRANCH  11  13
ENDBRANCH  10  11
ENDBRANCH   1  10
TORSDOF 0
ENDMDL
MODEL 3
REMARK VINA RESULT:    -4.347      2.501      4.062
REMARK INTER + INTRA:          -6.155
REMARK INTER:                  -6.513
REMARK INTRA:                   0.358
REMARK UNBOUND:                -0.030
REMARK SMILES CC1=CCC(=C(C)C)C(=O)CC(C)=CCC1
REMARK SMILES IDX 12 1 14 2 13 3 15 4 16 5 2 6 1 7 3 8 11 10 9 11 10 12 5 13
REMARK SMILES IDX 6 14 7 15 8 16 4 17
REMARK H PARENT
REMARK Flexibility Score: 60.00
ROOT
ATOM      1  C   UNL     1       4.878  -0.928 -26.441  1.00  0.00    -0.070 C 
ATOM      2  C   UNL     1       5.030  -2.141 -25.845  1.00  0.00    -0.027 C 
ATOM      3  C   UNL     1       5.634  -0.696 -27.727  1.00  0.00     0.039 C 
ENDROOT
BRANCH   2   4
ATOM      4  C   UNL     1       4.272  -2.655 -24.644  1.00  0.00     0.032 C 
BRANCH   4   5
ATOM      5  C   UNL     1       4.834  -2.155 -23.305  1.00  0.00     0.034 C 
BRANCH   5   6
ATOM      6  C   UNL     1       3.872  -1.239 -22.571  1.00  0.00    -0.077 C 
ATOM      7  C   UNL     1       2.605  -1.831 -22.006  1.00  0.00     0.039 C 
ATOM      8  C   UNL     1       4.126   0.069 -22.303  1.00  0.00    -0.023 CG0
ATOM      9  G   UNL     1       5.253   0.925 -22.849  1.00  0.00     0.000 G0
ENDBRANCH   5   6
ENDBRANCH   4   5
ENDBRANCH   2   4
BRANCH   1  10
ATOM     10  C   UNL     1       4.110   0.245 -25.843  1.00  0.00     0.111 C 
BRANCH  10  11
ATOM     11  C   UNL     1       4.978   1.374 -25.354  1.00  0.00     0.163 C 
ATOM     12  O   UNL     1       5.786   1.910 -26.158  1.00  0.00    -0.294 OA
BRANCH  11  13
ATOM     13  C   UNL     1       4.886   1.894 -23.960  1.00  0.00    -0.002 C 
ATOM     14  C   UNL     1       4.382   3.130 -23.683  1.00  0.00    -0.069 C 
ATOM     15  C   UNL     1       4.319   3.651 -22.264  1.00  0.00     0.039 C 
ATOM     16  C   UNL     1       3.800   4.011 -24.766  1.00  0.00     0.039 C 
BRANCH  13  17
ATOM     17  C   UNL     1       5.252   0.922 -22.849  1.00  0.00     0.066 CG0
ATOM     18  G   UNL     1       4.114   0.070 -22.322  1.00  0.00     0.000 G0
ENDBRANCH  13  17
ENDBRANCH  11  13
ENDBRANCH  10  11
ENDBRANCH   1  10
TORSDOF 0
ENDMDL
MODEL 4
REMARK VINA RESULT:    -4.295      2.241      3.305
REMARK INTER + INTRA:          -6.082
REMARK INTER:                  -6.291
REMARK INTRA:                   0.209
REMARK UNBOUND:                -0.030
REMARK SMILES CC1=CCC(=C(C)C)C(=O)CC(C)=CCC1
REMARK SMILES IDX 12 1 14 2 13 3 15 4 16 5 2 6 1 7 3 8 11 10 9 11 10 12 5 13
REMARK SMILES IDX 6 14 7 15 8 16 4 17
REMARK H PARENT
REMARK Flexibility Score: 60.00
ROOT
ATOM      1  C   UNL     1       4.703   2.566 -22.685  1.00  0.00    -0.070 C 
ATOM      2  C   UNL     1       4.286   1.620 -21.802  1.00  0.00    -0.027 C 
ATOM      3  C   UNL     1       4.549   4.009 -22.268  1.00  0.00     0.039 C 
ENDROOT
BRANCH   2   4
ATOM      4  C   UNL     1       4.469   0.127 -21.930  1.00  0.00     0.032 C 
BRANCH   4   5
ATOM      5  C   UNL     1       3.184  -0.616 -22.326  1.00  0.00     0.034 C 
BRANCH   5   6
ATOM      6  C   UNL     1       3.385  -1.544 -23.510  1.00  0.00    -0.077 C 
ATOM      7  C   UNL     1       3.878  -2.946 -23.250  1.00  0.00     0.039 C 
ATOM      8  C   UNL     1       3.054  -1.223 -24.789  1.00  0.00    -0.023 CG0
ATOM      9  G   UNL     1       2.655   0.137 -25.329  1.00  0.00     0.000 G0
ENDBRANCH   5   6
ENDBRANCH   4   5
ENDBRANCH   2   4
BRANCH   1  10
ATOM     10  C   UNL     1       5.192   2.280 -24.101  1.00  0.00     0.111 C 
BRANCH  10  11
ATOM     11  C   UNL     1       4.102   2.245 -25.140  1.00  0.00     0.163 C 
ATOM     12  O   UNL     1       3.465   3.303 -25.387  1.00  0.00    -0.294 OA
BRANCH  11  13
ATOM     13  C   UNL     1       3.781   1.006 -25.905  1.00  0.00    -0.002 C 
ATOM     14  C   UNL     1       4.534   0.596 -26.964  1.00  0.00    -0.069 C 
ATOM     15  C   UNL     1       4.178  -0.650 -27.744  1.00  0.00     0.039 C 
ATOM     16  C   UNL     1       5.797   1.324 -27.369  1.00  0.00     0.039 C 
BRANCH  13  17
ATOM     17  C   UNL     1       2.652   0.147 -25.357  1.00  0.00     0.066 CG0
ATOM     18  G   UNL     1       3.066  -1.200 -24.797  1.00  0.00     0.000 G0
ENDBRANCH  13  17
ENDBRANCH  11  13
ENDBRANCH  10  11
ENDBRANCH   1  10
TORSDOF 0
ENDMDL
MODEL 5
REMARK VINA RESULT:    -4.246      3.572      5.338
REMARK INTER + INTRA:          -6.013
REMARK INTER:                  -5.925
REMARK INTRA:                  -0.089
REMARK UNBOUND:                -0.030
REMARK SMILES CC1=CCC(=C(C)C)C(=O)CC(C)=CCC1
REMARK SMILES IDX 12 1 14 2 13 3 15 4 16 5 2 6 1 7 3 8 11 10 9 11 10 12 5 13
REMARK SMILES IDX 6 14 7 15 8 16 4 17
REMARK H PARENT
REMARK Flexibility Score: 60.00
ROOT
ATOM      1  C   UNL     1       4.376   5.125 -22.758  1.00  0.00    -0.070 C 
ATOM      2  C   UNL     1       4.748   4.232 -21.802  1.00  0.00    -0.027 C 
ATOM      3  C   UNL     1       4.991   6.502 -22.688  1.00  0.00     0.039 C 
ENDROOT
BRANCH   2   4
ATOM      4  C   UNL     1       4.387   2.768 -21.749  1.00  0.00     0.032 C 
BRANCH   4   5
ATOM      5  C   UNL     1       5.181   1.904 -22.739  1.00  0.00     0.034 C 
BRANCH   5   6
ATOM      6  C   UNL     1       4.317   0.877 -23.448  1.00  0.00    -0.077 C 
ATOM      7  C   UNL     1       3.832  -0.318 -22.665  1.00  0.00     0.039 C 
ATOM      8  C   UNL     1       3.868   1.015 -24.723  1.00  0.00    -0.023 CG0
ATOM      9  G   UNL     1       4.295   2.047 -25.750  1.00  0.00     0.000 G0
ENDBRANCH   5   6
ENDBRANCH   4   5
ENDBRANCH   2   4
BRANCH   1  10
ATOM     10  C   UNL     1       3.299   4.877 -23.808  1.00  0.00     0.111 C 
BRANCH  10  11
ATOM     11  C   UNL     1       3.829   4.498 -25.166  1.00  0.00     0.163 C 
ATOM     12  O   UNL     1       4.701   5.232 -25.703  1.00  0.00    -0.294 OA
BRANCH  11  13
ATOM     13  C   UNL     1       3.377   3.267 -25.875  1.00  0.00    -0.002 C 
ATOM     14  C   UNL     1       2.278   3.261 -26.682  1.00  0.00    -0.069 C 
ATOM     15  C   UNL     1       1.821   1.996 -27.373  1.00  0.00     0.039 C 
ATOM     16  C   UNL     1       1.506   4.527 -26.981  1.00  0.00     0.039 C 
BRANCH  13  17
ATOM     17  C   UNL     1       4.283   2.051 -25.763  1.00  0.00     0.066 CG0
ATOM     18  G   UNL     1       3.883   1.030 -24.715  1.00  0.00     0.000 G0
ENDBRANCH  13  17
ENDBRANCH  11  13
ENDBRANCH  10  11
ENDBRANCH   1  10
TORSDOF 0
ENDMDL
MODEL 6
REMARK VINA RESULT:    -4.223      3.891      5.510
REMARK INTER + INTRA:          -5.982
REMARK INTER:                  -5.929
REMARK INTRA:                  -0.053
REMARK UNBOUND:                -0.030
REMARK SMILES CC1=CCC(=C(C)C)C(=O)CC(C)=CCC1
REMARK SMILES IDX 12 1 14 2 13 3 15 4 16 5 2 6 1 7 3 8 11 10 9 11 10 12 5 13
REMARK SMILES IDX 6 14 7 15 8 16 4 17
REMARK H PARENT
REMARK Flexibility Score: 60.00
ROOT
ATOM      1  C   UNL     1       4.790   1.269 -23.006  1.00  0.00    -0.070 C 
ATOM      2  C   UNL     1       4.175   0.412 -23.864  1.00  0.00    -0.027 C 
ATOM      3  C   UNL     1       5.879   0.698 -22.128  1.00  0.00     0.039 C 
ENDROOT
BRANCH   2   4
ATOM      4  C   UNL     1       3.171   0.774 -24.932  1.00  0.00     0.032 C 
BRANCH   4   5
ATOM      5  C   UNL     1       3.808   1.379 -26.191  1.00  0.00     0.034 C 
BRANCH   5   6
ATOM      6  C   UNL     1       3.060   2.598 -26.700  1.00  0.00    -0.077 C 
ATOM      7  C   UNL     1       1.749   2.389 -27.417  1.00  0.00     0.039 C 
ATOM      8  C   UNL     1       3.448   3.879 -26.464  1.00  0.00    -0.023 CG0
ATOM      9  G   UNL     1       4.764   4.356 -25.880  1.00  0.00     0.000 G0
ENDBRANCH   5   6
ENDBRANCH   4   5
ENDBRANCH   2   4
BRANCH   1  10
ATOM     10  C   UNL     1       4.377   2.719 -22.779  1.00  0.00     0.111 C 
BRANCH  10  11
ATOM     11  C   UNL     1       5.272   3.732 -23.442  1.00  0.00     0.163 C 
ATOM     12  O   UNL     1       6.507   3.703 -23.197  1.00  0.00    -0.294 OA
BRANCH  11  13
ATOM     13  C   UNL     1       4.744   4.744 -24.402  1.00  0.00    -0.002 C 
ATOM     14  C   UNL     1       4.370   5.992 -24.001  1.00  0.00    -0.069 C 
ATOM     15  C   UNL     1       3.813   6.996 -24.986  1.00  0.00     0.039 C 
ATOM     16  C   UNL     1       4.556   6.457 -22.574  1.00  0.00     0.039 C 
BRANCH  13  17
ATOM     17  C   UNL     1       4.774   4.361 -25.873  1.00  0.00     0.066 CG0
ATOM     18  G   UNL     1       3.461   3.867 -26.449  1.00  0.00     0.000 G0
ENDBRANCH  13  17
ENDBRANCH  11  13
ENDBRANCH  10  11
ENDBRANCH   1  10
TORSDOF 0
ENDMDL
MODEL 7
REMARK VINA RESULT:    -4.211      1.594      3.161
REMARK INTER + INTRA:          -5.965
REMARK INTER:                  -6.316
REMARK INTRA:                   0.351
REMARK UNBOUND:                -0.030
REMARK SMILES CC1=CCC(=C(C)C)C(=O)CC(C)=CCC1
REMARK SMILES IDX 12 1 14 2 13 3 15 4 16 5 2 6 1 7 3 8 11 10 9 11 10 12 5 13
REMARK SMILES IDX 6 14 7 15 8 16 4 17
REMARK H PARENT
REMARK Flexibility Score: 60.00
ROOT
ATOM      1  C   UNL     1       2.915  -0.244 -25.435  1.00  0.00    -0.070 C 
ATOM      2  C   UNL     1       1.646  -0.719 -25.543  1.00  0.00    -0.027 C 
ATOM      3  C   UNL     1       3.104   1.248 -25.571  1.00  0.00     0.039 C 
ENDROOT
BRANCH   2   4
ATOM      4  C   UNL     1       1.192  -2.139 -25.300  1.00  0.00     0.032 C 
BRANCH   4   5
ATOM      5  C   UNL     1       0.628  -2.369 -23.891  1.00  0.00     0.034 C 
BRANCH   5   6
ATOM      6  C   UNL     1       1.572  -3.159 -23.003  1.00  0.00    -0.077 C 
ATOM      7  C   UNL     1       1.453  -4.663 -22.986  1.00  0.00     0.039 C 
ATOM      8  C   UNL     1       2.587  -2.602 -22.291  1.00  0.00    -0.023 CG0
ATOM      9  G   UNL     1       2.848  -1.129 -22.046  1.00  0.00     0.000 G0
ENDBRANCH   5   6
ENDBRANCH   4   5
ENDBRANCH   2   4
BRANCH   1  10
ATOM     10  C   UNL     1       4.162  -1.113 -25.314  1.00  0.00     0.111 C 
BRANCH  10  11
ATOM     11  C   UNL     1       4.620  -1.352 -23.899  1.00  0.00     0.163 C 
ATOM     12  O   UNL     1       5.498  -2.229 -23.685  1.00  0.00    -0.294 OA
BRANCH  11  13
ATOM     13  C   UNL     1       4.089  -0.559 -22.753  1.00  0.00    -0.002 C 
ATOM     14  C   UNL     1       4.588   0.668 -22.432  1.00  0.00    -0.069 C 
ATOM     15  C   UNL     1       4.053   1.446 -21.251  1.00  0.00     0.039 C 
ATOM     16  C   UNL     1       5.647   1.340 -23.276  1.00  0.00     0.039 C 
BRANCH  13  17
ATOM     17  C   UNL     1       2.868  -1.127 -22.047  1.00  0.00     0.066 CG0
ATOM     18  G   UNL     1       2.592  -2.598 -22.294  1.00  0.00     0.000 G0
ENDBRANCH  13  17
ENDBRANCH  11  13
ENDBRANCH  10  11
ENDBRANCH   1  10
TORSDOF 0
ENDMDL
MODEL 8
REMARK VINA RESULT:    -4.158      1.269      4.121
REMARK INTER + INTRA:          -5.890
REMARK INTER:                  -6.049
REMARK INTRA:                   0.159
REMARK UNBOUND:                -0.030
REMARK SMILES CC1=CCC(=C(C)C)C(=O)CC(C)=CCC1
REMARK SMILES IDX 12 1 14 2 13 3 15 4 16 5 2 6 1 7 3 8 11 10 9 11 10 12 5 13
REMARK SMILES IDX 6 14 7 15 8 16 4 17
REMARK H PARENT
REMARK Flexibility Score: 60.00
ROOT
ATOM      1  C   UNL     1       4.329  -0.059 -22.675  1.00  0.00    -0.070 C 
ATOM      2  C   UNL     1       4.595   1.264 -22.844  1.00  0.00    -0.027 C 
ATOM      3  C   UNL     1       3.264  -0.421 -21.668  1.00  0.00     0.039 C 
ENDROOT
BRANCH   2   4
ATOM      4  C   UNL     1       5.502   1.873 -23.886  1.00  0.00     0.032 C 
BRANCH   4   5
ATOM      5  C   UNL     1       4.747   2.478 -25.078  1.00  0.00     0.034 C 
BRANCH   5   6
ATOM      6  C   UNL     1       4.820   1.609 -26.321  1.00  0.00    -0.077 C 
ATOM      7  C   UNL     1       5.844   1.949 -27.376  1.00  0.00     0.039 C 
ATOM      8  C   UNL     1       4.085   0.481 -26.502  1.00  0.00    -0.023 CG0
ATOM      9  G   UNL     1       2.922  -0.012 -25.662  1.00  0.00     0.000 G0
ENDBRANCH   5   6
ENDBRANCH   4   5
ENDBRANCH   2   4
BRANCH   1  10
ATOM     10  C   UNL     1       5.109  -1.194 -23.328  1.00  0.00     0.111 C 
BRANCH  10  11
ATOM     11  C   UNL     1       4.488  -1.730 -24.591  1.00  0.00     0.163 C 
ATOM     12  O   UNL     1       5.157  -2.522 -25.307  1.00  0.00    -0.294 OA
BRANCH  11  13
ATOM     13  C   UNL     1       3.098  -1.378 -24.998  1.00  0.00    -0.002 C 
ATOM     14  C   UNL     1       2.032  -2.166 -24.682  1.00  0.00    -0.069 C 
ATOM     15  C   UNL     1       0.632  -1.804 -25.125  1.00  0.00     0.039 C 
ATOM     16  C   UNL     1       2.184  -3.397 -23.818  1.00  0.00     0.039 C 
BRANCH  13  17
ATOM     17  C   UNL     1       2.911  -0.023 -25.664  1.00  0.00     0.066 CG0
ATOM     18  G   UNL     1       4.081   0.464 -26.497  1.00  0.00     0.000 G0
ENDBRANCH  13  17
ENDBRANCH  11  13
ENDBRANCH  10  11
ENDBRANCH   1  10
TORSDOF 0
ENDMDL
MODEL 9
REMARK VINA RESULT:    -4.133      2.135      4.157
REMARK INTER + INTRA:          -5.855
REMARK INTER:                  -6.008
REMARK INTRA:                   0.153
REMARK UNBOUND:                -0.030
REMARK SMILES CC1=CCC(=C(C)C)C(=O)CC(C)=CCC1
REMARK SMILES IDX 12 1 14 2 13 3 15 4 16 5 2 6 1 7 3 8 11 10 9 11 10 12 5 13
REMARK SMILES IDX 6 14 7 15 8 16 4 17
REMARK H PARENT
REMARK Flexibility Score: 60.00
ROOT
ATOM      1  C   UNL     1       3.314  -1.718 -23.548  1.00  0.00    -0.070 C 
ATOM      2  C   UNL     1       4.019  -1.318 -22.456  1.00  0.00    -0.027 C 
ATOM      3  C   UNL     1       3.345  -3.190 -23.883  1.00  0.00     0.039 C 
ENDROOT
BRANCH   2   4
ATOM      4  C   UNL     1       4.022   0.062 -21.843  1.00  0.00     0.032 C 
BRANCH   4   5
ATOM      5  C   UNL     1       5.206   0.930 -22.296  1.00  0.00     0.034 C 
BRANCH   5   6
ATOM      6  C   UNL     1       4.767   2.258 -22.886  1.00  0.00    -0.077 C 
ATOM      7  C   UNL     1       4.383   3.372 -21.944  1.00  0.00     0.039 C 
ATOM      8  C   UNL     1       4.791   2.541 -24.215  1.00  0.00    -0.023 CG0
ATOM      9  G   UNL     1       5.021   1.579 -25.364  1.00  0.00     0.000 G0
ENDBRANCH   5   6
ENDBRANCH   4   5
ENDBRANCH   2   4
BRANCH   1  10
ATOM     10  C   UNL     1       2.607  -0.779 -24.520  1.00  0.00     0.111 C 
BRANCH  10  11
ATOM     11  C   UNL     1       3.429  -0.393 -25.721  1.00  0.00     0.163 C 
ATOM     12  O   UNL     1       3.823  -1.298 -26.504  1.00  0.00    -0.294 OA
BRANCH  11  13
ATOM     13  C   UNL     1       3.761   1.029 -26.026  1.00  0.00    -0.002 C 
ATOM     14  C   UNL     1       2.919   1.828 -26.741  1.00  0.00    -0.069 C 
ATOM     15  C   UNL     1       3.284   3.260 -27.062  1.00  0.00     0.039 C 
ATOM     16  C   UNL     1       1.557   1.349 -27.187  1.00  0.00     0.039 C 
BRANCH  13  17
ATOM     17  C   UNL     1       5.021   1.582 -25.381  1.00  0.00     0.066 CG0
ATOM     18  G   UNL     1       4.800   2.547 -24.232  1.00  0.00     0.000 G0
ENDBRANCH  13  17
ENDBRANCH  11  13
ENDBRANCH  10  11
ENDBRANCH   1  10
TORSDOF 0
ENDMDL
