MODEL 1
REMARK VINA RESULT:    -4.875      0.000      0.000
REMARK INTER + INTRA:          -5.842
REMARK INTER:                  -5.872
REMARK INTRA:                   0.031
REMARK UNBOUND:                 0.031
REMARK SMILES OCCc1ccc(O)c(O)c1
REMARK SMILES IDX 3 1 4 2 5 3 6 4 7 5 11 6 9 7 8 8 10 10 2 12 1 13
REMARK H PARENT 8 9 10 11 1 14
REMARK Flexibility Score: inf
ROOT
ATOM      1  C   UNL     1       8.304  51.694  24.699  1.00  0.00     0.064 C 
ENDROOT
BRANCH   1   2
ATOM      2  C   UNL     1       9.770  51.358  24.608  1.00  0.00    -0.042 A 
ATOM      3  C   UNL     1      10.737  52.344  24.858  1.00  0.00     0.008 A 
ATOM      4  C   UNL     1      12.097  52.027  24.801  1.00  0.00     0.050 A 
ATOM      5  C   UNL     1      12.507  50.724  24.504  1.00  0.00     0.157 A 
ATOM      6  C   UNL     1      10.181  50.047  24.319  1.00  0.00     0.054 A 
ATOM      7  C   UNL     1      11.546  49.727  24.264  1.00  0.00     0.157 A 
BRANCH   5   8
ATOM      8  O   UNL     1      13.871  50.438  24.454  1.00  0.00    -0.504 OA
ATOM      9  H   UNL     1      14.376  50.375  23.578  1.00  0.00     0.293 HD
ENDBRANCH   5   8
BRANCH   7  10
ATOM     10  O   UNL     1      11.948  48.424  23.972  1.00  0.00    -0.504 OA
ATOM     11  H   UNL     1      11.305  47.643  24.037  1.00  0.00     0.293 HD
ENDBRANCH   7  10
ENDBRANCH   1   2
BRANCH   1  12
ATOM     12  C   UNL     1       7.744  52.118  23.338  1.00  0.00     0.161 C 
BRANCH  12  13
ATOM     13  O   UNL     1       7.733  51.038  22.443  1.00  0.00    -0.396 OA
ATOM     14  H   UNL     1       8.175  50.281  22.907  1.00  0.00     0.210 HD
ENDBRANCH  12  13
ENDBRANCH   1  12
TORSDOF 5
ENDMDL
MODEL 2
REMARK VINA RESULT:    -4.712      2.206      4.976
REMARK INTER + INTRA:          -5.646
REMARK INTER:                  -5.566
REMARK INTRA:                  -0.080
REMARK UNBOUND:                 0.031
REMARK SMILES OCCc1ccc(O)c(O)c1
REMARK SMILES IDX 3 1 4 2 5 3 6 4 7 5 11 6 9 7 8 8 10 10 2 12 1 13
REMARK H PARENT 8 9 10 11 1 14
REMARK Flexibility Score: inf
ROOT
ATOM      1  C   UNL     1      10.027  50.464  24.147  1.00  0.00     0.064 C 
ENDROOT
BRANCH   1   2
ATOM      2  C   UNL     1       9.326  51.399  23.196  1.00  0.00    -0.042 A 
ATOM      3  C   UNL     1       7.924  51.434  23.146  1.00  0.00     0.008 A 
ATOM      4  C   UNL     1       7.272  52.321  22.285  1.00  0.00     0.050 A 
ATOM      5  C   UNL     1       8.010  53.189  21.473  1.00  0.00     0.157 A 
ATOM      6  C   UNL     1      10.067  52.277  22.389  1.00  0.00     0.054 A 
ATOM      7  C   UNL     1       9.414  53.169  21.525  1.00  0.00     0.157 A 
BRANCH   5   8
ATOM      8  O   UNL     1       7.331  54.062  20.623  1.00  0.00    -0.504 OA
ATOM      9  H   UNL     1       7.710  54.342  19.726  1.00  0.00     0.293 HD
ENDBRANCH   5   8
BRANCH   7  10
ATOM     10  O   UNL     1      10.156  54.034  20.722  1.00  0.00    -0.504 OA
ATOM     11  H   UNL     1      11.163  53.954  20.643  1.00  0.00     0.293 HD
ENDBRANCH   7  10
ENDBRANCH   1   2
BRANCH   1  12
ATOM     12  C   UNL     1      11.511  50.324  23.798  1.00  0.00     0.161 C 
BRANCH  12  13
ATOM     13  O   UNL     1      11.849  48.981  23.576  1.00  0.00    -0.396 OA
ATOM     14  H   UNL     1      11.607  48.488  24.403  1.00  0.00     0.210 HD
ENDBRANCH  12  13
ENDBRANCH   1  12
TORSDOF 5
ENDMDL
MODEL 3
REMARK VINA RESULT:    -4.583      1.955      2.163
REMARK INTER + INTRA:          -5.490
REMARK INTER:                  -5.421
REMARK INTRA:                  -0.069
REMARK UNBOUND:                 0.031
REMARK SMILES OCCc1ccc(O)c(O)c1
REMARK SMILES IDX 3 1 4 2 5 3 6 4 7 5 11 6 9 7 8 8 10 10 2 12 1 13
REMARK H PARENT 8 9 10 11 1 14
REMARK Flexibility Score: inf
ROOT
ATOM      1  C   UNL     1       8.785  52.639  22.577  1.00  0.00     0.064 C 
ENDROOT
BRANCH   1   2
ATOM      2  C   UNL     1      10.023  52.026  23.178  1.00  0.00    -0.042 A 
ATOM      3  C   UNL     1      10.115  51.836  24.565  1.00  0.00     0.008 A 
ATOM      4  C   UNL     1      11.251  51.242  25.121  1.00  0.00     0.050 A 
ATOM      5  C   UNL     1      12.304  50.823  24.300  1.00  0.00     0.157 A 
ATOM      6  C   UNL     1      11.075  51.597  22.353  1.00  0.00     0.054 A 
ATOM      7  C   UNL     1      12.216  50.999  22.909  1.00  0.00     0.157 A 
BRANCH   5   8
ATOM      8  O   UNL     1      13.425  50.235  24.884  1.00  0.00    -0.504 OA
ATOM      9  H   UNL     1      14.255  50.011  24.348  1.00  0.00     0.293 HD
ENDBRANCH   5   8
BRANCH   7  10
ATOM     10  O   UNL     1      13.258  50.580  22.084  1.00  0.00    -0.504 OA
ATOM     11  H   UNL     1      13.083  50.144  21.186  1.00  0.00     0.293 HD
ENDBRANCH   7  10
ENDBRANCH   1   2
BRANCH   1  12
ATOM     12  C   UNL     1       9.006  53.016  21.110  1.00  0.00     0.161 C 
BRANCH  12  13
ATOM     13  O   UNL     1       8.164  54.072  20.732  1.00  0.00    -0.396 OA
ATOM     14  H   UNL     1       7.685  54.360  21.552  1.00  0.00     0.210 HD
ENDBRANCH  12  13
ENDBRANCH   1  12
TORSDOF 5
ENDMDL
MODEL 4
REMARK VINA RESULT:    -4.495      4.940      7.408
REMARK INTER + INTRA:          -5.384
REMARK INTER:                  -5.272
REMARK INTRA:                  -0.112
REMARK UNBOUND:                 0.031
REMARK SMILES OCCc1ccc(O)c(O)c1
REMARK SMILES IDX 3 1 4 2 5 3 6 4 7 5 11 6 9 7 8 8 10 10 2 12 1 13
REMARK H PARENT 8 9 10 11 1 14
REMARK Flexibility Score: inf
ROOT
ATOM      1  C   UNL     1       8.436  52.873  21.600  1.00  0.00     0.064 C 
ENDROOT
BRANCH   1   2
ATOM      2  C   UNL     1       7.147  52.943  20.822  1.00  0.00    -0.042 A 
ATOM      3  C   UNL     1       6.241  53.990  21.050  1.00  0.00     0.008 A 
ATOM      4  C   UNL     1       5.059  54.071  20.310  1.00  0.00     0.050 A 
ATOM      5  C   UNL     1       4.772  53.117  19.329  1.00  0.00     0.157 A 
ATOM      6  C   UNL     1       6.864  51.990  19.831  1.00  0.00     0.054 A 
ATOM      7  C   UNL     1       5.679  52.071  19.086  1.00  0.00     0.157 A 
BRANCH   5   8
ATOM      8  O   UNL     1       3.584  53.225  18.606  1.00  0.00    -0.504 OA
ATOM      9  H   UNL     1       2.889  53.931  18.816  1.00  0.00     0.293 HD
ENDBRANCH   5   8
BRANCH   7  10
ATOM     10  O   UNL     1       5.401  51.119  18.106  1.00  0.00    -0.504 OA
ATOM     11  H   UNL     1       5.753  51.212  17.160  1.00  0.00     0.293 HD
ENDBRANCH   7  10
ENDBRANCH   1   2
BRANCH   1  12
ATOM     12  C   UNL     1       9.651  53.019  20.679  1.00  0.00     0.161 C 
BRANCH  12  13
ATOM     13  O   UNL     1       9.638  54.259  20.025  1.00  0.00    -0.396 OA
ATOM     14  H   UNL     1       9.085  54.867  20.582  1.00  0.00     0.210 HD
ENDBRANCH  12  13
ENDBRANCH   1  12
TORSDOF 5
ENDMDL
MODEL 5
REMARK VINA RESULT:    -4.439      3.142      4.613
REMARK INTER + INTRA:          -5.317
REMARK INTER:                  -5.231
REMARK INTRA:                  -0.086
REMARK UNBOUND:                 0.031
REMARK SMILES OCCc1ccc(O)c(O)c1
REMARK SMILES IDX 3 1 4 2 5 3 6 4 7 5 11 6 9 7 8 8 10 10 2 12 1 13
REMARK H PARENT 8 9 10 11 1 14
REMARK Flexibility Score: inf
ROOT
ATOM      1  C   UNL     1       5.815  52.885  20.700  1.00  0.00     0.064 C 
ENDROOT
BRANCH   1   2
ATOM      2  C   UNL     1       7.158  52.800  21.377  1.00  0.00    -0.042 A 
ATOM      3  C   UNL     1       7.278  52.180  22.631  1.00  0.00     0.008 A 
ATOM      4  C   UNL     1       8.528  52.075  23.247  1.00  0.00     0.050 A 
ATOM      5  C   UNL     1       9.671  52.577  22.618  1.00  0.00     0.157 A 
ATOM      6  C   UNL     1       8.307  53.295  20.740  1.00  0.00     0.054 A 
ATOM      7  C   UNL     1       9.562  53.189  21.357  1.00  0.00     0.157 A 
BRANCH   5   8
ATOM      8  O   UNL     1      10.905  52.459  23.258  1.00  0.00    -0.504 OA
ATOM      9  H   UNL     1      11.012  51.952  24.128  1.00  0.00     0.293 HD
ENDBRANCH   5   8
BRANCH   7  10
ATOM     10  O   UNL     1      10.699  53.688  20.721  1.00  0.00    -0.504 OA
ATOM     11  H   UNL     1      11.005  54.644  20.854  1.00  0.00     0.293 HD
ENDBRANCH   7  10
ENDBRANCH   1   2
BRANCH   1  12
ATOM     12  C   UNL     1       5.938  52.662  19.189  1.00  0.00     0.161 C 
BRANCH  12  13
ATOM     13  O   UNL     1       5.562  51.357  18.843  1.00  0.00    -0.396 OA
ATOM     14  H   UNL     1       5.381  50.879  19.695  1.00  0.00     0.210 HD
ENDBRANCH  12  13
ENDBRANCH   1  12
TORSDOF 5
ENDMDL
MODEL 6
REMARK VINA RESULT:    -4.417      2.994      4.937
REMARK INTER + INTRA:          -5.290
REMARK INTER:                  -5.211
REMARK INTRA:                  -0.079
REMARK UNBOUND:                 0.031
REMARK SMILES OCCc1ccc(O)c(O)c1
REMARK SMILES IDX 3 1 4 2 5 3 6 4 7 5 11 6 9 7 8 8 10 10 2 12 1 13
REMARK H PARENT 8 9 10 11 1 14
REMARK Flexibility Score: inf
ROOT
ATOM      1  C   UNL     1      10.096  50.668  23.650  1.00  0.00     0.064 C 
ENDROOT
BRANCH   1   2
ATOM      2  C   UNL     1      10.067  51.658  22.514  1.00  0.00    -0.042 A 
ATOM      3  C   UNL     1      11.178  51.793  21.667  1.00  0.00     0.008 A 
ATOM      4  C   UNL     1      11.143  52.690  20.597  1.00  0.00     0.050 A 
ATOM      5  C   UNL     1       9.998  53.455  20.353  1.00  0.00     0.157 A 
ATOM      6  C   UNL     1       8.914  52.418  22.264  1.00  0.00     0.054 A 
ATOM      7  C   UNL     1       8.876  53.318  21.189  1.00  0.00     0.157 A 
BRANCH   5   8
ATOM      8  O   UNL     1       9.992  54.343  19.277  1.00  0.00    -0.504 OA
ATOM      9  H   UNL     1       9.644  54.078  18.363  1.00  0.00     0.293 HD
ENDBRANCH   5   8
BRANCH   7  10
ATOM     10  O   UNL     1       7.729  54.073  20.949  1.00  0.00    -0.504 OA
ATOM     11  H   UNL     1       7.564  54.519  20.054  1.00  0.00     0.293 HD
ENDBRANCH   7  10
ENDBRANCH   1   2
BRANCH   1  12
ATOM     12  C   UNL     1      11.533  50.303  24.034  1.00  0.00     0.161 C 
BRANCH  12  13
ATOM     13  O   UNL     1      11.844  48.997  23.630  1.00  0.00    -0.396 OA
ATOM     14  H   UNL     1      12.707  48.765  24.062  1.00  0.00     0.210 HD
ENDBRANCH  12  13
ENDBRANCH   1  12
TORSDOF 5
ENDMDL
MODEL 7
REMARK VINA RESULT:    -4.407      5.823      8.942
REMARK INTER + INTRA:          -5.278
REMARK INTER:                  -5.181
REMARK INTRA:                  -0.097
REMARK UNBOUND:                 0.031
REMARK SMILES OCCc1ccc(O)c(O)c1
REMARK SMILES IDX 3 1 4 2 5 3 6 4 7 5 11 6 9 7 8 8 10 10 2 12 1 13
REMARK H PARENT 8 9 10 11 1 14
REMARK Flexibility Score: inf
ROOT
ATOM      1  C   UNL     1       6.541  52.590  20.609  1.00  0.00     0.064 C 
ENDROOT
BRANCH   1   2
ATOM      2  C   UNL     1       5.773  53.041  19.393  1.00  0.00    -0.042 A 
ATOM      3  C   UNL     1       4.529  53.673  19.539  1.00  0.00     0.008 A 
ATOM      4  C   UNL     1       3.829  54.117  18.414  1.00  0.00     0.050 A 
ATOM      5  C   UNL     1       4.365  53.945  17.134  1.00  0.00     0.157 A 
ATOM      6  C   UNL     1       6.317  52.877  18.109  1.00  0.00     0.054 A 
ATOM      7  C   UNL     1       5.616  53.324  16.979  1.00  0.00     0.157 A 
BRANCH   5   8
ATOM      8  O   UNL     1       3.643  54.398  16.030  1.00  0.00    -0.504 OA
ATOM      9  H   UNL     1       2.703  54.765  16.117  1.00  0.00     0.293 HD
ENDBRANCH   5   8
BRANCH   7  10
ATOM     10  O   UNL     1       6.160  53.154  15.707  1.00  0.00    -0.504 OA
ATOM     11  H   UNL     1       5.626  53.357  14.870  1.00  0.00     0.293 HD
ENDBRANCH   7  10
ENDBRANCH   1   2
BRANCH   1  12
ATOM     12  C   UNL     1       8.051  52.733  20.398  1.00  0.00     0.161 C 
BRANCH  12  13
ATOM     13  O   UNL     1       8.479  54.034  20.700  1.00  0.00    -0.396 OA
ATOM     14  H   UNL     1       8.787  54.019  21.644  1.00  0.00     0.210 HD
ENDBRANCH  12  13
ENDBRANCH   1  12
TORSDOF 5
ENDMDL
MODEL 8
REMARK VINA RESULT:    -4.396      2.989      5.309
REMARK INTER + INTRA:          -5.265
REMARK INTER:                  -5.171
REMARK INTRA:                  -0.094
REMARK UNBOUND:                 0.031
REMARK SMILES OCCc1ccc(O)c(O)c1
REMARK SMILES IDX 3 1 4 2 5 3 6 4 7 5 11 6 9 7 8 8 10 10 2 12 1 13
REMARK H PARENT 8 9 10 11 1 14
REMARK Flexibility Score: inf
ROOT
ATOM      1  C   UNL     1      12.108  51.031  22.195  1.00  0.00     0.064 C 
ENDROOT
BRANCH   1   2
ATOM      2  C   UNL     1      10.890  51.829  21.808  1.00  0.00    -0.042 A 
ATOM      3  C   UNL     1       9.840  52.004  22.723  1.00  0.00     0.008 A 
ATOM      4  C   UNL     1       8.723  52.768  22.375  1.00  0.00     0.050 A 
ATOM      5  C   UNL     1       8.644  53.373  21.116  1.00  0.00     0.157 A 
ATOM      6  C   UNL     1      10.816  52.445  20.548  1.00  0.00     0.054 A 
ATOM      7  C   UNL     1       9.696  53.213  20.198  1.00  0.00     0.157 A 
BRANCH   5   8
ATOM      8  O   UNL     1       7.516  54.129  20.798  1.00  0.00    -0.504 OA
ATOM      9  H   UNL     1       6.586  53.861  21.098  1.00  0.00     0.293 HD
ENDBRANCH   5   8
BRANCH   7  10
ATOM     10  O   UNL     1       9.626  53.817  18.943  1.00  0.00    -0.504 OA
ATOM     11  H   UNL     1       8.752  54.172  18.572  1.00  0.00     0.293 HD
ENDBRANCH   7  10
ENDBRANCH   1   2
BRANCH   1  12
ATOM     12  C   UNL     1      11.965  50.445  23.602  1.00  0.00     0.161 C 
BRANCH  12  13
ATOM     13  O   UNL     1      11.895  49.045  23.558  1.00  0.00    -0.396 OA
ATOM     14  H   UNL     1      11.974  48.727  24.495  1.00  0.00     0.210 HD
ENDBRANCH  12  13
ENDBRANCH   1  12
TORSDOF 5
ENDMDL
MODEL 9
REMARK VINA RESULT:    -4.348      2.190      4.823
REMARK INTER + INTRA:          -5.207
REMARK INTER:                  -5.101
REMARK INTRA:                  -0.106
REMARK UNBOUND:                 0.031
REMARK SMILES OCCc1ccc(O)c(O)c1
REMARK SMILES IDX 3 1 4 2 5 3 6 4 7 5 11 6 9 7 8 8 10 10 2 12 1 13
REMARK H PARENT 8 9 10 11 1 14
REMARK Flexibility Score: inf
ROOT
ATOM      1  C   UNL     1      14.811  51.977  24.256  1.00  0.00     0.064 C 
ENDROOT
BRANCH   1   2
ATOM      2  C   UNL     1      13.401  51.496  24.028  1.00  0.00    -0.042 A 
ATOM      3  C   UNL     1      12.531  51.320  25.115  1.00  0.00     0.008 A 
ATOM      4  C   UNL     1      11.215  50.901  24.902  1.00  0.00     0.050 A 
ATOM      5  C   UNL     1      10.749  50.663  23.605  1.00  0.00     0.157 A 
ATOM      6  C   UNL     1      12.932  51.267  22.725  1.00  0.00     0.054 A 
ATOM      7  C   UNL     1      11.611  50.848  22.509  1.00  0.00     0.157 A 
BRANCH   5   8
ATOM      8  O   UNL     1       9.431  50.245  23.424  1.00  0.00    -0.504 OA
ATOM      9  H   UNL     1       8.711  50.871  23.084  1.00  0.00     0.293 HD
ENDBRANCH   5   8
BRANCH   7  10
ATOM     10  O   UNL     1      11.152  50.617  21.213  1.00  0.00    -0.504 OA
ATOM     11  H   UNL     1      11.720  50.135  20.527  1.00  0.00     0.293 HD
ENDBRANCH   7  10
ENDBRANCH   1   2
BRANCH   1  12
ATOM     12  C   UNL     1      15.601  50.993  25.124  1.00  0.00     0.161 C 
BRANCH  12  13
ATOM     13  O   UNL     1      16.003  49.877  24.376  1.00  0.00    -0.396 OA
ATOM     14  H   UNL     1      15.211  49.588  23.851  1.00  0.00     0.210 HD
ENDBRANCH  12  13
ENDBRANCH   1  12
TORSDOF 5
ENDMDL
