MODEL 1
REMARK VINA RESULT:    -2.612      0.000      0.000
REMARK INTER + INTRA:          -2.612
REMARK INTER:                  -2.612
REMARK INTRA:                   0.000
REMARK UNBOUND:                 0.000
REMARK SMILES CC1(C)O[C@]2(C)CC[C@H]1CC2
REMARK SMILES IDX 1 1 2 2 9 3 8 4 7 5 5 6 4 7 11 8 10 9 6 10 3 11
REMARK H PARENT
REMARK Flexibility Score: inf
ROOT
ATOM      1  C   UNL     1     130.317 144.359 139.018  1.00  0.00     0.042 C 
ATOM      2  C   UNL     1     130.968 145.759 139.018  1.00  0.00     0.066 C 
ATOM      3  C   UNL     1     132.453 145.683 139.545  1.00  0.00     0.021 C 
ATOM      4  C   UNL     1     132.427 145.203 141.015  1.00  0.00     0.009 C 
ATOM      5  C   UNL     1     131.444 146.086 141.822  1.00  0.00     0.035 C 
ATOM      6  C   UNL     1     130.882 147.214 140.910  1.00  0.00     0.066 C 
ATOM      7  O   UNL     1     130.160 146.627 139.827  1.00  0.00    -0.369 OA
ATOM      8  C   UNL     1     132.069 148.045 140.342  1.00  0.00     0.035 C 
ATOM      9  C   UNL     1     133.038 147.116 139.572  1.00  0.00     0.009 C 
ATOM     10  C   UNL     1     129.932 148.117 141.704  1.00  0.00     0.042 C 
ATOM     11  C   UNL     1     130.930 146.283 137.566  1.00  0.00     0.042 C 
ENDROOT
TORSDOF 0
ENDMDL
MODEL 2
REMARK VINA RESULT:    -2.565     11.176     12.689
REMARK INTER + INTRA:          -2.565
REMARK INTER:                  -2.565
REMARK INTRA:                   0.000
REMARK UNBOUND:                 0.000
REMARK SMILES CC1(C)O[C@]2(C)CC[C@H]1CC2
REMARK SMILES IDX 1 1 2 2 9 3 8 4 7 5 5 6 4 7 11 8 10 9 6 10 3 11
REMARK H PARENT
REMARK Flexibility Score: inf
ROOT
ATOM      1  C   UNL     1     143.832 146.965 137.495  1.00  0.00     0.042 C 
ATOM      2  C   UNL     1     143.221 146.555 138.852  1.00  0.00     0.066 C 
ATOM      3  C   UNL     1     144.171 146.975 140.040  1.00  0.00     0.021 C 
ATOM      4  C   UNL     1     145.503 146.201 139.899  1.00  0.00     0.009 C 
ATOM      5  C   UNL     1     145.200 144.690 139.746  1.00  0.00     0.035 C 
ATOM      6  C   UNL     1     143.669 144.444 139.877  1.00  0.00     0.066 C 
ATOM      7  O   UNL     1     142.991 145.139 138.829  1.00  0.00    -0.369 OA
ATOM      8  C   UNL     1     143.184 144.993 141.250  1.00  0.00     0.035 C 
ATOM      9  C   UNL     1     143.535 146.496 141.368  1.00  0.00     0.009 C 
ATOM     10  C   UNL     1     143.358 142.949 139.760  1.00  0.00     0.042 C 
ATOM     11  C   UNL     1     141.853 147.261 138.971  1.00  0.00     0.042 C 
ENDROOT
TORSDOF 0
ENDMDL
MODEL 3
REMARK VINA RESULT:    -2.561     10.601     11.782
REMARK INTER + INTRA:          -2.561
REMARK INTER:                  -2.561
REMARK INTRA:                   0.000
REMARK UNBOUND:                 0.000
REMARK SMILES CC1(C)O[C@]2(C)CC[C@H]1CC2
REMARK SMILES IDX 1 1 2 2 9 3 8 4 7 5 5 6 4 7 11 8 10 9 6 10 3 11
REMARK H PARENT
REMARK Flexibility Score: inf
ROOT
ATOM      1  C   UNL     1     143.077 143.887 139.691  1.00  0.00     0.042 C 
ATOM      2  C   UNL     1     142.760 145.183 138.916  1.00  0.00     0.066 C 
ATOM      3  C   UNL     1     144.091 145.901 138.464  1.00  0.00     0.021 C 
ATOM      4  C   UNL     1     144.876 146.319 139.730  1.00  0.00     0.009 C 
ATOM      5  C   UNL     1     143.939 147.113 140.672  1.00  0.00     0.035 C 
ATOM      6  C   UNL     1     142.551 147.305 139.994  1.00  0.00     0.066 C 
ATOM      7  O   UNL     1     141.961 146.025 139.760  1.00  0.00    -0.369 OA
ATOM      8  C   UNL     1     142.750 148.031 138.632  1.00  0.00     0.035 C 
ATOM      9  C   UNL     1     143.716 147.217 137.739  1.00  0.00     0.009 C 
ATOM     10  C   UNL     1     141.623 148.118 140.901  1.00  0.00     0.042 C 
ATOM     11  C   UNL     1     141.909 144.789 137.689  1.00  0.00     0.042 C 
ENDROOT
TORSDOF 0
ENDMDL
MODEL 4
REMARK VINA RESULT:    -2.560      1.832      3.183
REMARK INTER + INTRA:          -2.560
REMARK INTER:                  -2.560
REMARK INTRA:                   0.000
REMARK UNBOUND:                 0.000
REMARK SMILES CC1(C)O[C@]2(C)CC[C@H]1CC2
REMARK SMILES IDX 1 1 2 2 9 3 8 4 7 5 5 6 4 7 11 8 10 9 6 10 3 11
REMARK H PARENT
REMARK Flexibility Score: inf
ROOT
ATOM      1  C   UNL     1     132.039 144.543 138.067  1.00  0.00     0.042 C 
ATOM      2  C   UNL     1     131.219 145.573 138.873  1.00  0.00     0.066 C 
ATOM      3  C   UNL     1     130.605 144.908 140.165  1.00  0.00     0.021 C 
ATOM      4  C   UNL     1     129.620 143.800 139.725  1.00  0.00     0.009 C 
ATOM      5  C   UNL     1     128.620 144.385 138.698  1.00  0.00     0.035 C 
ATOM      6  C   UNL     1     128.880 145.909 138.521  1.00  0.00     0.066 C 
ATOM      7  O   UNL     1     130.200 146.105 138.012  1.00  0.00    -0.369 OA
ATOM      8  C   UNL     1     128.758 146.607 139.906  1.00  0.00     0.035 C 
ATOM      9  C   UNL     1     129.753 145.969 140.905  1.00  0.00     0.009 C 
ATOM     10  C   UNL     1     127.876 146.509 137.532  1.00  0.00     0.042 C 
ATOM     11  C   UNL     1     132.174 146.725 139.253  1.00  0.00     0.042 C 
ENDROOT
TORSDOF 0
ENDMDL
MODEL 5
REMARK VINA RESULT:    -2.556      1.633      2.726
REMARK INTER + INTRA:          -2.556
REMARK INTER:                  -2.556
REMARK INTRA:                   0.000
REMARK UNBOUND:                 0.000
REMARK SMILES CC1(C)O[C@]2(C)CC[C@H]1CC2
REMARK SMILES IDX 1 1 2 2 9 3 8 4 7 5 5 6 4 7 11 8 10 9 6 10 3 11
REMARK H PARENT
REMARK Flexibility Score: inf
ROOT
ATOM      1  C   UNL     1     133.474 144.708 139.455  1.00  0.00     0.042 C 
ATOM      2  C   UNL     1     132.070 144.793 138.819  1.00  0.00     0.066 C 
ATOM      3  C   UNL     1     131.735 146.278 138.405  1.00  0.00     0.021 C 
ATOM      4  C   UNL     1     131.699 147.147 139.684  1.00  0.00     0.009 C 
ATOM      5  C   UNL     1     130.764 146.484 140.724  1.00  0.00     0.035 C 
ATOM      6  C   UNL     1     130.103 145.218 140.106  1.00  0.00     0.066 C 
ATOM      7  O   UNL     1     131.120 144.277 139.764  1.00  0.00    -0.369 OA
ATOM      8  C   UNL     1     129.333 145.628 138.817  1.00  0.00     0.035 C 
ATOM      9  C   UNL     1     130.301 146.312 137.823  1.00  0.00     0.009 C 
ATOM     10  C   UNL     1     129.148 144.569 141.114  1.00  0.00     0.042 C 
ATOM     11  C   UNL     1     132.068 143.867 137.583  1.00  0.00     0.042 C 
ENDROOT
TORSDOF 0
ENDMDL
MODEL 6
REMARK VINA RESULT:    -2.526     10.518     12.048
REMARK INTER + INTRA:          -2.526
REMARK INTER:                  -2.526
REMARK INTRA:                   0.000
REMARK UNBOUND:                 0.000
REMARK SMILES CC1(C)O[C@]2(C)CC[C@H]1CC2
REMARK SMILES IDX 1 1 2 2 9 3 8 4 7 5 5 6 4 7 11 8 10 9 6 10 3 11
REMARK H PARENT
REMARK Flexibility Score: inf
ROOT
ATOM      1  C   UNL     1     145.473 145.845 139.793  1.00  0.00     0.042 C 
ATOM      2  C   UNL     1     143.986 145.479 139.598  1.00  0.00     0.066 C 
ATOM      3  C   UNL     1     143.523 145.794 138.122  1.00  0.00     0.021 C 
ATOM      4  C   UNL     1     143.643 147.319 137.887  1.00  0.00     0.009 C 
ATOM      5  C   UNL     1     142.908 148.069 139.024  1.00  0.00     0.035 C 
ATOM      6  C   UNL     1     142.220 147.044 139.972  1.00  0.00     0.066 C 
ATOM      7  O   UNL     1     143.216 146.209 140.564  1.00  0.00    -0.369 OA
ATOM      8  C   UNL     1     141.245 146.162 139.139  1.00  0.00     0.035 C 
ATOM      9  C   UNL     1     142.017 145.458 137.998  1.00  0.00     0.009 C 
ATOM     10  C   UNL     1     141.461 147.773 141.085  1.00  0.00     0.042 C 
ATOM     11  C   UNL     1     143.839 143.973 139.906  1.00  0.00     0.042 C 
ENDROOT
TORSDOF 0
ENDMDL
MODEL 7
REMARK VINA RESULT:    -2.509      1.480      3.240
REMARK INTER + INTRA:          -2.509
REMARK INTER:                  -2.509
REMARK INTRA:                   0.000
REMARK UNBOUND:                 0.000
REMARK SMILES CC1(C)O[C@]2(C)CC[C@H]1CC2
REMARK SMILES IDX 1 1 2 2 9 3 8 4 7 5 5 6 4 7 11 8 10 9 6 10 3 11
REMARK H PARENT
REMARK Flexibility Score: inf
ROOT
ATOM      1  C   UNL     1     128.881 145.358 139.293  1.00  0.00     0.042 C 
ATOM      2  C   UNL     1     130.269 145.757 139.837  1.00  0.00     0.066 C 
ATOM      3  C   UNL     1     131.029 146.677 138.804  1.00  0.00     0.021 C 
ATOM      4  C   UNL     1     131.272 145.864 137.511  1.00  0.00     0.009 C 
ATOM      5  C   UNL     1     131.946 144.519 137.874  1.00  0.00     0.035 C 
ATOM      6  C   UNL     1     132.236 144.471 139.403  1.00  0.00     0.066 C 
ATOM      7  O   UNL     1     131.002 144.555 140.117  1.00  0.00    -0.369 OA
ATOM      8  C   UNL     1     133.130 145.686 139.785  1.00  0.00     0.035 C 
ATOM      9  C   UNL     1     132.430 147.003 139.376  1.00  0.00     0.009 C 
ATOM     10  C   UNL     1     132.932 143.158 139.773  1.00  0.00     0.042 C 
ATOM     11  C   UNL     1     130.044 146.504 141.169  1.00  0.00     0.042 C 
ENDROOT
TORSDOF 0
ENDMDL
MODEL 8
REMARK VINA RESULT:    -2.487      1.529      3.332
REMARK INTER + INTRA:          -2.487
REMARK INTER:                  -2.487
REMARK INTRA:                   0.000
REMARK UNBOUND:                 0.000
REMARK SMILES CC1(C)O[C@]2(C)CC[C@H]1CC2
REMARK SMILES IDX 1 1 2 2 9 3 8 4 7 5 5 6 4 7 11 8 10 9 6 10 3 11
REMARK H PARENT
REMARK Flexibility Score: inf
ROOT
ATOM      1  C   UNL     1     132.527 147.374 139.744  1.00  0.00     0.042 C 
ATOM      2  C   UNL     1     132.060 145.903 139.721  1.00  0.00     0.066 C 
ATOM      3  C   UNL     1     131.968 145.371 138.238  1.00  0.00     0.021 C 
ATOM      4  C   UNL     1     130.893 146.193 137.489  1.00  0.00     0.009 C 
ATOM      5  C   UNL     1     129.583 146.191 138.314  1.00  0.00     0.035 C 
ATOM      6  C   UNL     1     129.755 145.291 139.571  1.00  0.00     0.066 C 
ATOM      7  O   UNL     1     130.794 145.826 140.393  1.00  0.00    -0.369 OA
ATOM      8  C   UNL     1     130.152 143.856 139.116  1.00  0.00     0.035 C 
ATOM      9  C   UNL     1     131.447 143.913 138.272  1.00  0.00     0.009 C 
ATOM     10  C   UNL     1     128.456 145.253 140.381  1.00  0.00     0.042 C 
ATOM     11  C   UNL     1     133.085 145.082 140.532  1.00  0.00     0.042 C 
ENDROOT
TORSDOF 0
ENDMDL
MODEL 9
REMARK VINA RESULT:    -2.485      1.365      3.509
REMARK INTER + INTRA:          -2.485
REMARK INTER:                  -2.485
REMARK INTRA:                   0.000
REMARK UNBOUND:                 0.000
REMARK SMILES CC1(C)O[C@]2(C)CC[C@H]1CC2
REMARK SMILES IDX 1 1 2 2 9 3 8 4 7 5 5 6 4 7 11 8 10 9 6 10 3 11
REMARK H PARENT
REMARK Flexibility Score: inf
ROOT
ATOM      1  C   UNL     1     130.491 147.105 141.061  1.00  0.00     0.042 C 
ATOM      2  C   UNL     1     131.293 146.499 139.889  1.00  0.00     0.066 C 
ATOM      3  C   UNL     1     130.442 146.521 138.561  1.00  0.00     0.021 C 
ATOM      4  C   UNL     1     129.197 145.624 138.761  1.00  0.00     0.009 C 
ATOM      5  C   UNL     1     129.648 144.237 139.279  1.00  0.00     0.035 C 
ATOM      6  C   UNL     1     131.202 144.176 139.338  1.00  0.00     0.066 C 
ATOM      7  O   UNL     1     131.676 145.164 140.254  1.00  0.00    -0.369 OA
ATOM      8  C   UNL     1     131.773 144.476 137.922  1.00  0.00     0.035 C 
ATOM      9  C   UNL     1     131.273 145.857 137.436  1.00  0.00     0.009 C 
ATOM     10  C   UNL     1     131.663 142.796 139.818  1.00  0.00     0.042 C 
ATOM     11  C   UNL     1     132.578 147.339 139.728  1.00  0.00     0.042 C 
ENDROOT
TORSDOF 0
ENDMDL
