MODEL 1
REMARK VINA RESULT:    -3.478      0.000      0.000
REMARK INTER + INTRA:          -4.897
REMARK INTER:                  -4.698
REMARK INTRA:                  -0.198
REMARK UNBOUND:                -0.198
REMARK SMILES CCCCCCCC(=O)[O-]
REMARK SMILES IDX 5 1 6 2 7 3 8 4 9 5 10 6 4 7 3 8 2 9 1 10
REMARK H PARENT
REMARK Flexibility Score: inf
ROOT
ATOM      1  C   UNL     1      -3.640   4.861   1.553  1.00  0.00     0.000 C 
ENDROOT
BRANCH   1   2
ATOM      2  C   UNL     1      -3.359   4.200   2.914  1.00  0.00     0.006 C 
BRANCH   2   3
ATOM      3  C   UNL     1      -3.691   2.702   2.912  1.00  0.00     0.053 C 
BRANCH   3   4
ATOM      4  C   UNL     1      -3.304   2.044   4.201  1.00  0.00     0.041 C 
ATOM      5  O   UNL     1      -2.403   1.166   4.218  1.00  0.00    -0.550 OA
ATOM      6  O   UNL     1      -3.917   2.425   5.389  1.00  0.00    -0.550 OA
ENDBRANCH   3   4
ENDBRANCH   2   3
ENDBRANCH   1   2
BRANCH   1   7
ATOM      7  C   UNL     1      -3.421   6.383   1.590  1.00  0.00     0.000 C 
BRANCH   7   8
ATOM      8  C   UNL     1      -3.996   7.113   0.355  1.00  0.00    -0.000 C 
BRANCH   8   9
ATOM      9  C   UNL     1      -5.031   6.281  -0.421  1.00  0.00    -0.003 C 
ATOM     10  C   UNL     1      -4.643   6.064  -1.882  1.00  0.00     0.004 C 
ENDBRANCH   8   9
ENDBRANCH   7   8
ENDBRANCH   1   7
TORSDOF 6
ENDMDL
MODEL 2
REMARK VINA RESULT:    -3.390      1.477      2.581
REMARK INTER + INTRA:          -4.777
REMARK INTER:                  -4.604
REMARK INTRA:                  -0.173
REMARK UNBOUND:                -0.198
REMARK SMILES CCCCCCCC(=O)[O-]
REMARK SMILES IDX 5 1 6 2 7 3 8 4 9 5 10 6 4 7 3 8 2 9 1 10
REMARK H PARENT
REMARK Flexibility Score: inf
ROOT
ATOM      1  C   UNL     1      -3.661   4.705   1.574  1.00  0.00     0.000 C 
ENDROOT
BRANCH   1   2
ATOM      2  C   UNL     1      -3.357   4.089   2.952  1.00  0.00     0.006 C 
BRANCH   2   3
ATOM      3  C   UNL     1      -3.644   2.582   2.990  1.00  0.00     0.053 C 
BRANCH   3   4
ATOM      4  C   UNL     1      -3.208   1.965   4.283  1.00  0.00     0.041 C 
ATOM      5  O   UNL     1      -2.408   0.993   4.283  1.00  0.00    -0.550 OA
ATOM      6  O   UNL     1      -3.659   2.485   5.490  1.00  0.00    -0.550 OA
ENDBRANCH   3   4
ENDBRANCH   2   3
ENDBRANCH   1   2
BRANCH   1   7
ATOM      7  C   UNL     1      -4.259   6.118   1.689  1.00  0.00     0.000 C 
BRANCH   7   8
ATOM      8  C   UNL     1      -3.240   7.174   2.173  1.00  0.00    -0.000 C 
BRANCH   8   9
ATOM      9  C   UNL     1      -3.615   7.816   3.520  1.00  0.00    -0.003 C 
ATOM     10  C   UNL     1      -3.345   9.318   3.558  1.00  0.00     0.004 C 
ENDBRANCH   8   9
ENDBRANCH   7   8
ENDBRANCH   1   7
TORSDOF 6
ENDMDL
MODEL 3
REMARK VINA RESULT:    -3.302      3.067      5.474
REMARK INTER + INTRA:          -4.658
REMARK INTER:                  -4.445
REMARK INTRA:                  -0.213
REMARK UNBOUND:                -0.198
REMARK SMILES CCCCCCCC(=O)[O-]
REMARK SMILES IDX 5 1 6 2 7 3 8 4 9 5 10 6 4 7 3 8 2 9 1 10
REMARK H PARENT
REMARK Flexibility Score: inf
ROOT
ATOM      1  C   UNL     1      -4.319   5.278   1.545  1.00  0.00     0.000 C 
ENDROOT
BRANCH   1   2
ATOM      2  C   UNL     1      -3.810   6.660   1.095  1.00  0.00     0.006 C 
BRANCH   2   3
ATOM      3  C   UNL     1      -2.857   7.289   2.120  1.00  0.00     0.053 C 
BRANCH   3   4
ATOM      4  C   UNL     1      -3.582   8.187   3.075  1.00  0.00     0.041 C 
ATOM      5  O   UNL     1      -3.628   9.428   2.867  1.00  0.00    -0.550 OA
ATOM      6  O   UNL     1      -4.234   7.650   4.178  1.00  0.00    -0.550 OA
ENDBRANCH   3   4
ENDBRANCH   2   3
ENDBRANCH   1   2
BRANCH   1   7
ATOM      7  C   UNL     1      -3.331   4.576   2.492  1.00  0.00     0.000 C 
BRANCH   7   8
ATOM      8  C   UNL     1      -3.656   3.082   2.715  1.00  0.00    -0.000 C 
BRANCH   8   9
ATOM      9  C   UNL     1      -3.568   2.649   4.188  1.00  0.00    -0.003 C 
ATOM     10  C   UNL     1      -3.118   1.199   4.355  1.00  0.00     0.004 C 
ENDBRANCH   8   9
ENDBRANCH   7   8
ENDBRANCH   1   7
TORSDOF 6
ENDMDL
MODEL 4
REMARK VINA RESULT:    -3.134      3.767      6.021
REMARK INTER + INTRA:          -4.432
REMARK INTER:                  -4.321
REMARK INTRA:                  -0.111
REMARK UNBOUND:                -0.198
REMARK SMILES CCCCCCCC(=O)[O-]
REMARK SMILES IDX 5 1 6 2 7 3 8 4 9 5 10 6 4 7 3 8 2 9 1 10
REMARK H PARENT
REMARK Flexibility Score: inf
ROOT
ATOM      1  C   UNL     1      -3.464   5.131   1.380  1.00  0.00     0.000 C 
ENDROOT
BRANCH   1   2
ATOM      2  C   UNL     1      -4.525   6.180   1.004  1.00  0.00     0.006 C 
BRANCH   2   3
ATOM      3  C   UNL     1      -4.125   6.990  -0.237  1.00  0.00     0.053 C 
BRANCH   3   4
ATOM      4  C   UNL     1      -4.627   6.358  -1.499  1.00  0.00     0.041 C 
ATOM      5  O   UNL     1      -3.965   5.444  -2.056  1.00  0.00    -0.550 OA
ATOM      6  O   UNL     1      -5.842   6.757  -2.042  1.00  0.00    -0.550 OA
ENDBRANCH   3   4
ENDBRANCH   2   3
ENDBRANCH   1   2
BRANCH   1   7
ATOM      7  C   UNL     1      -3.685   4.563   2.793  1.00  0.00     0.000 C 
BRANCH   7   8
ATOM      8  C   UNL     1      -3.485   3.032   2.874  1.00  0.00    -0.000 C 
BRANCH   8   9
ATOM      9  C   UNL     1      -3.529   2.484   4.310  1.00  0.00    -0.003 C 
ATOM     10  C   UNL     1      -3.175   1.000   4.390  1.00  0.00     0.004 C 
ENDBRANCH   8   9
ENDBRANCH   7   8
ENDBRANCH   1   7
TORSDOF 6
ENDMDL
MODEL 5
REMARK VINA RESULT:    -2.956      3.712      6.056
REMARK INTER + INTRA:          -4.191
REMARK INTER:                  -4.071
REMARK INTRA:                  -0.120
REMARK UNBOUND:                -0.198
REMARK SMILES CCCCCCCC(=O)[O-]
REMARK SMILES IDX 5 1 6 2 7 3 8 4 9 5 10 6 4 7 3 8 2 9 1 10
REMARK H PARENT
REMARK Flexibility Score: inf
ROOT
ATOM      1  C   UNL     1      -3.510   5.153   1.572  1.00  0.00     0.000 C 
ENDROOT
BRANCH   1   2
ATOM      2  C   UNL     1      -4.539   6.257   1.271  1.00  0.00     0.006 C 
BRANCH   2   3
ATOM      3  C   UNL     1      -4.017   7.273   0.246  1.00  0.00     0.053 C 
BRANCH   3   4
ATOM      4  C   UNL     1      -3.464   8.498   0.909  1.00  0.00     0.041 C 
ATOM      5  O   UNL     1      -4.242   9.379   1.361  1.00  0.00    -0.550 OA
ATOM      6  O   UNL     1      -2.091   8.650   1.057  1.00  0.00    -0.550 OA
ENDBRANCH   3   4
ENDBRANCH   2   3
ENDBRANCH   1   2
BRANCH   1   7
ATOM      7  C   UNL     1      -3.741   4.503   2.948  1.00  0.00     0.000 C 
BRANCH   7   8
ATOM      8  C   UNL     1      -3.546   2.970   2.939  1.00  0.00    -0.000 C 
BRANCH   8   9
ATOM      9  C   UNL     1      -3.506   2.350   4.346  1.00  0.00    -0.003 C 
ATOM     10  C   UNL     1      -3.187   0.856   4.327  1.00  0.00     0.004 C 
ENDBRANCH   8   9
ENDBRANCH   7   8
ENDBRANCH   1   7
TORSDOF 6
ENDMDL
MODEL 6
REMARK VINA RESULT:    -2.746      3.123      5.278
REMARK INTER + INTRA:          -3.908
REMARK INTER:                  -3.700
REMARK INTRA:                  -0.208
REMARK UNBOUND:                -0.198
REMARK SMILES CCCCCCCC(=O)[O-]
REMARK SMILES IDX 5 1 6 2 7 3 8 4 9 5 10 6 4 7 3 8 2 9 1 10
REMARK H PARENT
REMARK Flexibility Score: inf
ROOT
ATOM      1  C   UNL     1      -3.860   5.979   2.035  1.00  0.00     0.000 C 
ENDROOT
BRANCH   1   2
ATOM      2  C   UNL     1      -4.651   6.580   0.860  1.00  0.00     0.006 C 
BRANCH   2   3
ATOM      3  C   UNL     1      -6.085   6.956   1.258  1.00  0.00     0.053 C 
BRANCH   3   4
ATOM      4  C   UNL     1      -6.995   5.766   1.247  1.00  0.00     0.041 C 
ATOM      5  O   UNL     1      -6.935   4.931   0.307  1.00  0.00    -0.550 OA
ATOM      6  O   UNL     1      -7.888   5.562   2.292  1.00  0.00    -0.550 OA
ENDBRANCH   3   4
ENDBRANCH   2   3
ENDBRANCH   1   2
BRANCH   1   7
ATOM      7  C   UNL     1      -3.592   4.475   1.845  1.00  0.00     0.000 C 
BRANCH   7   8
ATOM      8  C   UNL     1      -3.136   3.768   3.141  1.00  0.00    -0.000 C 
BRANCH   8   9
ATOM      9  C   UNL     1      -3.707   2.349   3.299  1.00  0.00    -0.003 C 
ATOM     10  C   UNL     1      -3.195   1.638   4.550  1.00  0.00     0.004 C 
ENDBRANCH   8   9
ENDBRANCH   7   8
ENDBRANCH   1   7
TORSDOF 6
ENDMDL
MODEL 7
REMARK VINA RESULT:    -2.680      6.338      8.730
REMARK INTER + INTRA:          -3.819
REMARK INTER:                  -3.554
REMARK INTRA:                  -0.265
REMARK UNBOUND:                -0.198
REMARK SMILES CCCCCCCC(=O)[O-]
REMARK SMILES IDX 5 1 6 2 7 3 8 4 9 5 10 6 4 7 3 8 2 9 1 10
REMARK H PARENT
REMARK Flexibility Score: inf
ROOT
ATOM      1  C   UNL     1      -0.869   6.581   8.607  1.00  0.00     0.000 C 
ENDROOT
BRANCH   1   2
ATOM      2  C   UNL     1      -1.687   7.742   8.017  1.00  0.00     0.006 C 
BRANCH   2   3
ATOM      3  C   UNL     1      -3.128   7.329   7.689  1.00  0.00     0.053 C 
BRANCH   3   4
ATOM      4  C   UNL     1      -3.602   7.934   6.403  1.00  0.00     0.041 C 
ATOM      5  O   UNL     1      -4.759   7.684   5.973  1.00  0.00    -0.550 OA
ATOM      6  O   UNL     1      -2.777   8.799   5.695  1.00  0.00    -0.550 OA
ENDBRANCH   3   4
ENDBRANCH   2   3
ENDBRANCH   1   2
BRANCH   1   7
ATOM      7  C   UNL     1      -1.744   5.355   8.921  1.00  0.00     0.000 C 
BRANCH   7   8
ATOM      8  C   UNL     1      -0.980   4.233   9.662  1.00  0.00    -0.000 C 
BRANCH   8   9
ATOM      9  C   UNL     1       0.485   4.588   9.966  1.00  0.00    -0.003 C 
ATOM     10  C   UNL     1       1.431   3.401   9.793  1.00  0.00     0.004 C 
ENDBRANCH   8   9
ENDBRANCH   7   8
ENDBRANCH   1   7
TORSDOF 6
ENDMDL
MODEL 8
REMARK VINA RESULT:    -2.675      6.133      8.444
REMARK INTER + INTRA:          -3.811
REMARK INTER:                  -3.612
REMARK INTRA:                  -0.199
REMARK UNBOUND:                -0.198
REMARK SMILES CCCCCCCC(=O)[O-]
REMARK SMILES IDX 5 1 6 2 7 3 8 4 9 5 10 6 4 7 3 8 2 9 1 10
REMARK H PARENT
REMARK Flexibility Score: inf
ROOT
ATOM      1  C   UNL     1      -1.188   7.540   8.260  1.00  0.00     0.000 C 
ENDROOT
BRANCH   1   2
ATOM      2  C   UNL     1      -2.604   7.280   7.714  1.00  0.00     0.006 C 
BRANCH   2   3
ATOM      3  C   UNL     1      -3.128   8.456   6.879  1.00  0.00     0.053 C 
BRANCH   3   4
ATOM      4  C   UNL     1      -4.286   8.055   6.018  1.00  0.00     0.041 C 
ATOM      5  O   UNL     1      -4.118   7.843   4.789  1.00  0.00    -0.550 OA
ATOM      6  O   UNL     1      -5.545   7.884   6.580  1.00  0.00    -0.550 OA
ENDBRANCH   3   4
ENDBRANCH   2   3
ENDBRANCH   1   2
BRANCH   1   7
ATOM      7  C   UNL     1      -0.594   6.298   8.947  1.00  0.00     0.000 C 
BRANCH   7   8
ATOM      8  C   UNL     1      -1.598   5.128   9.067  1.00  0.00    -0.000 C 
BRANCH   8   9
ATOM      9  C   UNL     1      -1.243   4.129  10.181  1.00  0.00    -0.003 C 
ATOM     10  C   UNL     1       0.160   3.545  10.030  1.00  0.00     0.004 C 
ENDBRANCH   8   9
ENDBRANCH   7   8
ENDBRANCH   1   7
TORSDOF 6
ENDMDL
MODEL 9
REMARK VINA RESULT:    -2.596      7.628      9.133
REMARK INTER + INTRA:          -3.705
REMARK INTER:                  -3.311
REMARK INTRA:                  -0.394
REMARK UNBOUND:                -0.198
REMARK SMILES CCCCCCCC(=O)[O-]
REMARK SMILES IDX 5 1 6 2 7 3 8 4 9 5 10 6 4 7 3 8 2 9 1 10
REMARK H PARENT
REMARK Flexibility Score: inf
ROOT
ATOM      1  C   UNL     1      -0.199   6.281   9.191  1.00  0.00     0.000 C 
ENDROOT
BRANCH   1   2
ATOM      2  C   UNL     1      -1.624   6.097   8.637  1.00  0.00     0.006 C 
BRANCH   2   3
ATOM      3  C   UNL     1      -2.165   4.683   8.883  1.00  0.00     0.053 C 
BRANCH   3   4
ATOM      4  C   UNL     1      -3.356   4.693   9.791  1.00  0.00     0.041 C 
ATOM      5  O   UNL     1      -4.374   5.371   9.493  1.00  0.00    -0.550 OA
ATOM      6  O   UNL     1      -3.355   3.928  10.951  1.00  0.00    -0.550 OA
ENDBRANCH   3   4
ENDBRANCH   2   3
ENDBRANCH   1   2
BRANCH   1   7
ATOM      7  C   UNL     1       0.228   5.109  10.093  1.00  0.00     0.000 C 
BRANCH   7   8
ATOM      8  C   UNL     1       1.648   4.587   9.783  1.00  0.00    -0.000 C 
BRANCH   8   9
ATOM      9  C   UNL     1       1.730   3.054   9.685  1.00  0.00    -0.003 C 
ATOM     10  C   UNL     1       0.488   2.357  10.237  1.00  0.00     0.004 C 
ENDBRANCH   8   9
ENDBRANCH   7   8
ENDBRANCH   1   7
TORSDOF 6
ENDMDL
