MODEL 1
REMARK VINA RESULT:    -4.142      0.000      0.000
REMARK INTER + INTRA:          -7.413
REMARK INTER:                  -6.321
REMARK INTRA:                  -1.092
REMARK UNBOUND:                -1.092
REMARK SMILES CCCCCCCCCCC(=O)[O-]
REMARK SMILES IDX 7 1 8 2 9 3 10 4 11 5 12 6 13 7 6 8 5 9 4 10 3 11 2 12 1 13
REMARK H PARENT
REMARK Flexibility Score: inf
ROOT
ATOM      1  C   UNL     1     -11.986  -2.855 -24.212  1.00  0.00     0.000 C 
ENDROOT
BRANCH   1   2
ATOM      2  C   UNL     1     -12.589  -3.020 -25.615  1.00  0.00     0.000 C 
BRANCH   2   3
ATOM      3  C   UNL     1     -12.037  -1.997 -26.621  1.00  0.00     0.006 C 
BRANCH   3   4
ATOM      4  C   UNL     1     -10.871  -1.179 -26.051  1.00  0.00     0.053 C 
BRANCH   4   5
ATOM      5  C   UNL     1     -11.241   0.269 -25.968  1.00  0.00     0.041 C 
ATOM      6  O   UNL     1     -12.447   0.608 -25.844  1.00  0.00    -0.550 OA
ATOM      7  O   UNL     1     -10.249   1.241 -25.977  1.00  0.00    -0.550 OA
ENDBRANCH   4   5
ENDBRANCH   3   4
ENDBRANCH   2   3
ENDBRANCH   1   2
BRANCH   1   8
ATOM      8  C   UNL     1     -13.045  -2.371 -23.215  1.00  0.00     0.000 C 
BRANCH   8   9
ATOM      9  C   UNL     1     -12.617  -1.054 -22.554  1.00  0.00    -0.000 C 
BRANCH   9  10
ATOM     10  C   UNL     1     -11.802  -1.319 -21.279  1.00  0.00    -0.000 C 
BRANCH  10  11
ATOM     11  C   UNL     1     -10.544  -0.440 -21.188  1.00  0.00    -0.000 C 
BRANCH  11  12
ATOM     12  C   UNL     1      -9.953  -0.109 -22.567  1.00  0.00    -0.003 C 
ATOM     13  C   UNL     1      -8.636  -0.845 -22.791  1.00  0.00     0.004 C 
ENDBRANCH  11  12
ENDBRANCH  10  11
ENDBRANCH   9  10
ENDBRANCH   8   9
ENDBRANCH   1   8
TORSDOF 9
ENDMDL
MODEL 2
REMARK VINA RESULT:    -4.124      1.755      2.962
REMARK INTER + INTRA:          -7.386
REMARK INTER:                  -6.518
REMARK INTRA:                  -0.867
REMARK UNBOUND:                -1.092
REMARK SMILES CCCCCCCCCCC(=O)[O-]
REMARK SMILES IDX 7 1 8 2 9 3 10 4 11 5 12 6 13 7 6 8 5 9 4 10 3 11 2 12 1 13
REMARK H PARENT
REMARK Flexibility Score: inf
ROOT
ATOM      1  C   UNL     1     -11.973  -1.927 -26.671  1.00  0.00     0.000 C 
ENDROOT
BRANCH   1   2
ATOM      2  C   UNL     1     -11.750  -0.554 -26.020  1.00  0.00     0.000 C 
BRANCH   2   3
ATOM      3  C   UNL     1     -12.979   0.363 -26.136  1.00  0.00     0.006 C 
BRANCH   3   4
ATOM      4  C   UNL     1     -13.013   1.444 -25.047  1.00  0.00     0.053 C 
BRANCH   4   5
ATOM      5  C   UNL     1     -12.977   2.807 -25.664  1.00  0.00     0.041 C 
ATOM      6  O   UNL     1     -12.933   2.935 -26.916  1.00  0.00    -0.550 OA
ATOM      7  O   UNL     1     -13.041   3.936 -24.858  1.00  0.00    -0.550 OA
ENDBRANCH   4   5
ENDBRANCH   3   4
ENDBRANCH   2   3
ENDBRANCH   1   2
BRANCH   1   8
ATOM      8  C   UNL     1     -12.641  -2.896 -25.689  1.00  0.00     0.000 C 
BRANCH   8   9
ATOM      9  C   UNL     1     -12.000  -2.800 -24.299  1.00  0.00    -0.000 C 
BRANCH   9  10
ATOM     10  C   UNL     1     -13.065  -2.563 -23.218  1.00  0.00    -0.000 C 
BRANCH  10  11
ATOM     11  C   UNL     1     -12.866  -1.234 -22.472  1.00  0.00    -0.000 C 
BRANCH  11  12
ATOM     12  C   UNL     1     -11.556  -1.196 -21.670  1.00  0.00    -0.003 C 
ATOM     13  C   UNL     1     -11.777  -0.592 -20.287  1.00  0.00     0.004 C 
ENDBRANCH  11  12
ENDBRANCH  10  11
ENDBRANCH   9  10
ENDBRANCH   8   9
ENDBRANCH   1   8
TORSDOF 9
ENDMDL
MODEL 3
REMARK VINA RESULT:    -4.114      2.473      4.511
REMARK INTER + INTRA:          -7.371
REMARK INTER:                  -6.217
REMARK INTRA:                  -1.154
REMARK UNBOUND:                -1.092
REMARK SMILES CCCCCCCCCCC(=O)[O-]
REMARK SMILES IDX 7 1 8 2 9 3 10 4 11 5 12 6 13 7 6 8 5 9 4 10 3 11 2 12 1 13
REMARK H PARENT
REMARK Flexibility Score: inf
ROOT
ATOM      1  C   UNL     1     -13.050  -2.420 -23.897  1.00  0.00     0.000 C 
ENDROOT
BRANCH   1   2
ATOM      2  C   UNL     1     -12.471  -2.187 -22.493  1.00  0.00     0.000 C 
BRANCH   2   3
ATOM      3  C   UNL     1     -11.913  -0.766 -22.312  1.00  0.00     0.006 C 
BRANCH   3   4
ATOM      4  C   UNL     1     -10.379  -0.733 -22.282  1.00  0.00     0.053 C 
BRANCH   4   5
ATOM      5  C   UNL     1      -9.894  -0.324 -20.926  1.00  0.00     0.041 C 
ATOM      6  O   UNL     1     -10.712   0.052 -20.046  1.00  0.00    -0.550 OA
ATOM      7  O   UNL     1      -8.541  -0.405 -20.619  1.00  0.00    -0.550 OA
ENDBRANCH   4   5
ENDBRANCH   3   4
ENDBRANCH   2   3
ENDBRANCH   1   2
BRANCH   1   8
ATOM      8  C   UNL     1     -12.005  -3.058 -24.821  1.00  0.00     0.000 C 
BRANCH   8   9
ATOM      9  C   UNL     1     -12.462  -3.011 -26.284  1.00  0.00    -0.000 C 
BRANCH   9  10
ATOM     10  C   UNL     1     -11.980  -1.723 -26.968  1.00  0.00    -0.000 C 
BRANCH  10  11
ATOM     11  C   UNL     1     -10.739  -1.121 -26.291  1.00  0.00    -0.000 C 
BRANCH  11  12
ATOM     12  C   UNL     1     -10.956   0.332 -25.841  1.00  0.00    -0.003 C 
ATOM     13  C   UNL     1     -12.439   0.690 -25.839  1.00  0.00     0.004 C 
ENDBRANCH  11  12
ENDBRANCH  10  11
ENDBRANCH   9  10
ENDBRANCH   8   9
ENDBRANCH   1   8
TORSDOF 9
ENDMDL
MODEL 4
REMARK VINA RESULT:    -4.047      1.949      2.846
REMARK INTER + INTRA:          -7.268
REMARK INTER:                  -6.988
REMARK INTRA:                  -0.280
REMARK UNBOUND:                -1.092
REMARK SMILES CCCCCCCCCCC(=O)[O-]
REMARK SMILES IDX 7 1 8 2 9 3 10 4 11 5 12 6 13 7 6 8 5 9 4 10 3 11 2 12 1 13
REMARK H PARENT
REMARK Flexibility Score: inf
ROOT
ATOM      1  C   UNL     1     -13.061  -2.367 -22.772  1.00  0.00     0.000 C 
ENDROOT
BRANCH   1   2
ATOM      2  C   UNL     1     -12.201  -2.520 -24.036  1.00  0.00     0.000 C 
BRANCH   2   3
ATOM      3  C   UNL     1     -13.044  -2.734 -25.304  1.00  0.00     0.006 C 
BRANCH   3   4
ATOM      4  C   UNL     1     -12.211  -2.644 -26.589  1.00  0.00     0.053 C 
BRANCH   4   5
ATOM      5  C   UNL     1     -11.628  -1.273 -26.738  1.00  0.00     0.041 C 
ATOM      6  O   UNL     1     -10.407  -1.130 -27.006  1.00  0.00    -0.550 OA
ATOM      7  O   UNL     1     -12.446  -0.155 -26.630  1.00  0.00    -0.550 OA
ENDBRANCH   4   5
ENDBRANCH   3   4
ENDBRANCH   2   3
ENDBRANCH   1   2
BRANCH   1   8
ATOM      8  C   UNL     1     -12.815  -1.009 -22.104  1.00  0.00     0.000 C 
BRANCH   8   9
ATOM      9  C   UNL     1     -11.697  -1.105 -21.058  1.00  0.00    -0.000 C 
BRANCH   9  10
ATOM     10  C   UNL     1     -11.956  -0.143 -19.888  1.00  0.00    -0.000 C 
BRANCH  10  11
ATOM     11  C   UNL     1     -10.658   0.347 -19.227  1.00  0.00    -0.000 C 
BRANCH  11  12
ATOM     12  C   UNL     1     -10.732   0.327 -17.693  1.00  0.00    -0.003 C 
ATOM     13  C   UNL     1      -9.357   0.079 -17.080  1.00  0.00     0.004 C 
ENDBRANCH  11  12
ENDBRANCH  10  11
ENDBRANCH   9  10
ENDBRANCH   8   9
ENDBRANCH   1   8
TORSDOF 9
ENDMDL
MODEL 5
REMARK VINA RESULT:    -4.021      1.091      1.955
REMARK INTER + INTRA:          -7.229
REMARK INTER:                  -6.398
REMARK INTRA:                  -0.831
REMARK UNBOUND:                -1.092
REMARK SMILES CCCCCCCCCCC(=O)[O-]
REMARK SMILES IDX 7 1 8 2 9 3 10 4 11 5 12 6 13 7 6 8 5 9 4 10 3 11 2 12 1 13
REMARK H PARENT
REMARK Flexibility Score: inf
ROOT
ATOM      1  C   UNL     1     -12.815  -2.205 -22.728  1.00  0.00     0.000 C 
ENDROOT
BRANCH   1   2
ATOM      2  C   UNL     1     -12.062  -2.569 -24.017  1.00  0.00     0.000 C 
BRANCH   2   3
ATOM      3  C   UNL     1     -13.008  -2.864 -25.192  1.00  0.00     0.006 C 
BRANCH   3   4
ATOM      4  C   UNL     1     -12.322  -2.705 -26.556  1.00  0.00     0.053 C 
BRANCH   4   5
ATOM      5  C   UNL     1     -11.698  -1.350 -26.671  1.00  0.00     0.041 C 
ATOM      6  O   UNL     1     -10.480  -1.236 -26.969  1.00  0.00    -0.550 OA
ATOM      7  O   UNL     1     -12.473  -0.211 -26.497  1.00  0.00    -0.550 OA
ENDBRANCH   4   5
ENDBRANCH   3   4
ENDBRANCH   2   3
ENDBRANCH   1   2
BRANCH   1   8
ATOM      8  C   UNL     1     -12.393  -0.822 -22.219  1.00  0.00     0.000 C 
BRANCH   8   9
ATOM      9  C   UNL     1     -11.849  -0.905 -20.788  1.00  0.00    -0.000 C 
BRANCH   9  10
ATOM     10  C   UNL     1     -10.471  -0.233 -20.684  1.00  0.00    -0.000 C 
BRANCH  10  11
ATOM     11  C   UNL     1      -9.914   0.189 -22.053  1.00  0.00    -0.000 C 
BRANCH  11  12
ATOM     12  C   UNL     1      -8.726  -0.676 -22.501  1.00  0.00    -0.003 C 
ATOM     13  C   UNL     1      -8.697  -0.826 -24.018  1.00  0.00     0.004 C 
ENDBRANCH  11  12
ENDBRANCH  10  11
ENDBRANCH   9  10
ENDBRANCH   8   9
ENDBRANCH   1   8
TORSDOF 9
ENDMDL
MODEL 6
REMARK VINA RESULT:    -3.995      1.415      1.759
REMARK INTER + INTRA:          -7.189
REMARK INTER:                  -6.730
REMARK INTRA:                  -0.459
REMARK UNBOUND:                -1.092
REMARK SMILES CCCCCCCCCCC(=O)[O-]
REMARK SMILES IDX 7 1 8 2 9 3 10 4 11 5 12 6 13 7 6 8 5 9 4 10 3 11 2 12 1 13
REMARK H PARENT
REMARK Flexibility Score: inf
ROOT
ATOM      1  C   UNL     1     -13.013  -2.618 -25.002  1.00  0.00     0.000 C 
ENDROOT
BRANCH   1   2
ATOM      2  C   UNL     1     -12.306  -2.843 -26.347  1.00  0.00     0.000 C 
BRANCH   2   3
ATOM      3  C   UNL     1     -11.899  -1.527 -27.029  1.00  0.00     0.006 C 
BRANCH   3   4
ATOM      4  C   UNL     1     -10.447  -1.131 -26.728  1.00  0.00     0.053 C 
BRANCH   4   5
ATOM      5  C   UNL     1     -10.408   0.020 -25.772  1.00  0.00     0.041 C 
ATOM      6  O   UNL     1     -11.262   0.942 -25.854  1.00  0.00    -0.550 OA
ATOM      7  O   UNL     1      -9.459   0.049 -24.758  1.00  0.00    -0.550 OA
ENDBRANCH   4   5
ENDBRANCH   3   4
ENDBRANCH   2   3
ENDBRANCH   1   2
BRANCH   1   8
ATOM      8  C   UNL     1     -12.015  -2.683 -23.840  1.00  0.00     0.000 C 
BRANCH   8   9
ATOM      9  C   UNL     1     -12.665  -2.227 -22.529  1.00  0.00    -0.000 C 
BRANCH   9  10
ATOM     10  C   UNL     1     -11.699  -1.356 -21.710  1.00  0.00    -0.000 C 
BRANCH  10  11
ATOM     11  C   UNL     1     -12.430  -0.396 -20.758  1.00  0.00    -0.000 C 
BRANCH  11  12
ATOM     12  C   UNL     1     -11.603  -0.059 -19.508  1.00  0.00    -0.003 C 
ATOM     13  C   UNL     1     -10.156   0.255 -19.875  1.00  0.00     0.004 C 
ENDBRANCH  11  12
ENDBRANCH  10  11
ENDBRANCH   9  10
ENDBRANCH   8   9
ENDBRANCH   1   8
TORSDOF 9
ENDMDL
MODEL 7
REMARK VINA RESULT:    -3.986      2.407      4.216
REMARK INTER + INTRA:          -7.175
REMARK INTER:                  -6.023
REMARK INTRA:                  -1.152
REMARK UNBOUND:                -1.092
REMARK SMILES CCCCCCCCCCC(=O)[O-]
REMARK SMILES IDX 7 1 8 2 9 3 10 4 11 5 12 6 13 7 6 8 5 9 4 10 3 11 2 12 1 13
REMARK H PARENT
REMARK Flexibility Score: inf
ROOT
ATOM      1  C   UNL     1     -13.120  -2.482 -24.988  1.00  0.00     0.000 C 
ENDROOT
BRANCH   1   2
ATOM      2  C   UNL     1     -12.379  -2.694 -23.659  1.00  0.00     0.000 C 
BRANCH   2   3
ATOM      3  C   UNL     1     -12.984  -1.876 -22.507  1.00  0.00     0.006 C 
BRANCH   3   4
ATOM      4  C   UNL     1     -12.303  -0.512 -22.331  1.00  0.00     0.053 C 
BRANCH   4   5
ATOM      5  C   UNL     1     -11.532  -0.477 -21.048  1.00  0.00     0.041 C 
ATOM      6  O   UNL     1     -10.286  -0.655 -21.052  1.00  0.00    -0.550 OA
ATOM      7  O   UNL     1     -12.184  -0.197 -19.854  1.00  0.00    -0.550 OA
ENDBRANCH   4   5
ENDBRANCH   3   4
ENDBRANCH   2   3
ENDBRANCH   1   2
BRANCH   1   8
ATOM      8  C   UNL     1     -12.251  -2.915 -26.175  1.00  0.00     0.000 C 
BRANCH   8   9
ATOM      9  C   UNL     1     -11.812  -1.704 -27.008  1.00  0.00    -0.000 C 
BRANCH   9  10
ATOM     10  C   UNL     1     -12.198  -0.390 -26.312  1.00  0.00    -0.000 C 
BRANCH  10  11
ATOM     11  C   UNL     1     -10.974   0.415 -25.846  1.00  0.00    -0.000 C 
BRANCH  11  12
ATOM     12  C   UNL     1      -9.684  -0.420 -25.843  1.00  0.00    -0.003 C 
ATOM     13  C   UNL     1      -9.248  -0.751 -24.420  1.00  0.00     0.004 C 
ENDBRANCH  11  12
ENDBRANCH  10  11
ENDBRANCH   9  10
ENDBRANCH   8   9
ENDBRANCH   1   8
TORSDOF 9
ENDMDL
MODEL 8
REMARK VINA RESULT:    -3.949     17.543     18.780
REMARK INTER + INTRA:          -7.119
REMARK INTER:                  -6.622
REMARK INTRA:                  -0.497
REMARK UNBOUND:                -1.092
REMARK SMILES CCCCCCCCCCC(=O)[O-]
REMARK SMILES IDX 7 1 8 2 9 3 10 4 11 5 12 6 13 7 6 8 5 9 4 10 3 11 2 12 1 13
REMARK H PARENT
REMARK Flexibility Score: inf
ROOT
ATOM      1  C   UNL     1       7.074   7.558 -24.117  1.00  0.00     0.000 C 
ENDROOT
BRANCH   1   2
ATOM      2  C   UNL     1       5.907   7.640 -25.113  1.00  0.00     0.000 C 
BRANCH   2   3
ATOM      3  C   UNL     1       6.347   7.386 -26.563  1.00  0.00     0.006 C 
BRANCH   3   4
ATOM      4  C   UNL     1       5.511   6.299 -27.253  1.00  0.00     0.053 C 
BRANCH   4   5
ATOM      5  C   UNL     1       5.746   4.971 -26.604  1.00  0.00     0.041 C 
ATOM      6  O   UNL     1       6.762   4.291 -26.902  1.00  0.00    -0.550 OA
ATOM      7  O   UNL     1       4.867   4.507 -25.634  1.00  0.00    -0.550 OA
ENDBRANCH   4   5
ENDBRANCH   3   4
ENDBRANCH   2   3
ENDBRANCH   1   2
BRANCH   1   8
ATOM      8  C   UNL     1       6.966   6.297 -23.251  1.00  0.00     0.000 C 
BRANCH   8   9
ATOM      9  C   UNL     1       5.599   6.216 -22.562  1.00  0.00    -0.000 C 
BRANCH   9  10
ATOM     10  C   UNL     1       5.752   5.846 -21.079  1.00  0.00    -0.000 C 
BRANCH  10  11
ATOM     11  C   UNL     1       4.399   5.671 -20.370  1.00  0.00    -0.000 C 
BRANCH  11  12
ATOM     12  C   UNL     1       4.460   4.650 -19.223  1.00  0.00    -0.003 C 
ATOM     13  C   UNL     1       5.098   5.259 -17.979  1.00  0.00     0.004 C 
ENDBRANCH  11  12
ENDBRANCH  10  11
ENDBRANCH   9  10
ENDBRANCH   8   9
ENDBRANCH   1   8
TORSDOF 9
ENDMDL
MODEL 9
REMARK VINA RESULT:    -3.931     14.610     15.947
REMARK INTER + INTRA:          -7.091
REMARK INTER:                  -6.417
REMARK INTRA:                  -0.674
REMARK UNBOUND:                -1.092
REMARK SMILES CCCCCCCCCCC(=O)[O-]
REMARK SMILES IDX 7 1 8 2 9 3 10 4 11 5 12 6 13 7 6 8 5 9 4 10 3 11 2 12 1 13
REMARK H PARENT
REMARK Flexibility Score: inf
ROOT
ATOM      1  C   UNL     1     -12.793   3.497 -10.996  1.00  0.00     0.000 C 
ENDROOT
BRANCH   1   2
ATOM      2  C   UNL     1     -12.933   2.145 -10.279  1.00  0.00     0.000 C 
BRANCH   2   3
ATOM      3  C   UNL     1     -12.919   2.282  -8.748  1.00  0.00     0.006 C 
BRANCH   3   4
ATOM      4  C   UNL     1     -11.903   1.345  -8.081  1.00  0.00     0.053 C 
BRANCH   4   5
ATOM      5  C   UNL     1     -10.526   1.926  -8.160  1.00  0.00     0.041 C 
ATOM      6  O   UNL     1     -10.332   3.137  -7.875  1.00  0.00    -0.550 OA
ATOM      7  O   UNL     1      -9.450   1.118  -8.501  1.00  0.00    -0.550 OA
ENDBRANCH   4   5
ENDBRANCH   3   4
ENDBRANCH   2   3
ENDBRANCH   1   2
BRANCH   1   8
ATOM      8  C   UNL     1     -12.781   4.652  -9.987  1.00  0.00     0.000 C 
BRANCH   8   9
ATOM      9  C   UNL     1     -12.934   6.003 -10.696  1.00  0.00    -0.000 C 
BRANCH   9  10
ATOM     10  C   UNL     1     -11.574   6.703 -10.844  1.00  0.00    -0.000 C 
BRANCH  10  11
ATOM     11  C   UNL     1     -10.458   6.002 -10.054  1.00  0.00    -0.000 C 
BRANCH  11  12
ATOM     12  C   UNL     1      -9.224   6.895  -9.855  1.00  0.00    -0.003 C 
ATOM     13  C   UNL     1      -9.425   8.262 -10.500  1.00  0.00     0.004 C 
ENDBRANCH  11  12
ENDBRANCH  10  11
ENDBRANCH   9  10
ENDBRANCH   8   9
ENDBRANCH   1   8
TORSDOF 9
ENDMDL
