MODEL 1
REMARK VINA RESULT:    -4.609      0.000      0.000
REMARK INTER + INTRA:          -4.743
REMARK INTER:                  -4.743
REMARK INTRA:                   0.000
REMARK UNBOUND:                 0.000
REMARK SMILES CC1(C)[C@@H]2CC[C@@](C)(C2)[C@@H]1O
REMARK SMILES IDX 1 1 2 2 4 3 5 4 6 5 7 6 9 7 10 8 8 9 3 10 11 11
REMARK H PARENT 11 12
REMARK Flexibility Score: inf
ROOT
ATOM      1  C   UNL     1     181.678 180.644 186.886  1.00  0.00     0.014 C 
ATOM      2  C   UNL     1     181.761 179.913 185.523  1.00  0.00    -0.006 C 
ATOM      3  C   UNL     1     180.703 178.758 185.466  1.00  0.00    -0.002 C 
ATOM      4  C   UNL     1     180.937 177.846 184.244  1.00  0.00     0.005 C 
ATOM      5  C   UNL     1     180.584 178.765 183.063  1.00  0.00     0.010 C 
ATOM      6  C   UNL     1     180.083 180.049 183.767  1.00  0.00    -0.006 C 
ATOM      7  C   UNL     1     179.444 179.480 185.016  1.00  0.00     0.013 C 
ATOM      8  C   UNL     1     181.275 180.842 184.360  1.00  0.00     0.126 C 
ATOM      9  C   UNL     1     179.135 180.895 182.911  1.00  0.00     0.014 C 
ATOM     10  C   UNL     1     183.221 179.416 185.354  1.00  0.00     0.014 C 
ENDROOT
BRANCH   8  11
ATOM     11  O   UNL     1     182.258 181.091 183.386  1.00  0.00    -0.392 OA
ATOM     12  H   UNL     1     181.958 180.631 182.560  1.00  0.00     0.211 HD
ENDBRANCH   8  11
TORSDOF 1
ENDMDL
MODEL 2
REMARK VINA RESULT:    -4.485      1.156      3.164
REMARK INTER + INTRA:          -4.616
REMARK INTER:                  -4.616
REMARK INTRA:                   0.000
REMARK UNBOUND:                 0.000
REMARK SMILES CC1(C)[C@@H]2CC[C@@](C)(C2)[C@@H]1O
REMARK SMILES IDX 1 1 2 2 4 3 5 4 6 5 7 6 9 7 10 8 8 9 3 10 11 11
REMARK H PARENT 11 12
REMARK Flexibility Score: inf
ROOT
ATOM      1  C   UNL     1     181.258 176.584 183.572  1.00  0.00     0.014 C 
ATOM      2  C   UNL     1     181.362 178.128 183.524  1.00  0.00    -0.006 C 
ATOM      3  C   UNL     1     180.055 178.775 184.101  1.00  0.00    -0.002 C 
ATOM      4  C   UNL     1     180.013 180.292 183.822  1.00  0.00     0.005 C 
ATOM      5  C   UNL     1     181.147 180.831 184.710  1.00  0.00     0.010 C 
ATOM      6  C   UNL     1     181.616 179.567 185.470  1.00  0.00    -0.006 C 
ATOM      7  C   UNL     1     180.322 178.791 185.596  1.00  0.00     0.013 C 
ATOM      8  C   UNL     1     182.441 178.647 184.533  1.00  0.00     0.126 C 
ATOM      9  C   UNL     1     182.299 179.866 186.808  1.00  0.00     0.014 C 
ATOM     10  C   UNL     1     181.645 178.527 182.052  1.00  0.00     0.014 C 
ENDROOT
BRANCH   8  11
ATOM     11  O   UNL     1     183.494 179.351 183.923  1.00  0.00    -0.392 OA
ATOM     12  H   UNL     1     183.529 180.240 184.363  1.00  0.00     0.211 HD
ENDBRANCH   8  11
TORSDOF 1
ENDMDL
MODEL 3
REMARK VINA RESULT:    -4.419      1.743      3.028
REMARK INTER + INTRA:          -4.548
REMARK INTER:                  -4.548
REMARK INTRA:                   0.000
REMARK UNBOUND:                 0.000
REMARK SMILES CC1(C)[C@@H]2CC[C@@](C)(C2)[C@@H]1O
REMARK SMILES IDX 1 1 2 2 4 3 5 4 6 5 7 6 9 7 10 8 8 9 3 10 11 11
REMARK H PARENT 11 12
REMARK Flexibility Score: inf
ROOT
ATOM      1  C   UNL     1     180.843 177.483 183.818  1.00  0.00     0.014 C 
ATOM      2  C   UNL     1     180.675 178.988 184.140  1.00  0.00    -0.006 C 
ATOM      3  C   UNL     1     182.019 179.750 183.875  1.00  0.00    -0.002 C 
ATOM      4  C   UNL     1     181.967 181.186 184.436  1.00  0.00     0.005 C 
ATOM      5  C   UNL     1     180.937 181.870 183.522  1.00  0.00     0.010 C 
ATOM      6  C   UNL     1     180.618 180.768 182.483  1.00  0.00    -0.006 C 
ATOM      7  C   UNL     1     181.946 180.048 182.387  1.00  0.00     0.013 C 
ATOM      8  C   UNL     1     179.715 179.676 183.112  1.00  0.00     0.126 C 
ATOM      9  C   UNL     1     180.102 181.309 181.146  1.00  0.00     0.014 C 
ATOM     10  C   UNL     1     180.190 179.094 185.610  1.00  0.00     0.014 C 
ENDROOT
BRANCH   8  11
ATOM     11  O   UNL     1     178.567 180.237 183.697  1.00  0.00    -0.392 OA
ATOM     12  H   UNL     1     178.872 181.031 184.209  1.00  0.00     0.211 HD
ENDBRANCH   8  11
TORSDOF 1
ENDMDL
MODEL 4
REMARK VINA RESULT:    -4.391      1.776      3.058
REMARK INTER + INTRA:          -4.520
REMARK INTER:                  -4.520
REMARK INTRA:                   0.000
REMARK UNBOUND:                 0.000
REMARK SMILES CC1(C)[C@@H]2CC[C@@](C)(C2)[C@@H]1O
REMARK SMILES IDX 1 1 2 2 4 3 5 4 6 5 7 6 9 7 10 8 8 9 3 10 11 11
REMARK H PARENT 11 12
REMARK Flexibility Score: inf
ROOT
ATOM      1  C   UNL     1     181.589 179.588 182.171  1.00  0.00     0.014 C 
ATOM      2  C   UNL     1     180.858 179.505 183.534  1.00  0.00    -0.006 C 
ATOM      3  C   UNL     1     181.796 180.017 184.681  1.00  0.00    -0.002 C 
ATOM      4  C   UNL     1     181.205 179.699 186.070  1.00  0.00     0.005 C 
ATOM      5  C   UNL     1     179.970 180.613 186.130  1.00  0.00     0.010 C 
ATOM      6  C   UNL     1     180.079 181.421 184.814  1.00  0.00    -0.006 C 
ATOM      7  C   UNL     1     181.579 181.520 184.643  1.00  0.00     0.013 C 
ATOM      8  C   UNL     1     179.684 180.539 183.603  1.00  0.00     0.126 C 
ATOM      9  C   UNL     1     179.364 182.775 184.858  1.00  0.00     0.014 C 
ATOM     10  C   UNL     1     180.403 178.034 183.725  1.00  0.00     0.014 C 
ENDROOT
BRANCH   8  11
ATOM     11  O   UNL     1     178.421 179.949 183.789  1.00  0.00    -0.392 OA
ATOM     12  H   UNL     1     177.756 180.592 183.431  1.00  0.00     0.211 HD
ENDBRANCH   8  11
TORSDOF 1
ENDMDL
MODEL 5
REMARK VINA RESULT:    -4.391      1.493      3.249
REMARK INTER + INTRA:          -4.520
REMARK INTER:                  -4.520
REMARK INTRA:                   0.000
REMARK UNBOUND:                 0.000
REMARK SMILES CC1(C)[C@@H]2CC[C@@](C)(C2)[C@@H]1O
REMARK SMILES IDX 1 1 2 2 4 3 5 4 6 5 7 6 9 7 10 8 8 9 3 10 11 11
REMARK H PARENT 11 12
REMARK Flexibility Score: inf
ROOT
ATOM      1  C   UNL     1     181.138 182.073 182.783  1.00  0.00     0.014 C 
ATOM      2  C   UNL     1     180.478 180.877 183.512  1.00  0.00    -0.006 C 
ATOM      3  C   UNL     1     181.296 179.566 183.245  1.00  0.00    -0.002 C 
ATOM      4  C   UNL     1     180.525 178.319 183.727  1.00  0.00     0.005 C 
ATOM      5  C   UNL     1     180.531 178.487 185.256  1.00  0.00     0.010 C 
ATOM      6  C   UNL     1     181.404 179.748 185.457  1.00  0.00    -0.006 C 
ATOM      7  C   UNL     1     182.380 179.629 184.307  1.00  0.00     0.013 C 
ATOM      8  C   UNL     1     180.614 181.023 185.064  1.00  0.00     0.126 C 
ATOM      9  C   UNL     1     182.069 179.828 186.835  1.00  0.00     0.014 C 
ATOM     10  C   UNL     1     179.008 180.792 183.021  1.00  0.00     0.014 C 
ENDROOT
BRANCH   8  11
ATOM     11  O   UNL     1     179.381 181.088 185.737  1.00  0.00    -0.392 OA
ATOM     12  H   UNL     1     179.025 180.162 185.760  1.00  0.00     0.211 HD
ENDBRANCH   8  11
TORSDOF 1
ENDMDL
MODEL 6
REMARK VINA RESULT:    -4.378      1.055      3.350
REMARK INTER + INTRA:          -4.506
REMARK INTER:                  -4.506
REMARK INTRA:                   0.000
REMARK UNBOUND:                 0.000
REMARK SMILES CC1(C)[C@@H]2CC[C@@](C)(C2)[C@@H]1O
REMARK SMILES IDX 1 1 2 2 4 3 5 4 6 5 7 6 9 7 10 8 8 9 3 10 11 11
REMARK H PARENT 11 12
REMARK Flexibility Score: inf
ROOT
ATOM      1  C   UNL     1     180.818 179.470 181.446  1.00  0.00     0.014 C 
ATOM      2  C   UNL     1     180.697 179.655 182.978  1.00  0.00    -0.006 C 
ATOM      3  C   UNL     1     180.769 178.263 183.696  1.00  0.00    -0.002 C 
ATOM      4  C   UNL     1     180.384 178.383 185.186  1.00  0.00     0.005 C 
ATOM      5  C   UNL     1     181.551 179.194 185.774  1.00  0.00     0.010 C 
ATOM      6  C   UNL     1     182.511 179.334 184.567  1.00  0.00    -0.006 C 
ATOM      7  C   UNL     1     182.264 178.035 183.830  1.00  0.00     0.013 C 
ATOM      8  C   UNL     1     181.961 180.374 183.557  1.00  0.00     0.126 C 
ATOM      9  C   UNL     1     183.973 179.562 184.962  1.00  0.00     0.014 C 
ATOM     10  C   UNL     1     179.371 180.416 183.248  1.00  0.00     0.014 C 
ENDROOT
BRANCH   8  11
ATOM     11  O   UNL     1     181.678 181.598 184.187  1.00  0.00    -0.392 OA
ATOM     12  H   UNL     1     182.331 181.690 184.928  1.00  0.00     0.211 HD
ENDBRANCH   8  11
TORSDOF 1
ENDMDL
MODEL 7
REMARK VINA RESULT:    -4.287      1.000      2.861
REMARK INTER + INTRA:          -4.413
REMARK INTER:                  -4.413
REMARK INTRA:                   0.000
REMARK UNBOUND:                 0.000
REMARK SMILES CC1(C)[C@@H]2CC[C@@](C)(C2)[C@@H]1O
REMARK SMILES IDX 1 1 2 2 4 3 5 4 6 5 7 6 9 7 10 8 8 9 3 10 11 11
REMARK H PARENT 11 12
REMARK Flexibility Score: inf
ROOT
ATOM      1  C   UNL     1     179.045 181.834 183.381  1.00  0.00     0.014 C 
ATOM      2  C   UNL     1     180.294 181.368 184.169  1.00  0.00    -0.006 C 
ATOM      3  C   UNL     1     179.875 180.861 185.592  1.00  0.00    -0.002 C 
ATOM      4  C   UNL     1     181.109 180.644 186.492  1.00  0.00     0.005 C 
ATOM      5  C   UNL     1     181.806 179.443 185.832  1.00  0.00     0.010 C 
ATOM      6  C   UNL     1     180.818 179.054 184.705  1.00  0.00    -0.006 C 
ATOM      7  C   UNL     1     179.487 179.416 185.329  1.00  0.00     0.013 C 
ATOM      8  C   UNL     1     180.901 180.071 183.537  1.00  0.00     0.126 C 
ATOM      9  C   UNL     1     180.926 177.591 184.265  1.00  0.00     0.014 C 
ATOM     10  C   UNL     1     181.284 182.562 184.211  1.00  0.00     0.014 C 
ENDROOT
BRANCH   8  11
ATOM     11  O   UNL     1     182.224 180.226 183.088  1.00  0.00    -0.392 OA
ATOM     12  H   UNL     1     182.809 180.053 183.870  1.00  0.00     0.211 HD
ENDBRANCH   8  11
TORSDOF 1
ENDMDL
MODEL 8
REMARK VINA RESULT:    -4.215      8.818     10.208
REMARK INTER + INTRA:          -4.338
REMARK INTER:                  -4.338
REMARK INTRA:                   0.000
REMARK UNBOUND:                 0.000
REMARK SMILES CC1(C)[C@@H]2CC[C@@](C)(C2)[C@@H]1O
REMARK SMILES IDX 1 1 2 2 4 3 5 4 6 5 7 6 9 7 10 8 8 9 3 10 11 11
REMARK H PARENT 11 12
REMARK Flexibility Score: inf
ROOT
ATOM      1  C   UNL     1     183.797 187.758 179.207  1.00  0.00     0.014 C 
ATOM      2  C   UNL     1     182.879 187.936 180.442  1.00  0.00    -0.006 C 
ATOM      3  C   UNL     1     183.392 189.125 181.327  1.00  0.00    -0.002 C 
ATOM      4  C   UNL     1     182.668 189.158 182.690  1.00  0.00     0.005 C 
ATOM      5  C   UNL     1     181.231 189.543 182.302  1.00  0.00     0.010 C 
ATOM      6  C   UNL     1     181.345 189.793 180.779  1.00  0.00    -0.006 C 
ATOM      7  C   UNL     1     182.754 190.333 180.664  1.00  0.00     0.013 C 
ATOM      8  C   UNL     1     181.463 188.449 180.016  1.00  0.00     0.126 C 
ATOM      9  C   UNL     1     180.268 190.731 180.224  1.00  0.00     0.014 C 
ATOM     10  C   UNL     1     182.850 186.580 181.195  1.00  0.00     0.014 C 
ENDROOT
BRANCH   8  11
ATOM     11  O   UNL     1     180.418 187.573 180.359  1.00  0.00    -0.392 OA
ATOM     12  H   UNL     1     179.654 187.801 179.768  1.00  0.00     0.211 HD
ENDBRANCH   8  11
TORSDOF 1
ENDMDL
MODEL 9
REMARK VINA RESULT:    -4.180      2.321      3.934
REMARK INTER + INTRA:          -4.302
REMARK INTER:                  -4.302
REMARK INTRA:                   0.000
REMARK UNBOUND:                 0.000
REMARK SMILES CC1(C)[C@@H]2CC[C@@](C)(C2)[C@@H]1O
REMARK SMILES IDX 1 1 2 2 4 3 5 4 6 5 7 6 9 7 10 8 8 9 3 10 11 11
REMARK H PARENT 11 12
REMARK Flexibility Score: inf
ROOT
ATOM      1  C   UNL     1     178.668 184.006 184.494  1.00  0.00     0.014 C 
ATOM      2  C   UNL     1     179.459 183.147 183.477  1.00  0.00    -0.006 C 
ATOM      3  C   UNL     1     180.883 182.816 184.044  1.00  0.00    -0.002 C 
ATOM      4  C   UNL     1     181.787 182.198 182.956  1.00  0.00     0.005 C 
ATOM      5  C   UNL     1     181.131 180.830 182.707  1.00  0.00     0.010 C 
ATOM      6  C   UNL     1     180.003 180.794 183.767  1.00  0.00    -0.006 C 
ATOM      7  C   UNL     1     180.624 181.587 184.897  1.00  0.00     0.013 C 
ATOM      8  C   UNL     1     178.833 181.719 183.345  1.00  0.00     0.126 C 
ATOM      9  C   UNL     1     179.568 179.379 184.161  1.00  0.00     0.014 C 
ATOM     10  C   UNL     1     179.499 183.935 182.141  1.00  0.00     0.014 C 
ENDROOT
BRANCH   8  11
ATOM     11  O   UNL     1     178.385 181.415 182.047  1.00  0.00    -0.392 OA
ATOM     12  H   UNL     1     178.751 180.520 181.826  1.00  0.00     0.211 HD
ENDBRANCH   8  11
TORSDOF 1
ENDMDL
