MODEL 1
REMARK VINA RESULT:    -4.883      0.000      0.000
REMARK INTER + INTRA:          -7.407
REMARK INTER:                  -6.881
REMARK INTRA:                  -0.526
REMARK UNBOUND:                -0.526
REMARK SMILES CCCCCCCCC(=O)[O-]
REMARK SMILES IDX 6 1 7 2 8 3 9 4 10 5 11 6 5 7 4 8 3 9 2 10 1 11
REMARK H PARENT
REMARK Flexibility Score: inf
ROOT
ATOM      1  C   UNL     1      19.744   7.993  11.044  1.00  0.00     0.000 C 
ENDROOT
BRANCH   1   2
ATOM      2  C   UNL     1      21.044   8.375  11.777  1.00  0.00     0.006 C 
BRANCH   2   3
ATOM      3  C   UNL     1      22.327   8.019  11.010  1.00  0.00     0.053 C 
BRANCH   3   4
ATOM      4  C   UNL     1      22.857   9.183  10.232  1.00  0.00     0.041 C 
ATOM      5  O   UNL     1      22.425   9.422   9.074  1.00  0.00    -0.550 OA
ATOM      6  O   UNL     1      23.805  10.026  10.800  1.00  0.00    -0.550 OA
ENDBRANCH   3   4
ENDBRANCH   2   3
ENDBRANCH   1   2
BRANCH   1   7
ATOM      7  C   UNL     1      19.521   6.471  10.987  1.00  0.00     0.000 C 
BRANCH   7   8
ATOM      8  C   UNL     1      19.361   5.951   9.549  1.00  0.00    -0.000 C 
BRANCH   8   9
ATOM      9  C   UNL     1      20.161   6.778   8.532  1.00  0.00    -0.000 C 
BRANCH   9  10
ATOM     10  C   UNL     1      19.278   7.194   7.349  1.00  0.00    -0.003 C 
ATOM     11  C   UNL     1      19.682   8.565   6.813  1.00  0.00     0.004 C 
ENDBRANCH   9  10
ENDBRANCH   8   9
ENDBRANCH   7   8
ENDBRANCH   1   7
TORSDOF 7
ENDMDL
MODEL 2
REMARK VINA RESULT:    -4.814      1.959      2.137
REMARK INTER + INTRA:          -7.310
REMARK INTER:                  -6.914
REMARK INTRA:                  -0.396
REMARK UNBOUND:                -0.526
REMARK SMILES CCCCCCCCC(=O)[O-]
REMARK SMILES IDX 6 1 7 2 8 3 9 4 10 5 11 6 5 7 4 8 3 9 2 10 1 11
REMARK H PARENT
REMARK Flexibility Score: inf
ROOT
ATOM      1  C   UNL     1      19.554   8.014  10.969  1.00  0.00     0.000 C 
ENDROOT
BRANCH   1   2
ATOM      2  C   UNL     1      20.767   8.337  11.863  1.00  0.00     0.006 C 
BRANCH   2   3
ATOM      3  C   UNL     1      21.893   7.294  11.795  1.00  0.00     0.053 C 
BRANCH   3   4
ATOM      4  C   UNL     1      22.858   7.437  12.932  1.00  0.00     0.041 C 
ATOM      5  O   UNL     1      23.687   6.522  13.180  1.00  0.00    -0.550 OA
ATOM      6  O   UNL     1      22.864   8.597  13.697  1.00  0.00    -0.550 OA
ENDBRANCH   3   4
ENDBRANCH   2   3
ENDBRANCH   1   2
BRANCH   1   7
ATOM      7  C   UNL     1      19.168   6.525  11.008  1.00  0.00     0.000 C 
BRANCH   7   8
ATOM      8  C   UNL     1      19.379   5.826   9.655  1.00  0.00    -0.000 C 
BRANCH   8   9
ATOM      9  C   UNL     1      20.076   6.729   8.627  1.00  0.00    -0.000 C 
BRANCH   9  10
ATOM     10  C   UNL     1      19.116   7.115   7.496  1.00  0.00    -0.003 C 
ATOM     11  C   UNL     1      19.539   8.424   6.836  1.00  0.00     0.004 C 
ENDBRANCH   9  10
ENDBRANCH   8   9
ENDBRANCH   7   8
ENDBRANCH   1   7
TORSDOF 7
ENDMDL
MODEL 3
REMARK VINA RESULT:    -4.747      0.526      1.175
REMARK INTER + INTRA:          -7.215
REMARK INTER:                  -6.603
REMARK INTRA:                  -0.612
REMARK UNBOUND:                -0.526
REMARK SMILES CCCCCCCCC(=O)[O-]
REMARK SMILES IDX 6 1 7 2 8 3 9 4 10 5 11 6 5 7 4 8 3 9 2 10 1 11
REMARK H PARENT
REMARK Flexibility Score: inf
ROOT
ATOM      1  C   UNL     1      20.940   8.409  11.817  1.00  0.00     0.000 C 
ENDROOT
BRANCH   1   2
ATOM      2  C   UNL     1      22.139   7.462  11.624  1.00  0.00     0.006 C 
BRANCH   2   3
ATOM      3  C   UNL     1      23.022   7.803  10.413  1.00  0.00     0.053 C 
BRANCH   3   4
ATOM      4  C   UNL     1      23.194   9.281  10.244  1.00  0.00     0.041 C 
ATOM      5  O   UNL     1      22.603   9.886   9.312  1.00  0.00    -0.550 OA
ATOM      6  O   UNL     1      23.982   9.996  11.137  1.00  0.00    -0.550 OA
ENDBRANCH   3   4
ENDBRANCH   2   3
ENDBRANCH   1   2
BRANCH   1   7
ATOM      7  C   UNL     1      19.707   7.979  11.003  1.00  0.00     0.000 C 
BRANCH   7   8
ATOM      8  C   UNL     1      19.628   6.455  10.812  1.00  0.00    -0.000 C 
BRANCH   8   9
ATOM      9  C   UNL     1      19.364   6.056   9.353  1.00  0.00    -0.000 C 
BRANCH   9  10
ATOM     10  C   UNL     1      20.164   6.941   8.390  1.00  0.00    -0.003 C 
ATOM     11  C   UNL     1      19.262   7.543   7.315  1.00  0.00     0.004 C 
ENDBRANCH   9  10
ENDBRANCH   8   9
ENDBRANCH   7   8
ENDBRANCH   1   7
TORSDOF 7
ENDMDL
MODEL 4
REMARK VINA RESULT:    -4.412      1.434      2.446
REMARK INTER + INTRA:          -6.742
REMARK INTER:                  -6.131
REMARK INTRA:                  -0.611
REMARK UNBOUND:                -0.526
REMARK SMILES CCCCCCCCC(=O)[O-]
REMARK SMILES IDX 6 1 7 2 8 3 9 4 10 5 11 6 5 7 4 8 3 9 2 10 1 11
REMARK H PARENT
REMARK Flexibility Score: inf
ROOT
ATOM      1  C   UNL     1      22.094   7.687  11.228  1.00  0.00     0.000 C 
ENDROOT
BRANCH   1   2
ATOM      2  C   UNL     1      22.391   8.233   9.820  1.00  0.00     0.006 C 
BRANCH   2   3
ATOM      3  C   UNL     1      23.064   9.615   9.810  1.00  0.00     0.053 C 
BRANCH   3   4
ATOM      4  C   UNL     1      24.352   9.616  10.573  1.00  0.00     0.041 C 
ATOM      5  O   UNL     1      25.287   8.841  10.242  1.00  0.00    -0.550 OA
ATOM      6  O   UNL     1      24.532  10.499  11.631  1.00  0.00    -0.550 OA
ENDBRANCH   3   4
ENDBRANCH   2   3
ENDBRANCH   1   2
BRANCH   1   7
ATOM      7  C   UNL     1      20.804   8.271  11.831  1.00  0.00     0.000 C 
BRANCH   7   8
ATOM      8  C   UNL     1      19.569   8.005  10.954  1.00  0.00    -0.000 C 
BRANCH   8   9
ATOM      9  C   UNL     1      19.005   6.589  11.145  1.00  0.00    -0.000 C 
BRANCH   9  10
ATOM     10  C   UNL     1      19.260   5.725   9.905  1.00  0.00    -0.003 C 
ATOM     11  C   UNL     1      19.420   6.587   8.655  1.00  0.00     0.004 C 
ENDBRANCH   9  10
ENDBRANCH   8   9
ENDBRANCH   7   8
ENDBRANCH   1   7
TORSDOF 7
ENDMDL
MODEL 5
REMARK VINA RESULT:    -4.401      2.109      3.145
REMARK INTER + INTRA:          -6.727
REMARK INTER:                  -6.024
REMARK INTRA:                  -0.703
REMARK UNBOUND:                -0.526
REMARK SMILES CCCCCCCCC(=O)[O-]
REMARK SMILES IDX 6 1 7 2 8 3 9 4 10 5 11 6 5 7 4 8 3 9 2 10 1 11
REMARK H PARENT
REMARK Flexibility Score: inf
ROOT
ATOM      1  C   UNL     1      21.651   9.115  10.477  1.00  0.00     0.000 C 
ENDROOT
BRANCH   1   2
ATOM      2  C   UNL     1      21.256   8.377  11.770  1.00  0.00     0.006 C 
BRANCH   2   3
ATOM      3  C   UNL     1      22.210   7.236  12.160  1.00  0.00     0.053 C 
BRANCH   3   4
ATOM      4  C   UNL     1      23.165   7.648  13.238  1.00  0.00     0.041 C 
ATOM      5  O   UNL     1      23.074   8.787  13.766  1.00  0.00    -0.550 OA
ATOM      6  O   UNL     1      24.136   6.759  13.682  1.00  0.00    -0.550 OA
ENDBRANCH   3   4
ENDBRANCH   2   3
ENDBRANCH   1   2
BRANCH   1   7
ATOM      7  C   UNL     1      21.266   8.334   9.208  1.00  0.00     0.000 C 
BRANCH   7   8
ATOM      8  C   UNL     1      19.745   8.172   9.054  1.00  0.00    -0.000 C 
BRANCH   8   9
ATOM      9  C   UNL     1      19.347   6.762   8.593  1.00  0.00    -0.000 C 
BRANCH   9  10
ATOM     10  C   UNL     1      19.724   5.714   9.646  1.00  0.00    -0.003 C 
ATOM     11  C   UNL     1      18.786   5.776  10.848  1.00  0.00     0.004 C 
ENDBRANCH   9  10
ENDBRANCH   8   9
ENDBRANCH   7   8
ENDBRANCH   1   7
TORSDOF 7
ENDMDL
MODEL 6
REMARK VINA RESULT:    -4.277      1.964      2.611
REMARK INTER + INTRA:          -6.552
REMARK INTER:                  -6.122
REMARK INTRA:                  -0.430
REMARK UNBOUND:                -0.526
REMARK SMILES CCCCCCCCC(=O)[O-]
REMARK SMILES IDX 6 1 7 2 8 3 9 4 10 5 11 6 5 7 4 8 3 9 2 10 1 11
REMARK H PARENT
REMARK Flexibility Score: inf
ROOT
ATOM      1  C   UNL     1      20.887   8.264  11.926  1.00  0.00     0.000 C 
ENDROOT
BRANCH   1   2
ATOM      2  C   UNL     1      22.170   7.523  11.504  1.00  0.00     0.006 C 
BRANCH   2   3
ATOM      3  C   UNL     1      22.983   6.954  12.677  1.00  0.00     0.053 C 
BRANCH   3   4
ATOM      4  C   UNL     1      24.448   6.903  12.371  1.00  0.00     0.041 C 
ATOM      5  O   UNL     1      25.291   6.858  13.305  1.00  0.00    -0.550 OA
ATOM      6  O   UNL     1      24.882   6.871  11.051  1.00  0.00    -0.550 OA
ENDBRANCH   3   4
ENDBRANCH   2   3
ENDBRANCH   1   2
BRANCH   1   7
ATOM      7  C   UNL     1      19.721   8.036  10.947  1.00  0.00     0.000 C 
BRANCH   7   8
ATOM      8  C   UNL     1      19.320   6.556  10.843  1.00  0.00    -0.000 C 
BRANCH   8   9
ATOM      9  C   UNL     1      19.406   6.022   9.405  1.00  0.00    -0.000 C 
BRANCH   9  10
ATOM     10  C   UNL     1      20.158   7.004   8.500  1.00  0.00    -0.003 C 
ATOM     11  C   UNL     1      19.291   7.447   7.325  1.00  0.00     0.004 C 
ENDBRANCH   9  10
ENDBRANCH   8   9
ENDBRANCH   7   8
ENDBRANCH   1   7
TORSDOF 7
ENDMDL
MODEL 7
REMARK VINA RESULT:    -4.090      1.694      4.170
REMARK INTER + INTRA:          -6.290
REMARK INTER:                  -5.743
REMARK INTRA:                  -0.547
REMARK UNBOUND:                -0.526
REMARK SMILES CCCCCCCCC(=O)[O-]
REMARK SMILES IDX 6 1 7 2 8 3 9 4 10 5 11 6 5 7 4 8 3 9 2 10 1 11
REMARK H PARENT
REMARK Flexibility Score: inf
ROOT
ATOM      1  C   UNL     1      19.549   7.187  11.017  1.00  0.00     0.000 C 
ENDROOT
BRANCH   1   2
ATOM      2  C   UNL     1      20.143   6.495   9.776  1.00  0.00     0.006 C 
BRANCH   2   3
ATOM      3  C   UNL     1      19.330   6.704   8.489  1.00  0.00     0.053 C 
BRANCH   3   4
ATOM      4  C   UNL     1      19.836   7.864   7.688  1.00  0.00     0.041 C 
ATOM      5  O   UNL     1      20.812   8.543   8.102  1.00  0.00    -0.550 OA
ATOM      6  O   UNL     1      19.251   8.174   6.467  1.00  0.00    -0.550 OA
ENDBRANCH   3   4
ENDBRANCH   2   3
ENDBRANCH   1   2
BRANCH   1   7
ATOM      7  C   UNL     1      20.508   8.218  11.638  1.00  0.00     0.000 C 
BRANCH   7   8
ATOM      8  C   UNL     1      21.859   7.602  12.037  1.00  0.00    -0.000 C 
BRANCH   8   9
ATOM      9  C   UNL     1      23.002   8.628  12.024  1.00  0.00    -0.000 C 
BRANCH   9  10
ATOM     10  C   UNL     1      23.096   9.327  10.664  1.00  0.00    -0.003 C 
ATOM     11  C   UNL     1      24.013   8.563   9.712  1.00  0.00     0.004 C 
ENDBRANCH   9  10
ENDBRANCH   8   9
ENDBRANCH   7   8
ENDBRANCH   1   7
TORSDOF 7
ENDMDL
MODEL 8
REMARK VINA RESULT:    -4.068      1.432      2.153
REMARK INTER + INTRA:          -6.258
REMARK INTER:                  -5.773
REMARK INTRA:                  -0.484
REMARK UNBOUND:                -0.526
REMARK SMILES CCCCCCCCC(=O)[O-]
REMARK SMILES IDX 6 1 7 2 8 3 9 4 10 5 11 6 5 7 4 8 3 9 2 10 1 11
REMARK H PARENT
REMARK Flexibility Score: inf
ROOT
ATOM      1  C   UNL     1      22.022   7.777  10.992  1.00  0.00     0.000 C 
ENDROOT
BRANCH   1   2
ATOM      2  C   UNL     1      22.480   8.655   9.813  1.00  0.00     0.006 C 
BRANCH   2   3
ATOM      3  C   UNL     1      23.334   9.865  10.224  1.00  0.00     0.053 C 
BRANCH   3   4
ATOM      4  C   UNL     1      24.510   9.462  11.059  1.00  0.00     0.041 C 
ATOM      5  O   UNL     1      24.593   9.832  12.259  1.00  0.00    -0.550 OA
ATOM      6  O   UNL     1      25.500   8.648  10.520  1.00  0.00    -0.550 OA
ENDBRANCH   3   4
ENDBRANCH   2   3
ENDBRANCH   1   2
BRANCH   1   7
ATOM      7  C   UNL     1      20.541   7.994  11.354  1.00  0.00     0.000 C 
BRANCH   7   8
ATOM      8  C   UNL     1      19.659   8.220  10.116  1.00  0.00    -0.000 C 
BRANCH   8   9
ATOM      9  C   UNL     1      19.401   6.925   9.331  1.00  0.00    -0.000 C 
BRANCH   9  10
ATOM     10  C   UNL     1      19.913   7.045   7.891  1.00  0.00    -0.003 C 
ATOM     11  C   UNL     1      19.323   8.270   7.196  1.00  0.00     0.004 C 
ENDBRANCH   9  10
ENDBRANCH   8   9
ENDBRANCH   7   8
ENDBRANCH   1   7
TORSDOF 7
ENDMDL
