MODEL 1
REMARK VINA RESULT:    -8.298      0.000      0.000
REMARK INTER + INTRA:         -10.639
REMARK INTER:                  -9.753
REMARK INTRA:                  -0.886
REMARK UNBOUND:                -0.886
REMARK SMILES C=C(C)[C@@H]1CC[C@]2(CO)CC[C@@]3(C)[C@H](CC[C@H]4[C@]5(C)CC[C@@H](O)C(C)(C)[C@@H]5CC[C@@]43C)[C@H]12
REMARK SMILES IDX 4 1 5 2 6 3 7 4 32 5 14 6 15 7 16 8 17 9 18 10 20 11 21 12
REMARK SMILES IDX 22 13 24 14 27 15 28 16 29 17 30 18 12 19 11 20 10 21 13 22
REMARK SMILES IDX 31 23 25 24 26 25 19 26 2 27 3 28 1 29 8 30 9 31 23 33
REMARK H PARENT 9 32 23 34
REMARK Flexibility Score: inf
ROOT
ATOM      1  C   UNL     1      27.351  52.634  10.380  1.00  0.00     0.018 C 
ATOM      2  C   UNL     1      27.154  53.092   8.933  1.00  0.00     0.009 C 
ATOM      3  C   UNL     1      25.893  53.949   8.913  1.00  0.00     0.010 C 
ATOM      4  C   UNL     1      24.988  53.480  10.086  1.00  0.00    -0.003 C 
ATOM      5  C   UNL     1      25.902  52.549  10.955  1.00  0.00     0.008 C 
ATOM      6  C   UNL     1      25.589  52.494  12.504  1.00  0.00    -0.000 C 
ATOM      7  C   UNL     1      26.520  51.510  13.282  1.00  0.00     0.005 C 
ATOM      8  C   UNL     1      27.068  51.955  14.639  1.00  0.00     0.005 C 
ATOM      9  C   UNL     1      26.115  52.895  15.407  1.00  0.00     0.002 C 
ATOM     10  C   UNL     1      26.432  53.009  16.989  1.00  0.00    -0.026 C 
ATOM     11  C   UNL     1      25.865  51.700  17.643  1.00  0.00     0.010 C 
ATOM     12  C   UNL     1      25.785  51.716  19.165  1.00  0.00     0.033 C 
ATOM     13  C   UNL     1      24.890  52.855  19.638  1.00  0.00     0.120 C 
ATOM     14  C   UNL     1      25.443  54.245  19.216  1.00  0.00    -0.006 C 
ATOM     15  C   UNL     1      25.752  54.298  17.642  1.00  0.00     0.003 C 
ATOM     16  C   UNL     1      24.550  54.742  16.769  1.00  0.00     0.005 C 
ATOM     17  C   UNL     1      25.069  55.273  15.432  1.00  0.00     0.008 C 
ATOM     18  C   UNL     1      25.862  54.216  14.575  1.00  0.00    -0.024 C 
ATOM     19  C   UNL     1      25.059  53.833  13.215  1.00  0.00    -0.024 C 
ATOM     20  C   UNL     1      25.132  55.006  12.186  1.00  0.00     0.008 C 
ATOM     21  C   UNL     1      24.416  54.712  10.865  1.00  0.00     0.010 C 
ATOM     22  C   UNL     1      23.522  53.629  13.543  1.00  0.00     0.012 C 
ATOM     23  C   UNL     1      27.224  54.893  14.243  1.00  0.00     0.012 C 
ATOM     24  C   UNL     1      24.391  55.309  19.641  1.00  0.00     0.014 C 
ATOM     25  C   UNL     1      26.718  54.603  20.039  1.00  0.00     0.014 C 
ATOM     26  C   UNL     1      27.972  53.047  17.245  1.00  0.00     0.012 C 
ENDROOT
BRANCH   1  27
ATOM     27  C   UNL     1      28.422  53.454  11.112  1.00  0.00    -0.077 C 
ATOM     28  C   UNL     1      29.524  52.737  11.862  1.00  0.00     0.039 C 
ATOM     29  C   UNL     1      28.570  54.779  10.938  1.00  0.00     0.008 C 
ENDBRANCH   1  27
BRANCH   4  30
ATOM     30  C   UNL     1      23.777  52.684   9.511  1.00  0.00     0.163 C 
BRANCH  30  31
ATOM     31  O   UNL     1      24.134  51.363   9.197  1.00  0.00    -0.396 OA
ATOM     32  H   UNL     1      23.793  51.195   8.280  1.00  0.00     0.210 HD
ENDBRANCH  30  31
ENDBRANCH   4  30
BRANCH  13  33
ATOM     33  O   UNL     1      24.763  52.770  21.038  1.00  0.00    -0.393 OA
ATOM     34  H   UNL     1      25.127  51.890  21.319  1.00  0.00     0.210 HD
ENDBRANCH  13  33
TORSDOF 4
ENDMDL
MODEL 2
REMARK VINA RESULT:    -7.947      1.890      3.899
REMARK INTER + INTRA:         -10.227
REMARK INTER:                  -9.325
REMARK INTRA:                  -0.902
REMARK UNBOUND:                -0.886
REMARK SMILES C=C(C)[C@@H]1CC[C@]2(CO)CC[C@@]3(C)[C@H](CC[C@H]4[C@]5(C)CC[C@@H](O)C(C)(C)[C@@H]5CC[C@@]43C)[C@H]12
REMARK SMILES IDX 4 1 5 2 6 3 7 4 32 5 14 6 15 7 16 8 17 9 18 10 20 11 21 12
REMARK SMILES IDX 22 13 24 14 27 15 28 16 29 17 30 18 12 19 11 20 10 21 13 22
REMARK SMILES IDX 31 23 25 24 26 25 19 26 2 27 3 28 1 29 8 30 9 31 23 33
REMARK H PARENT 9 32 23 34
REMARK Flexibility Score: inf
ROOT
ATOM      1  C   UNL     1      27.038  54.378  11.031  1.00  0.00     0.018 C 
ATOM      2  C   UNL     1      27.700  53.914   9.730  1.00  0.00     0.009 C 
ATOM      3  C   UNL     1      28.625  52.759  10.099  1.00  0.00     0.010 C 
ATOM      4  C   UNL     1      29.052  52.954  11.580  1.00  0.00    -0.003 C 
ATOM      5  C   UNL     1      28.102  54.073  12.131  1.00  0.00     0.008 C 
ATOM      6  C   UNL     1      27.756  54.014  13.674  1.00  0.00    -0.000 C 
ATOM      7  C   UNL     1      26.841  55.189  14.142  1.00  0.00     0.005 C 
ATOM      8  C   UNL     1      25.700  54.875  15.110  1.00  0.00     0.005 C 
ATOM      9  C   UNL     1      26.013  53.705  16.066  1.00  0.00     0.002 C 
ATOM     10  C   UNL     1      25.059  53.645  17.371  1.00  0.00    -0.026 C 
ATOM     11  C   UNL     1      25.591  54.748  18.352  1.00  0.00     0.010 C 
ATOM     12  C   UNL     1      25.035  54.682  19.769  1.00  0.00     0.033 C 
ATOM     13  C   UNL     1      25.372  53.341  20.409  1.00  0.00     0.120 C 
ATOM     14  C   UNL     1      24.738  52.150  19.637  1.00  0.00    -0.006 C 
ATOM     15  C   UNL     1      25.097  52.211  18.073  1.00  0.00     0.003 C 
ATOM     16  C   UNL     1      26.415  51.488  17.691  1.00  0.00     0.005 C 
ATOM     17  C   UNL     1      26.382  51.136  16.203  1.00  0.00     0.008 C 
ATOM     18  C   UNL     1      26.274  52.380  15.242  1.00  0.00    -0.024 C 
ATOM     19  C   UNL     1      27.628  52.569  14.363  1.00  0.00    -0.024 C 
ATOM     20  C   UNL     1      27.716  51.476  13.250  1.00  0.00     0.008 C 
ATOM     21  C   UNL     1      28.956  51.601  12.362  1.00  0.00     0.010 C 
ATOM     22  C   UNL     1      28.897  52.361  15.288  1.00  0.00     0.012 C 
ATOM     23  C   UNL     1      25.052  52.086  14.324  1.00  0.00     0.012 C 
ATOM     24  C   UNL     1      25.250  50.841  20.303  1.00  0.00     0.014 C 
ATOM     25  C   UNL     1      23.193  52.118  19.845  1.00  0.00     0.014 C 
ATOM     26  C   UNL     1      23.585  54.003  16.999  1.00  0.00     0.012 C 
ENDROOT
BRANCH   1  27
ATOM     27  C   UNL     1      25.605  53.850  11.178  1.00  0.00    -0.077 C 
ATOM     28  C   UNL     1      24.495  54.805  11.561  1.00  0.00     0.039 C 
ATOM     29  C   UNL     1      25.234  52.625  10.765  1.00  0.00     0.008 C 
ENDBRANCH   1  27
BRANCH   4  30
ATOM     30  C   UNL     1      30.539  53.421  11.627  1.00  0.00     0.163 C 
BRANCH  30  31
ATOM     31  O   UNL     1      31.299  52.625  12.499  1.00  0.00    -0.396 OA
ATOM     32  H   UNL     1      32.040  53.201  12.823  1.00  0.00     0.210 HD
ENDBRANCH  30  31
ENDBRANCH   4  30
BRANCH  13  33
ATOM     33  O   UNL     1      24.930  53.361  21.747  1.00  0.00    -0.393 OA
ATOM     34  H   UNL     1      23.946  53.494  21.734  1.00  0.00     0.210 HD
ENDBRANCH  13  33
TORSDOF 4
ENDMDL
MODEL 3
REMARK VINA RESULT:    -7.941      1.602      7.750
REMARK INTER + INTRA:         -10.220
REMARK INTER:                  -9.446
REMARK INTRA:                  -0.774
REMARK UNBOUND:                -0.886
REMARK SMILES C=C(C)[C@@H]1CC[C@]2(CO)CC[C@@]3(C)[C@H](CC[C@H]4[C@]5(C)CC[C@@H](O)C(C)(C)[C@@H]5CC[C@@]43C)[C@H]12
REMARK SMILES IDX 4 1 5 2 6 3 7 4 32 5 14 6 15 7 16 8 17 9 18 10 20 11 21 12
REMARK SMILES IDX 22 13 24 14 27 15 28 16 29 17 30 18 12 19 11 20 10 21 13 22
REMARK SMILES IDX 31 23 25 24 26 25 19 26 2 27 3 28 1 29 8 30 9 31 23 33
REMARK H PARENT 9 32 23 34
REMARK Flexibility Score: inf
ROOT
ATOM      1  C   UNL     1      27.912  54.760  17.108  1.00  0.00     0.018 C 
ATOM      2  C   UNL     1      27.813  54.404  18.594  1.00  0.00     0.009 C 
ATOM      3  C   UNL     1      26.522  53.611  18.769  1.00  0.00     0.010 C 
ATOM      4  C   UNL     1      25.546  54.049  17.642  1.00  0.00    -0.003 C 
ATOM      5  C   UNL     1      26.426  54.879  16.644  1.00  0.00     0.008 C 
ATOM      6  C   UNL     1      25.991  54.852  15.124  1.00  0.00    -0.000 C 
ATOM      7  C   UNL     1      26.897  55.739  14.212  1.00  0.00     0.005 C 
ATOM      8  C   UNL     1      27.313  55.185  12.849  1.00  0.00     0.005 C 
ATOM      9  C   UNL     1      26.261  54.246  12.222  1.00  0.00     0.002 C 
ATOM     10  C   UNL     1      26.443  54.019  10.631  1.00  0.00    -0.026 C 
ATOM     11  C   UNL     1      25.883  55.310   9.938  1.00  0.00     0.010 C 
ATOM     12  C   UNL     1      25.679  55.203   8.431  1.00  0.00     0.033 C 
ATOM     13  C   UNL     1      24.700  54.081   8.107  1.00  0.00     0.120 C 
ATOM     14  C   UNL     1      25.224  52.695   8.574  1.00  0.00    -0.006 C 
ATOM     15  C   UNL     1      25.658  52.726  10.120  1.00  0.00     0.003 C 
ATOM     16  C   UNL     1      24.513  52.396  11.111  1.00  0.00     0.005 C 
ATOM     17  C   UNL     1      25.115  51.924  12.436  1.00  0.00     0.008 C 
ATOM     18  C   UNL     1      26.020  52.993  13.157  1.00  0.00    -0.024 C 
ATOM     19  C   UNL     1      25.347  53.499  14.547  1.00  0.00    -0.024 C 
ATOM     20  C   UNL     1      25.453  52.390  15.643  1.00  0.00     0.008 C 
ATOM     21  C   UNL     1      24.860  52.800  16.993  1.00  0.00     0.010 C 
ATOM     22  C   UNL     1      23.800  53.756  14.327  1.00  0.00     0.012 C 
ATOM     23  C   UNL     1      27.374  52.273  13.425  1.00  0.00     0.012 C 
ATOM     24  C   UNL     1      24.097  51.658   8.305  1.00  0.00     0.014 C 
ATOM     25  C   UNL     1      26.412  52.225   7.679  1.00  0.00     0.014 C 
ATOM     26  C   UNL     1      27.954  53.891  10.258  1.00  0.00     0.012 C 
ENDROOT
BRANCH   1  27
ATOM     27  C   UNL     1      28.883  53.846  16.351  1.00  0.00    -0.077 C 
ATOM     28  C   UNL     1      29.905  54.457  15.416  1.00  0.00     0.039 C 
ATOM     29  C   UNL     1      29.032  52.541  16.641  1.00  0.00     0.008 C 
ENDBRANCH   1  27
BRANCH   4  30
ATOM     30  C   UNL     1      24.421  54.937  18.256  1.00  0.00     0.163 C 
BRANCH  30  31
ATOM     31  O   UNL     1      24.818  55.491  19.483  1.00  0.00    -0.396 OA
ATOM     32  H   UNL     1      25.802  55.363  19.538  1.00  0.00     0.210 HD
ENDBRANCH  30  31
ENDBRANCH   4  30
BRANCH  13  33
ATOM     33  O   UNL     1      24.463  54.084   6.718  1.00  0.00    -0.393 OA
ATOM     34  H   UNL     1      25.256  53.679   6.279  1.00  0.00     0.210 HD
ENDBRANCH  13  33
TORSDOF 4
ENDMDL
MODEL 4
REMARK VINA RESULT:    -7.722      2.184      7.808
REMARK INTER + INTRA:          -9.962
REMARK INTER:                  -9.145
REMARK INTRA:                  -0.818
REMARK UNBOUND:                -0.886
REMARK SMILES C=C(C)[C@@H]1CC[C@]2(CO)CC[C@@]3(C)[C@H](CC[C@H]4[C@]5(C)CC[C@@H](O)C(C)(C)[C@@H]5CC[C@@]43C)[C@H]12
REMARK SMILES IDX 4 1 5 2 6 3 7 4 32 5 14 6 15 7 16 8 17 9 18 10 20 11 21 12
REMARK SMILES IDX 22 13 24 14 27 15 28 16 29 17 30 18 12 19 11 20 10 21 13 22
REMARK SMILES IDX 31 23 25 24 26 25 19 26 2 27 3 28 1 29 8 30 9 31 23 33
REMARK H PARENT 9 32 23 34
REMARK Flexibility Score: inf
ROOT
ATOM      1  C   UNL     1      26.500  52.822  17.130  1.00  0.00     0.018 C 
ATOM      2  C   UNL     1      27.310  53.239  18.361  1.00  0.00     0.009 C 
ATOM      3  C   UNL     1      28.425  54.153  17.863  1.00  0.00     0.010 C 
ATOM      4  C   UNL     1      28.723  53.767  16.388  1.00  0.00    -0.003 C 
ATOM      5  C   UNL     1      27.543  52.825  15.968  1.00  0.00     0.008 C 
ATOM      6  C   UNL     1      27.133  52.838  14.441  1.00  0.00    -0.000 C 
ATOM      7  C   UNL     1      25.979  51.840  14.108  1.00  0.00     0.005 C 
ATOM      8  C   UNL     1      24.873  52.305  13.161  1.00  0.00     0.005 C 
ATOM      9  C   UNL     1      25.358  53.314  12.099  1.00  0.00     0.002 C 
ATOM     10  C   UNL     1      24.366  53.468  10.831  1.00  0.00    -0.026 C 
ATOM     11  C   UNL     1      24.616  52.211   9.926  1.00  0.00     0.010 C 
ATOM     12  C   UNL     1      24.008  52.282   8.530  1.00  0.00     0.033 C 
ATOM     13  C   UNL     1      24.568  53.478   7.769  1.00  0.00     0.120 C 
ATOM     14  C   UNL     1      24.225  54.825   8.463  1.00  0.00    -0.006 C 
ATOM     15  C   UNL     1      24.649  54.809  10.011  1.00  0.00     0.003 C 
ATOM     16  C   UNL     1      26.102  55.278  10.281  1.00  0.00     0.005 C 
ATOM     17  C   UNL     1      26.220  55.738  11.735  1.00  0.00     0.008 C 
ATOM     18  C   UNL     1      25.921  54.617  12.799  1.00  0.00    -0.024 C 
ATOM     19  C   UNL     1      27.256  54.224  13.639  1.00  0.00    -0.024 C 
ATOM     20  C   UNL     1      27.618  55.356  14.653  1.00  0.00     0.008 C 
ATOM     21  C   UNL     1      28.855  55.050  15.500  1.00  0.00     0.010 C 
ATOM     22  C   UNL     1      28.489  54.103  12.652  1.00  0.00     0.012 C 
ATOM     23  C   UNL     1      24.832  55.217  13.736  1.00  0.00     0.012 C 
ATOM     24  C   UNL     1      24.949  55.951   7.671  1.00  0.00     0.014 C 
ATOM     25  C   UNL     1      22.708  55.152   8.312  1.00  0.00     0.014 C 
ATOM     26  C   UNL     1      22.873  53.443  11.288  1.00  0.00     0.012 C 
ENDROOT
BRANCH   1  27
ATOM     27  C   UNL     1      25.194  53.616  16.994  1.00  0.00    -0.077 C 
ATOM     28  C   UNL     1      23.889  52.874  16.804  1.00  0.00     0.039 C 
ATOM     29  C   UNL     1      25.110  54.932  17.261  1.00  0.00     0.008 C 
ENDBRANCH   1  27
BRANCH   4  30
ATOM     30  C   UNL     1      30.084  53.008  16.323  1.00  0.00     0.163 C 
BRANCH  30  31
ATOM     31  O   UNL     1      31.071  53.661  17.079  1.00  0.00    -0.396 OA
ATOM     32  H   UNL     1      30.590  54.299  17.669  1.00  0.00     0.210 HD
ENDBRANCH  30  31
ENDBRANCH   4  30
BRANCH  13  33
ATOM     33  O   UNL     1      24.060  53.448   6.455  1.00  0.00    -0.393 OA
ATOM     34  H   UNL     1      23.168  53.013   6.490  1.00  0.00     0.210 HD
ENDBRANCH  13  33
TORSDOF 4
ENDMDL
MODEL 5
REMARK VINA RESULT:    -7.274      2.636      4.829
REMARK INTER + INTRA:          -9.436
REMARK INTER:                  -8.535
REMARK INTRA:                  -0.900
REMARK UNBOUND:                -0.886
REMARK SMILES C=C(C)[C@@H]1CC[C@]2(CO)CC[C@@]3(C)[C@H](CC[C@H]4[C@]5(C)CC[C@@H](O)C(C)(C)[C@@H]5CC[C@@]43C)[C@H]12
REMARK SMILES IDX 4 1 5 2 6 3 7 4 32 5 14 6 15 7 16 8 17 9 18 10 20 11 21 12
REMARK SMILES IDX 22 13 24 14 27 15 28 16 29 17 30 18 12 19 11 20 10 21 13 22
REMARK SMILES IDX 31 23 25 24 26 25 19 26 2 27 3 28 1 29 8 30 9 31 23 33
REMARK H PARENT 9 32 23 34
REMARK Flexibility Score: inf
ROOT
ATOM      1  C   UNL     1      22.923  54.531   9.442  1.00  0.00     0.018 C 
ATOM      2  C   UNL     1      22.450  54.275   8.009  1.00  0.00     0.009 C 
ATOM      3  C   UNL     1      23.666  53.785   7.228  1.00  0.00     0.010 C 
ATOM      4  C   UNL     1      24.931  54.367   7.917  1.00  0.00    -0.003 C 
ATOM      5  C   UNL     1      24.421  54.942   9.283  1.00  0.00     0.008 C 
ATOM      6  C   UNL     1      25.450  54.936  10.484  1.00  0.00    -0.000 C 
ATOM      7  C   UNL     1      24.870  55.565  11.791  1.00  0.00     0.005 C 
ATOM      8  C   UNL     1      25.167  54.871  13.120  1.00  0.00     0.005 C 
ATOM      9  C   UNL     1      26.531  54.149  13.143  1.00  0.00     0.002 C 
ATOM     10  C   UNL     1      27.075  53.812  14.629  1.00  0.00    -0.026 C 
ATOM     11  C   UNL     1      27.640  55.159  15.203  1.00  0.00     0.010 C 
ATOM     12  C   UNL     1      28.472  55.027  16.473  1.00  0.00     0.033 C 
ATOM     13  C   UNL     1      29.676  54.125  16.228  1.00  0.00     0.120 C 
ATOM     14  C   UNL     1      29.254  52.683  15.831  1.00  0.00    -0.006 C 
ATOM     15  C   UNL     1      28.214  52.694  14.608  1.00  0.00     0.003 C 
ATOM     16  C   UNL     1      28.877  52.663  13.206  1.00  0.00     0.005 C 
ATOM     17  C   UNL     1      27.868  52.137  12.184  1.00  0.00     0.008 C 
ATOM     18  C   UNL     1      26.573  53.022  12.034  1.00  0.00    -0.024 C 
ATOM     19  C   UNL     1      26.501  53.725  10.571  1.00  0.00    -0.024 C 
ATOM     20  C   UNL     1      26.141  52.673   9.474  1.00  0.00     0.008 C 
ATOM     21  C   UNL     1      26.032  53.264   8.066  1.00  0.00     0.010 C 
ATOM     22  C   UNL     1      27.928  54.296  10.184  1.00  0.00     0.012 C 
ATOM     23  C   UNL     1      25.379  52.043  12.239  1.00  0.00     0.012 C 
ATOM     24  C   UNL     1      30.553  51.899  15.487  1.00  0.00     0.014 C 
ATOM     25  C   UNL     1      28.653  51.928  17.056  1.00  0.00     0.014 C 
ATOM     26  C   UNL     1      25.907  53.347  15.556  1.00  0.00     0.012 C 
ENDROOT
BRANCH   1  27
ATOM     27  C   UNL     1      22.534  53.395  10.398  1.00  0.00    -0.077 C 
ATOM     28  C   UNL     1      21.854  53.726  11.709  1.00  0.00     0.039 C 
ATOM     29  C   UNL     1      22.557  52.100  10.037  1.00  0.00     0.008 C 
ENDBRANCH   1  27
BRANCH   4  30
ATOM     30  C   UNL     1      25.521  55.503   7.026  1.00  0.00     0.163 C 
BRANCH  30  31
ATOM     31  O   UNL     1      25.161  56.771   7.508  1.00  0.00    -0.396 OA
ATOM     32  H   UNL     1      24.913  57.309   6.710  1.00  0.00     0.210 HD
ENDBRANCH  30  31
ENDBRANCH   4  30
BRANCH  13  33
ATOM     33  O   UNL     1      30.468  54.112  17.393  1.00  0.00    -0.393 OA
ATOM     34  H   UNL     1      29.854  54.145  18.172  1.00  0.00     0.210 HD
ENDBRANCH  13  33
TORSDOF 4
ENDMDL
MODEL 6
REMARK VINA RESULT:    -7.233      2.198      7.379
REMARK INTER + INTRA:          -9.387
REMARK INTER:                  -8.624
REMARK INTRA:                  -0.763
REMARK UNBOUND:                -0.886
REMARK SMILES C=C(C)[C@@H]1CC[C@]2(CO)CC[C@@]3(C)[C@H](CC[C@H]4[C@]5(C)CC[C@@H](O)C(C)(C)[C@@H]5CC[C@@]43C)[C@H]12
REMARK SMILES IDX 4 1 5 2 6 3 7 4 32 5 14 6 15 7 16 8 17 9 18 10 20 11 21 12
REMARK SMILES IDX 22 13 24 14 27 15 28 16 29 17 30 18 12 19 11 20 10 21 13 22
REMARK SMILES IDX 31 23 25 24 26 25 19 26 2 27 3 28 1 29 8 30 9 31 23 33
REMARK H PARENT 9 32 23 34
REMARK Flexibility Score: inf
ROOT
ATOM      1  C   UNL     1      30.078  54.244  15.235  1.00  0.00     0.018 C 
ATOM      2  C   UNL     1      30.716  53.723  16.525  1.00  0.00     0.009 C 
ATOM      3  C   UNL     1      29.577  53.211  17.401  1.00  0.00     0.010 C 
ATOM      4  C   UNL     1      28.294  53.995  17.007  1.00  0.00    -0.003 C 
ATOM      5  C   UNL     1      28.666  54.741  15.680  1.00  0.00     0.008 C 
ATOM      6  C   UNL     1      27.485  55.010  14.663  1.00  0.00    -0.000 C 
ATOM      7  C   UNL     1      27.940  55.794  13.390  1.00  0.00     0.005 C 
ATOM      8  C   UNL     1      27.393  55.349  12.034  1.00  0.00     0.005 C 
ATOM      9  C   UNL     1      25.972  54.750  12.112  1.00  0.00     0.002 C 
ATOM     10  C   UNL     1      25.197  54.702  10.694  1.00  0.00    -0.026 C 
ATOM     11  C   UNL     1      24.697  56.164  10.419  1.00  0.00     0.010 C 
ATOM     12  C   UNL     1      23.689  56.304   9.285  1.00  0.00     0.033 C 
ATOM     13  C   UNL     1      22.445  55.473   9.575  1.00  0.00     0.120 C 
ATOM     14  C   UNL     1      22.769  53.957   9.684  1.00  0.00    -0.006 C 
ATOM     15  C   UNL     1      23.963  53.688  10.722  1.00  0.00     0.003 C 
ATOM     16  C   UNL     1      23.501  53.484  12.189  1.00  0.00     0.005 C 
ATOM     17  C   UNL     1      24.584  52.722  12.955  1.00  0.00     0.008 C 
ATOM     18  C   UNL     1      25.970  53.466  13.035  1.00  0.00    -0.024 C 
ATOM     19  C   UNL     1      26.314  53.916  14.559  1.00  0.00    -0.024 C 
ATOM     20  C   UNL     1      26.715  52.675  15.420  1.00  0.00     0.008 C 
ATOM     21  C   UNL     1      27.077  53.020  16.866  1.00  0.00     0.010 C 
ATOM     22  C   UNL     1      25.021  54.527  15.239  1.00  0.00     0.012 C 
ATOM     23  C   UNL     1      27.019  52.442  12.508  1.00  0.00     0.012 C 
ATOM     24  C   UNL     1      21.457  53.232  10.102  1.00  0.00     0.014 C 
ATOM     25  C   UNL     1      23.115  53.365   8.283  1.00  0.00     0.014 C 
ATOM     26  C   UNL     1      26.172  54.302   9.541  1.00  0.00     0.012 C 
ENDROOT
BRANCH   1  27
ATOM     27  C   UNL     1      30.213  53.251  14.073  1.00  0.00    -0.077 C 
ATOM     28  C   UNL     1      30.789  53.721  12.755  1.00  0.00     0.039 C 
ATOM     29  C   UNL     1      30.060  51.924  14.228  1.00  0.00     0.008 C 
ENDBRANCH   1  27
BRANCH   4  30
ATOM     30  C   UNL     1      27.951  55.015  18.136  1.00  0.00     0.163 C 
BRANCH  30  31
ATOM     31  O   UNL     1      29.093  55.364  18.875  1.00  0.00    -0.396 OA
ATOM     32  H   UNL     1      28.898  56.248  19.282  1.00  0.00     0.210 HD
ENDBRANCH  30  31
ENDBRANCH   4  30
BRANCH  13  33
ATOM     33  O   UNL     1      21.502  55.711   8.555  1.00  0.00    -0.393 OA
ATOM     34  H   UNL     1      21.542  56.677   8.331  1.00  0.00     0.210 HD
ENDBRANCH  13  33
TORSDOF 4
ENDMDL
MODEL 7
REMARK VINA RESULT:    -7.214      2.621      3.862
REMARK INTER + INTRA:          -9.366
REMARK INTER:                  -8.482
REMARK INTRA:                  -0.883
REMARK UNBOUND:                -0.886
REMARK SMILES C=C(C)[C@@H]1CC[C@]2(CO)CC[C@@]3(C)[C@H](CC[C@H]4[C@]5(C)CC[C@@H](O)C(C)(C)[C@@H]5CC[C@@]43C)[C@H]12
REMARK SMILES IDX 4 1 5 2 6 3 7 4 32 5 14 6 15 7 16 8 17 9 18 10 20 11 21 12
REMARK SMILES IDX 22 13 24 14 27 15 28 16 29 17 30 18 12 19 11 20 10 21 13 22
REMARK SMILES IDX 31 23 25 24 26 25 19 26 2 27 3 28 1 29 8 30 9 31 23 33
REMARK H PARENT 9 32 23 34
REMARK Flexibility Score: inf
ROOT
ATOM      1  C   UNL     1      25.914  56.087   8.967  1.00  0.00     0.018 C 
ATOM      2  C   UNL     1      24.863  56.787   8.101  1.00  0.00     0.009 C 
ATOM      3  C   UNL     1      23.539  56.077   8.359  1.00  0.00     0.010 C 
ATOM      4  C   UNL     1      23.864  54.619   8.788  1.00  0.00    -0.003 C 
ATOM      5  C   UNL     1      25.407  54.613   9.064  1.00  0.00     0.008 C 
ATOM      6  C   UNL     1      25.928  53.591  10.154  1.00  0.00    -0.000 C 
ATOM      7  C   UNL     1      27.480  53.625  10.332  1.00  0.00     0.005 C 
ATOM      8  C   UNL     1      28.045  53.560  11.751  1.00  0.00     0.005 C 
ATOM      9  C   UNL     1      27.168  52.743  12.724  1.00  0.00     0.002 C 
ATOM     10  C   UNL     1      27.935  52.270  14.066  1.00  0.00    -0.026 C 
ATOM     11  C   UNL     1      28.828  51.048  13.652  1.00  0.00     0.010 C 
ATOM     12  C   UNL     1      29.417  50.251  14.809  1.00  0.00     0.033 C 
ATOM     13  C   UNL     1      28.306  49.693  15.690  1.00  0.00     0.120 C 
ATOM     14  C   UNL     1      27.447  50.818  16.330  1.00  0.00    -0.006 C 
ATOM     15  C   UNL     1      26.915  51.849  15.220  1.00  0.00     0.003 C 
ATOM     16  C   UNL     1      25.555  51.458  14.584  1.00  0.00     0.005 C 
ATOM     17  C   UNL     1      24.900  52.706  13.991  1.00  0.00     0.008 C 
ATOM     18  C   UNL     1      25.733  53.398  12.846  1.00  0.00    -0.024 C 
ATOM     19  C   UNL     1      24.980  53.279  11.411  1.00  0.00    -0.024 C 
ATOM     20  C   UNL     1      23.749  54.240  11.357  1.00  0.00     0.008 C 
ATOM     21  C   UNL     1      22.997  54.204  10.024  1.00  0.00     0.010 C 
ATOM     22  C   UNL     1      24.404  51.815  11.230  1.00  0.00     0.012 C 
ATOM     23  C   UNL     1      25.873  54.886  13.279  1.00  0.00     0.012 C 
ATOM     24  C   UNL     1      26.280  50.132  17.096  1.00  0.00     0.014 C 
ATOM     25  C   UNL     1      28.254  51.568  17.434  1.00  0.00     0.014 C 
ATOM     26  C   UNL     1      28.879  53.397  14.593  1.00  0.00     0.012 C 
ENDROOT
BRANCH   1  27
ATOM     27  C   UNL     1      26.240  56.874  10.242  1.00  0.00    -0.077 C 
ATOM     28  C   UNL     1      27.685  57.153  10.596  1.00  0.00     0.039 C 
ATOM     29  C   UNL     1      25.305  57.531  10.952  1.00  0.00     0.008 C 
ENDBRANCH   1  27
BRANCH   4  30
ATOM     30  C   UNL     1      23.509  53.651   7.618  1.00  0.00     0.163 C 
BRANCH  30  31
ATOM     31  O   UNL     1      23.364  52.330   8.072  1.00  0.00    -0.396 OA
ATOM     32  H   UNL     1      24.253  51.902   7.964  1.00  0.00     0.210 HD
ENDBRANCH  30  31
ENDBRANCH   4  30
BRANCH  13  33
ATOM     33  O   UNL     1      28.889  48.882  16.684  1.00  0.00    -0.393 OA
ATOM     34  H   UNL     1      29.874  48.959  16.592  1.00  0.00     0.210 HD
ENDBRANCH  13  33
TORSDOF 4
ENDMDL
MODEL 8
REMARK VINA RESULT:    -7.181      2.351      7.802
REMARK INTER + INTRA:          -9.326
REMARK INTER:                  -8.564
REMARK INTRA:                  -0.763
REMARK UNBOUND:                -0.886
REMARK SMILES C=C(C)[C@@H]1CC[C@]2(CO)CC[C@@]3(C)[C@H](CC[C@H]4[C@]5(C)CC[C@@H](O)C(C)(C)[C@@H]5CC[C@@]43C)[C@H]12
REMARK SMILES IDX 4 1 5 2 6 3 7 4 32 5 14 6 15 7 16 8 17 9 18 10 20 11 21 12
REMARK SMILES IDX 22 13 24 14 27 15 28 16 29 17 30 18 12 19 11 20 10 21 13 22
REMARK SMILES IDX 31 23 25 24 26 25 19 26 2 27 3 28 1 29 8 30 9 31 23 33
REMARK H PARENT 9 32 23 34
REMARK Flexibility Score: inf
ROOT
ATOM      1  C   UNL     1      26.921  52.349  16.606  1.00  0.00     0.018 C 
ATOM      2  C   UNL     1      27.994  52.423  17.696  1.00  0.00     0.009 C 
ATOM      3  C   UNL     1      29.335  52.548  16.980  1.00  0.00     0.010 C 
ATOM      4  C   UNL     1      29.185  51.888  15.582  1.00  0.00    -0.003 C 
ATOM      5  C   UNL     1      27.644  51.663  15.404  1.00  0.00     0.008 C 
ATOM      6  C   UNL     1      27.087  51.704  13.924  1.00  0.00    -0.000 C 
ATOM      7  C   UNL     1      25.552  51.428  13.840  1.00  0.00     0.005 C 
ATOM      8  C   UNL     1      24.715  52.286  12.891  1.00  0.00     0.005 C 
ATOM      9  C   UNL     1      25.490  52.753  11.641  1.00  0.00     0.002 C 
ATOM     10  C   UNL     1      24.547  53.250  10.425  1.00  0.00    -0.026 C 
ATOM     11  C   UNL     1      23.991  51.950   9.744  1.00  0.00     0.010 C 
ATOM     12  C   UNL     1      23.315  52.160   8.395  1.00  0.00     0.033 C 
ATOM     13  C   UNL     1      24.291  52.781   7.403  1.00  0.00     0.120 C 
ATOM     14  C   UNL     1      24.783  54.181   7.867  1.00  0.00    -0.006 C 
ATOM     15  C   UNL     1      25.353  54.133   9.366  1.00  0.00     0.003 C 
ATOM     16  C   UNL     1      26.864  53.798   9.465  1.00  0.00     0.005 C 
ATOM     17  C   UNL     1      27.404  54.300  10.805  1.00  0.00     0.008 C 
ATOM     18  C   UNL     1      26.729  53.641  12.067  1.00  0.00    -0.024 C 
ATOM     19  C   UNL     1      27.782  52.711  12.884  1.00  0.00    -0.024 C 
ATOM     20  C   UNL     1      28.809  53.597  13.659  1.00  0.00     0.008 C 
ATOM     21  C   UNL     1      29.824  52.793  14.475  1.00  0.00     0.010 C 
ATOM     22  C   UNL     1      28.629  51.843  11.865  1.00  0.00     0.012 C 
ATOM     23  C   UNL     1      26.242  54.831  12.943  1.00  0.00     0.012 C 
ATOM     24  C   UNL     1      25.858  54.654   6.848  1.00  0.00     0.014 C 
ATOM     25  C   UNL     1      23.639  55.234   7.748  1.00  0.00     0.014 C 
ATOM     26  C   UNL     1      23.330  54.067  10.964  1.00  0.00     0.012 C 
ENDROOT
BRANCH   1  27
ATOM     27  C   UNL     1      26.196  53.686  16.407  1.00  0.00    -0.077 C 
ATOM     28  C   UNL     1      24.683  53.720  16.409  1.00  0.00     0.039 C 
ATOM     29  C   UNL     1      26.829  54.872  16.456  1.00  0.00     0.008 C 
ENDBRANCH   1  27
BRANCH   4  30
ATOM     30  C   UNL     1      29.946  50.527  15.574  1.00  0.00     0.163 C 
BRANCH  30  31
ATOM     31  O   UNL     1      29.388  49.633  14.647  1.00  0.00    -0.396 OA
ATOM     32  H   UNL     1      28.984  48.899  15.180  1.00  0.00     0.210 HD
ENDBRANCH  30  31
ENDBRANCH   4  30
BRANCH  13  33
ATOM     33  O   UNL     1      23.658  52.864   6.147  1.00  0.00    -0.393 OA
ATOM     34  H   UNL     1      22.680  52.918   6.308  1.00  0.00     0.210 HD
ENDBRANCH  13  33
TORSDOF 4
ENDMDL
MODEL 9
REMARK VINA RESULT:    -6.934      2.568      7.409
REMARK INTER + INTRA:          -9.037
REMARK INTER:                  -8.172
REMARK INTRA:                  -0.865
REMARK UNBOUND:                -0.886
REMARK SMILES C=C(C)[C@@H]1CC[C@]2(CO)CC[C@@]3(C)[C@H](CC[C@H]4[C@]5(C)CC[C@@H](O)C(C)(C)[C@@H]5CC[C@@]43C)[C@H]12
REMARK SMILES IDX 4 1 5 2 6 3 7 4 32 5 14 6 15 7 16 8 17 9 18 10 20 11 21 12
REMARK SMILES IDX 22 13 24 14 27 15 28 16 29 17 30 18 12 19 11 20 10 21 13 22
REMARK SMILES IDX 31 23 25 24 26 25 19 26 2 27 3 28 1 29 8 30 9 31 23 33
REMARK H PARENT 9 32 23 34
REMARK Flexibility Score: inf
ROOT
ATOM      1  C   UNL     1      26.006  51.083  18.865  1.00  0.00     0.018 C 
ATOM      2  C   UNL     1      24.999  50.406  19.799  1.00  0.00     0.009 C 
ATOM      3  C   UNL     1      23.686  51.167  19.651  1.00  0.00     0.010 C 
ATOM      4  C   UNL     1      24.030  52.619  19.218  1.00  0.00    -0.003 C 
ATOM      5  C   UNL     1      25.547  52.575  18.826  1.00  0.00     0.008 C 
ATOM      6  C   UNL     1      26.022  53.595  17.714  1.00  0.00    -0.000 C 
ATOM      7  C   UNL     1      27.553  53.510  17.418  1.00  0.00     0.005 C 
ATOM      8  C   UNL     1      28.012  53.578  15.961  1.00  0.00     0.005 C 
ATOM      9  C   UNL     1      27.094  54.440  15.068  1.00  0.00     0.002 C 
ATOM     10  C   UNL     1      27.775  54.907  13.678  1.00  0.00    -0.026 C 
ATOM     11  C   UNL     1      28.740  56.091  14.039  1.00  0.00     0.010 C 
ATOM     12  C   UNL     1      29.269  56.885  12.851  1.00  0.00     0.033 C 
ATOM     13  C   UNL     1      28.115  57.496  12.065  1.00  0.00     0.120 C 
ATOM     14  C   UNL     1      27.170  56.411  11.477  1.00  0.00    -0.006 C 
ATOM     15  C   UNL     1      26.686  55.382  12.610  1.00  0.00     0.003 C 
ATOM     16  C   UNL     1      25.394  55.811  13.353  1.00  0.00     0.005 C 
ATOM     17  C   UNL     1      24.740  54.577  13.977  1.00  0.00     0.008 C 
ATOM     18  C   UNL     1      25.631  53.838  15.046  1.00  0.00    -0.024 C 
ATOM     19  C   UNL     1      24.993  53.960  16.536  1.00  0.00    -0.024 C 
ATOM     20  C   UNL     1      23.736  53.042  16.670  1.00  0.00     0.008 C 
ATOM     21  C   UNL     1      23.089  53.084  18.057  1.00  0.00     0.010 C 
ATOM     22  C   UNL     1      24.486  55.441  16.779  1.00  0.00     0.012 C 
ATOM     23  C   UNL     1      25.684  52.353  14.584  1.00  0.00     0.012 C 
ATOM     24  C   UNL     1      25.975  57.150  10.811  1.00  0.00     0.014 C 
ATOM     25  C   UNL     1      27.865  55.651  10.306  1.00  0.00     0.014 C 
ATOM     26  C   UNL     1      28.635  53.756  13.066  1.00  0.00     0.012 C 
ENDROOT
BRANCH   1  27
ATOM     27  C   UNL     1      26.207  50.305  17.558  1.00  0.00    -0.077 C 
ATOM     28  C   UNL     1      27.610  50.001  17.080  1.00  0.00     0.039 C 
ATOM     29  C   UNL     1      25.201  49.676  16.923  1.00  0.00     0.008 C 
ENDBRANCH   1  27
BRANCH   4  30
ATOM     30  C   UNL     1      23.800  53.580  20.424  1.00  0.00     0.163 C 
BRANCH  30  31
ATOM     31  O   UNL     1      23.792  54.923  20.015  1.00  0.00    -0.396 OA
ATOM     32  H   UNL     1      24.110  54.926  19.074  1.00  0.00     0.210 HD
ENDBRANCH  30  31
ENDBRANCH   4  30
BRANCH  13  33
ATOM     33  O   UNL     1      28.651  58.301  11.041  1.00  0.00    -0.393 OA
ATOM     34  H   UNL     1      28.977  57.696  10.325  1.00  0.00     0.210 HD
ENDBRANCH  13  33
TORSDOF 4
ENDMDL
