MODEL 1
REMARK VINA RESULT:    -3.397      0.000      0.000
REMARK INTER + INTRA:          -6.358
REMARK INTER:                  -5.383
REMARK INTRA:                  -0.974
REMARK UNBOUND:                -0.974
REMARK SMILES CCCCCCCCCCCC(=O)[O-]
REMARK SMILES IDX 7 1 8 2 9 3 10 4 11 5 12 6 13 7 14 8 6 9 5 10 4 11 3 12 2 13
REMARK SMILES IDX 1 14
REMARK H PARENT
REMARK Flexibility Score: inf
ROOT
ATOM      1  C   UNL     1      23.875  42.038   5.018  1.00  0.00     0.000 C 
ENDROOT
BRANCH   1   2
ATOM      2  C   UNL     1      24.190  40.805   4.157  1.00  0.00     0.000 C 
BRANCH   2   3
ATOM      3  C   UNL     1      24.252  41.130   2.656  1.00  0.00     0.000 C 
BRANCH   3   4
ATOM      4  C   UNL     1      25.327  40.317   1.919  1.00  0.00     0.006 C 
BRANCH   4   5
ATOM      5  C   UNL     1      24.802  39.809   0.573  1.00  0.00     0.053 C 
BRANCH   5   6
ATOM      6  C   UNL     1      25.902  39.771  -0.440  1.00  0.00     0.041 C 
ATOM      7  O   UNL     1      27.094  39.589  -0.075  1.00  0.00    -0.550 OA
ATOM      8  O   UNL     1      25.620  39.988  -1.783  1.00  0.00    -0.550 OA
ENDBRANCH   5   6
ENDBRANCH   4   5
ENDBRANCH   3   4
ENDBRANCH   2   3
ENDBRANCH   1   2
BRANCH   1   9
ATOM      9  C   UNL     1      25.111  42.488   5.807  1.00  0.00     0.000 C 
BRANCH   9  10
ATOM     10  C   UNL     1      25.252  44.017   5.784  1.00  0.00    -0.000 C 
BRANCH  10  11
ATOM     11  C   UNL     1      26.482  44.487   4.991  1.00  0.00    -0.000 C 
BRANCH  11  12
ATOM     12  C   UNL     1      26.846  43.534   3.842  1.00  0.00    -0.000 C 
BRANCH  12  13
ATOM     13  C   UNL     1      28.260  42.971   4.025  1.00  0.00    -0.003 C 
ATOM     14  C   UNL     1      28.291  41.466   3.770  1.00  0.00     0.004 C 
ENDBRANCH  12  13
ENDBRANCH  11  12
ENDBRANCH  10  11
ENDBRANCH   9  10
ENDBRANCH   1   9
TORSDOF 10
ENDMDL
MODEL 2
REMARK VINA RESULT:    -3.353     18.654     20.786
REMARK INTER + INTRA:          -6.288
REMARK INTER:                  -5.653
REMARK INTRA:                  -0.635
REMARK UNBOUND:                -0.974
REMARK SMILES CCCCCCCCCCCC(=O)[O-]
REMARK SMILES IDX 7 1 8 2 9 3 10 4 11 5 12 6 13 7 14 8 6 9 5 10 4 11 3 12 2 13
REMARK SMILES IDX 1 14
REMARK H PARENT
REMARK Flexibility Score: inf
ROOT
ATOM      1  C   UNL     1      41.933  31.189   3.569  1.00  0.00     0.000 C 
ENDROOT
BRANCH   1   2
ATOM      2  C   UNL     1      41.539  29.806   4.107  1.00  0.00     0.000 C 
BRANCH   2   3
ATOM      3  C   UNL     1      41.600  29.727   5.641  1.00  0.00     0.000 C 
BRANCH   3   4
ATOM      4  C   UNL     1      42.523  28.605   6.140  1.00  0.00     0.006 C 
BRANCH   4   5
ATOM      5  C   UNL     1      43.910  29.153   6.491  1.00  0.00     0.053 C 
BRANCH   5   6
ATOM      6  C   UNL     1      43.825  30.096   7.649  1.00  0.00     0.041 C 
ATOM      7  O   UNL     1      43.438  29.684   8.775  1.00  0.00    -0.550 OA
ATOM      8  O   UNL     1      44.125  31.441   7.474  1.00  0.00    -0.550 OA
ENDBRANCH   5   6
ENDBRANCH   4   5
ENDBRANCH   3   4
ENDBRANCH   2   3
ENDBRANCH   1   2
BRANCH   1   9
ATOM      9  C   UNL     1      43.451  31.297   3.387  1.00  0.00     0.000 C 
BRANCH   9  10
ATOM     10  C   UNL     1      43.801  32.222   2.212  1.00  0.00    -0.000 C 
BRANCH  10  11
ATOM     11  C   UNL     1      42.623  32.426   1.247  1.00  0.00    -0.000 C 
BRANCH  11  12
ATOM     12  C   UNL     1      43.076  32.832  -0.163  1.00  0.00    -0.000 C 
BRANCH  12  13
ATOM     13  C   UNL     1      42.032  32.426  -1.211  1.00  0.00    -0.003 C 
ATOM     14  C   UNL     1      40.663  33.015  -0.883  1.00  0.00     0.004 C 
ENDBRANCH  12  13
ENDBRANCH  11  12
ENDBRANCH  10  11
ENDBRANCH   9  10
ENDBRANCH   1   9
TORSDOF 10
ENDMDL
MODEL 3
REMARK VINA RESULT:    -3.353      3.592      6.183
REMARK INTER + INTRA:          -6.287
REMARK INTER:                  -5.707
REMARK INTRA:                  -0.579
REMARK UNBOUND:                -0.974
REMARK SMILES CCCCCCCCCCCC(=O)[O-]
REMARK SMILES IDX 7 1 8 2 9 3 10 4 11 5 12 6 13 7 14 8 6 9 5 10 4 11 3 12 2 13
REMARK SMILES IDX 1 14
REMARK H PARENT
REMARK Flexibility Score: inf
ROOT
ATOM      1  C   UNL     1      24.234  40.769   2.376  1.00  0.00     0.000 C 
ENDROOT
BRANCH   1   2
ATOM      2  C   UNL     1      24.614  41.614   3.602  1.00  0.00     0.000 C 
BRANCH   2   3
ATOM      3  C   UNL     1      26.121  41.906   3.677  1.00  0.00     0.000 C 
BRANCH   3   4
ATOM      4  C   UNL     1      26.428  43.406   3.800  1.00  0.00     0.006 C 
BRANCH   4   5
ATOM      5  C   UNL     1      26.834  43.767   5.232  1.00  0.00     0.053 C 
BRANCH   5   6
ATOM      6  C   UNL     1      25.838  44.702   5.840  1.00  0.00     0.041 C 
ATOM      7  O   UNL     1      25.096  44.313   6.781  1.00  0.00    -0.550 OA
ATOM      8  O   UNL     1      25.692  45.988   5.336  1.00  0.00    -0.550 OA
ENDBRANCH   5   6
ENDBRANCH   4   5
ENDBRANCH   3   4
ENDBRANCH   2   3
ENDBRANCH   1   2
BRANCH   1   9
ATOM      9  C   UNL     1      24.744  39.330   2.520  1.00  0.00     0.000 C 
BRANCH   9  10
ATOM     10  C   UNL     1      25.306  38.809   1.190  1.00  0.00    -0.000 C 
BRANCH  10  11
ATOM     11  C   UNL     1      24.675  39.497  -0.031  1.00  0.00    -0.000 C 
BRANCH  11  12
ATOM     12  C   UNL     1      25.722  39.982  -1.045  1.00  0.00    -0.000 C 
BRANCH  12  13
ATOM     13  C   UNL     1      26.651  38.836  -1.462  1.00  0.00    -0.003 C 
ATOM     14  C   UNL     1      28.117  39.223  -1.287  1.00  0.00     0.004 C 
ENDBRANCH  12  13
ENDBRANCH  11  12
ENDBRANCH  10  11
ENDBRANCH   9  10
ENDBRANCH   1   9
TORSDOF 10
ENDMDL
MODEL 4
REMARK VINA RESULT:    -3.349     17.154     19.622
REMARK INTER + INTRA:          -6.281
REMARK INTER:                  -5.425
REMARK INTRA:                  -0.855
REMARK UNBOUND:                -0.974
REMARK SMILES CCCCCCCCCCCC(=O)[O-]
REMARK SMILES IDX 7 1 8 2 9 3 10 4 11 5 12 6 13 7 14 8 6 9 5 10 4 11 3 12 2 13
REMARK SMILES IDX 1 14
REMARK H PARENT
REMARK Flexibility Score: inf
ROOT
ATOM      1  C   UNL     1      42.064  32.745   2.055  1.00  0.00     0.000 C 
ENDROOT
BRANCH   1   2
ATOM      2  C   UNL     1      43.178  31.727   2.345  1.00  0.00     0.000 C 
BRANCH   2   3
ATOM      3  C   UNL     1      43.893  31.995   3.679  1.00  0.00     0.000 C 
BRANCH   3   4
ATOM      4  C   UNL     1      43.790  30.812   4.654  1.00  0.00     0.006 C 
BRANCH   4   5
ATOM      5  C   UNL     1      42.413  30.774   5.324  1.00  0.00     0.053 C 
BRANCH   5   6
ATOM      6  C   UNL     1      41.669  29.539   4.925  1.00  0.00     0.041 C 
ATOM      7  O   UNL     1      42.050  28.409   5.332  1.00  0.00    -0.550 OA
ATOM      8  O   UNL     1      40.584  29.629   4.062  1.00  0.00    -0.550 OA
ENDBRANCH   5   6
ENDBRANCH   4   5
ENDBRANCH   3   4
ENDBRANCH   2   3
ENDBRANCH   1   2
BRANCH   1   9
ATOM      9  C   UNL     1      42.451  33.666   0.891  1.00  0.00     0.000 C 
BRANCH   9  10
ATOM     10  C   UNL     1      43.027  32.859  -0.281  1.00  0.00    -0.000 C 
BRANCH  10  11
ATOM     11  C   UNL     1      41.957  32.460  -1.310  1.00  0.00    -0.000 C 
BRANCH  11  12
ATOM     12  C   UNL     1      40.987  33.607  -1.629  1.00  0.00    -0.000 C 
BRANCH  12  13
ATOM     13  C   UNL     1      39.535  33.180  -1.385  1.00  0.00    -0.003 C 
ATOM     14  C   UNL     1      38.915  33.965  -0.232  1.00  0.00     0.004 C 
ENDBRANCH  12  13
ENDBRANCH  11  12
ENDBRANCH  10  11
ENDBRANCH   9  10
ENDBRANCH   1   9
TORSDOF 10
ENDMDL
MODEL 5
REMARK VINA RESULT:    -3.337      1.864      2.955
REMARK INTER + INTRA:          -6.262
REMARK INTER:                  -5.033
REMARK INTRA:                  -1.229
REMARK UNBOUND:                -0.974
REMARK SMILES CCCCCCCCCCCC(=O)[O-]
REMARK SMILES IDX 7 1 8 2 9 3 10 4 11 5 12 6 13 7 14 8 6 9 5 10 4 11 3 12 2 13
REMARK SMILES IDX 1 14
REMARK H PARENT
REMARK Flexibility Score: inf
ROOT
ATOM      1  C   UNL     1      24.294  39.234   2.470  1.00  0.00     0.000 C 
ENDROOT
BRANCH   1   2
ATOM      2  C   UNL     1      25.170  38.683   1.335  1.00  0.00     0.000 C 
BRANCH   2   3
ATOM      3  C   UNL     1      25.765  39.793   0.453  1.00  0.00     0.000 C 
BRANCH   3   4
ATOM      4  C   UNL     1      25.341  39.671  -1.018  1.00  0.00     0.006 C 
BRANCH   4   5
ATOM      5  C   UNL     1      26.453  40.161  -1.951  1.00  0.00     0.053 C 
BRANCH   5   6
ATOM      6  C   UNL     1      27.617  39.221  -1.919  1.00  0.00     0.041 C 
ATOM      7  O   UNL     1      28.792  39.666  -1.996  1.00  0.00    -0.550 OA
ATOM      8  O   UNL     1      27.402  37.850  -1.856  1.00  0.00    -0.550 OA
ENDBRANCH   5   6
ENDBRANCH   4   5
ENDBRANCH   3   4
ENDBRANCH   2   3
ENDBRANCH   1   2
BRANCH   1   9
ATOM      9  C   UNL     1      24.160  40.758   2.371  1.00  0.00     0.000 C 
BRANCH   9  10
ATOM     10  C   UNL     1      24.575  41.434   3.687  1.00  0.00    -0.000 C 
BRANCH  10  11
ATOM     11  C   UNL     1      25.821  42.320   3.531  1.00  0.00    -0.000 C 
BRANCH  11  12
ATOM     12  C   UNL     1      27.046  41.754   4.265  1.00  0.00    -0.000 C 
BRANCH  12  13
ATOM     13  C   UNL     1      27.885  40.874   3.332  1.00  0.00    -0.003 C 
ATOM     14  C   UNL     1      27.848  39.412   3.771  1.00  0.00     0.004 C 
ENDBRANCH  12  13
ENDBRANCH  11  12
ENDBRANCH  10  11
ENDBRANCH   9  10
ENDBRANCH   1   9
TORSDOF 10
ENDMDL
MODEL 6
REMARK VINA RESULT:    -3.323      1.525      2.842
REMARK INTER + INTRA:          -6.240
REMARK INTER:                  -5.645
REMARK INTRA:                  -0.596
REMARK UNBOUND:                -0.974
REMARK SMILES CCCCCCCCCCCC(=O)[O-]
REMARK SMILES IDX 7 1 8 2 9 3 10 4 11 5 12 6 13 7 14 8 6 9 5 10 4 11 3 12 2 13
REMARK SMILES IDX 1 14
REMARK H PARENT
REMARK Flexibility Score: inf
ROOT
ATOM      1  C   UNL     1      24.426  40.752   2.386  1.00  0.00     0.000 C 
ENDROOT
BRANCH   1   2
ATOM      2  C   UNL     1      24.249  39.308   1.893  1.00  0.00     0.000 C 
BRANCH   2   3
ATOM      3  C   UNL     1      24.204  39.205   0.361  1.00  0.00     0.000 C 
BRANCH   3   4
ATOM      4  C   UNL     1      25.360  39.957  -0.317  1.00  0.00     0.006 C 
BRANCH   4   5
ATOM      5  C   UNL     1      26.383  38.978  -0.901  1.00  0.00     0.053 C 
BRANCH   5   6
ATOM      6  C   UNL     1      27.696  39.110  -0.197  1.00  0.00     0.041 C 
ATOM      7  O   UNL     1      27.739  39.513   0.996  1.00  0.00    -0.550 OA
ATOM      8  O   UNL     1      28.879  38.838  -0.874  1.00  0.00    -0.550 OA
ENDBRANCH   5   6
ENDBRANCH   4   5
ENDBRANCH   3   4
ENDBRANCH   2   3
ENDBRANCH   1   2
BRANCH   1   9
ATOM      9  C   UNL     1      24.232  40.843   3.904  1.00  0.00     0.000 C 
BRANCH   9  10
ATOM     10  C   UNL     1      24.659  42.220   4.433  1.00  0.00    -0.000 C 
BRANCH  10  11
ATOM     11  C   UNL     1      25.930  42.749   3.750  1.00  0.00    -0.000 C 
BRANCH  11  12
ATOM     12  C   UNL     1      26.629  43.845   4.569  1.00  0.00    -0.000 C 
BRANCH  12  13
ATOM     13  C   UNL     1      25.636  44.551   5.498  1.00  0.00    -0.003 C 
ATOM     14  C   UNL     1      25.984  46.029   5.657  1.00  0.00     0.004 C 
ENDBRANCH  12  13
ENDBRANCH  11  12
ENDBRANCH  10  11
ENDBRANCH   9  10
ENDBRANCH   1   9
TORSDOF 10
ENDMDL
MODEL 7
REMARK VINA RESULT:    -3.293      1.123      2.700
REMARK INTER + INTRA:          -6.192
REMARK INTER:                  -5.398
REMARK INTRA:                  -0.794
REMARK UNBOUND:                -0.974
REMARK SMILES CCCCCCCCCCCC(=O)[O-]
REMARK SMILES IDX 7 1 8 2 9 3 10 4 11 5 12 6 13 7 14 8 6 9 5 10 4 11 3 12 2 13
REMARK SMILES IDX 1 14
REMARK H PARENT
REMARK Flexibility Score: inf
ROOT
ATOM      1  C   UNL     1      26.727  40.877   3.212  1.00  0.00     0.000 C 
ENDROOT
BRANCH   1   2
ATOM      2  C   UNL     1      25.374  41.587   3.056  1.00  0.00     0.000 C 
BRANCH   2   3
ATOM      3  C   UNL     1      24.322  40.712   2.356  1.00  0.00     0.000 C 
BRANCH   3   4
ATOM      4  C   UNL     1      24.941  39.508   1.632  1.00  0.00     0.006 C 
BRANCH   4   5
ATOM      5  C   UNL     1      24.629  39.550   0.133  1.00  0.00     0.053 C 
BRANCH   5   6
ATOM      6  C   UNL     1      25.872  39.823  -0.655  1.00  0.00     0.041 C 
ATOM      7  O   UNL     1      25.798  40.378  -1.783  1.00  0.00    -0.550 OA
ATOM      8  O   UNL     1      27.108  39.418  -0.167  1.00  0.00    -0.550 OA
ENDBRANCH   5   6
ENDBRANCH   4   5
ENDBRANCH   3   4
ENDBRANCH   2   3
ENDBRANCH   1   2
BRANCH   1   9
ATOM      9  C   UNL     1      27.790  41.835   3.764  1.00  0.00     0.000 C 
BRANCH   9  10
ATOM     10  C   UNL     1      27.289  43.286   3.740  1.00  0.00    -0.000 C 
BRANCH  10  11
ATOM     11  C   UNL     1      27.445  43.990   5.098  1.00  0.00    -0.000 C 
BRANCH  11  12
ATOM     12  C   UNL     1      26.300  43.665   6.069  1.00  0.00    -0.000 C 
BRANCH  12  13
ATOM     13  C   UNL     1      25.212  44.744   6.013  1.00  0.00    -0.003 C 
ATOM     14  C   UNL     1      25.785  46.081   5.549  1.00  0.00     0.004 C 
ENDBRANCH  12  13
ENDBRANCH  11  12
ENDBRANCH  10  11
ENDBRANCH   9  10
ENDBRANCH   1   9
TORSDOF 10
ENDMDL
MODEL 8
REMARK VINA RESULT:    -3.239     18.043     20.422
REMARK INTER + INTRA:          -6.107
REMARK INTER:                  -5.502
REMARK INTRA:                  -0.605
REMARK UNBOUND:                -0.974
REMARK SMILES CCCCCCCCCCCC(=O)[O-]
REMARK SMILES IDX 7 1 8 2 9 3 10 4 11 5 12 6 13 7 14 8 6 9 5 10 4 11 3 12 2 13
REMARK SMILES IDX 1 14
REMARK H PARENT
REMARK Flexibility Score: inf
ROOT
ATOM      1  C   UNL     1      42.330  31.603   2.888  1.00  0.00     0.000 C 
ENDROOT
BRANCH   1   2
ATOM      2  C   UNL     1      42.210  30.495   3.945  1.00  0.00     0.000 C 
BRANCH   2   3
ATOM      3  C   UNL     1      43.310  30.576   5.016  1.00  0.00     0.000 C 
BRANCH   3   4
ATOM      4  C   UNL     1      43.232  29.428   6.033  1.00  0.00     0.006 C 
BRANCH   4   5
ATOM      5  C   UNL     1      42.172  28.402   5.620  1.00  0.00     0.053 C 
BRANCH   5   6
ATOM      6  C   UNL     1      41.318  28.029   6.790  1.00  0.00     0.041 C 
ATOM      7  O   UNL     1      41.397  26.875   7.290  1.00  0.00    -0.550 OA
ATOM      8  O   UNL     1      40.399  28.938   7.299  1.00  0.00    -0.550 OA
ENDBRANCH   5   6
ENDBRANCH   4   5
ENDBRANCH   3   4
ENDBRANCH   2   3
ENDBRANCH   1   2
BRANCH   1   9
ATOM      9  C   UNL     1      43.783  31.770   2.428  1.00  0.00     0.000 C 
BRANCH   9  10
ATOM     10  C   UNL     1      43.864  32.641   1.166  1.00  0.00    -0.000 C 
BRANCH  10  11
ATOM     11  C   UNL     1      42.485  32.915   0.544  1.00  0.00    -0.000 C 
BRANCH  11  12
ATOM     12  C   UNL     1      42.409  32.499  -0.933  1.00  0.00    -0.000 C 
BRANCH  12  13
ATOM     13  C   UNL     1      41.014  32.774  -1.507  1.00  0.00    -0.003 C 
ATOM     14  C   UNL     1      40.077  33.329  -0.437  1.00  0.00     0.004 C 
ENDBRANCH  12  13
ENDBRANCH  11  12
ENDBRANCH  10  11
ENDBRANCH   9  10
ENDBRANCH   1   9
TORSDOF 10
ENDMDL
MODEL 9
REMARK VINA RESULT:    -3.236      3.592      6.090
REMARK INTER + INTRA:          -6.102
REMARK INTER:                  -5.067
REMARK INTRA:                  -1.035
REMARK UNBOUND:                -0.974
REMARK SMILES CCCCCCCCCCCC(=O)[O-]
REMARK SMILES IDX 7 1 8 2 9 3 10 4 11 5 12 6 13 7 14 8 6 9 5 10 4 11 3 12 2 13
REMARK SMILES IDX 1 14
REMARK H PARENT
REMARK Flexibility Score: inf
ROOT
ATOM      1  C   UNL     1      26.728  41.985   3.758  1.00  0.00     0.000 C 
ENDROOT
BRANCH   1   2
ATOM      2  C   UNL     1      26.196  43.418   3.912  1.00  0.00     0.000 C 
BRANCH   2   3
ATOM      3  C   UNL     1      26.605  44.062   5.247  1.00  0.00     0.000 C 
BRANCH   3   4
ATOM      4  C   UNL     1      25.489  44.925   5.854  1.00  0.00     0.006 C 
BRANCH   4   5
ATOM      5  C   UNL     1      24.247  44.082   6.156  1.00  0.00     0.053 C 
BRANCH   5   6
ATOM      6  C   UNL     1      24.467  43.240   7.374  1.00  0.00     0.041 C 
ATOM      7  O   UNL     1      24.111  42.032   7.382  1.00  0.00    -0.550 OA
ATOM      8  O   UNL     1      25.020  43.803   8.517  1.00  0.00    -0.550 OA
ENDBRANCH   5   6
ENDBRANCH   4   5
ENDBRANCH   3   4
ENDBRANCH   2   3
ENDBRANCH   1   2
BRANCH   1   9
ATOM      9  C   UNL     1      25.728  40.965   4.316  1.00  0.00     0.000 C 
BRANCH   9  10
ATOM     10  C   UNL     1      24.319  41.213   3.757  1.00  0.00    -0.000 C 
BRANCH  10  11
ATOM     11  C   UNL     1      24.200  40.854   2.267  1.00  0.00    -0.000 C 
BRANCH  11  12
ATOM     12  C   UNL     1      24.801  39.479   1.940  1.00  0.00    -0.000 C 
BRANCH  12  13
ATOM     13  C   UNL     1      25.917  39.605   0.896  1.00  0.00    -0.003 C 
ATOM     14  C   UNL     1      25.343  39.709  -0.515  1.00  0.00     0.004 C 
ENDBRANCH  12  13
ENDBRANCH  11  12
ENDBRANCH  10  11
ENDBRANCH   9  10
ENDBRANCH   1   9
TORSDOF 10
ENDMDL
