MODEL 1
REMARK VINA RESULT:    -3.356      0.000      0.000
REMARK INTER + INTRA:          -3.991
REMARK INTER:                  -3.945
REMARK INTRA:                  -0.046
REMARK UNBOUND:                -0.046
REMARK SMILES O=C([O-])CCC(=O)[O-]
REMARK SMILES IDX 4 1 2 2 1 3 3 4 5 5 6 6 7 7 8 8
REMARK H PARENT
REMARK Flexibility Score: inf
ROOT
ATOM      1  C   UNL     1       6.236  47.906  30.622  1.00  0.00     0.059 C 
ENDROOT
BRANCH   1   2
ATOM      2  C   UNL     1       5.866  48.631  29.368  1.00  0.00     0.042 C 
ATOM      3  O   UNL     1       5.886  49.889  29.334  1.00  0.00    -0.550 OA
ATOM      4  O   UNL     1       5.546  47.916  28.220  1.00  0.00    -0.550 OA
ENDBRANCH   1   2
BRANCH   1   5
ATOM      5  C   UNL     1       5.285  48.284  31.759  1.00  0.00     0.059 C 
BRANCH   5   6
ATOM      6  C   UNL     1       5.991  48.219  33.075  1.00  0.00     0.042 C 
ATOM      7  O   UNL     1       5.410  48.601  34.125  1.00  0.00    -0.550 OA
ATOM      8  O   UNL     1       7.308  47.782  33.138  1.00  0.00    -0.550 OA
ENDBRANCH   5   6
ENDBRANCH   1   5
TORSDOF 3
ENDMDL
MODEL 2
REMARK VINA RESULT:    -3.340      0.039      4.133
REMARK INTER + INTRA:          -3.972
REMARK INTER:                  -3.924
REMARK INTRA:                  -0.048
REMARK UNBOUND:                -0.046
REMARK SMILES O=C([O-])CCC(=O)[O-]
REMARK SMILES IDX 4 1 2 2 1 3 3 4 5 5 6 6 7 7 8 8
REMARK H PARENT
REMARK Flexibility Score: inf
ROOT
ATOM      1  C   UNL     1       5.300  48.266  31.738  1.00  0.00     0.059 C 
ENDROOT
BRANCH   1   2
ATOM      2  C   UNL     1       6.006  48.236  33.056  1.00  0.00     0.042 C 
ATOM      3  O   UNL     1       5.394  48.555  34.110  1.00  0.00    -0.550 OA
ATOM      4  O   UNL     1       7.326  47.809  33.129  1.00  0.00    -0.550 OA
ENDBRANCH   1   2
BRANCH   1   5
ATOM      5  C   UNL     1       6.266  47.918  30.606  1.00  0.00     0.059 C 
BRANCH   5   6
ATOM      6  C   UNL     1       5.894  48.652  29.357  1.00  0.00     0.042 C 
ATOM      7  O   UNL     1       5.840  49.910  29.353  1.00  0.00    -0.550 OA
ATOM      8  O   UNL     1       5.560  47.945  28.208  1.00  0.00    -0.550 OA
ENDBRANCH   5   6
ENDBRANCH   1   5
TORSDOF 3
ENDMDL
MODEL 3
REMARK VINA RESULT:    -3.078      1.989      2.730
REMARK INTER + INTRA:          -3.663
REMARK INTER:                  -3.566
REMARK INTRA:                  -0.097
REMARK UNBOUND:                -0.046
REMARK SMILES O=C([O-])CCC(=O)[O-]
REMARK SMILES IDX 4 1 2 2 1 3 3 4 5 5 6 6 7 7 8 8
REMARK H PARENT
REMARK Flexibility Score: inf
ROOT
ATOM      1  C   UNL     1       6.359  48.040  30.779  1.00  0.00     0.059 C 
ENDROOT
BRANCH   1   2
ATOM      2  C   UNL     1       5.951  48.605  29.456  1.00  0.00     0.042 C 
ATOM      3  O   UNL     1       5.789  47.845  28.466  1.00  0.00    -0.550 OA
ATOM      4  O   UNL     1       5.703  49.966  29.327  1.00  0.00    -0.550 OA
ENDBRANCH   1   2
BRANCH   1   5
ATOM      5  C   UNL     1       7.089  49.096  31.610  1.00  0.00     0.059 C 
BRANCH   5   6
ATOM      6  C   UNL     1       8.558  49.059  31.330  1.00  0.00     0.042 C 
ATOM      7  O   UNL     1       9.338  48.461  32.117  1.00  0.00    -0.550 OA
ATOM      8  O   UNL     1       9.073  49.725  30.225  1.00  0.00    -0.550 OA
ENDBRANCH   5   6
ENDBRANCH   1   5
TORSDOF 3
ENDMDL
MODEL 4
REMARK VINA RESULT:    -3.025     15.495     17.135
REMARK INTER + INTRA:          -3.601
REMARK INTER:                  -3.497
REMARK INTRA:                  -0.104
REMARK UNBOUND:                -0.046
REMARK SMILES O=C([O-])CCC(=O)[O-]
REMARK SMILES IDX 4 1 2 2 1 3 3 4 5 5 6 6 7 7 8 8
REMARK H PARENT
REMARK Flexibility Score: inf
ROOT
ATOM      1  C   UNL     1      11.547  35.144  21.998  1.00  0.00     0.059 C 
ENDROOT
BRANCH   1   2
ATOM      2  C   UNL     1      10.818  36.002  22.983  1.00  0.00     0.042 C 
ATOM      3  O   UNL     1       9.799  36.649  22.627  1.00  0.00    -0.550 OA
ATOM      4  O   UNL     1      11.236  36.050  24.307  1.00  0.00    -0.550 OA
ENDBRANCH   1   2
BRANCH   1   5
ATOM      5  C   UNL     1      12.760  35.885  21.437  1.00  0.00     0.059 C 
BRANCH   5   6
ATOM      6  C   UNL     1      12.524  36.272  20.012  1.00  0.00     0.042 C 
ATOM      7  O   UNL     1      13.489  36.344  19.206  1.00  0.00    -0.550 OA
ATOM      8  O   UNL     1      11.244  36.601  19.583  1.00  0.00    -0.550 OA
ENDBRANCH   5   6
ENDBRANCH   1   5
TORSDOF 3
ENDMDL
MODEL 5
REMARK VINA RESULT:    -3.007     15.373     16.361
REMARK INTER + INTRA:          -3.580
REMARK INTER:                  -3.484
REMARK INTRA:                  -0.096
REMARK UNBOUND:                -0.046
REMARK SMILES O=C([O-])CCC(=O)[O-]
REMARK SMILES IDX 4 1 2 2 1 3 3 4 5 5 6 6 7 7 8 8
REMARK H PARENT
REMARK Flexibility Score: inf
ROOT
ATOM      1  C   UNL     1       9.666  35.803  21.021  1.00  0.00     0.059 C 
ENDROOT
BRANCH   1   2
ATOM      2  C   UNL     1      10.087  36.575  19.811  1.00  0.00     0.042 C 
ATOM      3  O   UNL     1       9.271  37.340  19.232  1.00  0.00    -0.550 OA
ATOM      4  O   UNL     1      11.394  36.487  19.349  1.00  0.00    -0.550 OA
ENDBRANCH   1   2
BRANCH   1   5
ATOM      5  C   UNL     1      10.068  36.546  22.295  1.00  0.00     0.059 C 
BRANCH   5   6
ATOM      6  C   UNL     1      10.958  35.691  23.140  1.00  0.00     0.042 C 
ATOM      7  O   UNL     1      11.462  34.638  22.666  1.00  0.00    -0.550 OA
ATOM      8  O   UNL     1      11.194  36.029  24.467  1.00  0.00    -0.550 OA
ENDBRANCH   5   6
ENDBRANCH   1   5
TORSDOF 3
ENDMDL
MODEL 6
REMARK VINA RESULT:    -3.003     15.402     16.855
REMARK INTER + INTRA:          -3.576
REMARK INTER:                  -3.464
REMARK INTRA:                  -0.112
REMARK UNBOUND:                -0.046
REMARK SMILES O=C([O-])CCC(=O)[O-]
REMARK SMILES IDX 4 1 2 2 1 3 3 4 5 5 6 6 7 7 8 8
REMARK H PARENT
REMARK Flexibility Score: inf
ROOT
ATOM      1  C   UNL     1      10.019  36.502  22.266  1.00  0.00     0.059 C 
ENDROOT
BRANCH   1   2
ATOM      2  C   UNL     1      11.001  35.713  23.071  1.00  0.00     0.042 C 
ATOM      3  O   UNL     1      11.569  34.707  22.570  1.00  0.00    -0.550 OA
ATOM      4  O   UNL     1      11.328  36.116  24.360  1.00  0.00    -0.550 OA
ENDBRANCH   1   2
BRANCH   1   5
ATOM      5  C   UNL     1       9.664  35.759  20.977  1.00  0.00     0.059 C 
BRANCH   5   6
ATOM      6  C   UNL     1      10.113  36.539  19.783  1.00  0.00     0.042 C 
ATOM      7  O   UNL     1      11.298  36.439  19.370  1.00  0.00    -0.550 OA
ATOM      8  O   UNL     1       9.236  37.414  19.154  1.00  0.00    -0.550 OA
ENDBRANCH   5   6
ENDBRANCH   1   5
TORSDOF 3
ENDMDL
MODEL 7
REMARK VINA RESULT:    -2.997     15.362     16.460
REMARK INTER + INTRA:          -3.568
REMARK INTER:                  -3.468
REMARK INTRA:                  -0.100
REMARK UNBOUND:                -0.046
REMARK SMILES O=C([O-])CCC(=O)[O-]
REMARK SMILES IDX 4 1 2 2 1 3 3 4 5 5 6 6 7 7 8 8
REMARK H PARENT
REMARK Flexibility Score: inf
ROOT
ATOM      1  C   UNL     1      10.317  36.225  20.784  1.00  0.00     0.059 C 
ENDROOT
BRANCH   1   2
ATOM      2  C   UNL     1       9.058  35.781  20.111  1.00  0.00     0.042 C 
ATOM      3  O   UNL     1       8.520  36.506  19.232  1.00  0.00    -0.550 OA
ATOM      4  O   UNL     1       8.502  34.545  20.417  1.00  0.00    -0.550 OA
ENDBRANCH   1   2
BRANCH   1   5
ATOM      5  C   UNL     1      10.056  36.526  22.261  1.00  0.00     0.059 C 
BRANCH   5   6
ATOM      6  C   UNL     1      10.974  35.725  23.128  1.00  0.00     0.042 C 
ATOM      7  O   UNL     1      11.501  34.669  22.688  1.00  0.00    -0.550 OA
ATOM      8  O   UNL     1      11.210  36.117  24.440  1.00  0.00    -0.550 OA
ENDBRANCH   5   6
ENDBRANCH   1   5
TORSDOF 3
ENDMDL
MODEL 8
REMARK VINA RESULT:    -2.988     15.926     17.106
REMARK INTER + INTRA:          -3.559
REMARK INTER:                  -3.443
REMARK INTRA:                  -0.115
REMARK UNBOUND:                -0.046
REMARK SMILES O=C([O-])CCC(=O)[O-]
REMARK SMILES IDX 4 1 2 2 1 3 3 4 5 5 6 6 7 7 8 8
REMARK H PARENT
REMARK Flexibility Score: inf
ROOT
ATOM      1  C   UNL     1       9.974  36.536  22.087  1.00  0.00     0.059 C 
ENDROOT
BRANCH   1   2
ATOM      2  C   UNL     1      11.176  35.852  22.656  1.00  0.00     0.042 C 
ATOM      3  O   UNL     1      11.080  35.183  23.719  1.00  0.00    -0.550 OA
ATOM      4  O   UNL     1      12.393  35.913  21.989  1.00  0.00    -0.550 OA
ENDBRANCH   1   2
BRANCH   1   5
ATOM      5  C   UNL     1       9.832  36.216  20.598  1.00  0.00     0.059 C 
BRANCH   5   6
ATOM      6  C   UNL     1       8.962  35.015  20.401  1.00  0.00     0.042 C 
ATOM      7  O   UNL     1       9.479  33.883  20.212  1.00  0.00    -0.550 OA
ATOM      8  O   UNL     1       7.580  35.153  20.379  1.00  0.00    -0.550 OA
ENDBRANCH   5   6
ENDBRANCH   1   5
TORSDOF 3
ENDMDL
MODEL 9
REMARK VINA RESULT:    -2.983     15.670     16.934
REMARK INTER + INTRA:          -3.552
REMARK INTER:                  -3.437
REMARK INTRA:                  -0.115
REMARK UNBOUND:                -0.046
REMARK SMILES O=C([O-])CCC(=O)[O-]
REMARK SMILES IDX 4 1 2 2 1 3 3 4 5 5 6 6 7 7 8 8
REMARK H PARENT
REMARK Flexibility Score: inf
ROOT
ATOM      1  C   UNL     1      12.830  35.856  21.292  1.00  0.00     0.059 C 
ENDROOT
BRANCH   1   2
ATOM      2  C   UNL     1      12.689  36.271  19.863  1.00  0.00     0.042 C 
ATOM      3  O   UNL     1      13.628  36.069  19.049  1.00  0.00    -0.550 OA
ATOM      4  O   UNL     1      11.502  36.839  19.416  1.00  0.00    -0.550 OA
ENDBRANCH   1   2
BRANCH   1   5
ATOM      5  C   UNL     1      11.589  35.088  21.751  1.00  0.00     0.059 C 
BRANCH   5   6
ATOM      6  C   UNL     1      10.818  35.890  22.751  1.00  0.00     0.042 C 
ATOM      7  O   UNL     1       9.908  36.672  22.370  1.00  0.00    -0.550 OA
ATOM      8  O   UNL     1      11.136  35.810  24.101  1.00  0.00    -0.550 OA
ENDBRANCH   5   6
ENDBRANCH   1   5
TORSDOF 3
ENDMDL
