MODEL 1
REMARK VINA RESULT:    -3.598      0.000      0.000
REMARK INTER + INTRA:          -5.408
REMARK INTER:                  -4.754
REMARK INTRA:                  -0.653
REMARK UNBOUND:                -0.653
REMARK SMILES C=C[C@@H](O)CCCCC
REMARK SMILES IDX 6 1 7 2 8 3 9 4 5 5 3 6 2 7 1 8 4 9
REMARK H PARENT 4 10
REMARK Flexibility Score: inf
ROOT
ATOM      1  C   UNL     1     121.845 133.661 128.136  1.00  0.00     0.003 C 
ENDROOT
BRANCH   1   2
ATOM      2  C   UNL     1     120.899 134.559 128.942  1.00  0.00    -0.000 C 
BRANCH   2   3
ATOM      3  C   UNL     1     119.437 134.288 128.574  1.00  0.00    -0.003 C 
ATOM      4  C   UNL     1     119.324 133.647 127.193  1.00  0.00     0.004 C 
ENDBRANCH   2   3
ENDBRANCH   1   2
BRANCH   1   5
ATOM      5  C   UNL     1     122.574 132.666 129.051  1.00  0.00     0.036 C 
BRANCH   5   6
ATOM      6  C   UNL     1     122.095 131.216 128.834  1.00  0.00     0.136 C 
BRANCH   6   7
ATOM      7  C   UNL     1     120.871 130.891 129.659  1.00  0.00    -0.004 C 
ATOM      8  C   UNL     1     119.738 130.482 129.083  1.00  0.00     0.007 C 
ENDBRANCH   6   7
BRANCH   6   9
ATOM      9  O   UNL     1     121.832 130.993 127.470  1.00  0.00    -0.389 OA
ATOM     10  H   UNL     1     122.146 130.077 127.251  1.00  0.00     0.211 HD
ENDBRANCH   6   9
ENDBRANCH   5   6
ENDBRANCH   1   5
TORSDOF 6
ENDMDL
MODEL 2
REMARK VINA RESULT:    -3.478      1.642      3.474
REMARK INTER + INTRA:          -5.249
REMARK INTER:                  -4.689
REMARK INTRA:                  -0.560
REMARK UNBOUND:                -0.653
REMARK SMILES C=C[C@@H](O)CCCCC
REMARK SMILES IDX 6 1 7 2 8 3 9 4 5 5 3 6 2 7 1 8 4 9
REMARK H PARENT 4 10
REMARK Flexibility Score: inf
ROOT
ATOM      1  C   UNL     1     122.479 131.460 128.514  1.00  0.00     0.003 C 
ENDROOT
BRANCH   1   2
ATOM      2  C   UNL     1     121.577 130.290 128.922  1.00  0.00    -0.000 C 
BRANCH   2   3
ATOM      3  C   UNL     1     120.557 130.725 129.980  1.00  0.00    -0.003 C 
ATOM      4  C   UNL     1     119.128 130.480 129.501  1.00  0.00     0.004 C 
ENDBRANCH   2   3
ENDBRANCH   1   2
BRANCH   1   5
ATOM      5  C   UNL     1     122.140 132.724 129.319  1.00  0.00     0.036 C 
BRANCH   5   6
ATOM      6  C   UNL     1     121.763 133.911 128.409  1.00  0.00     0.136 C 
BRANCH   6   7
ATOM      7  C   UNL     1     120.359 133.786 127.862  1.00  0.00    -0.004 C 
ATOM      8  C   UNL     1     119.298 134.135 128.593  1.00  0.00     0.007 C 
ENDBRANCH   6   7
BRANCH   6   9
ATOM      9  O   UNL     1     121.902 135.121 129.112  1.00  0.00    -0.389 OA
ATOM     10  H   UNL     1     121.040 135.609 129.040  1.00  0.00     0.211 HD
ENDBRANCH   6   9
ENDBRANCH   5   6
ENDBRANCH   1   5
TORSDOF 6
ENDMDL
MODEL 3
REMARK VINA RESULT:    -3.464      2.037      3.944
REMARK INTER + INTRA:          -5.231
REMARK INTER:                  -4.800
REMARK INTRA:                  -0.431
REMARK UNBOUND:                -0.653
REMARK SMILES C=C[C@@H](O)CCCCC
REMARK SMILES IDX 6 1 7 2 8 3 9 4 5 5 3 6 2 7 1 8 4 9
REMARK H PARENT 4 10
REMARK Flexibility Score: inf
ROOT
ATOM      1  C   UNL     1     120.406 131.073 128.155  1.00  0.00     0.003 C 
ENDROOT
BRANCH   1   2
ATOM      2  C   UNL     1     121.661 130.888 129.014  1.00  0.00    -0.000 C 
BRANCH   2   3
ATOM      3  C   UNL     1     122.751 131.890 128.618  1.00  0.00    -0.003 C 
ATOM      4  C   UNL     1     122.552 133.230 129.322  1.00  0.00     0.004 C 
ENDBRANCH   2   3
ENDBRANCH   1   2
BRANCH   1   5
ATOM      5  C   UNL     1     119.194 131.445 129.023  1.00  0.00     0.036 C 
BRANCH   5   6
ATOM      6  C   UNL     1     118.720 132.891 128.773  1.00  0.00     0.136 C 
BRANCH   6   7
ATOM      7  C   UNL     1     119.317 133.476 127.512  1.00  0.00    -0.004 C 
ATOM      8  C   UNL     1     118.563 133.710 126.435  1.00  0.00     0.007 C 
ENDBRANCH   6   7
BRANCH   6   9
ATOM      9  O   UNL     1     117.316 132.935 128.708  1.00  0.00    -0.389 OA
ATOM     10  H   UNL     1     116.993 132.003 128.598  1.00  0.00     0.211 HD
ENDBRANCH   6   9
ENDBRANCH   5   6
ENDBRANCH   1   5
TORSDOF 6
ENDMDL
MODEL 4
REMARK VINA RESULT:    -3.424     11.810     13.629
REMARK INTER + INTRA:          -5.178
REMARK INTER:                  -4.619
REMARK INTRA:                  -0.559
REMARK UNBOUND:                -0.653
REMARK SMILES C=C[C@@H](O)CCCCC
REMARK SMILES IDX 6 1 7 2 8 3 9 4 5 5 3 6 2 7 1 8 4 9
REMARK H PARENT 4 10
REMARK Flexibility Score: inf
ROOT
ATOM      1  C   UNL     1     114.741 120.298 133.432  1.00  0.00     0.003 C 
ENDROOT
BRANCH   1   2
ATOM      2  C   UNL     1     115.704 120.824 134.503  1.00  0.00    -0.000 C 
BRANCH   2   3
ATOM      3  C   UNL     1     116.546 119.687 135.093  1.00  0.00    -0.003 C 
ATOM      4  C   UNL     1     118.033 120.028 135.061  1.00  0.00     0.004 C 
ENDBRANCH   2   3
ENDBRANCH   1   2
BRANCH   1   5
ATOM      5  C   UNL     1     114.915 121.063 132.112  1.00  0.00     0.036 C 
BRANCH   5   6
ATOM      6  C   UNL     1     116.020 122.136 132.200  1.00  0.00     0.136 C 
BRANCH   6   7
ATOM      7  C   UNL     1     117.194 121.818 131.302  1.00  0.00    -0.004 C 
ATOM      8  C   UNL     1     117.820 120.641 131.374  1.00  0.00     0.007 C 
ENDBRANCH   6   7
BRANCH   6   9
ATOM      9  O   UNL     1     115.493 123.399 131.879  1.00  0.00    -0.389 OA
ATOM     10  H   UNL     1     114.848 123.274 131.135  1.00  0.00     0.211 HD
ENDBRANCH   6   9
ENDBRANCH   5   6
ENDBRANCH   1   5
TORSDOF 6
ENDMDL
MODEL 5
REMARK VINA RESULT:    -3.374      1.869      3.580
REMARK INTER + INTRA:          -5.112
REMARK INTER:                  -4.817
REMARK INTRA:                  -0.295
REMARK UNBOUND:                -0.653
REMARK SMILES C=C[C@@H](O)CCCCC
REMARK SMILES IDX 6 1 7 2 8 3 9 4 5 5 3 6 2 7 1 8 4 9
REMARK H PARENT 4 10
REMARK Flexibility Score: inf
ROOT
ATOM      1  C   UNL     1     121.535 130.522 128.382  1.00  0.00     0.003 C 
ENDROOT
BRANCH   1   2
ATOM      2  C   UNL     1     120.147 131.155 128.539  1.00  0.00    -0.000 C 
BRANCH   2   3
ATOM      3  C   UNL     1     119.237 130.276 129.405  1.00  0.00    -0.003 C 
ATOM      4  C   UNL     1     119.570 128.797 129.231  1.00  0.00     0.004 C 
ENDBRANCH   2   3
ENDBRANCH   1   2
BRANCH   1   5
ATOM      5  C   UNL     1     122.643 131.565 128.592  1.00  0.00     0.036 C 
BRANCH   5   6
ATOM      6  C   UNL     1     122.099 133.008 128.562  1.00  0.00     0.136 C 
BRANCH   6   7
ATOM      7  C   UNL     1     122.605 133.831 129.725  1.00  0.00    -0.004 C 
ATOM      8  C   UNL     1     121.873 134.823 130.239  1.00  0.00     0.007 C 
ENDBRANCH   6   7
BRANCH   6   9
ATOM      9  O   UNL     1     122.440 133.628 127.346  1.00  0.00    -0.389 OA
ATOM     10  H   UNL     1     122.619 134.585 127.539  1.00  0.00     0.211 HD
ENDBRANCH   6   9
ENDBRANCH   5   6
ENDBRANCH   1   5
TORSDOF 6
ENDMDL
MODEL 6
REMARK VINA RESULT:    -3.369     11.665     13.367
REMARK INTER + INTRA:          -5.105
REMARK INTER:                  -4.795
REMARK INTRA:                  -0.310
REMARK UNBOUND:                -0.653
REMARK SMILES C=C[C@@H](O)CCCCC
REMARK SMILES IDX 6 1 7 2 8 3 9 4 5 5 3 6 2 7 1 8 4 9
REMARK H PARENT 4 10
REMARK Flexibility Score: inf
ROOT
ATOM      1  C   UNL     1     114.983 120.435 132.281  1.00  0.00     0.003 C 
ENDROOT
BRANCH   1   2
ATOM      2  C   UNL     1     114.822 120.441 133.805  1.00  0.00    -0.000 C 
BRANCH   2   3
ATOM      3  C   UNL     1     116.122 120.870 134.494  1.00  0.00    -0.003 C 
ATOM      4  C   UNL     1     116.832 119.675 135.125  1.00  0.00     0.004 C 
ENDBRANCH   2   3
ENDBRANCH   1   2
BRANCH   1   5
ATOM      5  C   UNL     1     116.245 121.201 131.857  1.00  0.00     0.036 C 
BRANCH   5   6
ATOM      6  C   UNL     1     115.920 122.406 130.951  1.00  0.00     0.136 C 
BRANCH   6   7
ATOM      7  C   UNL     1     114.765 122.120 130.017  1.00  0.00    -0.004 C 
ATOM      8  C   UNL     1     114.920 122.173 128.691  1.00  0.00     0.007 C 
ENDBRANCH   6   7
BRANCH   6   9
ATOM      9  O   UNL     1     115.637 123.538 131.735  1.00  0.00    -0.389 OA
ATOM     10  H   UNL     1     114.719 123.839 131.506  1.00  0.00     0.211 HD
ENDBRANCH   6   9
ENDBRANCH   5   6
ENDBRANCH   1   5
TORSDOF 6
ENDMDL
MODEL 7
REMARK VINA RESULT:    -3.324      2.265      3.251
REMARK INTER + INTRA:          -5.045
REMARK INTER:                  -4.756
REMARK INTRA:                  -0.290
REMARK UNBOUND:                -0.653
REMARK SMILES C=C[C@@H](O)CCCCC
REMARK SMILES IDX 6 1 7 2 8 3 9 4 5 5 3 6 2 7 1 8 4 9
REMARK H PARENT 4 10
REMARK Flexibility Score: inf
ROOT
ATOM      1  C   UNL     1     121.007 130.992 128.363  1.00  0.00     0.003 C 
ENDROOT
BRANCH   1   2
ATOM      2  C   UNL     1     122.345 131.658 128.704  1.00  0.00    -0.000 C 
BRANCH   2   3
ATOM      3  C   UNL     1     122.281 133.172 128.476  1.00  0.00    -0.003 C 
ATOM      4  C   UNL     1     122.528 133.937 129.773  1.00  0.00     0.004 C 
ENDBRANCH   2   3
ENDBRANCH   1   2
BRANCH   1   5
ATOM      5  C   UNL     1     119.964 131.263 129.458  1.00  0.00     0.036 C 
BRANCH   5   6
ATOM      6  C   UNL     1     119.714 130.026 130.344  1.00  0.00     0.136 C 
BRANCH   6   7
ATOM      7  C   UNL     1     120.056 128.737 129.632  1.00  0.00    -0.004 C 
ATOM      8  C   UNL     1     119.120 127.820 129.374  1.00  0.00     0.007 C 
ENDBRANCH   6   7
BRANCH   6   9
ATOM      9  O   UNL     1     120.452 130.129 131.537  1.00  0.00    -0.389 OA
ATOM     10  H   UNL     1     120.403 129.250 131.996  1.00  0.00     0.211 HD
ENDBRANCH   6   9
ENDBRANCH   5   6
ENDBRANCH   1   5
TORSDOF 6
ENDMDL
MODEL 8
REMARK VINA RESULT:    -3.318     15.355     16.478
REMARK INTER + INTRA:          -5.038
REMARK INTER:                  -4.711
REMARK INTRA:                  -0.326
REMARK UNBOUND:                -0.653
REMARK SMILES C=C[C@@H](O)CCCCC
REMARK SMILES IDX 6 1 7 2 8 3 9 4 5 5 3 6 2 7 1 8 4 9
REMARK H PARENT 4 10
REMARK Flexibility Score: inf
ROOT
ATOM      1  C   UNL     1     125.730 120.487 118.659  1.00  0.00     0.003 C 
ENDROOT
BRANCH   1   2
ATOM      2  C   UNL     1     126.956 119.670 119.082  1.00  0.00    -0.000 C 
BRANCH   2   3
ATOM      3  C   UNL     1     128.224 120.530 119.064  1.00  0.00    -0.003 C 
ATOM      4  C   UNL     1     127.899 121.997 119.333  1.00  0.00     0.004 C 
ENDBRANCH   2   3
ENDBRANCH   1   2
BRANCH   1   5
ATOM      5  C   UNL     1     124.502 119.583 118.472  1.00  0.00     0.036 C 
BRANCH   5   6
ATOM      6  C   UNL     1     124.235 118.700 119.708  1.00  0.00     0.136 C 
BRANCH   6   7
ATOM      7  C   UNL     1     123.792 119.513 120.903  1.00  0.00    -0.004 C 
ATOM      8  C   UNL     1     124.498 119.516 122.037  1.00  0.00     0.007 C 
ENDBRANCH   6   7
BRANCH   6   9
ATOM      9  O   UNL     1     123.270 117.722 119.404  1.00  0.00    -0.389 OA
ATOM     10  H   UNL     1     123.677 117.093 118.753  1.00  0.00     0.211 HD
ENDBRANCH   6   9
ENDBRANCH   5   6
ENDBRANCH   1   5
TORSDOF 6
ENDMDL
MODEL 9
REMARK VINA RESULT:    -3.310      1.332      2.594
REMARK INTER + INTRA:          -5.027
REMARK INTER:                  -4.682
REMARK INTRA:                  -0.345
REMARK UNBOUND:                -0.653
REMARK SMILES C=C[C@@H](O)CCCCC
REMARK SMILES IDX 6 1 7 2 8 3 9 4 5 5 3 6 2 7 1 8 4 9
REMARK H PARENT 4 10
REMARK Flexibility Score: inf
ROOT
ATOM      1  C   UNL     1     118.833 132.724 128.592  1.00  0.00     0.003 C 
ENDROOT
BRANCH   1   2
ATOM      2  C   UNL     1     119.287 133.806 127.605  1.00  0.00    -0.000 C 
BRANCH   2   3
ATOM      3  C   UNL     1     118.517 133.703 126.284  1.00  0.00    -0.003 C 
ATOM      4  C   UNL     1     117.053 134.095 126.467  1.00  0.00     0.004 C 
ENDBRANCH   2   3
ENDBRANCH   1   2
BRANCH   1   5
ATOM      5  C   UNL     1     120.040 131.994 129.201  1.00  0.00     0.036 C 
BRANCH   5   6
ATOM      6  C   UNL     1     121.292 132.088 128.306  1.00  0.00     0.136 C 
BRANCH   6   7
ATOM      7  C   UNL     1     122.502 132.576 129.071  1.00  0.00    -0.004 C 
ATOM      8  C   UNL     1     122.481 133.739 129.727  1.00  0.00     0.007 C 
ENDBRANCH   6   7
BRANCH   6   9
ATOM      9  O   UNL     1     121.562 130.839 127.720  1.00  0.00    -0.389 OA
ATOM     10  H   UNL     1     121.811 130.214 128.450  1.00  0.00     0.211 HD
ENDBRANCH   6   9
ENDBRANCH   5   6
ENDBRANCH   1   5
TORSDOF 6
ENDMDL
