MODEL 1
REMARK VINA RESULT:    -3.590      0.000      0.000
REMARK INTER + INTRA:          -8.250
REMARK INTER:                  -6.632
REMARK INTRA:                  -1.617
REMARK UNBOUND:                -1.617
REMARK SMILES CCCCCCCCCCCCCCCCO
REMARK SMILES IDX 9 1 8 2 7 3 6 4 5 5 4 6 3 7 2 8 1 9 10 10 11 11 12 12 13 13
REMARK SMILES IDX 14 14 15 15 16 16 17 17
REMARK H PARENT 17 18
REMARK Flexibility Score: inf
ROOT
ATOM      1  C   UNL     1     176.691 177.476 169.919  1.00  0.00     0.000 C 
ENDROOT
BRANCH   1   2
ATOM      2  C   UNL     1     175.855 177.773 171.178  1.00  0.00    -0.000 C 
BRANCH   2   3
ATOM      3  C   UNL     1     175.783 179.256 171.586  1.00  0.00    -0.000 C 
BRANCH   3   4
ATOM      4  C   UNL     1     175.509 180.193 170.399  1.00  0.00    -0.000 C 
BRANCH   4   5
ATOM      5  C   UNL     1     174.109 179.994 169.792  1.00  0.00    -0.000 C 
BRANCH   5   6
ATOM      6  C   UNL     1     174.036 180.322 168.285  1.00  0.00    -0.000 C 
BRANCH   6   7
ATOM      7  C   UNL     1     174.750 179.260 167.427  1.00  0.00    -0.000 C 
BRANCH   7   8
ATOM      8  C   UNL     1     175.928 179.839 166.631  1.00  0.00    -0.003 C 
ATOM      9  C   UNL     1     177.130 178.897 166.584  1.00  0.00     0.004 C 
ENDBRANCH   7   8
ENDBRANCH   6   7
ENDBRANCH   5   6
ENDBRANCH   4   5
ENDBRANCH   3   4
ENDBRANCH   2   3
ENDBRANCH   1   2
BRANCH   1  10
ATOM     10  C   UNL     1     178.071 176.877 170.244  1.00  0.00     0.000 C 
BRANCH  10  11
ATOM     11  C   UNL     1     178.883 176.532 168.983  1.00  0.00     0.000 C 
BRANCH  11  12
ATOM     12  C   UNL     1     179.122 175.027 168.754  1.00  0.00     0.000 C 
BRANCH  12  13
ATOM     13  C   UNL     1     178.373 174.118 169.751  1.00  0.00     0.000 C 
BRANCH  13  14
ATOM     14  C   UNL     1     177.287 173.271 169.063  1.00  0.00     0.002 C 
BRANCH  14  15
ATOM     15  C   UNL     1     175.954 174.021 168.921  1.00  0.00     0.028 C 
BRANCH  15  16
ATOM     16  C   UNL     1     175.428 174.029 167.483  1.00  0.00     0.156 C 
BRANCH  16  17
ATOM     17  O   UNL     1     174.230 173.305 167.423  1.00  0.00    -0.396 OA
ATOM     18  H   UNL     1     174.044 173.005 168.352  1.00  0.00     0.210 HD
ENDBRANCH  16  17
ENDBRANCH  15  16
ENDBRANCH  14  15
ENDBRANCH  13  14
ENDBRANCH  12  13
ENDBRANCH  11  12
ENDBRANCH  10  11
ENDBRANCH   1  10
TORSDOF 15
ENDMDL
MODEL 2
REMARK VINA RESULT:    -3.587     12.198     14.270
REMARK INTER + INTRA:          -8.245
REMARK INTER:                  -6.465
REMARK INTRA:                  -1.780
REMARK UNBOUND:                -1.617
REMARK SMILES CCCCCCCCCCCCCCCCO
REMARK SMILES IDX 9 1 8 2 7 3 6 4 5 5 4 6 3 7 2 8 1 9 10 10 11 11 12 12 13 13
REMARK SMILES IDX 14 14 15 15 16 16 17 17
REMARK H PARENT 17 18
REMARK Flexibility Score: inf
ROOT
ATOM      1  C   UNL     1     161.663 177.632 170.038  1.00  0.00     0.000 C 
ENDROOT
BRANCH   1   2
ATOM      2  C   UNL     1     160.459 178.033 169.165  1.00  0.00    -0.000 C 
BRANCH   2   3
ATOM      3  C   UNL     1     159.374 176.952 169.002  1.00  0.00    -0.000 C 
BRANCH   3   4
ATOM      4  C   UNL     1     158.931 176.760 167.543  1.00  0.00    -0.000 C 
BRANCH   4   5
ATOM      5  C   UNL     1     159.232 175.349 167.008  1.00  0.00    -0.000 C 
BRANCH   5   6
ATOM      6  C   UNL     1     160.218 175.335 165.820  1.00  0.00    -0.000 C 
BRANCH   6   7
ATOM      7  C   UNL     1     161.074 176.613 165.764  1.00  0.00    -0.000 C 
BRANCH   7   8
ATOM      8  C   UNL     1     162.517 176.338 165.315  1.00  0.00    -0.003 C 
ATOM      9  C   UNL     1     162.928 177.172 164.101  1.00  0.00     0.004 C 
ENDBRANCH   7   8
ENDBRANCH   6   7
ENDBRANCH   5   6
ENDBRANCH   4   5
ENDBRANCH   3   4
ENDBRANCH   2   3
ENDBRANCH   1   2
BRANCH   1  10
ATOM     10  C   UNL     1     163.008 178.100 169.454  1.00  0.00     0.000 C 
BRANCH  10  11
ATOM     11  C   UNL     1     162.845 178.894 168.146  1.00  0.00     0.000 C 
BRANCH  11  12
ATOM     12  C   UNL     1     164.161 179.225 167.415  1.00  0.00     0.000 C 
BRANCH  12  13
ATOM     13  C   UNL     1     165.287 178.199 167.665  1.00  0.00     0.000 C 
BRANCH  13  14
ATOM     14  C   UNL     1     165.892 177.669 166.353  1.00  0.00     0.002 C 
BRANCH  14  15
ATOM     15  C   UNL     1     165.910 176.134 166.288  1.00  0.00     0.028 C 
BRANCH  15  16
ATOM     16  C   UNL     1     166.388 175.603 164.934  1.00  0.00     0.156 C 
BRANCH  16  17
ATOM     17  O   UNL     1     167.104 174.414 165.128  1.00  0.00    -0.396 OA
ATOM     18  H   UNL     1     167.363 174.098 164.223  1.00  0.00     0.210 HD
ENDBRANCH  16  17
ENDBRANCH  15  16
ENDBRANCH  14  15
ENDBRANCH  13  14
ENDBRANCH  12  13
ENDBRANCH  11  12
ENDBRANCH  10  11
ENDBRANCH   1  10
TORSDOF 15
ENDMDL
MODEL 3
REMARK VINA RESULT:    -3.543      1.334      1.997
REMARK INTER + INTRA:          -8.163
REMARK INTER:                  -5.873
REMARK INTRA:                  -2.289
REMARK UNBOUND:                -1.617
REMARK SMILES CCCCCCCCCCCCCCCCO
REMARK SMILES IDX 9 1 8 2 7 3 6 4 5 5 4 6 3 7 2 8 1 9 10 10 11 11 12 12 13 13
REMARK SMILES IDX 14 14 15 15 16 16 17 17
REMARK H PARENT 17 18
REMARK Flexibility Score: inf
ROOT
ATOM      1  C   UNL     1     176.188 177.137 170.570  1.00  0.00     0.000 C 
ENDROOT
BRANCH   1   2
ATOM      2  C   UNL     1     175.621 178.470 171.093  1.00  0.00    -0.000 C 
BRANCH   2   3
ATOM      3  C   UNL     1     174.856 179.313 170.056  1.00  0.00    -0.000 C 
BRANCH   3   4
ATOM      4  C   UNL     1     175.693 180.469 169.486  1.00  0.00    -0.000 C 
BRANCH   4   5
ATOM      5  C   UNL     1     177.005 180.694 170.257  1.00  0.00    -0.000 C 
BRANCH   5   6
ATOM      6  C   UNL     1     178.268 180.319 169.452  1.00  0.00    -0.000 C 
BRANCH   6   7
ATOM      7  C   UNL     1     177.960 180.108 167.958  1.00  0.00    -0.000 C 
BRANCH   7   8
ATOM      8  C   UNL     1     178.282 178.684 167.485  1.00  0.00    -0.003 C 
ATOM      9  C   UNL     1     177.032 177.886 167.115  1.00  0.00     0.004 C 
ENDBRANCH   7   8
ENDBRANCH   6   7
ENDBRANCH   5   6
ENDBRANCH   4   5
ENDBRANCH   3   4
ENDBRANCH   2   3
ENDBRANCH   1   2
BRANCH   1  10
ATOM     10  C   UNL     1     177.684 176.960 170.883  1.00  0.00     0.000 C 
BRANCH  10  11
ATOM     11  C   UNL     1     178.355 175.895 169.998  1.00  0.00     0.000 C 
BRANCH  11  12
ATOM     12  C   UNL     1     178.205 174.444 170.496  1.00  0.00     0.000 C 
BRANCH  12  13
ATOM     13  C   UNL     1     177.551 173.496 169.468  1.00  0.00     0.000 C 
BRANCH  13  14
ATOM     14  C   UNL     1     177.841 173.923 168.018  1.00  0.00     0.002 C 
BRANCH  14  15
ATOM     15  C   UNL     1     176.571 173.990 167.156  1.00  0.00     0.028 C 
BRANCH  15  16
ATOM     16  C   UNL     1     175.372 174.571 167.909  1.00  0.00     0.156 C 
BRANCH  16  17
ATOM     17  O   UNL     1     174.300 173.673 167.837  1.00  0.00    -0.396 OA
ATOM     18  H   UNL     1     173.577 174.062 168.396  1.00  0.00     0.210 HD
ENDBRANCH  16  17
ENDBRANCH  15  16
ENDBRANCH  14  15
ENDBRANCH  13  14
ENDBRANCH  12  13
ENDBRANCH  11  12
ENDBRANCH  10  11
ENDBRANCH   1  10
TORSDOF 15
ENDMDL
MODEL 4
REMARK VINA RESULT:    -3.526     12.296     14.683
REMARK INTER + INTRA:          -8.132
REMARK INTER:                  -5.975
REMARK INTRA:                  -2.157
REMARK UNBOUND:                -1.617
REMARK SMILES CCCCCCCCCCCCCCCCO
REMARK SMILES IDX 9 1 8 2 7 3 6 4 5 5 4 6 3 7 2 8 1 9 10 10 11 11 12 12 13 13
REMARK SMILES IDX 14 14 15 15 16 16 17 17
REMARK H PARENT 17 18
REMARK Flexibility Score: inf
ROOT
ATOM      1  C   UNL     1     164.834 176.474 167.047  1.00  0.00     0.000 C 
ENDROOT
BRANCH   1   2
ATOM      2  C   UNL     1     166.010 176.342 166.061  1.00  0.00    -0.000 C 
BRANCH   2   3
ATOM      3  C   UNL     1     165.679 176.667 164.594  1.00  0.00    -0.000 C 
BRANCH   3   4
ATOM      4  C   UNL     1     165.642 178.177 164.306  1.00  0.00    -0.000 C 
BRANCH   4   5
ATOM      5  C   UNL     1     164.212 178.741 164.258  1.00  0.00    -0.000 C 
BRANCH   5   6
ATOM      6  C   UNL     1     163.183 177.767 163.645  1.00  0.00    -0.000 C 
BRANCH   6   7
ATOM      7  C   UNL     1     162.052 177.424 164.632  1.00  0.00    -0.000 C 
BRANCH   7   8
ATOM      8  C   UNL     1     161.956 175.919 164.921  1.00  0.00    -0.003 C 
ATOM      9  C   UNL     1     160.698 175.546 165.704  1.00  0.00     0.004 C 
ENDBRANCH   7   8
ENDBRANCH   6   7
ENDBRANCH   5   6
ENDBRANCH   4   5
ENDBRANCH   3   4
ENDBRANCH   2   3
ENDBRANCH   1   2
BRANCH   1  10
ATOM     10  C   UNL     1     164.885 177.774 167.870  1.00  0.00     0.000 C 
BRANCH  10  11
ATOM     11  C   UNL     1     163.539 178.110 168.535  1.00  0.00     0.000 C 
BRANCH  11  12
ATOM     12  C   UNL     1     162.674 179.135 167.774  1.00  0.00     0.000 C 
BRANCH  12  13
ATOM     13  C   UNL     1     161.156 178.876 167.888  1.00  0.00     0.000 C 
BRANCH  13  14
ATOM     14  C   UNL     1     160.839 177.681 168.806  1.00  0.00     0.002 C 
BRANCH  14  15
ATOM     15  C   UNL     1     159.341 177.567 169.130  1.00  0.00     0.028 C 
BRANCH  15  16
ATOM     16  C   UNL     1     158.938 178.373 170.368  1.00  0.00     0.156 C 
BRANCH  16  17
ATOM     17  O   UNL     1     160.030 178.460 171.240  1.00  0.00    -0.396 OA
ATOM     18  H   UNL     1     159.649 178.483 172.157  1.00  0.00     0.210 HD
ENDBRANCH  16  17
ENDBRANCH  15  16
ENDBRANCH  14  15
ENDBRANCH  13  14
ENDBRANCH  12  13
ENDBRANCH  11  12
ENDBRANCH  10  11
ENDBRANCH   1  10
TORSDOF 15
ENDMDL
MODEL 5
REMARK VINA RESULT:    -3.511     11.629     14.169
REMARK INTER + INTRA:          -8.105
REMARK INTER:                  -5.743
REMARK INTRA:                  -2.361
REMARK UNBOUND:                -1.617
REMARK SMILES CCCCCCCCCCCCCCCCO
REMARK SMILES IDX 9 1 8 2 7 3 6 4 5 5 4 6 3 7 2 8 1 9 10 10 11 11 12 12 13 13
REMARK SMILES IDX 14 14 15 15 16 16 17 17
REMARK H PARENT 17 18
REMARK Flexibility Score: inf
ROOT
ATOM      1  C   UNL     1     163.266 179.611 167.225  1.00  0.00     0.000 C 
ENDROOT
BRANCH   1   2
ATOM      2  C   UNL     1     164.785 179.826 167.083  1.00  0.00    -0.000 C 
BRANCH   2   3
ATOM      3  C   UNL     1     165.650 178.569 167.288  1.00  0.00    -0.000 C 
BRANCH   3   4
ATOM      4  C   UNL     1     164.824 177.274 167.347  1.00  0.00    -0.000 C 
BRANCH   4   5
ATOM      5  C   UNL     1     165.475 176.115 166.572  1.00  0.00    -0.000 C 
BRANCH   5   6
ATOM      6  C   UNL     1     165.584 176.370 165.053  1.00  0.00    -0.000 C 
BRANCH   6   7
ATOM      7  C   UNL     1     164.219 176.706 164.424  1.00  0.00    -0.000 C 
BRANCH   7   8
ATOM      8  C   UNL     1     164.273 177.952 163.528  1.00  0.00    -0.003 C 
ATOM      9  C   UNL     1     165.623 178.666 163.587  1.00  0.00     0.004 C 
ENDBRANCH   7   8
ENDBRANCH   6   7
ENDBRANCH   5   6
ENDBRANCH   4   5
ENDBRANCH   3   4
ENDBRANCH   2   3
ENDBRANCH   1   2
BRANCH   1  10
ATOM     10  C   UNL     1     162.491 179.946 165.939  1.00  0.00     0.000 C 
BRANCH  10  11
ATOM     11  C   UNL     1     161.227 179.087 165.765  1.00  0.00     0.000 C 
BRANCH  11  12
ATOM     12  C   UNL     1     161.322 177.662 166.345  1.00  0.00     0.000 C 
BRANCH  12  13
ATOM     13  C   UNL     1     160.212 177.329 167.364  1.00  0.00     0.000 C 
BRANCH  13  14
ATOM     14  C   UNL     1     160.179 178.328 168.534  1.00  0.00     0.002 C 
BRANCH  14  15
ATOM     15  C   UNL     1     160.582 177.687 169.871  1.00  0.00     0.028 C 
BRANCH  15  16
ATOM     16  C   UNL     1     162.087 177.421 169.972  1.00  0.00     0.156 C 
BRANCH  16  17
ATOM     17  O   UNL     1     162.716 178.529 170.555  1.00  0.00    -0.396 OA
ATOM     18  H   UNL     1     162.376 179.325 170.068  1.00  0.00     0.210 HD
ENDBRANCH  16  17
ENDBRANCH  15  16
ENDBRANCH  14  15
ENDBRANCH  13  14
ENDBRANCH  12  13
ENDBRANCH  11  12
ENDBRANCH  10  11
ENDBRANCH   1  10
TORSDOF 15
ENDMDL
MODEL 6
REMARK VINA RESULT:    -3.414     10.744     12.512
REMARK INTER + INTRA:          -7.925
REMARK INTER:                  -5.582
REMARK INTRA:                  -2.343
REMARK UNBOUND:                -1.617
REMARK SMILES CCCCCCCCCCCCCCCCO
REMARK SMILES IDX 9 1 8 2 7 3 6 4 5 5 4 6 3 7 2 8 1 9 10 10 11 11 12 12 13 13
REMARK SMILES IDX 14 14 15 15 16 16 17 17
REMARK H PARENT 17 18
REMARK Flexibility Score: inf
ROOT
ATOM      1  C   UNL     1     165.944 178.909 167.492  1.00  0.00     0.000 C 
ENDROOT
BRANCH   1   2
ATOM      2  C   UNL     1     165.310 180.183 166.901  1.00  0.00    -0.000 C 
BRANCH   2   3
ATOM      3  C   UNL     1     165.670 180.478 165.434  1.00  0.00    -0.000 C 
BRANCH   3   4
ATOM      4  C   UNL     1     164.754 179.755 164.433  1.00  0.00    -0.000 C 
BRANCH   4   5
ATOM      5  C   UNL     1     163.286 179.712 164.891  1.00  0.00    -0.000 C 
BRANCH   5   6
ATOM      6  C   UNL     1     162.612 178.339 164.683  1.00  0.00    -0.000 C 
BRANCH   6   7
ATOM      7  C   UNL     1     161.246 178.252 165.388  1.00  0.00    -0.000 C 
BRANCH   7   8
ATOM      8  C   UNL     1     161.346 177.652 166.797  1.00  0.00    -0.003 C 
ATOM      9  C   UNL     1     161.242 178.706 167.899  1.00  0.00     0.004 C 
ENDBRANCH   7   8
ENDBRANCH   6   7
ENDBRANCH   5   6
ENDBRANCH   4   5
ENDBRANCH   3   4
ENDBRANCH   2   3
ENDBRANCH   1   2
BRANCH   1  10
ATOM     10  C   UNL     1     164.900 177.854 167.898  1.00  0.00     0.000 C 
BRANCH  10  11
ATOM     11  C   UNL     1     164.892 176.633 166.962  1.00  0.00     0.000 C 
BRANCH  11  12
ATOM     12  C   UNL     1     166.088 176.547 165.993  1.00  0.00     0.000 C 
BRANCH  12  13
ATOM     13  C   UNL     1     165.693 176.174 164.548  1.00  0.00     0.000 C 
BRANCH  13  14
ATOM     14  C   UNL     1     166.661 176.768 163.509  1.00  0.00     0.002 C 
BRANCH  14  15
ATOM     15  C   UNL     1     167.338 175.691 162.647  1.00  0.00     0.028 C 
BRANCH  15  16
ATOM     16  C   UNL     1     167.080 174.272 163.160  1.00  0.00     0.156 C 
BRANCH  16  17
ATOM     17  O   UNL     1     168.195 173.831 163.885  1.00  0.00    -0.396 OA
ATOM     18  H   UNL     1     167.844 173.225 164.588  1.00  0.00     0.210 HD
ENDBRANCH  16  17
ENDBRANCH  15  16
ENDBRANCH  14  15
ENDBRANCH  13  14
ENDBRANCH  12  13
ENDBRANCH  11  12
ENDBRANCH  10  11
ENDBRANCH   1  10
TORSDOF 15
ENDMDL
MODEL 7
REMARK VINA RESULT:    -3.398     11.626     13.574
REMARK INTER + INTRA:          -7.895
REMARK INTER:                  -5.778
REMARK INTRA:                  -2.117
REMARK UNBOUND:                -1.617
REMARK SMILES CCCCCCCCCCCCCCCCO
REMARK SMILES IDX 9 1 8 2 7 3 6 4 5 5 4 6 3 7 2 8 1 9 10 10 11 11 12 12 13 13
REMARK SMILES IDX 14 14 15 15 16 16 17 17
REMARK H PARENT 17 18
REMARK Flexibility Score: inf
ROOT
ATOM      1  C   UNL     1     162.983 178.930 168.414  1.00  0.00     0.000 C 
ENDROOT
BRANCH   1   2
ATOM      2  C   UNL     1     162.879 177.942 169.591  1.00  0.00    -0.000 C 
BRANCH   2   3
ATOM      3  C   UNL     1     161.454 177.465 169.927  1.00  0.00    -0.000 C 
BRANCH   3   4
ATOM      4  C   UNL     1     160.393 178.018 168.963  1.00  0.00    -0.000 C 
BRANCH   4   5
ATOM      5  C   UNL     1     159.810 176.939 168.033  1.00  0.00    -0.000 C 
BRANCH   5   6
ATOM      6  C   UNL     1     160.231 177.101 166.557  1.00  0.00    -0.000 C 
BRANCH   6   7
ATOM      7  C   UNL     1     160.681 175.766 165.934  1.00  0.00    -0.000 C 
BRANCH   7   8
ATOM      8  C   UNL     1     161.989 175.896 165.141  1.00  0.00    -0.003 C 
ATOM      9  C   UNL     1     162.168 177.279 164.516  1.00  0.00     0.004 C 
ENDBRANCH   7   8
ENDBRANCH   6   7
ENDBRANCH   5   6
ENDBRANCH   4   5
ENDBRANCH   3   4
ENDBRANCH   2   3
ENDBRANCH   1   2
BRANCH   1  10
ATOM     10  C   UNL     1     164.102 178.564 167.423  1.00  0.00     0.000 C 
BRANCH  10  11
ATOM     11  C   UNL     1     164.519 177.086 167.515  1.00  0.00     0.000 C 
BRANCH  11  12
ATOM     12  C   UNL     1     165.509 176.618 166.430  1.00  0.00     0.000 C 
BRANCH  12  13
ATOM     13  C   UNL     1     165.983 177.747 165.491  1.00  0.00     0.000 C 
BRANCH  13  14
ATOM     14  C   UNL     1     166.342 177.224 164.088  1.00  0.00     0.002 C 
BRANCH  14  15
ATOM     15  C   UNL     1     165.595 175.930 163.731  1.00  0.00     0.028 C 
BRANCH  15  16
ATOM     16  C   UNL     1     166.523 174.839 163.189  1.00  0.00     0.156 C 
BRANCH  16  17
ATOM     17  O   UNL     1     167.621 174.697 164.046  1.00  0.00    -0.396 OA
ATOM     18  H   UNL     1     168.022 173.812 163.835  1.00  0.00     0.210 HD
ENDBRANCH  16  17
ENDBRANCH  15  16
ENDBRANCH  14  15
ENDBRANCH  13  14
ENDBRANCH  12  13
ENDBRANCH  11  12
ENDBRANCH  10  11
ENDBRANCH   1  10
TORSDOF 15
ENDMDL
MODEL 8
REMARK VINA RESULT:    -3.368     11.295     13.503
REMARK INTER + INTRA:          -7.841
REMARK INTER:                  -5.840
REMARK INTRA:                  -2.001
REMARK UNBOUND:                -1.617
REMARK SMILES CCCCCCCCCCCCCCCCO
REMARK SMILES IDX 9 1 8 2 7 3 6 4 5 5 4 6 3 7 2 8 1 9 10 10 11 11 12 12 13 13
REMARK SMILES IDX 14 14 15 15 16 16 17 17
REMARK H PARENT 17 18
REMARK Flexibility Score: inf
ROOT
ATOM      1  C   UNL     1     160.275 178.403 166.858  1.00  0.00     0.000 C 
ENDROOT
BRANCH   1   2
ATOM      2  C   UNL     1     160.142 178.523 168.388  1.00  0.00    -0.000 C 
BRANCH   2   3
ATOM      3  C   UNL     1     160.738 177.355 169.194  1.00  0.00    -0.000 C 
BRANCH   3   4
ATOM      4  C   UNL     1     162.012 177.742 169.961  1.00  0.00    -0.000 C 
BRANCH   4   5
ATOM      5  C   UNL     1     163.010 178.534 169.100  1.00  0.00    -0.000 C 
BRANCH   5   6
ATOM      6  C   UNL     1     164.185 177.682 168.571  1.00  0.00    -0.000 C 
BRANCH   6   7
ATOM      7  C   UNL     1     165.100 178.482 167.626  1.00  0.00    -0.000 C 
BRANCH   7   8
ATOM      8  C   UNL     1     164.339 179.558 166.838  1.00  0.00    -0.003 C 
ATOM      9  C   UNL     1     165.210 180.255 165.794  1.00  0.00     0.004 C 
ENDBRANCH   7   8
ENDBRANCH   6   7
ENDBRANCH   5   6
ENDBRANCH   4   5
ENDBRANCH   3   4
ENDBRANCH   2   3
ENDBRANCH   1   2
BRANCH   1  10
ATOM     10  C   UNL     1     160.886 177.062 166.413  1.00  0.00     0.000 C 
BRANCH  10  11
ATOM     11  C   UNL     1     161.864 177.216 165.235  1.00  0.00     0.000 C 
BRANCH  11  12
ATOM     12  C   UNL     1     163.125 176.333 165.315  1.00  0.00     0.000 C 
BRANCH  12  13
ATOM     13  C   UNL     1     164.261 176.783 164.373  1.00  0.00     0.000 C 
BRANCH  13  14
ATOM     14  C   UNL     1     165.651 176.401 164.914  1.00  0.00     0.002 C 
BRANCH  14  15
ATOM     15  C   UNL     1     166.683 176.185 163.796  1.00  0.00     0.028 C 
BRANCH  15  16
ATOM     16  C   UNL     1     167.181 174.740 163.720  1.00  0.00     0.156 C 
BRANCH  16  17
ATOM     17  O   UNL     1     167.122 174.161 164.994  1.00  0.00    -0.396 OA
ATOM     18  H   UNL     1     168.049 173.876 165.210  1.00  0.00     0.210 HD
ENDBRANCH  16  17
ENDBRANCH  15  16
ENDBRANCH  14  15
ENDBRANCH  13  14
ENDBRANCH  12  13
ENDBRANCH  11  12
ENDBRANCH  10  11
ENDBRANCH   1  10
TORSDOF 15
ENDMDL
MODEL 9
REMARK VINA RESULT:    -3.313     12.027     14.313
REMARK INTER + INTRA:          -7.739
REMARK INTER:                  -6.053
REMARK INTRA:                  -1.686
REMARK UNBOUND:                -1.617
REMARK SMILES CCCCCCCCCCCCCCCCO
REMARK SMILES IDX 9 1 8 2 7 3 6 4 5 5 4 6 3 7 2 8 1 9 10 10 11 11 12 12 13 13
REMARK SMILES IDX 14 14 15 15 16 16 17 17
REMARK H PARENT 17 18
REMARK Flexibility Score: inf
ROOT
ATOM      1  C   UNL     1     162.487 178.678 168.299  1.00  0.00     0.000 C 
ENDROOT
BRANCH   1   2
ATOM      2  C   UNL     1     163.477 178.018 167.320  1.00  0.00    -0.000 C 
BRANCH   2   3
ATOM      3  C   UNL     1     164.890 177.770 167.880  1.00  0.00    -0.000 C 
BRANCH   3   4
ATOM      4  C   UNL     1     165.966 178.628 167.197  1.00  0.00    -0.000 C 
BRANCH   4   5
ATOM      5  C   UNL     1     165.480 180.051 166.875  1.00  0.00    -0.000 C 
BRANCH   5   6
ATOM      6  C   UNL     1     165.586 180.419 165.379  1.00  0.00    -0.000 C 
BRANCH   6   7
ATOM      7  C   UNL     1     165.648 179.170 164.481  1.00  0.00    -0.000 C 
BRANCH   7   8
ATOM      8  C   UNL     1     164.288 178.825 163.857  1.00  0.00    -0.003 C 
ATOM      9  C   UNL     1     164.099 177.323 163.644  1.00  0.00     0.004 C 
ENDBRANCH   7   8
ENDBRANCH   6   7
ENDBRANCH   5   6
ENDBRANCH   4   5
ENDBRANCH   3   4
ENDBRANCH   2   3
ENDBRANCH   1   2
BRANCH   1  10
ATOM     10  C   UNL     1     162.527 178.051 169.704  1.00  0.00     0.000 C 
BRANCH  10  11
ATOM     11  C   UNL     1     161.193 177.396 170.102  1.00  0.00     0.000 C 
BRANCH  11  12
ATOM     12  C   UNL     1     159.961 177.902 169.326  1.00  0.00     0.000 C 
BRANCH  12  13
ATOM     13  C   UNL     1     159.191 176.789 168.586  1.00  0.00     0.000 C 
BRANCH  13  14
ATOM     14  C   UNL     1     159.298 176.926 167.056  1.00  0.00     0.002 C 
BRANCH  14  15
ATOM     15  C   UNL     1     159.859 175.662 166.387  1.00  0.00     0.028 C 
BRANCH  15  16
ATOM     16  C   UNL     1     160.986 175.964 165.397  1.00  0.00     0.156 C 
BRANCH  16  17
ATOM     17  O   UNL     1     162.051 175.082 165.622  1.00  0.00    -0.396 OA
ATOM     18  H   UNL     1     162.276 174.691 164.737  1.00  0.00     0.210 HD
ENDBRANCH  16  17
ENDBRANCH  15  16
ENDBRANCH  14  15
ENDBRANCH  13  14
ENDBRANCH  12  13
ENDBRANCH  11  12
ENDBRANCH  10  11
ENDBRANCH   1  10
TORSDOF 15
ENDMDL
