MODEL 1
REMARK VINA RESULT:    -1.623      0.000      0.000
REMARK INTER + INTRA:          -2.685
REMARK INTER:                  -2.478
REMARK INTRA:                  -0.207
REMARK UNBOUND:                -0.207
REMARK SMILES CC1=CCC[C@@H](C)C(=O)C[C@@H](C(C)C)C(=O)C1
REMARK SMILES IDX 8 1 9 2 6 3 7 4 5 5 4 6 3 7 2 8 1 9 10 11 11 12 15 13 16 14
REMARK SMILES IDX 17 15 12 17 13 18 14 19
REMARK H PARENT
REMARK Flexibility Score: 70.00
ROOT
ATOM      1  C   UNL     1       7.902 -32.393  15.948  1.00  0.00     0.136 C 
ATOM      2  O   UNL     1       6.860 -31.870  16.317  1.00  0.00    -0.299 OA
ENDROOT
BRANCH   1   3
ATOM      3  C   UNL     1       8.882 -32.938  16.989  1.00  0.00     0.053 C 
ATOM      4  C   UNL     1       8.162 -33.723  18.098  1.00  0.00     0.016 C 
BRANCH   3   5
ATOM      5  C   UNL     1       9.766 -31.819  17.615  1.00  0.00     0.015 C 
BRANCH   5   6
ATOM      6  C   UNL     1      10.134 -30.692  16.633  1.00  0.00     0.028 C 
BRANCH   6   7
ATOM      7  C   UNL     1      11.523 -30.807  16.040  1.00  0.00    -0.028 C 
ATOM      8  C   UNL     1      11.827 -31.168  14.770  1.00  0.00    -0.070 CG0
ATOM      9  C   UNL     1      13.278 -31.193  14.370  1.00  0.00     0.039 C 
ATOM     10  G   UNL     1      10.787 -31.553  13.735  1.00  0.00     0.000 G0
ENDBRANCH   6   7
ENDBRANCH   5   6
ENDBRANCH   3   5
ENDBRANCH   1   3
BRANCH   1  11
ATOM     11  C   UNL     1       8.148 -32.512  14.455  1.00  0.00     0.087 C 
BRANCH  11  12
ATOM     12  C   UNL     1       9.141 -33.657  14.068  1.00  0.00     0.066 C 
BRANCH  12  13
ATOM     13  C   UNL     1      10.458 -33.035  13.606  1.00  0.00     0.140 C 
ATOM     14  O   UNL     1      11.291 -33.765  13.087  1.00  0.00    -0.299 OA
BRANCH  13  15
ATOM     15  C   UNL     1      10.792 -31.555  13.704  1.00  0.00     0.106 CG0
ATOM     16  G   UNL     1      11.822 -31.196  14.758  1.00  0.00     0.000 G0
ENDBRANCH  13  15
ENDBRANCH  12  13
BRANCH  12  17
ATOM     17  C   UNL     1       8.540 -34.604  12.981  1.00  0.00    -0.006 C 
ATOM     18  C   UNL     1       9.053 -36.049  13.117  1.00  0.00     0.008 C 
ATOM     19  C   UNL     1       7.001 -34.627  13.047  1.00  0.00     0.008 C 
ENDBRANCH  12  17
ENDBRANCH  11  12
ENDBRANCH   1  11
TORSDOF 1
ENDMDL
MODEL 2
REMARK VINA RESULT:    -1.388      1.888      3.911
REMARK INTER + INTRA:          -2.326
REMARK INTER:                  -3.709
REMARK INTRA:                   1.383
REMARK UNBOUND:                -0.207
REMARK SMILES CC1=CCC[C@@H](C)C(=O)C[C@@H](C(C)C)C(=O)C1
REMARK SMILES IDX 8 1 9 2 6 3 7 4 5 5 4 6 3 7 2 8 1 9 10 11 11 12 15 13 16 14
REMARK SMILES IDX 17 15 12 17 13 18 14 19
REMARK H PARENT
REMARK Flexibility Score: 70.00
ROOT
ATOM      1  C   UNL     1       9.281 -33.957  13.044  1.00  0.00     0.136 C 
ATOM      2  O   UNL     1       9.725 -35.093  13.144  1.00  0.00    -0.299 OA
ENDROOT
BRANCH   1   3
ATOM      3  C   UNL     1      10.247 -32.775  12.963  1.00  0.00     0.053 C 
ATOM      4  C   UNL     1      11.708 -33.212  13.159  1.00  0.00     0.016 C 
BRANCH   3   5
ATOM      5  C   UNL     1       9.888 -31.645  13.972  1.00  0.00     0.015 C 
BRANCH   5   6
ATOM      6  C   UNL     1      10.766 -31.636  15.238  1.00  0.00     0.028 C 
BRANCH   6   7
ATOM      7  C   UNL     1      10.002 -31.432  16.529  1.00  0.00    -0.028 C 
ATOM      8  C   UNL     1       9.039 -32.243  17.028  1.00  0.00    -0.070 CG0
ATOM      9  C   UNL     1       8.418 -31.873  18.350  1.00  0.00     0.039 C 
ATOM     10  G   UNL     1       8.548 -33.495  16.327  1.00  0.00     0.000 G0
ENDBRANCH   6   7
ENDBRANCH   5   6
ENDBRANCH   3   5
ENDBRANCH   1   3
BRANCH   1  11
ATOM     11  C   UNL     1       7.774 -33.788  12.961  1.00  0.00     0.087 C 
BRANCH  11  12
ATOM     12  C   UNL     1       7.017 -34.250  14.249  1.00  0.00     0.066 C 
BRANCH  12  13
ATOM     13  C   UNL     1       7.371 -33.307  15.398  1.00  0.00     0.140 C 
ATOM     14  O   UNL     1       6.640 -32.350  15.606  1.00  0.00    -0.299 OA
BRANCH  13  15
ATOM     15  C   UNL     1       8.553 -33.501  16.336  1.00  0.00     0.106 CG0
ATOM     16  G   UNL     1       9.039 -32.241  17.026  1.00  0.00     0.000 G0
ENDBRANCH  13  15
ENDBRANCH  12  13
BRANCH  12  17
ATOM     17  C   UNL     1       7.334 -35.738  14.607  1.00  0.00    -0.006 C 
ATOM     18  C   UNL     1       6.642 -36.185  15.907  1.00  0.00     0.008 C 
ATOM     19  C   UNL     1       6.905 -36.690  13.474  1.00  0.00     0.008 C 
ENDBRANCH  12  17
ENDBRANCH  11  12
ENDBRANCH   1  11
TORSDOF 1
ENDMDL
MODEL 3
REMARK VINA RESULT:    -1.063      1.864      4.206
REMARK INTER + INTRA:          -1.830
REMARK INTER:                  -3.132
REMARK INTRA:                   1.302
REMARK UNBOUND:                -0.207
REMARK SMILES CC1=CCC[C@@H](C)C(=O)C[C@@H](C(C)C)C(=O)C1
REMARK SMILES IDX 8 1 9 2 6 3 7 4 5 5 4 6 3 7 2 8 1 9 10 11 11 12 15 13 16 14
REMARK SMILES IDX 17 15 12 17 13 18 14 19
REMARK H PARENT
REMARK Flexibility Score: 70.00
ROOT
ATOM      1  C   UNL     1       6.792 -33.741  14.798  1.00  0.00     0.136 C 
ATOM      2  O   UNL     1       6.187 -32.717  14.512  1.00  0.00    -0.299 OA
ENDROOT
BRANCH   1   3
ATOM      3  C   UNL     1       6.497 -35.030  14.028  1.00  0.00     0.053 C 
ATOM      4  C   UNL     1       6.276 -36.224  14.972  1.00  0.00     0.016 C 
BRANCH   3   5
ATOM      5  C   UNL     1       7.608 -35.368  12.991  1.00  0.00     0.015 C 
BRANCH   5   6
ATOM      6  C   UNL     1       8.788 -36.165  13.576  1.00  0.00     0.028 C 
BRANCH   6   7
ATOM      7  C   UNL     1      10.153 -35.596  13.248  1.00  0.00    -0.028 C 
ATOM      8  C   UNL     1      10.485 -34.284  13.201  1.00  0.00    -0.070 CG0
ATOM      9  C   UNL     1      11.913 -33.927  12.880  1.00  0.00     0.039 C 
ATOM     10  G   UNL     1       9.499 -33.158  13.447  1.00  0.00     0.000 G0
ENDBRANCH   6   7
ENDBRANCH   5   6
ENDBRANCH   3   5
ENDBRANCH   1   3
BRANCH   1  11
ATOM     11  C   UNL     1       7.846 -33.664  15.888  1.00  0.00     0.087 C 
BRANCH  11  12
ATOM     12  C   UNL     1       8.667 -32.334  15.878  1.00  0.00     0.066 C 
BRANCH  12  13
ATOM     13  C   UNL     1       9.698 -32.397  14.753  1.00  0.00     0.140 C 
ATOM     14  O   UNL     1      10.770 -31.832  14.919  1.00  0.00    -0.299 OA
BRANCH  13  15
ATOM     15  C   UNL     1       9.503 -33.154  13.449  1.00  0.00     0.106 CG0
ATOM     16  G   UNL     1      10.502 -34.268  13.195  1.00  0.00     0.000 G0
ENDBRANCH  13  15
ENDBRANCH  12  13
BRANCH  12  17
ATOM     17  C   UNL     1       9.341 -32.057  17.261  1.00  0.00    -0.006 C 
ATOM     18  C   UNL     1       9.405 -30.555  17.589  1.00  0.00     0.008 C 
ATOM     19  C   UNL     1       8.594 -32.774  18.402  1.00  0.00     0.008 C 
ENDBRANCH  12  17
ENDBRANCH  11  12
ENDBRANCH   1  11
TORSDOF 1
ENDMDL
MODEL 4
REMARK VINA RESULT:    -0.910      1.943      4.709
REMARK INTER + INTRA:          -1.596
REMARK INTER:                  -2.743
REMARK INTRA:                   1.147
REMARK UNBOUND:                -0.207
REMARK SMILES CC1=CCC[C@@H](C)C(=O)C[C@@H](C(C)C)C(=O)C1
REMARK SMILES IDX 8 1 9 2 6 3 7 4 5 5 4 6 3 7 2 8 1 9 10 11 11 12 15 13 16 14
REMARK SMILES IDX 17 15 12 17 13 18 14 19
REMARK H PARENT
REMARK Flexibility Score: 70.00
ROOT
ATOM      1  C   UNL     1       8.990 -34.914  13.068  1.00  0.00     0.136 C 
ATOM      2  O   UNL     1       9.831 -35.784  12.885  1.00  0.00    -0.299 OA
ENDROOT
BRANCH   1   3
ATOM      3  C   UNL     1       7.562 -35.315  13.442  1.00  0.00     0.053 C 
ATOM      4  C   UNL     1       7.208 -36.722  12.934  1.00  0.00     0.016 C 
BRANCH   3   5
ATOM      5  C   UNL     1       6.507 -34.285  12.940  1.00  0.00     0.015 C 
BRANCH   5   6
ATOM      6  C   UNL     1       5.934 -33.385  14.051  1.00  0.00     0.028 C 
BRANCH   6   7
ATOM      7  C   UNL     1       6.563 -33.593  15.412  1.00  0.00    -0.028 C 
ATOM      8  C   UNL     1       7.626 -32.921  15.916  1.00  0.00    -0.070 CG0
ATOM      9  C   UNL     1       8.081 -33.263  17.311  1.00  0.00     0.039 C 
ATOM     10  G   UNL     1       8.384 -31.853  15.152  1.00  0.00     0.000 G0
ENDBRANCH   6   7
ENDBRANCH   5   6
ENDBRANCH   3   5
ENDBRANCH   1   3
BRANCH   1  11
ATOM     11  C   UNL     1       9.428 -33.465  12.955  1.00  0.00     0.087 C 
BRANCH  11  12
ATOM     12  C   UNL     1      10.517 -33.052  13.999  1.00  0.00     0.066 C 
BRANCH  12  13
ATOM     13  C   UNL     1       9.883 -32.124  15.034  1.00  0.00     0.140 C 
ATOM     14  O   UNL     1      10.623 -31.512  15.791  1.00  0.00    -0.299 OA
BRANCH  13  15
ATOM     15  C   UNL     1       8.390 -31.869  15.161  1.00  0.00     0.106 CG0
ATOM     16  G   UNL     1       7.618 -32.932  15.920  1.00  0.00     0.000 G0
ENDBRANCH  13  15
ENDBRANCH  12  13
BRANCH  12  17
ATOM     17  C   UNL     1      11.756 -32.390  13.314  1.00  0.00    -0.006 C 
ATOM     18  C   UNL     1      12.247 -31.145  14.074  1.00  0.00     0.008 C 
ATOM     19  C   UNL     1      12.929 -33.383  13.198  1.00  0.00     0.008 C 
ENDBRANCH  12  17
ENDBRANCH  11  12
ENDBRANCH   1  11
TORSDOF 1
ENDMDL
MODEL 5
REMARK VINA RESULT:    -0.898      2.011      4.163
REMARK INTER + INTRA:          -1.577
REMARK INTER:                  -2.385
REMARK INTRA:                   0.808
REMARK UNBOUND:                -0.207
REMARK SMILES CC1=CCC[C@@H](C)C(=O)C[C@@H](C(C)C)C(=O)C1
REMARK SMILES IDX 8 1 9 2 6 3 7 4 5 5 4 6 3 7 2 8 1 9 10 11 11 12 15 13 16 14
REMARK SMILES IDX 17 15 12 17 13 18 14 19
REMARK H PARENT
REMARK Flexibility Score: 70.00
ROOT
ATOM      1  C   UNL     1       9.999 -31.122  16.835  1.00  0.00     0.136 C 
ATOM      2  O   UNL     1      10.514 -30.022  16.977  1.00  0.00    -0.299 OA
ENDROOT
BRANCH   1   3
ATOM      3  C   UNL     1       8.737 -31.472  17.625  1.00  0.00     0.053 C 
ATOM      4  C   UNL     1       9.026 -31.632  19.127  1.00  0.00     0.016 C 
BRANCH   3   5
ATOM      5  C   UNL     1       8.028 -32.746  17.078  1.00  0.00     0.015 C 
BRANCH   5   6
ATOM      6  C   UNL     1       6.954 -32.456  16.015  1.00  0.00     0.028 C 
BRANCH   6   7
ATOM      7  C   UNL     1       6.619 -33.635  15.125  1.00  0.00    -0.028 C 
ATOM      8  C   UNL     1       7.482 -34.310  14.328  1.00  0.00    -0.070 CG0
ATOM      9  C   UNL     1       6.951 -35.477  13.539  1.00  0.00     0.039 C 
ATOM     10  G   UNL     1       8.949 -33.950  14.183  1.00  0.00     0.000 G0
ENDBRANCH   6   7
ENDBRANCH   5   6
ENDBRANCH   3   5
ENDBRANCH   1   3
BRANCH   1  11
ATOM     11  C   UNL     1      10.627 -32.077  15.835  1.00  0.00     0.087 C 
BRANCH  11  12
ATOM     12  C   UNL     1      10.396 -31.670  14.343  1.00  0.00     0.066 C 
BRANCH  12  13
ATOM     13  C   UNL     1       9.259 -32.513  13.769  1.00  0.00     0.140 C 
ATOM     14  O   UNL     1       8.555 -32.019  12.900  1.00  0.00    -0.299 OA
BRANCH  13  15
ATOM     15  C   UNL     1       8.966 -33.950  14.171  1.00  0.00     0.106 CG0
ATOM     16  G   UNL     1       7.495 -34.289  14.324  1.00  0.00     0.000 G0
ENDBRANCH  13  15
ENDBRANCH  12  13
BRANCH  12  17
ATOM     17  C   UNL     1      11.701 -31.811  13.495  1.00  0.00    -0.006 C 
ATOM     18  C   UNL     1      12.926 -31.206  14.203  1.00  0.00     0.008 C 
ATOM     19  C   UNL     1      12.005 -33.287  13.175  1.00  0.00     0.008 C 
ENDBRANCH  12  17
ENDBRANCH  11  12
ENDBRANCH   1  11
TORSDOF 1
ENDMDL
MODEL 6
REMARK VINA RESULT:    -0.654      2.143      5.227
REMARK INTER + INTRA:          -1.205
REMARK INTER:                  -2.178
REMARK INTRA:                   0.973
REMARK UNBOUND:                -0.207
REMARK SMILES CC1=CCC[C@@H](C)C(=O)C[C@@H](C(C)C)C(=O)C1
REMARK SMILES IDX 8 1 9 2 6 3 7 4 5 5 4 6 3 7 2 8 1 9 10 11 11 12 15 13 16 14
REMARK SMILES IDX 17 15 12 17 13 18 14 19
REMARK H PARENT
REMARK Flexibility Score: 70.00
ROOT
ATOM      1  C   UNL     1      10.155 -32.102  14.063  1.00  0.00     0.136 C 
ATOM      2  O   UNL     1       9.884 -31.662  12.954  1.00  0.00    -0.299 OA
ENDROOT
BRANCH   1   3
ATOM      3  C   UNL     1      11.068 -33.323  14.185  1.00  0.00     0.053 C 
ATOM      4  C   UNL     1      11.965 -33.496  12.947  1.00  0.00     0.016 C 
BRANCH   3   5
ATOM      5  C   UNL     1      10.272 -34.634  14.455  1.00  0.00     0.015 C 
BRANCH   5   6
ATOM      6  C   UNL     1       9.669 -35.271  13.189  1.00  0.00     0.028 C 
BRANCH   6   7
ATOM      7  C   UNL     1       8.255 -34.828  12.878  1.00  0.00    -0.028 C 
ATOM      8  C   UNL     1       7.332 -34.401  13.774  1.00  0.00    -0.070 CG0
ATOM      9  C   UNL     1       5.984 -33.977  13.252  1.00  0.00     0.039 C 
ATOM     10  G   UNL     1       7.580 -34.335  15.269  1.00  0.00     0.000 G0
ENDBRANCH   6   7
ENDBRANCH   5   6
ENDBRANCH   3   5
ENDBRANCH   1   3
BRANCH   1  11
ATOM     11  C   UNL     1       9.597 -31.375  15.273  1.00  0.00     0.087 C 
BRANCH  11  12
ATOM     12  C   UNL     1       9.001 -32.327  16.361  1.00  0.00     0.066 C 
BRANCH  12  13
ATOM     13  C   UNL     1       7.694 -32.922  15.837  1.00  0.00     0.140 C 
ATOM     14  O   UNL     1       6.699 -32.212  15.829  1.00  0.00    -0.299 OA
BRANCH  13  15
ATOM     15  C   UNL     1       7.553 -34.329  15.278  1.00  0.00     0.106 CG0
ATOM     16  G   UNL     1       7.332 -34.408  13.780  1.00  0.00     0.000 G0
ENDBRANCH  13  15
ENDBRANCH  12  13
BRANCH  12  17
ATOM     17  C   UNL     1       8.792 -31.593  17.724  1.00  0.00    -0.006 C 
ATOM     18  C   UNL     1       8.618 -32.575  18.896  1.00  0.00     0.008 C 
ATOM     19  C   UNL     1       9.975 -30.659  18.044  1.00  0.00     0.008 C 
ENDBRANCH  12  17
ENDBRANCH  11  12
ENDBRANCH   1  11
TORSDOF 1
ENDMDL
MODEL 7
REMARK VINA RESULT:    -0.621      1.842      2.265
REMARK INTER + INTRA:          -1.156
REMARK INTER:                  -1.050
REMARK INTRA:                  -0.106
REMARK UNBOUND:                -0.207
REMARK SMILES CC1=CCC[C@@H](C)C(=O)C[C@@H](C(C)C)C(=O)C1
REMARK SMILES IDX 8 1 9 2 6 3 7 4 5 5 4 6 3 7 2 8 1 9 10 11 11 12 15 13 16 14
REMARK SMILES IDX 17 15 12 17 13 18 14 19
REMARK H PARENT
REMARK Flexibility Score: 70.00
ROOT
ATOM      1  C   UNL     1       8.115 -33.823  16.546  1.00  0.00     0.136 C 
ATOM      2  O   UNL     1       8.900 -34.665  16.961  1.00  0.00    -0.299 OA
ENDROOT
BRANCH   1   3
ATOM      3  C   UNL     1       8.095 -32.433  17.184  1.00  0.00     0.053 C 
ATOM      4  C   UNL     1       7.074 -31.505  16.505  1.00  0.00     0.016 C 
BRANCH   3   5
ATOM      5  C   UNL     1       9.501 -31.764  17.191  1.00  0.00     0.015 C 
BRANCH   5   6
ATOM      6  C   UNL     1       9.879 -31.088  15.861  1.00  0.00     0.028 C 
BRANCH   6   7
ATOM      7  C   UNL     1      10.686 -31.960  14.921  1.00  0.00    -0.028 C 
ATOM      8  C   UNL     1      10.328 -32.338  13.671  1.00  0.00    -0.070 CG0
ATOM      9  C   UNL     1      11.291 -33.190  12.887  1.00  0.00     0.039 C 
ATOM     10  G   UNL     1       9.011 -31.956  13.022  1.00  0.00     0.000 G0
ENDBRANCH   6   7
ENDBRANCH   5   6
ENDBRANCH   3   5
ENDBRANCH   1   3
BRANCH   1  11
ATOM     11  C   UNL     1       7.223 -34.198  15.376  1.00  0.00     0.087 C 
BRANCH  11  12
ATOM     12  C   UNL     1       7.971 -34.251  14.004  1.00  0.00     0.066 C 
BRANCH  12  13
ATOM     13  C   UNL     1       7.831 -32.896  13.311  1.00  0.00     0.140 C 
ATOM     14  O   UNL     1       6.710 -32.516  13.007  1.00  0.00    -0.299 OA
BRANCH  13  15
ATOM     15  C   UNL     1       8.991 -31.959  13.012  1.00  0.00     0.106 CG0
ATOM     16  G   UNL     1      10.305 -32.330  13.672  1.00  0.00     0.000 G0
ENDBRANCH  13  15
ENDBRANCH  12  13
BRANCH  12  17
ATOM     17  C   UNL     1       7.448 -35.414  13.102  1.00  0.00    -0.006 C 
ATOM     18  C   UNL     1       8.443 -36.585  13.024  1.00  0.00     0.008 C 
ATOM     19  C   UNL     1       6.099 -35.955  13.612  1.00  0.00     0.008 C 
ENDBRANCH  12  17
ENDBRANCH  11  12
ENDBRANCH   1  11
TORSDOF 1
ENDMDL
MODEL 8
REMARK VINA RESULT:     0.213      1.728      3.687
REMARK INTER + INTRA:           0.118
REMARK INTER:                  -3.565
REMARK INTRA:                   3.683
REMARK UNBOUND:                -0.207
REMARK SMILES CC1=CCC[C@@H](C)C(=O)C[C@@H](C(C)C)C(=O)C1
REMARK SMILES IDX 8 1 9 2 6 3 7 4 5 5 4 6 3 7 2 8 1 9 10 11 11 12 15 13 16 14
REMARK SMILES IDX 17 15 12 17 13 18 14 19
REMARK H PARENT
REMARK Flexibility Score: 70.00
ROOT
ATOM      1  C   UNL     1      10.862 -32.298  13.724  1.00  0.00     0.136 C 
ATOM      2  O   UNL     1      11.070 -33.483  13.945  1.00  0.00    -0.299 OA
ENDROOT
BRANCH   1   3
ATOM      3  C   UNL     1      11.881 -31.255  14.187  1.00  0.00     0.053 C 
ATOM      4  C   UNL     1      13.304 -31.592  13.711  1.00  0.00     0.016 C 
BRANCH   3   5
ATOM      5  C   UNL     1      11.867 -31.057  15.731  1.00  0.00     0.015 C 
BRANCH   5   6
ATOM      6  C   UNL     1      10.571 -30.423  16.268  1.00  0.00     0.028 C 
BRANCH   6   7
ATOM      7  C   UNL     1       9.985 -31.122  17.477  1.00  0.00    -0.028 C 
ATOM      8  C   UNL     1       8.849 -31.859  17.505  1.00  0.00    -0.070 CG0
ATOM      9  C   UNL     1       8.452 -32.497  18.811  1.00  0.00     0.039 C 
ATOM     10  G   UNL     1       7.954 -32.071  16.299  1.00  0.00     0.000 G0
ENDBRANCH   6   7
ENDBRANCH   5   6
ENDBRANCH   3   5
ENDBRANCH   1   3
BRANCH   1  11
ATOM     11  C   UNL     1       9.607 -31.928  12.954  1.00  0.00     0.087 C 
BRANCH  11  12
ATOM     12  C   UNL     1       8.284 -32.404  13.638  1.00  0.00     0.066 C 
BRANCH  12  13
ATOM     13  C   UNL     1       8.579 -32.758  15.095  1.00  0.00     0.140 C 
ATOM     14  O   UNL     1       9.408 -33.627  15.322  1.00  0.00    -0.299 OA
BRANCH  13  15
ATOM     15  C   UNL     1       7.944 -32.070  16.293  1.00  0.00     0.106 CG0
ATOM     16  G   UNL     1       8.860 -31.881  17.488  1.00  0.00     0.000 G0
ENDBRANCH  13  15
ENDBRANCH  12  13
BRANCH  12  17
ATOM     17  C   UNL     1       7.634 -33.603  12.876  1.00  0.00    -0.006 C 
ATOM     18  C   UNL     1       8.236 -34.956  13.294  1.00  0.00     0.008 C 
ATOM     19  C   UNL     1       6.112 -33.655  13.108  1.00  0.00     0.008 C 
ENDBRANCH  12  17
ENDBRANCH  11  12
ENDBRANCH   1  11
TORSDOF 1
ENDMDL
MODEL 9
REMARK VINA RESULT:     0.232      1.977      4.243
REMARK INTER + INTRA:           0.147
REMARK INTER:                  -2.629
REMARK INTRA:                   2.775
REMARK UNBOUND:                -0.207
REMARK SMILES CC1=CCC[C@@H](C)C(=O)C[C@@H](C(C)C)C(=O)C1
REMARK SMILES IDX 8 1 9 2 6 3 7 4 5 5 4 6 3 7 2 8 1 9 10 11 11 12 15 13 16 14
REMARK SMILES IDX 17 15 12 17 13 18 14 19
REMARK H PARENT
REMARK Flexibility Score: 70.00
ROOT
ATOM      1  C   UNL     1       8.097 -34.316  15.955  1.00  0.00     0.136 C 
ATOM      2  O   UNL     1       8.620 -35.368  15.615  1.00  0.00    -0.299 OA
ENDROOT
BRANCH   1   3
ATOM      3  C   UNL     1       6.658 -34.019  15.533  1.00  0.00     0.053 C 
ATOM      4  C   UNL     1       5.887 -35.303  15.181  1.00  0.00     0.016 C 
BRANCH   3   5
ATOM      5  C   UNL     1       6.582 -33.010  14.350  1.00  0.00     0.015 C 
BRANCH   5   6
ATOM      6  C   UNL     1       6.965 -33.615  12.986  1.00  0.00     0.028 C 
BRANCH   6   7
ATOM      7  C   UNL     1       8.405 -34.073  12.887  1.00  0.00    -0.028 C 
ATOM      8  C   UNL     1       9.502 -33.349  13.214  1.00  0.00    -0.070 CG0
ATOM      9  C   UNL     1      10.851 -34.004  13.067  1.00  0.00     0.039 C 
ATOM     10  G   UNL     1       9.447 -31.918  13.713  1.00  0.00     0.000 G0
ENDBRANCH   6   7
ENDBRANCH   5   6
ENDBRANCH   3   5
ENDBRANCH   1   3
BRANCH   1  11
ATOM     11  C   UNL     1       8.905 -33.369  16.824  1.00  0.00     0.087 C 
BRANCH  11  12
ATOM     12  C   UNL     1       8.869 -31.883  16.340  1.00  0.00     0.066 C 
BRANCH  12  13
ATOM     13  C   UNL     1       9.838 -31.719  15.170  1.00  0.00     0.140 C 
ATOM     14  O   UNL     1      11.003 -31.443  15.418  1.00  0.00    -0.299 OA
BRANCH  13  15
ATOM     15  C   UNL     1       9.464 -31.921  13.709  1.00  0.00     0.106 CG0
ATOM     16  G   UNL     1       9.502 -33.359  13.228  1.00  0.00     0.000 G0
ENDBRANCH  13  15
ENDBRANCH  12  13
BRANCH  12  17
ATOM     17  C   UNL     1       9.195 -30.886  17.499  1.00  0.00    -0.006 C 
ATOM     18  C   UNL     1       9.072 -31.543  18.885  1.00  0.00     0.008 C 
ATOM     19  C   UNL     1      10.617 -30.310  17.359  1.00  0.00     0.008 C 
ENDBRANCH  12  17
ENDBRANCH  11  12
ENDBRANCH   1  11
TORSDOF 1
ENDMDL
