MODEL 1
REMARK VINA RESULT:    -4.558      0.000      0.000
REMARK INTER + INTRA:          -5.780
REMARK INTER:                  -5.491
REMARK INTRA:                  -0.288
REMARK UNBOUND:                -0.288
REMARK SMILES NC(=O)C[C@@H]([NH3+])C(=O)[O-]
REMARK SMILES IDX 4 1 5 2 6 3 7 7 8 8 9 9 2 10 3 11 1 12
REMARK H PARENT 6 4 6 5 6 6 1 13 1 14
REMARK Flexibility Score: inf
ROOT
ATOM      1  C   UNL     1      21.296  -8.276 -21.127  1.00  0.00     0.171 C 
ENDROOT
BRANCH   1   2
ATOM      2  C   UNL     1      21.427  -8.834 -19.696  1.00  0.00     0.237 C 
BRANCH   2   3
ATOM      3  N   UNL     1      20.141  -8.800 -18.986  1.00  0.00    -0.350 N 
ATOM      4  H   UNL     1      19.410  -8.327 -19.566  1.00  0.00     0.345 HD
ATOM      5  H   UNL     1      19.830  -9.774 -18.770  1.00  0.00     0.345 HD
ATOM      6  H   UNL     1      20.246  -8.288 -18.080  1.00  0.00     0.345 HD
ENDBRANCH   2   3
BRANCH   2   7
ATOM      7  C   UNL     1      21.950 -10.245 -19.749  1.00  0.00     0.100 C 
ATOM      8  O   UNL     1      22.163 -10.882 -18.684  1.00  0.00    -0.544 OA
ATOM      9  O   UNL     1      22.218 -10.847 -20.972  1.00  0.00    -0.544 OA
ENDBRANCH   2   7
ENDBRANCH   1   2
BRANCH   1  10
ATOM     10  C   UNL     1      20.488  -7.012 -21.158  1.00  0.00     0.223 C 
ATOM     11  O   UNL     1      20.719  -6.100 -20.319  1.00  0.00    -0.275 OA
ATOM     12  N   UNL     1      19.478  -6.823 -22.148  1.00  0.00    -0.369 N 
ATOM     13  H   UNL     1      18.926  -5.937 -22.176  1.00  0.00     0.159 HD
ATOM     14  H   UNL     1      19.283  -7.565 -22.856  1.00  0.00     0.159 HD
ENDBRANCH   1  10
TORSDOF 4
ENDMDL
MODEL 2
REMARK VINA RESULT:    -4.463      1.741      2.197
REMARK INTER + INTRA:          -5.664
REMARK INTER:                  -5.412
REMARK INTRA:                  -0.252
REMARK UNBOUND:                -0.288
REMARK SMILES NC(=O)C[C@@H]([NH3+])C(=O)[O-]
REMARK SMILES IDX 4 1 5 2 6 3 7 7 8 8 9 9 2 10 3 11 1 12
REMARK H PARENT 6 4 6 5 6 6 1 13 1 14
REMARK Flexibility Score: inf
ROOT
ATOM      1  C   UNL     1      20.901  -8.427 -20.122  1.00  0.00     0.171 C 
ENDROOT
BRANCH   1   2
ATOM      2  C   UNL     1      21.163  -9.403 -21.287  1.00  0.00     0.237 C 
BRANCH   2   3
ATOM      3  N   UNL     1      22.041  -8.803 -22.302  1.00  0.00    -0.350 N 
ATOM      4  H   UNL     1      23.009  -9.194 -22.232  1.00  0.00     0.345 HD
ATOM      5  H   UNL     1      21.661  -8.996 -23.257  1.00  0.00     0.345 HD
ATOM      6  H   UNL     1      22.078  -7.766 -22.176  1.00  0.00     0.345 HD
ENDBRANCH   2   3
BRANCH   2   7
ATOM      7  C   UNL     1      21.776 -10.671 -20.758  1.00  0.00     0.100 C 
ATOM      8  O   UNL     1      22.142 -11.577 -21.552  1.00  0.00    -0.544 OA
ATOM      9  O   UNL     1      21.928 -10.857 -19.389  1.00  0.00    -0.544 OA
ENDBRANCH   2   7
ENDBRANCH   1   2
BRANCH   1  10
ATOM     10  C   UNL     1      20.707  -7.021 -20.608  1.00  0.00     0.223 C 
ATOM     11  O   UNL     1      20.121  -6.812 -21.705  1.00  0.00    -0.275 OA
ATOM     12  N   UNL     1      21.157  -5.917 -19.824  1.00  0.00    -0.369 N 
ATOM     13  H   UNL     1      21.009  -4.938 -20.158  1.00  0.00     0.159 HD
ATOM     14  H   UNL     1      21.633  -6.074 -18.909  1.00  0.00     0.159 HD
ENDBRANCH   1  10
TORSDOF 4
ENDMDL
MODEL 3
REMARK VINA RESULT:    -4.405      1.338      1.348
REMARK INTER + INTRA:          -5.594
REMARK INTER:                  -5.249
REMARK INTRA:                  -0.346
REMARK UNBOUND:                -0.288
REMARK SMILES NC(=O)C[C@@H]([NH3+])C(=O)[O-]
REMARK SMILES IDX 4 1 5 2 6 3 7 7 8 8 9 9 2 10 3 11 1 12
REMARK H PARENT 6 4 6 5 6 6 1 13 1 14
REMARK Flexibility Score: inf
ROOT
ATOM      1  C   UNL     1      22.143  -7.950 -20.045  1.00  0.00     0.171 C 
ENDROOT
BRANCH   1   2
ATOM      2  C   UNL     1      21.552  -9.162 -19.298  1.00  0.00     0.237 C 
BRANCH   2   3
ATOM      3  N   UNL     1      20.124  -8.971 -19.009  1.00  0.00    -0.350 N 
ATOM      4  H   UNL     1      19.558  -9.762 -19.395  1.00  0.00     0.345 HD
ATOM      5  H   UNL     1      19.976  -8.916 -17.975  1.00  0.00     0.345 HD
ATOM      6  H   UNL     1      19.791  -8.073 -19.428  1.00  0.00     0.345 HD
ENDBRANCH   2   3
BRANCH   2   7
ATOM      7  C   UNL     1      21.751 -10.408 -20.118  1.00  0.00     0.100 C 
ATOM      8  O   UNL     1      21.426 -11.532 -19.651  1.00  0.00    -0.544 OA
ATOM      9  O   UNL     1      22.308 -10.330 -21.388  1.00  0.00    -0.544 OA
ENDBRANCH   2   7
ENDBRANCH   1   2
BRANCH   1  10
ATOM     10  C   UNL     1      21.068  -7.073 -20.618  1.00  0.00     0.223 C 
ATOM     11  O   UNL     1      20.371  -7.486 -21.584  1.00  0.00    -0.275 OA
ATOM     12  N   UNL     1      20.811  -5.786 -20.059  1.00  0.00    -0.369 N 
ATOM     13  H   UNL     1      20.054  -5.183 -20.450  1.00  0.00     0.159 HD
ATOM     14  H   UNL     1      21.372  -5.436 -19.252  1.00  0.00     0.159 HD
ENDBRANCH   1  10
TORSDOF 4
ENDMDL
MODEL 4
REMARK VINA RESULT:    -4.307     16.667     17.110
REMARK INTER + INTRA:          -5.477
REMARK INTER:                  -5.195
REMARK INTRA:                  -0.282
REMARK UNBOUND:                -0.288
REMARK SMILES NC(=O)C[C@@H]([NH3+])C(=O)[O-]
REMARK SMILES IDX 4 1 5 2 6 3 7 7 8 8 9 9 2 10 3 11 1 12
REMARK H PARENT 6 4 6 5 6 6 1 13 1 14
REMARK Flexibility Score: inf
ROOT
ATOM      1  C   UNL     1       4.279  -5.792 -17.724  1.00  0.00     0.171 C 
ENDROOT
BRANCH   1   2
ATOM      2  C   UNL     1       4.212  -7.314 -17.482  1.00  0.00     0.237 C 
BRANCH   2   3
ATOM      3  N   UNL     1       5.472  -7.972 -17.856  1.00  0.00    -0.350 N 
ATOM      4  H   UNL     1       5.368  -9.013 -17.830  1.00  0.00     0.345 HD
ATOM      5  H   UNL     1       5.752  -7.679 -18.820  1.00  0.00     0.345 HD
ATOM      6  H   UNL     1       6.234  -7.686 -17.200  1.00  0.00     0.345 HD
ENDBRANCH   2   3
BRANCH   2   7
ATOM      7  C   UNL     1       3.899  -7.583 -16.035  1.00  0.00     0.100 C 
ATOM      8  O   UNL     1       4.334  -6.812 -15.139  1.00  0.00    -0.544 OA
ATOM      9  O   UNL     1       3.141  -8.691 -15.676  1.00  0.00    -0.544 OA
ENDBRANCH   2   7
ENDBRANCH   1   2
BRANCH   1  10
ATOM     10  C   UNL     1       4.851  -5.470 -19.073  1.00  0.00     0.223 C 
ATOM     11  O   UNL     1       4.405  -6.051 -20.099  1.00  0.00    -0.275 OA
ATOM     12  N   UNL     1       5.878  -4.488 -19.207  1.00  0.00    -0.369 N 
ATOM     13  H   UNL     1       6.266  -4.255 -20.148  1.00  0.00     0.159 HD
ATOM     14  H   UNL     1       6.250  -3.991 -18.368  1.00  0.00     0.159 HD
ENDBRANCH   1  10
TORSDOF 4
ENDMDL
MODEL 5
REMARK VINA RESULT:    -4.167      1.683      3.848
REMARK INTER + INTRA:          -5.308
REMARK INTER:                  -4.913
REMARK INTRA:                  -0.395
REMARK UNBOUND:                -0.288
REMARK SMILES NC(=O)C[C@@H]([NH3+])C(=O)[O-]
REMARK SMILES IDX 4 1 5 2 6 3 7 7 8 8 9 9 2 10 3 11 1 12
REMARK H PARENT 6 4 6 5 6 6 1 13 1 14
REMARK Flexibility Score: inf
ROOT
ATOM      1  C   UNL     1      22.257  -8.990 -19.715  1.00  0.00     0.171 C 
ENDROOT
BRANCH   1   2
ATOM      2  C   UNL     1      22.112  -8.371 -21.120  1.00  0.00     0.237 C 
BRANCH   2   3
ATOM      3  N   UNL     1      21.995  -9.409 -22.155  1.00  0.00    -0.350 N 
ATOM      4  H   UNL     1      21.132  -9.981 -22.009  1.00  0.00     0.345 HD
ATOM      5  H   UNL     1      21.957  -8.963 -23.100  1.00  0.00     0.345 HD
ATOM      6  H   UNL     1      22.832 -10.035 -22.129  1.00  0.00     0.345 HD
ENDBRANCH   2   3
BRANCH   2   7
ATOM      7  C   UNL     1      20.908  -7.469 -21.155  1.00  0.00     0.100 C 
ATOM      8  O   UNL     1      20.014  -7.641 -22.024  1.00  0.00    -0.544 OA
ATOM      9  O   UNL     1      20.783  -6.432 -20.239  1.00  0.00    -0.544 OA
ENDBRANCH   2   7
ENDBRANCH   1   2
BRANCH   1  10
ATOM     10  C   UNL     1      21.010  -9.711 -19.296  1.00  0.00     0.223 C 
ATOM     11  O   UNL     1      20.754 -10.850 -19.771  1.00  0.00    -0.275 OA
ATOM     12  N   UNL     1      20.125  -9.128 -18.340  1.00  0.00    -0.369 N 
ATOM     13  H   UNL     1      19.264  -9.638 -18.039  1.00  0.00     0.159 HD
ATOM     14  H   UNL     1      20.329  -8.191 -17.929  1.00  0.00     0.159 HD
ENDBRANCH   1  10
TORSDOF 4
ENDMDL
MODEL 6
REMARK VINA RESULT:    -4.112      8.371      8.800
REMARK INTER + INTRA:          -5.242
REMARK INTER:                  -4.773
REMARK INTRA:                  -0.469
REMARK UNBOUND:                -0.288
REMARK SMILES NC(=O)C[C@@H]([NH3+])C(=O)[O-]
REMARK SMILES IDX 4 1 5 2 6 3 7 7 8 8 9 9 2 10 3 11 1 12
REMARK H PARENT 6 4 6 5 6 6 1 13 1 14
REMARK Flexibility Score: inf
ROOT
ATOM      1  C   UNL     1      13.336  -9.151 -16.310  1.00  0.00     0.171 C 
ENDROOT
BRANCH   1   2
ATOM      2  C   UNL     1      12.465  -8.940 -17.565  1.00  0.00     0.237 C 
BRANCH   2   3
ATOM      3  N   UNL     1      13.152  -8.107 -18.561  1.00  0.00    -0.350 N 
ATOM      4  H   UNL     1      12.742  -7.145 -18.587  1.00  0.00     0.345 HD
ATOM      5  H   UNL     1      14.169  -8.040 -18.326  1.00  0.00     0.345 HD
ATOM      6  H   UNL     1      13.070  -8.541 -19.509  1.00  0.00     0.345 HD
ENDBRANCH   2   3
BRANCH   2   7
ATOM      7  C   UNL     1      12.108 -10.273 -18.163  1.00  0.00     0.100 C 
ATOM      8  O   UNL     1      13.009 -11.118 -18.409  1.00  0.00    -0.544 OA
ATOM      9  O   UNL     1      10.786 -10.575 -18.465  1.00  0.00    -0.544 OA
ENDBRANCH   2   7
ENDBRANCH   1   2
BRANCH   1  10
ATOM     10  C   UNL     1      14.780  -8.839 -16.578  1.00  0.00     0.223 C 
ATOM     11  O   UNL     1      15.225  -7.683 -16.347  1.00  0.00    -0.275 OA
ATOM     12  N   UNL     1      15.659  -9.852 -17.066  1.00  0.00    -0.369 N 
ATOM     13  H   UNL     1      16.665  -9.637 -17.240  1.00  0.00     0.159 HD
ATOM     14  H   UNL     1      15.306 -10.817 -17.252  1.00  0.00     0.159 HD
ENDBRANCH   1  10
TORSDOF 4
ENDMDL
MODEL 7
REMARK VINA RESULT:    -4.053      2.357      2.869
REMARK INTER + INTRA:          -5.170
REMARK INTER:                  -4.878
REMARK INTRA:                  -0.292
REMARK UNBOUND:                -0.288
REMARK SMILES NC(=O)C[C@@H]([NH3+])C(=O)[O-]
REMARK SMILES IDX 4 1 5 2 6 3 7 7 8 8 9 9 2 10 3 11 1 12
REMARK H PARENT 6 4 6 5 6 6 1 13 1 14
REMARK Flexibility Score: inf
ROOT
ATOM      1  C   UNL     1      21.913 -10.314 -19.662  1.00  0.00     0.171 C 
ENDROOT
BRANCH   1   2
ATOM      2  C   UNL     1      20.890  -9.964 -18.562  1.00  0.00     0.237 C 
BRANCH   2   3
ATOM      3  N   UNL     1      20.079  -8.797 -18.936  1.00  0.00    -0.350 N 
ATOM      4  H   UNL     1      19.168  -8.799 -18.420  1.00  0.00     0.345 HD
ATOM      5  H   UNL     1      20.599  -7.918 -18.711  1.00  0.00     0.345 HD
ATOM      6  H   UNL     1      19.891  -8.805 -19.964  1.00  0.00     0.345 HD
ENDBRANCH   2   3
BRANCH   2   7
ATOM      7  C   UNL     1      20.001 -11.150 -18.303  1.00  0.00     0.100 C 
ATOM      8  O   UNL     1      20.355 -12.300 -18.675  1.00  0.00    -0.544 OA
ATOM      9  O   UNL     1      18.777 -10.983 -17.666  1.00  0.00    -0.544 OA
ENDBRANCH   2   7
ENDBRANCH   1   2
BRANCH   1  10
ATOM     10  C   UNL     1      22.346  -9.096 -20.425  1.00  0.00     0.223 C 
ATOM     11  O   UNL     1      22.839  -8.113 -19.809  1.00  0.00    -0.275 OA
ATOM     12  N   UNL     1      22.229  -9.054 -21.846  1.00  0.00    -0.369 N 
ATOM     13  H   UNL     1      22.542  -8.211 -22.376  1.00  0.00     0.159 HD
ATOM     14  H   UNL     1      21.832  -9.865 -22.370  1.00  0.00     0.159 HD
ENDBRANCH   1  10
TORSDOF 4
ENDMDL
MODEL 8
REMARK VINA RESULT:    -4.027      8.802      9.139
REMARK INTER + INTRA:          -5.139
REMARK INTER:                  -4.761
REMARK INTRA:                  -0.378
REMARK UNBOUND:                -0.288
REMARK SMILES NC(=O)C[C@@H]([NH3+])C(=O)[O-]
REMARK SMILES IDX 4 1 5 2 6 3 7 7 8 8 9 9 2 10 3 11 1 12
REMARK H PARENT 6 4 6 5 6 6 1 13 1 14
REMARK Flexibility Score: inf
ROOT
ATOM      1  C   UNL     1      13.037 -10.227 -17.816  1.00  0.00     0.171 C 
ENDROOT
BRANCH   1   2
ATOM      2  C   UNL     1      14.109  -9.926 -16.749  1.00  0.00     0.237 C 
BRANCH   2   3
ATOM      3  N   UNL     1      14.964  -8.800 -17.151  1.00  0.00    -0.350 N 
ATOM      4  H   UNL     1      15.641  -9.095 -17.893  1.00  0.00     0.345 HD
ATOM      5  H   UNL     1      14.373  -8.019 -17.517  1.00  0.00     0.345 HD
ATOM      6  H   UNL     1      15.495  -8.441 -16.325  1.00  0.00     0.345 HD
ENDBRANCH   2   3
BRANCH   2   7
ATOM      7  C   UNL     1      13.443  -9.624 -15.434  1.00  0.00     0.100 C 
ATOM      8  O   UNL     1      13.904  -8.725 -14.682  1.00  0.00    -0.544 OA
ATOM      9  O   UNL     1      12.326 -10.346 -15.032  1.00  0.00    -0.544 OA
ENDBRANCH   2   7
ENDBRANCH   1   2
BRANCH   1  10
ATOM     10  C   UNL     1      12.094  -9.074 -17.997  1.00  0.00     0.223 C 
ATOM     11  O   UNL     1      12.525  -7.977 -18.443  1.00  0.00    -0.275 OA
ATOM     12  N   UNL     1      10.707  -9.220 -17.695  1.00  0.00    -0.369 N 
ATOM     13  H   UNL     1      10.051  -8.421 -17.834  1.00  0.00     0.159 HD
ATOM     14  H   UNL     1      10.335 -10.126 -17.335  1.00  0.00     0.159 HD
ENDBRANCH   1  10
TORSDOF 4
ENDMDL
MODEL 9
REMARK VINA RESULT:    -4.018      8.346      8.698
REMARK INTER + INTRA:          -5.129
REMARK INTER:                  -4.782
REMARK INTRA:                  -0.346
REMARK UNBOUND:                -0.288
REMARK SMILES NC(=O)C[C@@H]([NH3+])C(=O)[O-]
REMARK SMILES IDX 4 1 5 2 6 3 7 7 8 8 9 9 2 10 3 11 1 12
REMARK H PARENT 6 4 6 5 6 6 1 13 1 14
REMARK Flexibility Score: inf
ROOT
ATOM      1  C   UNL     1      12.464  -9.635 -16.421  1.00  0.00     0.171 C 
ENDROOT
BRANCH   1   2
ATOM      2  C   UNL     1      13.700 -10.479 -16.794  1.00  0.00     0.237 C 
BRANCH   2   3
ATOM      3  N   UNL     1      13.713 -10.808 -18.226  1.00  0.00    -0.350 N 
ATOM      4  H   UNL     1      13.967 -11.812 -18.374  1.00  0.00     0.345 HD
ATOM      5  H   UNL     1      12.769 -10.629 -18.639  1.00  0.00     0.345 HD
ATOM      6  H   UNL     1      14.402 -10.201 -18.727  1.00  0.00     0.345 HD
ENDBRANCH   2   3
BRANCH   2   7
ATOM      7  C   UNL     1      14.953  -9.733 -16.424  1.00  0.00     0.100 C 
ATOM      8  O   UNL     1      16.074 -10.302 -16.499  1.00  0.00    -0.544 OA
ATOM      9  O   UNL     1      14.881  -8.418 -15.980  1.00  0.00    -0.544 OA
ENDBRANCH   2   7
ENDBRANCH   1   2
BRANCH   1  10
ATOM     10  C   UNL     1      11.796  -9.063 -17.637  1.00  0.00     0.223 C 
ATOM     11  O   UNL     1      12.423  -8.259 -18.377  1.00  0.00    -0.275 OA
ATOM     12  N   UNL     1      10.463  -9.444 -17.975  1.00  0.00    -0.369 N 
ATOM     13  H   UNL     1      10.004  -9.055 -18.829  1.00  0.00     0.159 HD
ATOM     14  H   UNL     1       9.935 -10.117 -17.377  1.00  0.00     0.159 HD
ENDBRANCH   1  10
TORSDOF 4
ENDMDL
