MODEL 1
REMARK VINA RESULT:    -3.554      0.000      0.000
REMARK INTER + INTRA:          -5.012
REMARK INTER:                  -4.800
REMARK INTRA:                  -0.212
REMARK UNBOUND:                -0.212
REMARK SMILES CCCCCCCC(=O)[O-]
REMARK SMILES IDX 5 1 6 2 7 3 8 4 9 5 10 6 4 7 3 8 2 9 1 10
REMARK H PARENT
REMARK Flexibility Score: inf
ROOT
ATOM      1  C   UNL     1      56.764  28.002  50.341  1.00  0.00     0.000 C 
ENDROOT
BRANCH   1   2
ATOM      2  C   UNL     1      57.853  29.088  50.397  1.00  0.00     0.006 C 
BRANCH   2   3
ATOM      3  C   UNL     1      58.791  29.104  49.179  1.00  0.00     0.053 C 
BRANCH   3   4
ATOM      4  C   UNL     1      59.938  28.155  49.341  1.00  0.00     0.041 C 
ATOM      5  O   UNL     1      59.798  26.937  49.056  1.00  0.00    -0.550 OA
ATOM      6  O   UNL     1      61.172  28.623  49.774  1.00  0.00    -0.550 OA
ENDBRANCH   3   4
ENDBRANCH   2   3
ENDBRANCH   1   2
BRANCH   1   7
ATOM      7  C   UNL     1      55.340  28.587  50.356  1.00  0.00     0.000 C 
BRANCH   7   8
ATOM      8  C   UNL     1      54.268  27.539  50.020  1.00  0.00    -0.000 C 
BRANCH   8   9
ATOM      9  C   UNL     1      54.868  26.155  49.730  1.00  0.00    -0.003 C 
ATOM     10  C   UNL     1      53.796  25.182  49.249  1.00  0.00     0.004 C 
ENDBRANCH   8   9
ENDBRANCH   7   8
ENDBRANCH   1   7
TORSDOF 6
ENDMDL
MODEL 2
REMARK VINA RESULT:    -3.528     12.859     14.589
REMARK INTER + INTRA:          -4.977
REMARK INTER:                  -4.873
REMARK INTRA:                  -0.104
REMARK UNBOUND:                -0.212
REMARK SMILES CCCCCCCC(=O)[O-]
REMARK SMILES IDX 5 1 6 2 7 3 8 4 9 5 10 6 4 7 3 8 2 9 1 10
REMARK H PARENT
REMARK Flexibility Score: inf
ROOT
ATOM      1  C   UNL     1      62.389  33.051  60.857  1.00  0.00     0.000 C 
ENDROOT
BRANCH   1   2
ATOM      2  C   UNL     1      61.338  31.937  60.708  1.00  0.00     0.006 C 
BRANCH   2   3
ATOM      3  C   UNL     1      61.194  31.037  61.946  1.00  0.00     0.053 C 
BRANCH   3   4
ATOM      4  C   UNL     1      62.218  29.944  61.969  1.00  0.00     0.041 C 
ATOM      5  O   UNL     1      61.859  28.738  61.932  1.00  0.00    -0.550 OA
ATOM      6  O   UNL     1      63.571  30.260  61.995  1.00  0.00    -0.550 OA
ENDBRANCH   3   4
ENDBRANCH   2   3
ENDBRANCH   1   2
BRANCH   1   7
ATOM      7  C   UNL     1      61.769  34.460  60.827  1.00  0.00     0.000 C 
BRANCH   7   8
ATOM      8  C   UNL     1      62.784  35.558  61.179  1.00  0.00    -0.000 C 
BRANCH   8   9
ATOM      9  C   UNL     1      64.159  34.990  61.563  1.00  0.00    -0.003 C 
ATOM     10  C   UNL     1      65.069  36.081  62.119  1.00  0.00     0.004 C 
ENDBRANCH   8   9
ENDBRANCH   7   8
ENDBRANCH   1   7
TORSDOF 6
ENDMDL
MODEL 3
REMARK VINA RESULT:    -3.343     12.705     14.112
REMARK INTER + INTRA:          -4.727
REMARK INTER:                  -4.486
REMARK INTRA:                  -0.241
REMARK UNBOUND:                -0.212
REMARK SMILES CCCCCCCC(=O)[O-]
REMARK SMILES IDX 5 1 6 2 7 3 8 4 9 5 10 6 4 7 3 8 2 9 1 10
REMARK H PARENT
REMARK Flexibility Score: inf
ROOT
ATOM      1  C   UNL     1      61.147  32.286  60.624  1.00  0.00     0.000 C 
ENDROOT
BRANCH   1   2
ATOM      2  C   UNL     1      61.024  31.182  61.689  1.00  0.00     0.006 C 
BRANCH   2   3
ATOM      3  C   UNL     1      61.346  29.769  61.173  1.00  0.00     0.053 C 
BRANCH   3   4
ATOM      4  C   UNL     1      62.675  29.283  61.661  1.00  0.00     0.041 C 
ATOM      5  O   UNL     1      63.545  30.103  62.053  1.00  0.00    -0.550 OA
ATOM      6  O   UNL     1      62.940  27.920  61.715  1.00  0.00    -0.550 OA
ENDBRANCH   3   4
ENDBRANCH   2   3
ENDBRANCH   1   2
BRANCH   1   7
ATOM      7  C   UNL     1      62.332  33.233  60.884  1.00  0.00     0.000 C 
BRANCH   7   8
ATOM      8  C   UNL     1      61.917  34.712  60.880  1.00  0.00    -0.000 C 
BRANCH   8   9
ATOM      9  C   UNL     1      63.103  35.658  61.127  1.00  0.00    -0.003 C 
ATOM     10  C   UNL     1      64.318  34.892  61.643  1.00  0.00     0.004 C 
ENDBRANCH   8   9
ENDBRANCH   7   8
ENDBRANCH   1   7
TORSDOF 6
ENDMDL
MODEL 4
REMARK VINA RESULT:    -3.271     13.064     14.099
REMARK INTER + INTRA:          -4.631
REMARK INTER:                  -4.232
REMARK INTRA:                  -0.398
REMARK UNBOUND:                -0.212
REMARK SMILES CCCCCCCC(=O)[O-]
REMARK SMILES IDX 5 1 6 2 7 3 8 4 9 5 10 6 4 7 3 8 2 9 1 10
REMARK H PARENT
REMARK Flexibility Score: inf
ROOT
ATOM      1  C   UNL     1      61.652  32.448  60.013  1.00  0.00     0.000 C 
ENDROOT
BRANCH   1   2
ATOM      2  C   UNL     1      62.088  33.685  60.817  1.00  0.00     0.006 C 
BRANCH   2   3
ATOM      3  C   UNL     1      63.595  33.742  61.119  1.00  0.00     0.053 C 
BRANCH   3   4
ATOM      4  C   UNL     1      64.033  35.112  61.534  1.00  0.00     0.041 C 
ATOM      5  O   UNL     1      65.245  35.340  61.789  1.00  0.00    -0.550 OA
ATOM      6  O   UNL     1      63.109  36.147  61.604  1.00  0.00    -0.550 OA
ENDBRANCH   3   4
ENDBRANCH   2   3
ENDBRANCH   1   2
BRANCH   1   7
ATOM      7  C   UNL     1      60.679  31.545  60.793  1.00  0.00     0.000 C 
BRANCH   7   8
ATOM      8  C   UNL     1      61.313  30.951  62.060  1.00  0.00    -0.000 C 
BRANCH   8   9
ATOM      9  C   UNL     1      62.126  29.679  61.772  1.00  0.00    -0.003 C 
ATOM     10  C   UNL     1      63.624  29.970  61.787  1.00  0.00     0.004 C 
ENDBRANCH   8   9
ENDBRANCH   7   8
ENDBRANCH   1   7
TORSDOF 6
ENDMDL
MODEL 5
REMARK VINA RESULT:    -3.255     13.222     14.306
REMARK INTER + INTRA:          -4.608
REMARK INTER:                  -4.337
REMARK INTRA:                  -0.271
REMARK UNBOUND:                -0.212
REMARK SMILES CCCCCCCC(=O)[O-]
REMARK SMILES IDX 5 1 6 2 7 3 8 4 9 5 10 6 4 7 3 8 2 9 1 10
REMARK H PARENT
REMARK Flexibility Score: inf
ROOT
ATOM      1  C   UNL     1      61.730  34.193  60.482  1.00  0.00     0.000 C 
ENDROOT
BRANCH   1   2
ATOM      2  C   UNL     1      62.711  35.156  61.174  1.00  0.00     0.006 C 
BRANCH   2   3
ATOM      3  C   UNL     1      64.099  34.553  61.447  1.00  0.00     0.053 C 
BRANCH   3   4
ATOM      4  C   UNL     1      65.203  35.455  60.987  1.00  0.00     0.041 C 
ATOM      5  O   UNL     1      65.823  36.169  61.817  1.00  0.00    -0.550 OA
ATOM      6  O   UNL     1      65.568  35.479  59.647  1.00  0.00    -0.550 OA
ENDBRANCH   3   4
ENDBRANCH   2   3
ENDBRANCH   1   2
BRANCH   1   7
ATOM      7  C   UNL     1      62.069  32.713  60.735  1.00  0.00     0.000 C 
BRANCH   7   8
ATOM      8  C   UNL     1      60.839  31.885  61.134  1.00  0.00    -0.000 C 
BRANCH   8   9
ATOM      9  C   UNL     1      61.185  30.741  62.099  1.00  0.00    -0.003 C 
ATOM     10  C   UNL     1      62.598  30.222  61.850  1.00  0.00     0.004 C 
ENDBRANCH   8   9
ENDBRANCH   7   8
ENDBRANCH   1   7
TORSDOF 6
ENDMDL
MODEL 6
REMARK VINA RESULT:    -3.194     13.435     14.685
REMARK INTER + INTRA:          -4.526
REMARK INTER:                  -4.243
REMARK INTRA:                  -0.283
REMARK UNBOUND:                -0.212
REMARK SMILES CCCCCCCC(=O)[O-]
REMARK SMILES IDX 5 1 6 2 7 3 8 4 9 5 10 6 4 7 3 8 2 9 1 10
REMARK H PARENT
REMARK Flexibility Score: inf
ROOT
ATOM      1  C   UNL     1      64.494  32.802  60.123  1.00  0.00     0.000 C 
ENDROOT
BRANCH   1   2
ATOM      2  C   UNL     1      64.202  31.292  60.181  1.00  0.00     0.006 C 
BRANCH   2   3
ATOM      3  C   UNL     1      64.087  30.727  61.607  1.00  0.00     0.053 C 
BRANCH   3   4
ATOM      4  C   UNL     1      62.825  29.944  61.800  1.00  0.00     0.041 C 
ATOM      5  O   UNL     1      62.837  28.689  61.708  1.00  0.00    -0.550 OA
ATOM      6  O   UNL     1      61.641  30.599  62.116  1.00  0.00    -0.550 OA
ENDBRANCH   3   4
ENDBRANCH   2   3
ENDBRANCH   1   2
BRANCH   1   7
ATOM      7  C   UNL     1      63.794  33.586  61.247  1.00  0.00     0.000 C 
BRANCH   7   8
ATOM      8  C   UNL     1      64.581  34.836  61.673  1.00  0.00    -0.000 C 
BRANCH   8   9
ATOM      9  C   UNL     1      63.749  36.122  61.561  1.00  0.00    -0.003 C 
ATOM     10  C   UNL     1      62.305  35.811  61.179  1.00  0.00     0.004 C 
ENDBRANCH   8   9
ENDBRANCH   7   8
ENDBRANCH   1   7
TORSDOF 6
ENDMDL
MODEL 7
REMARK VINA RESULT:    -3.161      1.312      1.796
REMARK INTER + INTRA:          -4.481
REMARK INTER:                  -4.167
REMARK INTRA:                  -0.315
REMARK UNBOUND:                -0.212
REMARK SMILES CCCCCCCC(=O)[O-]
REMARK SMILES IDX 5 1 6 2 7 3 8 4 9 5 10 6 4 7 3 8 2 9 1 10
REMARK H PARENT
REMARK Flexibility Score: inf
ROOT
ATOM      1  C   UNL     1      57.707  29.237  51.124  1.00  0.00     0.000 C 
ENDROOT
BRANCH   1   2
ATOM      2  C   UNL     1      58.181  29.036  49.674  1.00  0.00     0.006 C 
BRANCH   2   3
ATOM      3  C   UNL     1      59.709  29.015  49.508  1.00  0.00     0.053 C 
BRANCH   3   4
ATOM      4  C   UNL     1      60.233  27.625  49.310  1.00  0.00     0.041 C 
ATOM      5  O   UNL     1      59.436  26.662  49.168  1.00  0.00    -0.550 OA
ATOM      6  O   UNL     1      61.602  27.401  49.248  1.00  0.00    -0.550 OA
ENDBRANCH   3   4
ENDBRANCH   2   3
ENDBRANCH   1   2
BRANCH   1   7
ATOM      7  C   UNL     1      56.206  28.948  51.305  1.00  0.00     0.000 C 
BRANCH   7   8
ATOM      8  C   UNL     1      55.743  27.716  50.513  1.00  0.00    -0.000 C 
BRANCH   8   9
ATOM      9  C   UNL     1      54.310  27.863  49.978  1.00  0.00    -0.003 C 
ATOM     10  C   UNL     1      53.736  29.235  50.316  1.00  0.00     0.004 C 
ENDBRANCH   8   9
ENDBRANCH   7   8
ENDBRANCH   1   7
TORSDOF 6
ENDMDL
MODEL 8
REMARK VINA RESULT:    -3.152     13.031     14.423
REMARK INTER + INTRA:          -4.469
REMARK INTER:                  -4.257
REMARK INTRA:                  -0.212
REMARK UNBOUND:                -0.212
REMARK SMILES CCCCCCCC(=O)[O-]
REMARK SMILES IDX 5 1 6 2 7 3 8 4 9 5 10 6 4 7 3 8 2 9 1 10
REMARK H PARENT
REMARK Flexibility Score: inf
ROOT
ATOM      1  C   UNL     1      63.848  31.433  60.591  1.00  0.00     0.000 C 
ENDROOT
BRANCH   1   2
ATOM      2  C   UNL     1      63.721  30.361  61.688  1.00  0.00     0.006 C 
BRANCH   2   3
ATOM      3  C   UNL     1      62.273  29.966  62.018  1.00  0.00     0.053 C 
BRANCH   3   4
ATOM      4  C   UNL     1      61.981  28.544  61.651  1.00  0.00     0.041 C 
ATOM      5  O   UNL     1      60.815  28.199  61.326  1.00  0.00    -0.550 OA
ATOM      6  O   UNL     1      63.006  27.606  61.634  1.00  0.00    -0.550 OA
ENDBRANCH   3   4
ENDBRANCH   2   3
ENDBRANCH   1   2
BRANCH   1   7
ATOM      7  C   UNL     1      64.138  32.834  61.158  1.00  0.00     0.000 C 
BRANCH   7   8
ATOM      8  C   UNL     1      63.006  33.832  60.872  1.00  0.00    -0.000 C 
BRANCH   8   9
ATOM      9  C   UNL     1      63.358  35.263  61.308  1.00  0.00    -0.003 C 
ATOM     10  C   UNL     1      64.769  35.331  61.882  1.00  0.00     0.004 C 
ENDBRANCH   8   9
ENDBRANCH   7   8
ENDBRANCH   1   7
TORSDOF 6
ENDMDL
MODEL 9
REMARK VINA RESULT:    -3.116      1.291      2.162
REMARK INTER + INTRA:          -4.421
REMARK INTER:                  -4.170
REMARK INTRA:                  -0.250
REMARK UNBOUND:                -0.212
REMARK SMILES CCCCCCCC(=O)[O-]
REMARK SMILES IDX 5 1 6 2 7 3 8 4 9 5 10 6 4 7 3 8 2 9 1 10
REMARK H PARENT
REMARK Flexibility Score: inf
ROOT
ATOM      1  C   UNL     1      56.221  26.261  50.015  1.00  0.00     0.000 C 
ENDROOT
BRANCH   1   2
ATOM      2  C   UNL     1      57.708  26.638  50.134  1.00  0.00     0.006 C 
BRANCH   2   3
ATOM      3  C   UNL     1      57.990  28.143  49.991  1.00  0.00     0.053 C 
BRANCH   3   4
ATOM      4  C   UNL     1      59.396  28.411  49.547  1.00  0.00     0.041 C 
ATOM      5  O   UNL     1      60.028  27.545  48.887  1.00  0.00    -0.550 OA
ATOM      6  O   UNL     1      59.994  29.631  49.833  1.00  0.00    -0.550 OA
ENDBRANCH   3   4
ENDBRANCH   2   3
ENDBRANCH   1   2
BRANCH   1   7
ATOM      7  C   UNL     1      55.282  27.440  50.328  1.00  0.00     0.000 C 
BRANCH   7   8
ATOM      8  C   UNL     1      53.827  27.159  49.922  1.00  0.00    -0.000 C 
BRANCH   8   9
ATOM      9  C   UNL     1      52.944  28.415  49.989  1.00  0.00    -0.003 C 
ATOM     10  C   UNL     1      53.754  29.634  50.418  1.00  0.00     0.004 C 
ENDBRANCH   8   9
ENDBRANCH   7   8
ENDBRANCH   1   7
TORSDOF 6
ENDMDL
