MODEL 1
REMARK VINA RESULT:    -0.361      0.000      0.000
REMARK INTER + INTRA:          -1.245
REMARK INTER:                  -0.657
REMARK INTRA:                  -0.588
REMARK UNBOUND:                -0.588
REMARK SMILES CCCCCCCCCCCCCCCC(=O)[O-]
REMARK SMILES IDX 9 1 10 2 11 3 12 4 13 5 14 6 15 7 16 8 17 9 18 10 8 11 7 12
REMARK SMILES IDX 6 13 5 14 4 15 3 16 2 17 1 18
REMARK H PARENT
REMARK Flexibility Score: inf
ROOT
ATOM      1  C   UNL     1       6.024  21.149  16.293  1.00  0.00     0.000 C 
ENDROOT
BRANCH   1   2
ATOM      2  C   UNL     1       5.052  20.578  15.245  1.00  0.00     0.000 C 
BRANCH   2   3
ATOM      3  C   UNL     1       3.845  19.876  15.884  1.00  0.00     0.000 C 
BRANCH   3   4
ATOM      4  C   UNL     1       2.544  20.686  15.732  1.00  0.00     0.000 C 
BRANCH   4   5
ATOM      5  C   UNL     1       1.299  19.887  16.149  1.00  0.00     0.000 C 
BRANCH   5   6
ATOM      6  C   UNL     1       0.024  20.749  16.167  1.00  0.00     0.006 C 
BRANCH   6   7
ATOM      7  C   UNL     1      -0.733  20.636  17.496  1.00  0.00     0.053 C 
BRANCH   7   8
ATOM      8  C   UNL     1      -2.181  20.318  17.284  1.00  0.00     0.041 C 
ATOM      9  O   UNL     1      -2.904  19.974  18.255  1.00  0.00    -0.550 OA
ATOM     10  O   UNL     1      -2.724  20.369  16.006  1.00  0.00    -0.550 OA
ENDBRANCH   7   8
ENDBRANCH   6   7
ENDBRANCH   5   6
ENDBRANCH   4   5
ENDBRANCH   3   4
ENDBRANCH   2   3
ENDBRANCH   1   2
BRANCH   1  11
ATOM     11  C   UNL     1       7.302  20.304  16.441  1.00  0.00     0.000 C 
BRANCH  11  12
ATOM     12  C   UNL     1       7.957  19.882  15.110  1.00  0.00    -0.000 C 
BRANCH  12  13
ATOM     13  C   UNL     1       8.934  20.909  14.505  1.00  0.00    -0.000 C 
BRANCH  13  14
ATOM     14  C   UNL     1       8.999  20.916  12.967  1.00  0.00    -0.000 C 
BRANCH  14  15
ATOM     15  C   UNL     1      10.438  20.890  12.431  1.00  0.00    -0.000 C 
BRANCH  15  16
ATOM     16  C   UNL     1      10.459  20.605  10.925  1.00  0.00    -0.000 C 
BRANCH  16  17
ATOM     17  C   UNL     1       9.170  19.904  10.480  1.00  0.00    -0.003 C 
ATOM     18  C   UNL     1       8.981  20.007   8.968  1.00  0.00     0.004 C 
ENDBRANCH  16  17
ENDBRANCH  15  16
ENDBRANCH  14  15
ENDBRANCH  13  14
ENDBRANCH  12  13
ENDBRANCH  11  12
ENDBRANCH   1  11
TORSDOF 14
ENDMDL
MODEL 2
REMARK VINA RESULT:    -0.279      4.721     12.451
REMARK INTER + INTRA:          -1.095
REMARK INTER:                  -0.546
REMARK INTRA:                  -0.550
REMARK UNBOUND:                -0.588
REMARK SMILES CCCCCCCCCCCCCCCC(=O)[O-]
REMARK SMILES IDX 9 1 10 2 11 3 12 4 13 5 14 6 15 7 16 8 17 9 18 10 8 11 7 12
REMARK SMILES IDX 6 13 5 14 4 15 3 16 2 17 1 18
REMARK H PARENT
REMARK Flexibility Score: inf
ROOT
ATOM      1  C   UNL     1      -2.640  20.971  15.787  1.00  0.00     0.000 C 
ENDROOT
BRANCH   1   2
ATOM      2  C   UNL     1      -2.116  20.821  17.225  1.00  0.00     0.000 C 
BRANCH   2   3
ATOM      3  C   UNL     1      -0.582  20.852  17.299  1.00  0.00     0.000 C 
BRANCH   3   4
ATOM      4  C   UNL     1       0.075  20.817  15.907  1.00  0.00     0.000 C 
BRANCH   4   5
ATOM      5  C   UNL     1       1.331  19.932  15.869  1.00  0.00     0.000 C 
BRANCH   5   6
ATOM      6  C   UNL     1       2.633  20.752  15.891  1.00  0.00     0.006 C 
BRANCH   6   7
ATOM      7  C   UNL     1       3.865  19.890  15.592  1.00  0.00     0.053 C 
BRANCH   7   8
ATOM      8  C   UNL     1       5.120  20.707  15.563  1.00  0.00     0.041 C 
ATOM      9  O   UNL     1       5.408  21.463  16.528  1.00  0.00    -0.550 OA
ATOM     10  O   UNL     1       5.955  20.659  14.453  1.00  0.00    -0.550 OA
ENDBRANCH   7   8
ENDBRANCH   6   7
ENDBRANCH   5   6
ENDBRANCH   4   5
ENDBRANCH   3   4
ENDBRANCH   2   3
ENDBRANCH   1   2
BRANCH   1  11
ATOM     11  C   UNL     1      -3.986  20.258  15.567  1.00  0.00     0.000 C 
BRANCH  11  12
ATOM     12  C   UNL     1      -5.024  21.068  14.762  1.00  0.00    -0.000 C 
BRANCH  12  13
ATOM     13  C   UNL     1      -6.463  20.517  14.806  1.00  0.00    -0.000 C 
BRANCH  13  14
ATOM     14  C   UNL     1      -7.446  21.335  15.662  1.00  0.00    -0.000 C 
BRANCH  14  15
ATOM     15  C   UNL     1      -8.198  20.477  16.690  1.00  0.00    -0.000 C 
BRANCH  15  16
ATOM     16  C   UNL     1      -8.051  21.056  18.102  1.00  0.00    -0.000 C 
BRANCH  16  17
ATOM     17  C   UNL     1      -9.011  22.232  18.317  1.00  0.00    -0.003 C 
ATOM     18  C   UNL     1      -8.414  23.263  19.272  1.00  0.00     0.004 C 
ENDBRANCH  16  17
ENDBRANCH  15  16
ENDBRANCH  14  15
ENDBRANCH  13  14
ENDBRANCH  12  13
ENDBRANCH  11  12
ENDBRANCH   1  11
TORSDOF 14
ENDMDL
MODEL 3
REMARK VINA RESULT:    -0.263      4.863     11.844
REMARK INTER + INTRA:          -1.067
REMARK INTER:                  -0.835
REMARK INTRA:                  -0.232
REMARK UNBOUND:                -0.588
REMARK SMILES CCCCCCCCCCCCCCCC(=O)[O-]
REMARK SMILES IDX 9 1 10 2 11 3 12 4 13 5 14 6 15 7 16 8 17 9 18 10 8 11 7 12
REMARK SMILES IDX 6 13 5 14 4 15 3 16 2 17 1 18
REMARK H PARENT
REMARK Flexibility Score: inf
ROOT
ATOM      1  C   UNL     1      -0.793  20.932  16.558  1.00  0.00     0.000 C 
ENDROOT
BRANCH   1   2
ATOM      2  C   UNL     1       0.489  21.285  15.785  1.00  0.00     0.000 C 
BRANCH   2   3
ATOM      3  C   UNL     1       1.605  20.249  15.991  1.00  0.00     0.000 C 
BRANCH   3   4
ATOM      4  C   UNL     1       3.007  20.884  15.982  1.00  0.00     0.000 C 
BRANCH   4   5
ATOM      5  C   UNL     1       4.110  19.876  15.625  1.00  0.00     0.000 C 
BRANCH   5   6
ATOM      6  C   UNL     1       5.278  20.524  14.861  1.00  0.00     0.006 C 
BRANCH   6   7
ATOM      7  C   UNL     1       6.642  20.114  15.431  1.00  0.00     0.053 C 
BRANCH   7   8
ATOM      8  C   UNL     1       7.737  20.280  14.424  1.00  0.00     0.041 C 
ATOM      9  O   UNL     1       8.889  20.632  14.790  1.00  0.00    -0.550 OA
ATOM     10  O   UNL     1       7.476  20.080  13.074  1.00  0.00    -0.550 OA
ENDBRANCH   7   8
ENDBRANCH   6   7
ENDBRANCH   5   6
ENDBRANCH   4   5
ENDBRANCH   3   4
ENDBRANCH   2   3
ENDBRANCH   1   2
BRANCH   1  11
ATOM     11  C   UNL     1      -2.073  21.300  15.788  1.00  0.00     0.000 C 
BRANCH  11  12
ATOM     12  C   UNL     1      -3.102  20.159  15.660  1.00  0.00    -0.000 C 
BRANCH  12  13
ATOM     13  C   UNL     1      -4.576  20.582  15.823  1.00  0.00    -0.000 C 
BRANCH  13  14
ATOM     14  C   UNL     1      -5.409  20.547  14.530  1.00  0.00    -0.000 C 
BRANCH  14  15
ATOM     15  C   UNL     1      -6.730  21.321  14.650  1.00  0.00    -0.000 C 
BRANCH  15  16
ATOM     16  C   UNL     1      -7.741  20.553  15.510  1.00  0.00    -0.000 C 
BRANCH  16  17
ATOM     17  C   UNL     1      -7.719  21.051  16.960  1.00  0.00    -0.003 C 
ATOM     18  C   UNL     1      -8.890  20.480  17.756  1.00  0.00     0.004 C 
ENDBRANCH  16  17
ENDBRANCH  15  16
ENDBRANCH  14  15
ENDBRANCH  13  14
ENDBRANCH  12  13
ENDBRANCH  11  12
ENDBRANCH   1  11
TORSDOF 14
ENDMDL
MODEL 4
REMARK VINA RESULT:    -0.176      8.613     11.161
REMARK INTER + INTRA:          -0.908
REMARK INTER:                   0.060
REMARK INTRA:                  -0.968
REMARK UNBOUND:                -0.588
REMARK SMILES CCCCCCCCCCCCCCCC(=O)[O-]
REMARK SMILES IDX 9 1 10 2 11 3 12 4 13 5 14 6 15 7 16 8 17 9 18 10 8 11 7 12
REMARK SMILES IDX 6 13 5 14 4 15 3 16 2 17 1 18
REMARK H PARENT
REMARK Flexibility Score: inf
ROOT
ATOM      1  C   UNL     1      -5.755  22.241  15.373  1.00  0.00     0.000 C 
ENDROOT
BRANCH   1   2
ATOM      2  C   UNL     1      -7.245  21.942  15.133  1.00  0.00     0.000 C 
BRANCH   2   3
ATOM      3  C   UNL     1      -7.964  21.470  16.405  1.00  0.00     0.000 C 
BRANCH   3   4
ATOM      4  C   UNL     1      -7.494  20.078  16.864  1.00  0.00     0.000 C 
BRANCH   4   5
ATOM      5  C   UNL     1      -6.676  20.129  18.164  1.00  0.00     0.000 C 
BRANCH   5   6
ATOM      6  C   UNL     1      -7.335  21.009  19.242  1.00  0.00     0.006 C 
BRANCH   6   7
ATOM      7  C   UNL     1      -8.164  20.184  20.235  1.00  0.00     0.053 C 
BRANCH   7   8
ATOM      8  C   UNL     1      -8.578  20.998  21.422  1.00  0.00     0.041 C 
ATOM      9  O   UNL     1      -8.482  20.522  22.583  1.00  0.00    -0.550 OA
ATOM     10  O   UNL     1      -9.104  22.272  21.241  1.00  0.00    -0.550 OA
ENDBRANCH   7   8
ENDBRANCH   6   7
ENDBRANCH   5   6
ENDBRANCH   4   5
ENDBRANCH   3   4
ENDBRANCH   2   3
ENDBRANCH   1   2
BRANCH   1  11
ATOM     11  C   UNL     1      -4.826  21.309  14.575  1.00  0.00     0.000 C 
BRANCH  11  12
ATOM     12  C   UNL     1      -4.612  19.916  15.202  1.00  0.00    -0.000 C 
BRANCH  12  13
ATOM     13  C   UNL     1      -3.633  19.875  16.392  1.00  0.00    -0.000 C 
BRANCH  13  14
ATOM     14  C   UNL     1      -2.146  20.000  16.014  1.00  0.00    -0.000 C 
BRANCH  14  15
ATOM     15  C   UNL     1      -1.552  21.369  16.376  1.00  0.00    -0.000 C 
BRANCH  15  16
ATOM     16  C   UNL     1      -1.217  21.447  17.870  1.00  0.00    -0.000 C 
BRANCH  16  17
ATOM     17  C   UNL     1      -0.914  20.056  18.438  1.00  0.00    -0.003 C 
ATOM     18  C   UNL     1      -0.624  20.124  19.936  1.00  0.00     0.004 C 
ENDBRANCH  16  17
ENDBRANCH  15  16
ENDBRANCH  14  15
ENDBRANCH  13  14
ENDBRANCH  12  13
ENDBRANCH  11  12
ENDBRANCH   1  11
TORSDOF 14
ENDMDL
MODEL 5
REMARK VINA RESULT:     0.014      2.320      4.143
REMARK INTER + INTRA:          -0.563
REMARK INTER:                  -0.153
REMARK INTRA:                  -0.410
REMARK UNBOUND:                -0.588
REMARK SMILES CCCCCCCCCCCCCCCC(=O)[O-]
REMARK SMILES IDX 9 1 10 2 11 3 12 4 13 5 14 6 15 7 16 8 17 9 18 10 8 11 7 12
REMARK SMILES IDX 6 13 5 14 4 15 3 16 2 17 1 18
REMARK H PARENT
REMARK Flexibility Score: inf
ROOT
ATOM      1  C   UNL     1       2.103  19.892  16.410  1.00  0.00     0.000 C 
ENDROOT
BRANCH   1   2
ATOM      2  C   UNL     1       0.755  20.151  15.716  1.00  0.00     0.000 C 
BRANCH   2   3
ATOM      3  C   UNL     1      -0.444  19.875  16.637  1.00  0.00     0.000 C 
BRANCH   3   4
ATOM      4  C   UNL     1      -1.699  20.663  16.223  1.00  0.00     0.000 C 
BRANCH   4   5
ATOM      5  C   UNL     1      -2.998  19.889  16.493  1.00  0.00     0.000 C 
BRANCH   5   6
ATOM      6  C   UNL     1      -4.199  20.463  15.720  1.00  0.00     0.006 C 
BRANCH   6   7
ATOM      7  C   UNL     1      -5.531  20.179  16.426  1.00  0.00     0.053 C 
BRANCH   7   8
ATOM      8  C   UNL     1      -6.692  20.754  15.674  1.00  0.00     0.041 C 
ATOM      9  O   UNL     1      -7.826  20.824  16.213  1.00  0.00    -0.550 OA
ATOM     10  O   UNL     1      -6.526  21.180  14.362  1.00  0.00    -0.550 OA
ENDBRANCH   7   8
ENDBRANCH   6   7
ENDBRANCH   5   6
ENDBRANCH   4   5
ENDBRANCH   3   4
ENDBRANCH   2   3
ENDBRANCH   1   2
BRANCH   1  11
ATOM     11  C   UNL     1       3.287  19.892  15.427  1.00  0.00     0.000 C 
BRANCH  11  12
ATOM     12  C   UNL     1       4.591  20.498  15.984  1.00  0.00    -0.000 C 
BRANCH  12  13
ATOM     13  C   UNL     1       5.833  20.320  15.088  1.00  0.00    -0.000 C 
BRANCH  13  14
ATOM     14  C   UNL     1       7.178  20.314  15.836  1.00  0.00    -0.000 C 
BRANCH  14  15
ATOM     15  C   UNL     1       8.375  20.052  14.909  1.00  0.00    -0.000 C 
BRANCH  15  16
ATOM     16  C   UNL     1       7.984  20.242  13.439  1.00  0.00    -0.000 C 
BRANCH  16  17
ATOM     17  C   UNL     1       9.167  20.767  12.619  1.00  0.00    -0.003 C 
ATOM     18  C   UNL     1      10.358  21.094  13.516  1.00  0.00     0.004 C 
ENDBRANCH  16  17
ENDBRANCH  15  16
ENDBRANCH  14  15
ENDBRANCH  13  14
ENDBRANCH  12  13
ENDBRANCH  11  12
ENDBRANCH   1  11
TORSDOF 14
ENDMDL
MODEL 6
REMARK VINA RESULT:     0.189      2.800      5.371
REMARK INTER + INTRA:          -0.244
REMARK INTER:                   0.004
REMARK INTRA:                  -0.248
REMARK UNBOUND:                -0.588
REMARK SMILES CCCCCCCCCCCCCCCC(=O)[O-]
REMARK SMILES IDX 9 1 10 2 11 3 12 4 13 5 14 6 15 7 16 8 17 9 18 10 8 11 7 12
REMARK SMILES IDX 6 13 5 14 4 15 3 16 2 17 1 18
REMARK H PARENT
REMARK Flexibility Score: inf
ROOT
ATOM      1  C   UNL     1       0.411  20.609  16.017  1.00  0.00     0.000 C 
ENDROOT
BRANCH   1   2
ATOM      2  C   UNL     1      -0.552  20.587  17.215  1.00  0.00     0.000 C 
BRANCH   2   3
ATOM      3  C   UNL     1      -2.023  20.471  16.786  1.00  0.00     0.000 C 
BRANCH   3   4
ATOM      4  C   UNL     1      -2.958  20.157  17.967  1.00  0.00     0.000 C 
BRANCH   4   5
ATOM      5  C   UNL     1      -4.401  19.875  17.520  1.00  0.00     0.000 C 
BRANCH   5   6
ATOM      6  C   UNL     1      -5.414  20.016  18.671  1.00  0.00     0.006 C 
BRANCH   6   7
ATOM      7  C   UNL     1      -6.779  20.516  18.181  1.00  0.00     0.053 C 
BRANCH   7   8
ATOM      8  C   UNL     1      -7.482  21.322  19.230  1.00  0.00     0.041 C 
ATOM      9  O   UNL     1      -7.296  21.078  20.450  1.00  0.00    -0.550 OA
ATOM     10  O   UNL     1      -8.372  22.322  18.856  1.00  0.00    -0.550 OA
ENDBRANCH   7   8
ENDBRANCH   6   7
ENDBRANCH   5   6
ENDBRANCH   4   5
ENDBRANCH   3   4
ENDBRANCH   2   3
ENDBRANCH   1   2
BRANCH   1  11
ATOM     11  C   UNL     1       1.765  19.947  16.330  1.00  0.00     0.000 C 
BRANCH  11  12
ATOM     12  C   UNL     1       2.997  20.713  15.805  1.00  0.00    -0.000 C 
BRANCH  12  13
ATOM     13  C   UNL     1       4.324  19.929  15.846  1.00  0.00    -0.000 C 
BRANCH  13  14
ATOM     14  C   UNL     1       5.284  20.215  14.678  1.00  0.00    -0.000 C 
BRANCH  14  15
ATOM     15  C   UNL     1       6.743  20.372  15.130  1.00  0.00    -0.000 C 
BRANCH  15  16
ATOM     16  C   UNL     1       7.676  20.543  13.926  1.00  0.00    -0.000 C 
BRANCH  16  17
ATOM     17  C   UNL     1       9.146  20.532  14.362  1.00  0.00    -0.003 C 
ATOM     18  C   UNL     1      10.068  20.896  13.202  1.00  0.00     0.004 C 
ENDBRANCH  16  17
ENDBRANCH  15  16
ENDBRANCH  14  15
ENDBRANCH  13  14
ENDBRANCH  12  13
ENDBRANCH  11  12
ENDBRANCH   1  11
TORSDOF 14
ENDMDL
MODEL 7
REMARK VINA RESULT:     0.910      5.109     10.227
REMARK INTER + INTRA:           1.066
REMARK INTER:                   1.591
REMARK INTRA:                  -0.525
REMARK UNBOUND:                -0.588
REMARK SMILES CCCCCCCCCCCCCCCC(=O)[O-]
REMARK SMILES IDX 9 1 10 2 11 3 12 4 13 5 14 6 15 7 16 8 17 9 18 10 8 11 7 12
REMARK SMILES IDX 6 13 5 14 4 15 3 16 2 17 1 18
REMARK H PARENT
REMARK Flexibility Score: inf
ROOT
ATOM      1  C   UNL     1       6.097  21.334  15.576  1.00  0.00     0.000 C 
ENDROOT
BRANCH   1   2
ATOM      2  C   UNL     1       7.248  20.630  16.313  1.00  0.00     0.000 C 
BRANCH   2   3
ATOM      3  C   UNL     1       8.346  20.138  15.357  1.00  0.00     0.000 C 
BRANCH   3   4
ATOM      4  C   UNL     1       9.282  21.271  14.903  1.00  0.00     0.000 C 
BRANCH   4   5
ATOM      5  C   UNL     1      10.289  20.814  13.835  1.00  0.00     0.000 C 
BRANCH   5   6
ATOM      6  C   UNL     1       9.866  21.221  12.413  1.00  0.00     0.006 C 
BRANCH   6   7
ATOM      7  C   UNL     1      10.138  20.112  11.389  1.00  0.00     0.053 C 
BRANCH   7   8
ATOM      8  C   UNL     1      10.341  20.665  10.012  1.00  0.00     0.041 C 
ATOM      9  O   UNL     1       9.908  20.043   9.007  1.00  0.00    -0.550 OA
ATOM     10  O   UNL     1      11.040  21.853   9.837  1.00  0.00    -0.550 OA
ENDBRANCH   7   8
ENDBRANCH   6   7
ENDBRANCH   5   6
ENDBRANCH   4   5
ENDBRANCH   3   4
ENDBRANCH   2   3
ENDBRANCH   1   2
BRANCH   1  11
ATOM     11  C   UNL     1       5.065  20.347  15.003  1.00  0.00     0.000 C 
BRANCH  11  12
ATOM     12  C   UNL     1       3.994  19.875  16.008  1.00  0.00    -0.000 C 
BRANCH  12  13
ATOM     13  C   UNL     1       2.692  20.702  16.016  1.00  0.00    -0.000 C 
BRANCH  13  14
ATOM     14  C   UNL     1       1.405  19.889  15.789  1.00  0.00    -0.000 C 
BRANCH  14  15
ATOM     15  C   UNL     1       0.236  20.367  16.664  1.00  0.00    -0.000 C 
BRANCH  15  16
ATOM     16  C   UNL     1      -0.800  21.127  15.828  1.00  0.00    -0.000 C 
BRANCH  16  17
ATOM     17  C   UNL     1      -2.219  20.627  16.122  1.00  0.00    -0.003 C 
ATOM     18  C   UNL     1      -2.281  19.909  17.469  1.00  0.00     0.004 C 
ENDBRANCH  16  17
ENDBRANCH  15  16
ENDBRANCH  14  15
ENDBRANCH  13  14
ENDBRANCH  12  13
ENDBRANCH  11  12
ENDBRANCH   1  11
TORSDOF 14
ENDMDL
