MODEL 1
REMARK VINA RESULT:    -5.960      0.000      0.000
REMARK INTER + INTRA:          -6.134
REMARK INTER:                  -6.134
REMARK INTRA:                   0.000
REMARK UNBOUND:                 0.000
REMARK SMILES Cc1cccc(O)c1C
REMARK SMILES IDX 1 1 2 2 8 3 6 4 5 5 4 6 3 7 9 8 7 9
REMARK H PARENT 7 10
REMARK Flexibility Score: inf
ROOT
ATOM      1  C   UNL     1     -13.566  -0.561  -9.914  1.00  0.00     0.045 C 
ATOM      2  C   UNL     1     -12.955   0.792  -9.655  1.00  0.00    -0.045 A 
ATOM      3  C   UNL     1     -11.548   0.986  -9.589  1.00  0.00    -0.006 A 
ATOM      4  C   UNL     1     -11.043   2.287  -9.341  1.00  0.00     0.118 A 
ATOM      5  C   UNL     1     -11.923   3.359  -9.166  1.00  0.00     0.046 A 
ATOM      6  C   UNL     1     -13.299   3.162  -9.231  1.00  0.00     0.004 A 
ATOM      7  C   UNL     1     -13.814   1.891  -9.474  1.00  0.00     0.004 A 
ATOM      8  C   UNL     1     -10.577  -0.158  -9.776  1.00  0.00     0.048 C 
ENDROOT
BRANCH   4   9
ATOM      9  O   UNL     1      -9.673   2.552  -9.264  1.00  0.00    -0.508 OA
ATOM     10  H   UNL     1      -9.237   3.014  -8.476  1.00  0.00     0.293 HD
ENDBRANCH   4   9
TORSDOF 1
ENDMDL
MODEL 2
REMARK VINA RESULT:    -5.571      1.897      2.870
REMARK INTER + INTRA:          -5.733
REMARK INTER:                  -5.733
REMARK INTRA:                   0.000
REMARK UNBOUND:                 0.000
REMARK SMILES Cc1cccc(O)c1C
REMARK SMILES IDX 1 1 2 2 8 3 6 4 5 5 4 6 3 7 9 8 7 9
REMARK H PARENT 7 10
REMARK Flexibility Score: inf
ROOT
ATOM      1  C   UNL     1     -10.592  -0.681  -9.879  1.00  0.00     0.045 C 
ATOM      2  C   UNL     1     -11.495   0.515  -9.722  1.00  0.00    -0.045 A 
ATOM      3  C   UNL     1     -12.912   0.401  -9.756  1.00  0.00    -0.006 A 
ATOM      4  C   UNL     1     -13.700   1.569  -9.601  1.00  0.00     0.118 A 
ATOM      5  C   UNL     1     -13.085   2.811  -9.418  1.00  0.00     0.046 A 
ATOM      6  C   UNL     1     -11.698   2.914  -9.385  1.00  0.00     0.004 A 
ATOM      7  C   UNL     1     -10.907   1.778  -9.536  1.00  0.00     0.004 A 
ATOM      8  C   UNL     1     -13.600  -0.931  -9.953  1.00  0.00     0.048 C 
ENDROOT
BRANCH   4   9
ATOM      9  O   UNL     1     -15.098   1.533  -9.624  1.00  0.00    -0.508 OA
ATOM     10  H   UNL     1     -15.647   1.704 -10.456  1.00  0.00     0.293 HD
ENDBRANCH   4   9
TORSDOF 1
ENDMDL
MODEL 3
REMARK VINA RESULT:    -5.180      0.935      2.566
REMARK INTER + INTRA:          -5.332
REMARK INTER:                  -5.332
REMARK INTRA:                   0.000
REMARK UNBOUND:                 0.000
REMARK SMILES Cc1cccc(O)c1C
REMARK SMILES IDX 1 1 2 2 8 3 6 4 5 5 4 6 3 7 9 8 7 9
REMARK H PARENT 7 10
REMARK Flexibility Score: inf
ROOT
ATOM      1  C   UNL     1     -14.791   0.967  -9.455  1.00  0.00     0.045 C 
ATOM      2  C   UNL     1     -13.294   1.124  -9.517  1.00  0.00    -0.045 A 
ATOM      3  C   UNL     1     -12.655   2.375  -9.295  1.00  0.00    -0.006 A 
ATOM      4  C   UNL     1     -11.241   2.448  -9.370  1.00  0.00     0.118 A 
ATOM      5  C   UNL     1     -10.494   1.303  -9.659  1.00  0.00     0.046 A 
ATOM      6  C   UNL     1     -11.126   0.082  -9.876  1.00  0.00     0.004 A 
ATOM      7  C   UNL     1     -12.513  -0.010  -9.807  1.00  0.00     0.004 A 
ATOM      8  C   UNL     1     -13.442   3.626  -8.980  1.00  0.00     0.048 C 
ENDROOT
BRANCH   4   9
ATOM      9  O   UNL     1     -10.545   3.643  -9.162  1.00  0.00    -0.508 OA
ATOM     10  H   UNL     1     -10.059   4.141  -9.897  1.00  0.00     0.293 HD
ENDBRANCH   4   9
TORSDOF 1
ENDMDL
MODEL 4
REMARK VINA RESULT:    -4.828     16.495     17.059
REMARK INTER + INTRA:          -4.969
REMARK INTER:                  -4.969
REMARK INTRA:                   0.000
REMARK UNBOUND:                 0.000
REMARK SMILES Cc1cccc(O)c1C
REMARK SMILES IDX 1 1 2 2 8 3 6 4 5 5 4 6 3 7 9 8 7 9
REMARK H PARENT 7 10
REMARK Flexibility Score: inf
ROOT
ATOM      1  C   UNL     1     -11.092   4.134   4.493  1.00  0.00     0.045 C 
ATOM      2  C   UNL     1     -11.336   3.984   5.973  1.00  0.00    -0.045 A 
ATOM      3  C   UNL     1     -10.679   4.800   6.934  1.00  0.00    -0.006 A 
ATOM      4  C   UNL     1     -10.957   4.603   8.310  1.00  0.00     0.118 A 
ATOM      5  C   UNL     1     -11.866   3.618   8.708  1.00  0.00     0.046 A 
ATOM      6  C   UNL     1     -12.505   2.822   7.761  1.00  0.00     0.004 A 
ATOM      7  C   UNL     1     -12.245   3.001   6.405  1.00  0.00     0.004 A 
ATOM      8  C   UNL     1      -9.693   5.872   6.527  1.00  0.00     0.048 C 
ENDROOT
BRANCH   4   9
ATOM      9  O   UNL     1     -10.349   5.368   9.310  1.00  0.00    -0.508 OA
ATOM     10  H   UNL     1     -10.786   6.173   9.740  1.00  0.00     0.293 HD
ENDBRANCH   4   9
TORSDOF 1
ENDMDL
MODEL 5
REMARK VINA RESULT:    -4.824     15.572     16.241
REMARK INTER + INTRA:          -4.965
REMARK INTER:                  -4.965
REMARK INTRA:                   0.000
REMARK UNBOUND:                 0.000
REMARK SMILES Cc1cccc(O)c1C
REMARK SMILES IDX 1 1 2 2 8 3 6 4 5 5 4 6 3 7 9 8 7 9
REMARK H PARENT 7 10
REMARK Flexibility Score: inf
ROOT
ATOM      1  C   UNL     1     -12.987   6.605   5.841  1.00  0.00     0.045 C 
ATOM      2  C   UNL     1     -12.434   5.286   6.318  1.00  0.00    -0.045 A 
ATOM      3  C   UNL     1     -12.522   4.102   5.536  1.00  0.00    -0.006 A 
ATOM      4  C   UNL     1     -11.980   2.896   6.049  1.00  0.00     0.118 A 
ATOM      5  C   UNL     1     -11.371   2.881   7.307  1.00  0.00     0.046 A 
ATOM      6  C   UNL     1     -11.290   4.043   8.067  1.00  0.00     0.004 A 
ATOM      7  C   UNL     1     -11.816   5.237   7.580  1.00  0.00     0.004 A 
ATOM      8  C   UNL     1     -13.175   4.096   4.172  1.00  0.00     0.048 C 
ENDROOT
BRANCH   4   9
ATOM      9  O   UNL     1     -12.029   1.696   5.335  1.00  0.00    -0.508 OA
ATOM     10  H   UNL     1     -11.966   1.642   4.327  1.00  0.00     0.293 HD
ENDBRANCH   4   9
TORSDOF 1
ENDMDL
MODEL 6
REMARK VINA RESULT:    -4.818     16.157     16.788
REMARK INTER + INTRA:          -4.959
REMARK INTER:                  -4.959
REMARK INTRA:                   0.000
REMARK UNBOUND:                 0.000
REMARK SMILES Cc1cccc(O)c1C
REMARK SMILES IDX 1 1 2 2 8 3 6 4 5 5 4 6 3 7 9 8 7 9
REMARK H PARENT 7 10
REMARK Flexibility Score: inf
ROOT
ATOM      1  C   UNL     1     -10.032   5.249   4.927  1.00  0.00     0.045 C 
ATOM      2  C   UNL     1     -10.703   4.726   6.171  1.00  0.00    -0.045 A 
ATOM      3  C   UNL     1     -11.688   3.702   6.124  1.00  0.00    -0.006 A 
ATOM      4  C   UNL     1     -12.278   3.258   7.335  1.00  0.00     0.118 A 
ATOM      5  C   UNL     1     -11.891   3.826   8.552  1.00  0.00     0.046 A 
ATOM      6  C   UNL     1     -10.926   4.828   8.590  1.00  0.00     0.004 A 
ATOM      7  C   UNL     1     -10.336   5.276   7.411  1.00  0.00     0.004 A 
ATOM      8  C   UNL     1     -12.122   3.073   4.819  1.00  0.00     0.048 C 
ENDROOT
BRANCH   4   9
ATOM      9  O   UNL     1     -13.252   2.256   7.366  1.00  0.00    -0.508 OA
ATOM     10  H   UNL     1     -13.763   1.949   6.548  1.00  0.00     0.293 HD
ENDBRANCH   4   9
TORSDOF 1
ENDMDL
MODEL 7
REMARK VINA RESULT:    -4.805      1.755      3.261
REMARK INTER + INTRA:          -4.946
REMARK INTER:                  -4.946
REMARK INTRA:                   0.000
REMARK UNBOUND:                 0.000
REMARK SMILES Cc1cccc(O)c1C
REMARK SMILES IDX 1 1 2 2 8 3 6 4 5 5 4 6 3 7 9 8 7 9
REMARK H PARENT 7 10
REMARK Flexibility Score: inf
ROOT
ATOM      1  C   UNL     1     -13.674   3.852  -8.985  1.00  0.00     0.045 C 
ATOM      2  C   UNL     1     -12.693   2.741  -9.260  1.00  0.00    -0.045 A 
ATOM      3  C   UNL     1     -13.112   1.401  -9.482  1.00  0.00    -0.006 A 
ATOM      4  C   UNL     1     -12.134   0.406  -9.735  1.00  0.00     0.118 A 
ATOM      5  C   UNL     1     -10.778   0.748  -9.763  1.00  0.00     0.046 A 
ATOM      6  C   UNL     1     -10.375   2.062  -9.545  1.00  0.00     0.004 A 
ATOM      7  C   UNL     1     -11.322   3.052  -9.295  1.00  0.00     0.004 A 
ATOM      8  C   UNL     1     -14.572   1.008  -9.457  1.00  0.00     0.048 C 
ENDROOT
BRANCH   4   9
ATOM      9  O   UNL     1     -12.472  -0.931  -9.963  1.00  0.00    -0.508 OA
ATOM     10  H   UNL     1     -11.874  -1.582 -10.455  1.00  0.00     0.293 HD
ENDBRANCH   4   9
TORSDOF 1
ENDMDL
MODEL 8
REMARK VINA RESULT:    -4.775     16.080     16.709
REMARK INTER + INTRA:          -4.914
REMARK INTER:                  -4.914
REMARK INTRA:                   0.000
REMARK UNBOUND:                 0.000
REMARK SMILES Cc1cccc(O)c1C
REMARK SMILES IDX 1 1 2 2 8 3 6 4 5 5 4 6 3 7 9 8 7 9
REMARK H PARENT 7 10
REMARK Flexibility Score: inf
ROOT
ATOM      1  C   UNL     1     -10.931   4.950   9.153  1.00  0.00     0.045 C 
ATOM      2  C   UNL     1     -11.037   4.569   7.699  1.00  0.00    -0.045 A 
ATOM      3  C   UNL     1     -11.665   3.365   7.277  1.00  0.00    -0.006 A 
ATOM      4  C   UNL     1     -11.728   3.071   5.892  1.00  0.00     0.118 A 
ATOM      5  C   UNL     1     -11.178   3.956   4.961  1.00  0.00     0.046 A 
ATOM      6  C   UNL     1     -10.563   5.132   5.382  1.00  0.00     0.004 A 
ATOM      7  C   UNL     1     -10.492   5.439   6.738  1.00  0.00     0.004 A 
ATOM      8  C   UNL     1     -12.268   2.392   8.266  1.00  0.00     0.048 C 
ENDROOT
BRANCH   4   9
ATOM      9  O   UNL     1     -12.330   1.907   5.404  1.00  0.00    -0.508 OA
ATOM     10  H   UNL     1     -11.841   1.028   5.296  1.00  0.00     0.293 HD
ENDBRANCH   4   9
TORSDOF 1
ENDMDL
MODEL 9
REMARK VINA RESULT:    -4.768     15.773     16.463
REMARK INTER + INTRA:          -4.907
REMARK INTER:                  -4.907
REMARK INTRA:                   0.000
REMARK UNBOUND:                 0.000
REMARK SMILES Cc1cccc(O)c1C
REMARK SMILES IDX 1 1 2 2 8 3 6 4 5 5 4 6 3 7 9 8 7 9
REMARK H PARENT 7 10
REMARK Flexibility Score: inf
ROOT
ATOM      1  C   UNL     1      -9.650   5.867   6.645  1.00  0.00     0.045 C 
ATOM      2  C   UNL     1     -10.625   4.792   6.243  1.00  0.00    -0.045 A 
ATOM      3  C   UNL     1     -11.365   4.046   7.202  1.00  0.00    -0.006 A 
ATOM      4  C   UNL     1     -12.265   3.048   6.751  1.00  0.00     0.118 A 
ATOM      5  C   UNL     1     -12.418   2.806   5.383  1.00  0.00     0.046 A 
ATOM      6  C   UNL     1     -11.690   3.540   4.451  1.00  0.00     0.004 A 
ATOM      7  C   UNL     1     -10.801   4.524   4.874  1.00  0.00     0.004 A 
ATOM      8  C   UNL     1     -11.217   4.290   8.687  1.00  0.00     0.048 C 
ENDROOT
BRANCH   4   9
ATOM      9  O   UNL     1     -13.026   2.277   7.636  1.00  0.00    -0.508 OA
ATOM     10  H   UNL     1     -12.874   1.288   7.787  1.00  0.00     0.293 HD
ENDBRANCH   4   9
TORSDOF 1
ENDMDL
