MODEL 1
REMARK VINA RESULT:    -3.155      0.000      0.000
REMARK INTER + INTRA:          -8.014
REMARK INTER:                  -5.921
REMARK INTRA:                  -2.093
REMARK UNBOUND:                -2.093
REMARK SMILES O=C([O-])CCCCCCCCCCCCCCC(=O)[O-]
REMARK SMILES IDX 10 1 9 2 8 3 7 4 6 5 5 6 4 7 2 8 1 9 3 10 11 11 12 12 13 13
REMARK SMILES IDX 14 14 15 15 16 16 17 17 18 18 19 19 20 20
REMARK H PARENT
REMARK Flexibility Score: inf
ROOT
ATOM      1  C   UNL     1      19.356  27.559  55.470  1.00  0.00     0.000 C 
ENDROOT
BRANCH   1   2
ATOM      2  C   UNL     1      18.883  28.361  56.689  1.00  0.00     0.000 C 
BRANCH   2   3
ATOM      3  C   UNL     1      19.761  28.066  57.916  1.00  0.00     0.000 C 
BRANCH   3   4
ATOM      4  C   UNL     1      20.409  29.332  58.498  1.00  0.00     0.000 C 
BRANCH   4   5
ATOM      5  C   UNL     1      21.310  30.056  57.487  1.00  0.00     0.000 C 
BRANCH   5   6
ATOM      6  C   UNL     1      22.540  29.207  57.144  1.00  0.00     0.006 C 
BRANCH   6   7
ATOM      7  C   UNL     1      22.971  29.425  55.690  1.00  0.00     0.053 C 
BRANCH   7   8
ATOM      8  C   UNL     1      24.198  30.278  55.629  1.00  0.00     0.041 C 
ATOM      9  O   UNL     1      24.269  31.227  54.805  1.00  0.00    -0.550 OA
ATOM     10  O   UNL     1      25.283  29.996  56.451  1.00  0.00    -0.550 OA
ENDBRANCH   7   8
ENDBRANCH   6   7
ENDBRANCH   5   6
ENDBRANCH   4   5
ENDBRANCH   3   4
ENDBRANCH   2   3
ENDBRANCH   1   2
BRANCH   1  11
ATOM     11  C   UNL     1      19.543  28.470  54.251  1.00  0.00     0.000 C 
BRANCH  11  12
ATOM     12  C   UNL     1      19.065  29.899  54.553  1.00  0.00     0.000 C 
BRANCH  12  13
ATOM     13  C   UNL     1      18.195  30.484  53.431  1.00  0.00     0.000 C 
BRANCH  13  14
ATOM     14  C   UNL     1      16.851  29.751  53.279  1.00  0.00     0.000 C 
BRANCH  14  15
ATOM     15  C   UNL     1      16.143  29.535  54.627  1.00  0.00     0.000 C 
BRANCH  15  16
ATOM     16  C   UNL     1      15.556  28.120  54.768  1.00  0.00     0.006 C 
BRANCH  16  17
ATOM     17  C   UNL     1      15.488  27.386  53.423  1.00  0.00     0.053 C 
BRANCH  17  18
ATOM     18  C   UNL     1      14.081  27.293  52.915  1.00  0.00     0.041 C 
ATOM     19  O   UNL     1      13.684  26.250  52.332  1.00  0.00    -0.550 OA
ATOM     20  O   UNL     1      13.199  28.348  53.115  1.00  0.00    -0.550 OA
ENDBRANCH  17  18
ENDBRANCH  16  17
ENDBRANCH  15  16
ENDBRANCH  14  15
ENDBRANCH  13  14
ENDBRANCH  12  13
ENDBRANCH  11  12
ENDBRANCH   1  11
TORSDOF 15
ENDMDL
MODEL 2
REMARK VINA RESULT:    -3.122      7.982     10.283
REMARK INTER + INTRA:          -7.953
REMARK INTER:                  -6.028
REMARK INTRA:                  -1.925
REMARK UNBOUND:                -2.093
REMARK SMILES O=C([O-])CCCCCCCCCCCCCCC(=O)[O-]
REMARK SMILES IDX 10 1 9 2 8 3 7 4 6 5 5 6 4 7 2 8 1 9 3 10 11 11 12 12 13 13
REMARK SMILES IDX 14 14 15 15 16 16 17 17 18 18 19 19 20 20
REMARK H PARENT
REMARK Flexibility Score: inf
ROOT
ATOM      1  C   UNL     1      26.013  31.811  53.327  1.00  0.00     0.000 C 
ENDROOT
BRANCH   1   2
ATOM      2  C   UNL     1      24.932  31.106  54.155  1.00  0.00     0.000 C 
BRANCH   2   3
ATOM      3  C   UNL     1      25.561  30.230  55.250  1.00  0.00     0.000 C 
BRANCH   3   4
ATOM      4  C   UNL     1      27.074  30.458  55.394  1.00  0.00     0.000 C 
BRANCH   4   5
ATOM      5  C   UNL     1      27.631  29.922  56.722  1.00  0.00     0.000 C 
BRANCH   5   6
ATOM      6  C   UNL     1      29.099  30.325  56.903  1.00  0.00     0.006 C 
BRANCH   6   7
ATOM      7  C   UNL     1      29.317  31.794  56.529  1.00  0.00     0.053 C 
BRANCH   7   8
ATOM      8  C   UNL     1      30.578  31.952  55.739  1.00  0.00     0.041 C 
ATOM      9  O   UNL     1      30.751  31.288  54.684  1.00  0.00    -0.550 OA
ATOM     10  O   UNL     1      31.583  32.796  56.195  1.00  0.00    -0.550 OA
ENDBRANCH   7   8
ENDBRANCH   6   7
ENDBRANCH   5   6
ENDBRANCH   4   5
ENDBRANCH   3   4
ENDBRANCH   2   3
ENDBRANCH   1   2
BRANCH   1  11
ATOM     11  C   UNL     1      25.600  33.249  52.991  1.00  0.00     0.000 C 
BRANCH  11  12
ATOM     12  C   UNL     1      26.797  34.206  53.104  1.00  0.00     0.000 C 
BRANCH  12  13
ATOM     13  C   UNL     1      28.114  33.476  53.408  1.00  0.00     0.000 C 
BRANCH  13  14
ATOM     14  C   UNL     1      29.182  33.705  52.325  1.00  0.00     0.000 C 
BRANCH  14  15
ATOM     15  C   UNL     1      29.236  32.560  51.300  1.00  0.00     0.000 C 
BRANCH  15  16
ATOM     16  C   UNL     1      28.591  32.937  49.955  1.00  0.00     0.006 C 
BRANCH  16  17
ATOM     17  C   UNL     1      27.182  32.348  49.805  1.00  0.00     0.053 C 
BRANCH  17  18
ATOM     18  C   UNL     1      26.271  33.278  49.063  1.00  0.00     0.041 C 
ATOM     19  O   UNL     1      25.191  33.660  49.586  1.00  0.00    -0.550 OA
ATOM     20  O   UNL     1      26.632  33.749  47.806  1.00  0.00    -0.550 OA
ENDBRANCH  17  18
ENDBRANCH  16  17
ENDBRANCH  15  16
ENDBRANCH  14  15
ENDBRANCH  13  14
ENDBRANCH  12  13
ENDBRANCH  11  12
ENDBRANCH   1  11
TORSDOF 15
ENDMDL
MODEL 3
REMARK VINA RESULT:    -3.099      8.554     11.843
REMARK INTER + INTRA:          -7.910
REMARK INTER:                  -5.363
REMARK INTRA:                  -2.548
REMARK UNBOUND:                -2.093
REMARK SMILES O=C([O-])CCCCCCCCCCCCCCC(=O)[O-]
REMARK SMILES IDX 10 1 9 2 8 3 7 4 6 5 5 6 4 7 2 8 1 9 3 10 11 11 12 12 13 13
REMARK SMILES IDX 14 14 15 15 16 16 17 17 18 18 19 19 20 20
REMARK H PARENT
REMARK Flexibility Score: inf
ROOT
ATOM      1  C   UNL     1      31.703  30.726  52.670  1.00  0.00     0.000 C 
ENDROOT
BRANCH   1   2
ATOM      2  C   UNL     1      30.510  31.404  51.986  1.00  0.00     0.000 C 
BRANCH   2   3
ATOM      3  C   UNL     1      30.523  32.921  52.233  1.00  0.00     0.000 C 
BRANCH   3   4
ATOM      4  C   UNL     1      29.182  33.589  51.889  1.00  0.00     0.000 C 
BRANCH   4   5
ATOM      5  C   UNL     1      28.448  34.121  53.129  1.00  0.00     0.000 C 
BRANCH   5   6
ATOM      6  C   UNL     1      26.938  33.879  53.018  1.00  0.00     0.006 C 
BRANCH   6   7
ATOM      7  C   UNL     1      26.587  33.187  51.697  1.00  0.00     0.053 C 
BRANCH   7   8
ATOM      8  C   UNL     1      26.051  31.814  51.952  1.00  0.00     0.041 C 
ATOM      9  O   UNL     1      24.998  31.660  52.624  1.00  0.00    -0.550 OA
ATOM     10  O   UNL     1      26.741  30.700  51.488  1.00  0.00    -0.550 OA
ENDBRANCH   7   8
ENDBRANCH   6   7
ENDBRANCH   5   6
ENDBRANCH   4   5
ENDBRANCH   3   4
ENDBRANCH   2   3
ENDBRANCH   1   2
BRANCH   1  11
ATOM     11  C   UNL     1      32.455  31.713  53.571  1.00  0.00     0.000 C 
BRANCH  11  12
ATOM     12  C   UNL     1      32.982  31.014  54.834  1.00  0.00     0.000 C 
BRANCH  12  13
ATOM     13  C   UNL     1      32.327  31.540  56.121  1.00  0.00     0.000 C 
BRANCH  13  14
ATOM     14  C   UNL     1      31.175  32.519  55.841  1.00  0.00     0.000 C 
BRANCH  14  15
ATOM     15  C   UNL     1      29.816  31.984  56.325  1.00  0.00     0.000 C 
BRANCH  15  16
ATOM     16  C   UNL     1      29.378  30.715  55.575  1.00  0.00     0.006 C 
BRANCH  16  17
ATOM     17  C   UNL     1      28.059  30.918  54.818  1.00  0.00     0.053 C 
BRANCH  17  18
ATOM     18  C   UNL     1      26.963  30.062  55.379  1.00  0.00     0.041 C 
ATOM     19  O   UNL     1      26.427  29.171  54.669  1.00  0.00    -0.550 OA
ATOM     20  O   UNL     1      26.557  30.230  56.697  1.00  0.00    -0.550 OA
ENDBRANCH  17  18
ENDBRANCH  16  17
ENDBRANCH  15  16
ENDBRANCH  14  15
ENDBRANCH  13  14
ENDBRANCH  12  13
ENDBRANCH  11  12
ENDBRANCH   1  11
TORSDOF 15
ENDMDL
MODEL 4
REMARK VINA RESULT:    -3.078      8.063     10.966
REMARK INTER + INTRA:          -7.870
REMARK INTER:                  -5.262
REMARK INTRA:                  -2.607
REMARK UNBOUND:                -2.093
REMARK SMILES O=C([O-])CCCCCCCCCCCCCCC(=O)[O-]
REMARK SMILES IDX 10 1 9 2 8 3 7 4 6 5 5 6 4 7 2 8 1 9 3 10 11 11 12 12 13 13
REMARK SMILES IDX 14 14 15 15 16 16 17 17 18 18 19 19 20 20
REMARK H PARENT
REMARK Flexibility Score: inf
ROOT
ATOM      1  C   UNL     1      32.373  31.694  53.604  1.00  0.00     0.000 C 
ENDROOT
BRANCH   1   2
ATOM      2  C   UNL     1      32.585  31.056  54.982  1.00  0.00     0.000 C 
BRANCH   2   3
ATOM      3  C   UNL     1      32.181  32.024  56.105  1.00  0.00     0.000 C 
BRANCH   3   4
ATOM      4  C   UNL     1      30.807  32.671  55.864  1.00  0.00     0.000 C 
BRANCH   4   5
ATOM      5  C   UNL     1      29.644  31.787  56.338  1.00  0.00     0.000 C 
BRANCH   5   6
ATOM      6  C   UNL     1      28.578  31.651  55.243  1.00  0.00     0.006 C 
BRANCH   6   7
ATOM      7  C   UNL     1      28.464  30.200  54.764  1.00  0.00     0.053 C 
BRANCH   7   8
ATOM      8  C   UNL     1      27.949  29.326  55.864  1.00  0.00     0.041 C 
ATOM      9  O   UNL     1      28.565  28.273  56.175  1.00  0.00    -0.550 OA
ATOM     10  O   UNL     1      26.764  29.649  56.513  1.00  0.00    -0.550 OA
ENDBRANCH   7   8
ENDBRANCH   6   7
ENDBRANCH   5   6
ENDBRANCH   4   5
ENDBRANCH   3   4
ENDBRANCH   2   3
ENDBRANCH   1   2
BRANCH   1  11
ATOM     11  C   UNL     1      31.618  30.744  52.667  1.00  0.00     0.000 C 
BRANCH  11  12
ATOM     12  C   UNL     1      30.506  31.486  51.910  1.00  0.00     0.000 C 
BRANCH  12  13
ATOM     13  C   UNL     1      30.481  32.992  52.217  1.00  0.00     0.000 C 
BRANCH  13  14
ATOM     14  C   UNL     1      29.062  33.582  52.173  1.00  0.00     0.000 C 
BRANCH  14  15
ATOM     15  C   UNL     1      28.021  32.575  51.655  1.00  0.00     0.000 C 
BRANCH  15  16
ATOM     16  C   UNL     1      26.604  33.168  51.588  1.00  0.00     0.006 C 
BRANCH  16  17
ATOM     17  C   UNL     1      25.884  33.098  52.942  1.00  0.00     0.053 C 
BRANCH  17  18
ATOM     18  C   UNL     1      25.209  31.775  53.140  1.00  0.00     0.041 C 
ATOM     19  O   UNL     1      24.987  31.342  54.302  1.00  0.00    -0.550 OA
ATOM     20  O   UNL     1      24.794  31.035  52.039  1.00  0.00    -0.550 OA
ENDBRANCH  17  18
ENDBRANCH  16  17
ENDBRANCH  15  16
ENDBRANCH  14  15
ENDBRANCH  13  14
ENDBRANCH  12  13
ENDBRANCH  11  12
ENDBRANCH   1  11
TORSDOF 15
ENDMDL
MODEL 5
REMARK VINA RESULT:    -3.076      7.885     11.870
REMARK INTER + INTRA:          -7.867
REMARK INTER:                  -5.474
REMARK INTRA:                  -2.393
REMARK UNBOUND:                -2.093
REMARK SMILES O=C([O-])CCCCCCCCCCCCCCC(=O)[O-]
REMARK SMILES IDX 10 1 9 2 8 3 7 4 6 5 5 6 4 7 2 8 1 9 3 10 11 11 12 12 13 13
REMARK SMILES IDX 14 14 15 15 16 16 17 17 18 18 19 19 20 20
REMARK H PARENT
REMARK Flexibility Score: inf
ROOT
ATOM      1  C   UNL     1      30.286  31.560  52.593  1.00  0.00     0.000 C 
ENDROOT
BRANCH   1   2
ATOM      2  C   UNL     1      30.793  32.982  52.325  1.00  0.00     0.000 C 
BRANCH   2   3
ATOM      3  C   UNL     1      29.647  34.002  52.422  1.00  0.00     0.000 C 
BRANCH   3   4
ATOM      4  C   UNL     1      28.588  33.606  53.463  1.00  0.00     0.000 C 
BRANCH   4   5
ATOM      5  C   UNL     1      27.186  34.125  53.110  1.00  0.00     0.000 C 
BRANCH   5   6
ATOM      6  C   UNL     1      26.506  33.211  52.083  1.00  0.00     0.006 C 
BRANCH   6   7
ATOM      7  C   UNL     1      26.579  31.744  52.517  1.00  0.00     0.053 C 
BRANCH   7   8
ATOM      8  C   UNL     1      25.246  31.278  53.010  1.00  0.00     0.041 C 
ATOM      9  O   UNL     1      24.860  31.575  54.171  1.00  0.00    -0.550 OA
ATOM     10  O   UNL     1      24.448  30.474  52.204  1.00  0.00    -0.550 OA
ENDBRANCH   7   8
ENDBRANCH   6   7
ENDBRANCH   5   6
ENDBRANCH   4   5
ENDBRANCH   3   4
ENDBRANCH   2   3
ENDBRANCH   1   2
BRANCH   1  11
ATOM     11  C   UNL     1      31.451  30.606  52.888  1.00  0.00     0.000 C 
BRANCH  11  12
ATOM     12  C   UNL     1      32.537  31.306  53.720  1.00  0.00     0.000 C 
BRANCH  12  13
ATOM     13  C   UNL     1      32.377  31.065  55.229  1.00  0.00     0.000 C 
BRANCH  13  14
ATOM     14  C   UNL     1      31.949  32.331  55.989  1.00  0.00     0.000 C 
BRANCH  14  15
ATOM     15  C   UNL     1      30.434  32.375  56.254  1.00  0.00     0.000 C 
BRANCH  15  16
ATOM     16  C   UNL     1      29.826  30.975  56.446  1.00  0.00     0.006 C 
BRANCH  16  17
ATOM     17  C   UNL     1      28.385  30.895  55.923  1.00  0.00     0.053 C 
BRANCH  17  18
ATOM     18  C   UNL     1      27.434  30.448  56.991  1.00  0.00     0.041 C 
ATOM     19  O   UNL     1      27.671  30.704  58.201  1.00  0.00    -0.550 OA
ATOM     20  O   UNL     1      26.267  29.776  56.646  1.00  0.00    -0.550 OA
ENDBRANCH  17  18
ENDBRANCH  16  17
ENDBRANCH  15  16
ENDBRANCH  14  15
ENDBRANCH  13  14
ENDBRANCH  12  13
ENDBRANCH  11  12
ENDBRANCH   1  11
TORSDOF 15
ENDMDL
MODEL 6
REMARK VINA RESULT:    -3.049      9.265     11.660
REMARK INTER + INTRA:          -7.816
REMARK INTER:                  -5.268
REMARK INTRA:                  -2.548
REMARK UNBOUND:                -2.093
REMARK SMILES O=C([O-])CCCCCCCCCCCCCCC(=O)[O-]
REMARK SMILES IDX 10 1 9 2 8 3 7 4 6 5 5 6 4 7 2 8 1 9 3 10 11 11 12 12 13 13
REMARK SMILES IDX 14 14 15 15 16 16 17 17 18 18 19 19 20 20
REMARK H PARENT
REMARK Flexibility Score: inf
ROOT
ATOM      1  C   UNL     1      30.827  32.042  52.348  1.00  0.00     0.000 C 
ENDROOT
BRANCH   1   2
ATOM      2  C   UNL     1      31.055  33.290  53.209  1.00  0.00     0.000 C 
BRANCH   2   3
ATOM      3  C   UNL     1      29.785  34.155  53.271  1.00  0.00     0.000 C 
BRANCH   3   4
ATOM      4  C   UNL     1      28.676  33.646  52.336  1.00  0.00     0.000 C 
BRANCH   4   5
ATOM      5  C   UNL     1      27.271  34.055  52.804  1.00  0.00     0.000 C 
BRANCH   5   6
ATOM      6  C   UNL     1      26.204  33.127  52.212  1.00  0.00     0.006 C 
BRANCH   6   7
ATOM      7  C   UNL     1      26.680  32.513  50.892  1.00  0.00     0.053 C 
BRANCH   7   8
ATOM      8  C   UNL     1      26.148  33.291  49.731  1.00  0.00     0.041 C 
ATOM      9  O   UNL     1      24.944  33.659  49.714  1.00  0.00    -0.550 OA
ATOM     10  O   UNL     1      26.969  33.570  48.645  1.00  0.00    -0.550 OA
ENDBRANCH   7   8
ENDBRANCH   6   7
ENDBRANCH   5   6
ENDBRANCH   4   5
ENDBRANCH   3   4
ENDBRANCH   2   3
ENDBRANCH   1   2
BRANCH   1  11
ATOM     11  C   UNL     1      31.362  30.786  53.047  1.00  0.00     0.000 C 
BRANCH  11  12
ATOM     12  C   UNL     1      30.444  29.581  52.791  1.00  0.00     0.000 C 
BRANCH  12  13
ATOM     13  C   UNL     1      28.961  29.973  52.699  1.00  0.00     0.000 C 
BRANCH  13  14
ATOM     14  C   UNL     1      28.175  29.621  53.973  1.00  0.00     0.000 C 
BRANCH  14  15
ATOM     15  C   UNL     1      27.628  30.866  54.691  1.00  0.00     0.000 C 
BRANCH  15  16
ATOM     16  C   UNL     1      28.691  31.568  55.553  1.00  0.00     0.006 C 
BRANCH  16  17
ATOM     17  C   UNL     1      29.133  30.704  56.742  1.00  0.00     0.053 C 
BRANCH  17  18
ATOM     18  C   UNL     1      28.029  30.534  57.742  1.00  0.00     0.041 C 
ATOM     19  O   UNL     1      27.384  29.455  57.798  1.00  0.00    -0.550 OA
ATOM     20  O   UNL     1      27.736  31.559  58.634  1.00  0.00    -0.550 OA
ENDBRANCH  17  18
ENDBRANCH  16  17
ENDBRANCH  15  16
ENDBRANCH  14  15
ENDBRANCH  13  14
ENDBRANCH  12  13
ENDBRANCH  11  12
ENDBRANCH   1  11
TORSDOF 15
ENDMDL
MODEL 7
REMARK VINA RESULT:    -3.040     13.845     16.751
REMARK INTER + INTRA:          -7.798
REMARK INTER:                  -6.177
REMARK INTRA:                  -1.621
REMARK UNBOUND:                -2.093
REMARK SMILES O=C([O-])CCCCCCCCCCCCCCC(=O)[O-]
REMARK SMILES IDX 10 1 9 2 8 3 7 4 6 5 5 6 4 7 2 8 1 9 3 10 11 11 12 12 13 13
REMARK SMILES IDX 14 14 15 15 16 16 17 17 18 18 19 19 20 20
REMARK H PARENT
REMARK Flexibility Score: inf
ROOT
ATOM      1  C   UNL     1      20.248  20.974  43.048  1.00  0.00     0.000 C 
ENDROOT
BRANCH   1   2
ATOM      2  C   UNL     1      19.364  19.721  43.050  1.00  0.00     0.000 C 
BRANCH   2   3
ATOM      3  C   UNL     1      19.421  19.009  44.411  1.00  0.00     0.000 C 
BRANCH   3   4
ATOM      4  C   UNL     1      18.032  18.597  44.923  1.00  0.00     0.000 C 
BRANCH   4   5
ATOM      5  C   UNL     1      17.775  19.045  46.370  1.00  0.00     0.000 C 
BRANCH   5   6
ATOM      6  C   UNL     1      17.149  17.911  47.191  1.00  0.00     0.006 C 
BRANCH   6   7
ATOM      7  C   UNL     1      15.708  18.248  47.585  1.00  0.00     0.053 C 
BRANCH   7   8
ATOM      8  C   UNL     1      14.771  17.931  46.462  1.00  0.00     0.041 C 
ATOM      9  O   UNL     1      13.902  18.769  46.107  1.00  0.00    -0.550 OA
ATOM     10  O   UNL     1      14.827  16.690  45.838  1.00  0.00    -0.550 OA
ENDBRANCH   7   8
ENDBRANCH   6   7
ENDBRANCH   5   6
ENDBRANCH   4   5
ENDBRANCH   3   4
ENDBRANCH   2   3
ENDBRANCH   1   2
BRANCH   1  11
ATOM     11  C   UNL     1      21.225  20.957  41.866  1.00  0.00     0.000 C 
BRANCH  11  12
ATOM     12  C   UNL     1      20.974  19.739  40.963  1.00  0.00     0.000 C 
BRANCH  12  13
ATOM     13  C   UNL     1      22.271  19.150  40.387  1.00  0.00     0.000 C 
BRANCH  13  14
ATOM     14  C   UNL     1      23.259  18.710  41.482  1.00  0.00     0.000 C 
BRANCH  14  15
ATOM     15  C   UNL     1      22.915  17.330  42.066  1.00  0.00     0.000 C 
BRANCH  15  16
ATOM     16  C   UNL     1      22.751  17.358  43.596  1.00  0.00     0.006 C 
BRANCH  16  17
ATOM     17  C   UNL     1      23.126  18.722  44.192  1.00  0.00     0.053 C 
BRANCH  17  18
ATOM     18  C   UNL     1      24.454  18.676  44.883  1.00  0.00     0.041 C 
ATOM     19  O   UNL     1      24.921  17.580  45.290  1.00  0.00    -0.550 OA
ATOM     20  O   UNL     1      25.191  19.843  45.050  1.00  0.00    -0.550 OA
ENDBRANCH  17  18
ENDBRANCH  16  17
ENDBRANCH  15  16
ENDBRANCH  14  15
ENDBRANCH  13  14
ENDBRANCH  12  13
ENDBRANCH  11  12
ENDBRANCH   1  11
TORSDOF 15
ENDMDL
MODEL 8
REMARK VINA RESULT:    -3.036      9.495     11.583
REMARK INTER + INTRA:          -7.792
REMARK INTER:                  -5.078
REMARK INTRA:                  -2.714
REMARK UNBOUND:                -2.093
REMARK SMILES O=C([O-])CCCCCCCCCCCCCCC(=O)[O-]
REMARK SMILES IDX 10 1 9 2 8 3 7 4 6 5 5 6 4 7 2 8 1 9 3 10 11 11 12 12 13 13
REMARK SMILES IDX 14 14 15 15 16 16 17 17 18 18 19 19 20 20
REMARK H PARENT
REMARK Flexibility Score: inf
ROOT
ATOM      1  C   UNL     1      31.643  31.955  55.098  1.00  0.00     0.000 C 
ENDROOT
BRANCH   1   2
ATOM      2  C   UNL     1      32.131  31.941  53.644  1.00  0.00     0.000 C 
BRANCH   2   3
ATOM      3  C   UNL     1      31.576  30.722  52.889  1.00  0.00     0.000 C 
BRANCH   3   4
ATOM      4  C   UNL     1      30.475  29.991  53.673  1.00  0.00     0.000 C 
BRANCH   4   5
ATOM      5  C   UNL     1      29.130  29.973  52.931  1.00  0.00     0.000 C 
BRANCH   5   6
ATOM      6  C   UNL     1      27.960  29.914  53.920  1.00  0.00     0.006 C 
BRANCH   6   7
ATOM      7  C   UNL     1      28.016  31.082  54.910  1.00  0.00     0.053 C 
BRANCH   7   8
ATOM      8  C   UNL     1      27.931  30.580  56.316  1.00  0.00     0.041 C 
ATOM      9  O   UNL     1      28.971  30.486  57.019  1.00  0.00    -0.550 OA
ATOM     10  O   UNL     1      26.709  30.172  56.836  1.00  0.00    -0.550 OA
ENDBRANCH   7   8
ENDBRANCH   6   7
ENDBRANCH   5   6
ENDBRANCH   4   5
ENDBRANCH   3   4
ENDBRANCH   2   3
ENDBRANCH   1   2
BRANCH   1  11
ATOM     11  C   UNL     1      30.877  33.246  55.409  1.00  0.00     0.000 C 
BRANCH  11  12
ATOM     12  C   UNL     1      30.834  34.169  54.181  1.00  0.00     0.000 C 
BRANCH  12  13
ATOM     13  C   UNL     1      29.422  34.697  53.884  1.00  0.00     0.000 C 
BRANCH  13  14
ATOM     14  C   UNL     1      28.704  33.887  52.792  1.00  0.00     0.000 C 
BRANCH  14  15
ATOM     15  C   UNL     1      29.623  33.559  51.603  1.00  0.00     0.000 C 
BRANCH  15  16
ATOM     16  C   UNL     1      28.879  32.851  50.457  1.00  0.00     0.006 C 
BRANCH  16  17
ATOM     17  C   UNL     1      27.445  32.470  50.848  1.00  0.00     0.053 C 
BRANCH  17  18
ATOM     18  C   UNL     1      26.447  32.976  49.850  1.00  0.00     0.041 C 
ATOM     19  O   UNL     1      25.213  32.852  50.066  1.00  0.00    -0.550 OA
ATOM     20  O   UNL     1      26.884  33.613  48.694  1.00  0.00    -0.550 OA
ENDBRANCH  17  18
ENDBRANCH  16  17
ENDBRANCH  15  16
ENDBRANCH  14  15
ENDBRANCH  13  14
ENDBRANCH  12  13
ENDBRANCH  11  12
ENDBRANCH   1  11
TORSDOF 15
ENDMDL
MODEL 9
REMARK VINA RESULT:    -2.985     11.232     13.450
REMARK INTER + INTRA:          -7.695
REMARK INTER:                  -5.644
REMARK INTRA:                  -2.050
REMARK UNBOUND:                -2.093
REMARK SMILES O=C([O-])CCCCCCCCCCCCCCC(=O)[O-]
REMARK SMILES IDX 10 1 9 2 8 3 7 4 6 5 5 6 4 7 2 8 1 9 3 10 11 11 12 12 13 13
REMARK SMILES IDX 14 14 15 15 16 16 17 17 18 18 19 19 20 20
REMARK H PARENT
REMARK Flexibility Score: inf
ROOT
ATOM      1  C   UNL     1      14.667  20.807  48.237  1.00  0.00     0.000 C 
ENDROOT
BRANCH   1   2
ATOM      2  C   UNL     1      13.705  19.721  47.739  1.00  0.00     0.000 C 
BRANCH   2   3
ATOM      3  C   UNL     1      14.375  18.338  47.767  1.00  0.00     0.000 C 
BRANCH   3   4
ATOM      4  C   UNL     1      14.773  17.843  46.367  1.00  0.00     0.000 C 
BRANCH   4   5
ATOM      5  C   UNL     1      16.294  17.822  46.155  1.00  0.00     0.000 C 
BRANCH   5   6
ATOM      6  C   UNL     1      16.793  19.173  45.629  1.00  0.00     0.006 C 
BRANCH   6   7
ATOM      7  C   UNL     1      17.754  18.984  44.451  1.00  0.00     0.053 C 
BRANCH   7   8
ATOM      8  C   UNL     1      19.172  19.127  44.906  1.00  0.00     0.041 C 
ATOM      9  O   UNL     1      19.436  19.739  45.973  1.00  0.00    -0.550 OA
ATOM     10  O   UNL     1      20.207  18.626  44.125  1.00  0.00    -0.550 OA
ENDBRANCH   7   8
ENDBRANCH   6   7
ENDBRANCH   5   6
ENDBRANCH   4   5
ENDBRANCH   3   4
ENDBRANCH   2   3
ENDBRANCH   1   2
BRANCH   1  11
ATOM     11  C   UNL     1      15.614  20.254  49.309  1.00  0.00     0.000 C 
BRANCH  11  12
ATOM     12  C   UNL     1      17.063  20.685  49.036  1.00  0.00     0.000 C 
BRANCH  12  13
ATOM     13  C   UNL     1      18.071  19.542  49.241  1.00  0.00     0.000 C 
BRANCH  13  14
ATOM     14  C   UNL     1      17.401  18.238  49.705  1.00  0.00     0.000 C 
BRANCH  14  15
ATOM     15  C   UNL     1      18.060  17.653  50.965  1.00  0.00     0.000 C 
BRANCH  15  16
ATOM     16  C   UNL     1      17.033  17.124  51.981  1.00  0.00     0.006 C 
BRANCH  16  17
ATOM     17  C   UNL     1      15.928  18.148  52.272  1.00  0.00     0.053 C 
BRANCH  17  18
ATOM     18  C   UNL     1      15.875  18.505  53.726  1.00  0.00     0.041 C 
ATOM     19  O   UNL     1      14.828  19.000  54.221  1.00  0.00    -0.550 OA
ATOM     20  O   UNL     1      16.973  18.260  54.542  1.00  0.00    -0.550 OA
ENDBRANCH  17  18
ENDBRANCH  16  17
ENDBRANCH  15  16
ENDBRANCH  14  15
ENDBRANCH  13  14
ENDBRANCH  12  13
ENDBRANCH  11  12
ENDBRANCH   1  11
TORSDOF 15
ENDMDL
