MODEL 1
REMARK VINA RESULT:    -4.744      0.000      0.000
REMARK INTER + INTRA:          -4.883
REMARK INTER:                  -4.883
REMARK INTRA:                   0.000
REMARK UNBOUND:                 0.000
REMARK SMILES Nc1ncnc2nc[nH]c12
REMARK SMILES IDX 8 1 7 2 6 3 5 4 4 5 3 6 2 7 10 8 9 9 1 11
REMARK H PARENT 9 10 1 12 1 13
REMARK Flexibility Score: inf
ROOT
ATOM      1  C   UNL     1      12.944  -8.523 -32.788  1.00  0.00     0.199 A 
ATOM      2  N   UNL     1      12.411  -9.603 -32.155  1.00  0.00    -0.217 NA
ATOM      3  C   UNL     1      13.319 -10.560 -32.409  1.00  0.00     0.182 A 
ATOM      4  N   UNL     1      13.270 -11.850 -31.999  1.00  0.00    -0.215 NA
ATOM      5  C   UNL     1      14.295 -12.681 -32.360  1.00  0.00     0.226 A 
ATOM      6  N   UNL     1      15.339 -12.210 -33.116  1.00  0.00    -0.217 NA
ATOM      7  C   UNL     1      15.390 -10.909 -33.530  1.00  0.00     0.152 A 
ATOM      8  C   UNL     1      14.339 -10.076 -33.155  1.00  0.00     0.127 A 
ATOM      9  N   UNL     1      14.122  -8.780 -33.410  1.00  0.00    -0.340 N 
ATOM     10  H   UNL     1      14.712  -8.113 -33.955  1.00  0.00     0.168 HD
ENDROOT
BRANCH   7  11
ATOM     11  N   UNL     1      16.487 -10.442 -34.316  1.00  0.00    -0.382 N 
ATOM     12  H   UNL     1      16.505  -9.452 -34.652  1.00  0.00     0.158 HD
ATOM     13  H   UNL     1      17.282 -11.069 -34.569  1.00  0.00     0.158 HD
ENDBRANCH   7  11
TORSDOF 1
ENDMDL
MODEL 2
REMARK VINA RESULT:    -4.615     14.906     15.570
REMARK INTER + INTRA:          -4.750
REMARK INTER:                  -4.750
REMARK INTRA:                   0.000
REMARK UNBOUND:                 0.000
REMARK SMILES Nc1ncnc2nc[nH]c12
REMARK SMILES IDX 8 1 7 2 6 3 5 4 4 5 3 6 2 7 10 8 9 9 1 11
REMARK H PARENT 9 10 1 12 1 13
REMARK Flexibility Score: inf
ROOT
ATOM      1  C   UNL     1      14.852  -8.124 -19.253  1.00  0.00     0.199 A 
ATOM      2  N   UNL     1      13.545  -8.134 -18.874  1.00  0.00    -0.217 NA
ATOM      3  C   UNL     1      13.533  -9.074 -17.914  1.00  0.00     0.182 A 
ATOM      4  N   UNL     1      12.460  -9.482 -17.197  1.00  0.00    -0.215 NA
ATOM      5  C   UNL     1      12.645 -10.457 -16.256  1.00  0.00     0.226 A 
ATOM      6  N   UNL     1      13.889 -11.000 -16.053  1.00  0.00    -0.217 NA
ATOM      7  C   UNL     1      14.973 -10.590 -16.776  1.00  0.00     0.152 A 
ATOM      8  C   UNL     1      14.767  -9.597 -17.730  1.00  0.00     0.127 A 
ATOM      9  N   UNL     1      15.625  -9.008 -18.572  1.00  0.00    -0.340 N 
ATOM     10  H   UNL     1      16.649  -9.177 -18.687  1.00  0.00     0.168 HD
ENDROOT
BRANCH   7  11
ATOM     11  N   UNL     1      16.258 -11.170 -16.548  1.00  0.00    -0.382 N 
ATOM     12  H   UNL     1      16.649 -11.209 -15.580  1.00  0.00     0.158 HD
ATOM     13  H   UNL     1      16.825 -11.563 -17.332  1.00  0.00     0.158 HD
ENDBRANCH   7  11
TORSDOF 1
ENDMDL
MODEL 3
REMARK VINA RESULT:    -4.475     14.953     15.725
REMARK INTER + INTRA:          -4.606
REMARK INTER:                  -4.606
REMARK INTRA:                   0.000
REMARK UNBOUND:                 0.000
REMARK SMILES Nc1ncnc2nc[nH]c12
REMARK SMILES IDX 8 1 7 2 6 3 5 4 4 5 3 6 2 7 10 8 9 9 1 11
REMARK H PARENT 9 10 1 12 1 13
REMARK Flexibility Score: inf
ROOT
ATOM      1  C   UNL     1      13.968  -7.949 -18.973  1.00  0.00     0.199 A 
ATOM      2  N   UNL     1      15.161  -8.603 -19.002  1.00  0.00    -0.217 NA
ATOM      3  C   UNL     1      14.993  -9.547 -18.061  1.00  0.00     0.182 A 
ATOM      4  N   UNL     1      15.898 -10.482 -17.684  1.00  0.00    -0.215 NA
ATOM      5  C   UNL     1      15.542 -11.363 -16.700  1.00  0.00     0.226 A 
ATOM      6  N   UNL     1      14.302 -11.293 -16.118  1.00  0.00    -0.217 NA
ATOM      7  C   UNL     1      13.389 -10.350 -16.497  1.00  0.00     0.152 A 
ATOM      8  C   UNL     1      13.766  -9.460 -17.499  1.00  0.00     0.127 A 
ATOM      9  N   UNL     1      13.093  -8.449 -18.063  1.00  0.00    -0.340 N 
ATOM     10  H   UNL     1      12.126  -8.115 -17.862  1.00  0.00     0.168 HD
ENDROOT
BRANCH   7  11
ATOM     11  N   UNL     1      12.104 -10.295 -15.875  1.00  0.00    -0.382 N 
ATOM     12  H   UNL     1      11.655 -11.172 -15.527  1.00  0.00     0.158 HD
ATOM     13  H   UNL     1      11.595  -9.392 -15.757  1.00  0.00     0.158 HD
ENDBRANCH   7  11
TORSDOF 1
ENDMDL
MODEL 4
REMARK VINA RESULT:    -4.467     15.020     15.865
REMARK INTER + INTRA:          -4.597
REMARK INTER:                  -4.597
REMARK INTRA:                   0.000
REMARK UNBOUND:                 0.000
REMARK SMILES Nc1ncnc2nc[nH]c12
REMARK SMILES IDX 8 1 7 2 6 3 5 4 4 5 3 6 2 7 10 8 9 9 1 11
REMARK H PARENT 9 10 1 12 1 13
REMARK Flexibility Score: inf
ROOT
ATOM      1  C   UNL     1      16.511 -11.503 -17.758  1.00  0.00     0.199 A 
ATOM      2  N   UNL     1      15.754 -12.051 -16.769  1.00  0.00    -0.217 NA
ATOM      3  C   UNL     1      14.660 -11.271 -16.781  1.00  0.00     0.182 A 
ATOM      4  N   UNL     1      13.576 -11.388 -15.978  1.00  0.00    -0.215 NA
ATOM      5  C   UNL     1      12.554 -10.493 -16.140  1.00  0.00     0.226 A 
ATOM      6  N   UNL     1      12.635  -9.508 -17.092  1.00  0.00    -0.217 NA
ATOM      7  C   UNL     1      13.729  -9.390 -17.903  1.00  0.00     0.152 A 
ATOM      8  C   UNL     1      14.760 -10.308 -17.725  1.00  0.00     0.127 A 
ATOM      9  N   UNL     1      15.932 -10.434 -18.361  1.00  0.00    -0.340 N 
ATOM     10  H   UNL     1      16.319  -9.856 -19.139  1.00  0.00     0.168 HD
ENDROOT
BRANCH   7  11
ATOM     11  N   UNL     1      13.792  -8.356 -18.887  1.00  0.00    -0.382 N 
ATOM     12  H   UNL     1      13.878  -8.603 -19.899  1.00  0.00     0.158 HD
ATOM     13  H   UNL     1      13.753  -7.348 -18.621  1.00  0.00     0.158 HD
ENDBRANCH   7  11
TORSDOF 1
ENDMDL
MODEL 5
REMARK VINA RESULT:    -4.352      1.868      2.845
REMARK INTER + INTRA:          -4.479
REMARK INTER:                  -4.479
REMARK INTRA:                   0.000
REMARK UNBOUND:                 0.000
REMARK SMILES Nc1ncnc2nc[nH]c12
REMARK SMILES IDX 8 1 7 2 6 3 5 4 4 5 3 6 2 7 10 8 9 9 1 11
REMARK H PARENT 9 10 1 12 1 13
REMARK Flexibility Score: inf
ROOT
ATOM      1  C   UNL     1      16.493 -10.694 -33.096  1.00  0.00     0.199 A 
ATOM      2  N   UNL     1      16.232 -11.727 -32.250  1.00  0.00    -0.217 NA
ATOM      3  C   UNL     1      14.960 -12.032 -32.555  1.00  0.00     0.182 A 
ATOM      4  N   UNL     1      14.205 -13.006 -31.993  1.00  0.00    -0.215 NA
ATOM      5  C   UNL     1      12.922 -13.165 -32.438  1.00  0.00     0.226 A 
ATOM      6  N   UNL     1      12.422 -12.356 -33.426  1.00  0.00    -0.217 NA
ATOM      7  C   UNL     1      13.182 -11.372 -33.994  1.00  0.00     0.152 A 
ATOM      8  C   UNL     1      14.486 -11.222 -33.530  1.00  0.00     0.127 A 
ATOM      9  N   UNL     1      15.445 -10.361 -33.892  1.00  0.00    -0.340 N 
ATOM     10  H   UNL     1      15.409  -9.608 -34.613  1.00  0.00     0.168 HD
ENDROOT
BRANCH   7  11
ATOM     11  N   UNL     1      12.641 -10.541 -35.022  1.00  0.00    -0.382 N 
ATOM     12  H   UNL     1      13.142  -9.670 -35.308  1.00  0.00     0.158 HD
ATOM     13  H   UNL     1      11.746 -10.782 -35.502  1.00  0.00     0.158 HD
ENDBRANCH   7  11
TORSDOF 1
ENDMDL
MODEL 6
REMARK VINA RESULT:    -4.308      1.099      2.968
REMARK INTER + INTRA:          -4.434
REMARK INTER:                  -4.434
REMARK INTRA:                   0.000
REMARK UNBOUND:                 0.000
REMARK SMILES Nc1ncnc2nc[nH]c12
REMARK SMILES IDX 8 1 7 2 6 3 5 4 4 5 3 6 2 7 10 8 9 9 1 11
REMARK H PARENT 9 10 1 12 1 13
REMARK Flexibility Score: inf
ROOT
ATOM      1  C   UNL     1      12.863 -13.309 -32.490  1.00  0.00     0.199 A 
ATOM      2  N   UNL     1      11.929 -12.468 -31.969  1.00  0.00    -0.217 NA
ATOM      3  C   UNL     1      12.430 -11.259 -32.273  1.00  0.00     0.182 A 
ATOM      4  N   UNL     1      11.879 -10.059 -31.975  1.00  0.00    -0.215 NA
ATOM      5  C   UNL     1      12.543  -8.929 -32.370  1.00  0.00     0.226 A 
ATOM      6  N   UNL     1      13.732  -9.021 -33.047  1.00  0.00    -0.217 NA
ATOM      7  C   UNL     1      14.289 -10.233 -33.347  1.00  0.00     0.152 A 
ATOM      8  C   UNL     1      13.602 -11.373 -32.939  1.00  0.00     0.127 A 
ATOM      9  N   UNL     1      13.900 -12.669 -33.090  1.00  0.00    -0.340 N 
ATOM     10  H   UNL     1      14.728 -13.099 -33.556  1.00  0.00     0.168 HD
ENDROOT
BRANCH   7  11
ATOM     11  N   UNL     1      15.529 -10.305 -34.053  1.00  0.00    -0.382 N 
ATOM     12  H   UNL     1      15.915  -9.453 -34.519  1.00  0.00     0.158 HD
ATOM     13  H   UNL     1      16.068 -11.196 -34.117  1.00  0.00     0.158 HD
ENDBRANCH   7  11
TORSDOF 1
ENDMDL
MODEL 7
REMARK VINA RESULT:    -4.224     14.247     14.634
REMARK INTER + INTRA:          -4.348
REMARK INTER:                  -4.348
REMARK INTRA:                   0.000
REMARK UNBOUND:                 0.000
REMARK SMILES Nc1ncnc2nc[nH]c12
REMARK SMILES IDX 8 1 7 2 6 3 5 4 4 5 3 6 2 7 10 8 9 9 1 11
REMARK H PARENT 9 10 1 12 1 13
REMARK Flexibility Score: inf
ROOT
ATOM      1  C   UNL     1      21.584  -6.808 -23.283  1.00  0.00     0.199 A 
ATOM      2  N   UNL     1      20.459  -6.072 -23.493  1.00  0.00    -0.217 NA
ATOM      3  C   UNL     1      20.589  -5.087 -22.589  1.00  0.00     0.182 A 
ATOM      4  N   UNL     1      19.724  -4.067 -22.376  1.00  0.00    -0.215 NA
ATOM      5  C   UNL     1      20.029  -3.155 -21.404  1.00  0.00     0.226 A 
ATOM      6  N   UNL     1      21.182  -3.279 -20.671  1.00  0.00    -0.217 NA
ATOM      7  C   UNL     1      22.055  -4.308 -20.884  1.00  0.00     0.152 A 
ATOM      8  C   UNL     1      21.730  -5.228 -21.877  1.00  0.00     0.127 A 
ATOM      9  N   UNL     1      22.382  -6.318 -22.301  1.00  0.00    -0.340 N 
ATOM     10  H   UNL     1      23.290  -6.709 -21.965  1.00  0.00     0.168 HD
ENDROOT
BRANCH   7  11
ATOM     11  N   UNL     1      23.249  -4.417 -20.108  1.00  0.00    -0.382 N 
ATOM     12  H   UNL     1      23.553  -3.622 -19.501  1.00  0.00     0.158 HD
ATOM     13  H   UNL     1      23.835  -5.281 -20.129  1.00  0.00     0.158 HD
ENDBRANCH   7  11
TORSDOF 1
ENDMDL
MODEL 8
REMARK VINA RESULT:    -4.215     13.343     13.986
REMARK INTER + INTRA:          -4.338
REMARK INTER:                  -4.338
REMARK INTRA:                   0.000
REMARK UNBOUND:                 0.000
REMARK SMILES Nc1ncnc2nc[nH]c12
REMARK SMILES IDX 8 1 7 2 6 3 5 4 4 5 3 6 2 7 10 8 9 9 1 11
REMARK H PARENT 9 10 1 12 1 13
REMARK Flexibility Score: inf
ROOT
ATOM      1  C   UNL     1      20.860  -6.705 -22.514  1.00  0.00     0.199 A 
ATOM      2  N   UNL     1      21.058  -5.361 -22.589  1.00  0.00    -0.217 NA
ATOM      3  C   UNL     1      19.968  -4.876 -21.972  1.00  0.00     0.182 A 
ATOM      4  N   UNL     1      19.667  -3.571 -21.772  1.00  0.00    -0.215 NA
ATOM      5  C   UNL     1      18.503  -3.270 -21.119  1.00  0.00     0.226 A 
ATOM      6  N   UNL     1      17.670  -4.271 -20.685  1.00  0.00    -0.217 NA
ATOM      7  C   UNL     1      17.973  -5.588 -20.887  1.00  0.00     0.152 A 
ATOM      8  C   UNL     1      19.161  -5.877 -21.552  1.00  0.00     0.127 A 
ATOM      9  N   UNL     1      19.707  -7.053 -21.886  1.00  0.00    -0.340 N 
ATOM     10  H   UNL     1      19.345  -8.016 -21.710  1.00  0.00     0.168 HD
ENDROOT
BRANCH   7  11
ATOM     11  N   UNL     1      17.091  -6.612 -20.425  1.00  0.00    -0.382 N 
ATOM     12  H   UNL     1      16.658  -6.541 -19.477  1.00  0.00     0.158 HD
ATOM     13  H   UNL     1      16.863  -7.441 -21.018  1.00  0.00     0.158 HD
ENDBRANCH   7  11
TORSDOF 1
ENDMDL
MODEL 9
REMARK VINA RESULT:    -4.194      1.508      3.022
REMARK INTER + INTRA:          -4.316
REMARK INTER:                  -4.316
REMARK INTRA:                   0.000
REMARK UNBOUND:                 0.000
REMARK SMILES Nc1ncnc2nc[nH]c12
REMARK SMILES IDX 8 1 7 2 6 3 5 4 4 5 3 6 2 7 10 8 9 9 1 11
REMARK H PARENT 9 10 1 12 1 13
REMARK Flexibility Score: inf
ROOT
ATOM      1  C   UNL     1      12.009 -12.566 -33.266  1.00  0.00     0.199 A 
ATOM      2  N   UNL     1      13.229 -12.970 -32.816  1.00  0.00    -0.217 NA
ATOM      3  C   UNL     1      13.861 -11.801 -32.617  1.00  0.00     0.182 A 
ATOM      4  N   UNL     1      15.127 -11.635 -32.165  1.00  0.00    -0.215 NA
ATOM      5  C   UNL     1      15.600 -10.359 -32.026  1.00  0.00     0.226 A 
ATOM      6  N   UNL     1      14.806  -9.285 -32.339  1.00  0.00    -0.217 NA
ATOM      7  C   UNL     1      13.528  -9.452 -32.796  1.00  0.00     0.152 A 
ATOM      8  C   UNL     1      13.062 -10.756 -32.932  1.00  0.00     0.127 A 
ATOM      9  N   UNL     1      11.877 -11.218 -33.348  1.00  0.00    -0.340 N 
ATOM     10  H   UNL     1      11.040 -10.680 -33.663  1.00  0.00     0.168 HD
ENDROOT
BRANCH   7  11
ATOM     11  N   UNL     1      12.720  -8.318 -33.116  1.00  0.00    -0.382 N 
ATOM     12  H   UNL     1      12.102  -7.895 -32.388  1.00  0.00     0.158 HD
ATOM     13  H   UNL     1      12.731  -7.894 -34.070  1.00  0.00     0.158 HD
ENDBRANCH   7  11
TORSDOF 1
ENDMDL
