MODEL 1
REMARK VINA RESULT:    -3.278      0.000      0.000
REMARK INTER + INTRA:          -4.293
REMARK INTER:                  -4.140
REMARK INTRA:                  -0.153
REMARK UNBOUND:                -0.153
REMARK SMILES CSCC[C@H]([NH3+])C(=O)[O-]
REMARK SMILES IDX 4 1 5 2 6 3 7 7 8 8 9 9 3 10 2 11 1 12
REMARK H PARENT 6 4 6 5 6 6
REMARK Flexibility Score: inf
ROOT
ATOM      1  C   UNL     1      25.307 -11.537  32.203  1.00  0.00     0.082 C 
ENDROOT
BRANCH   1   2
ATOM      2  C   UNL     1      26.724 -12.156  32.248  1.00  0.00     0.228 C 
BRANCH   2   3
ATOM      3  N   UNL     1      27.737 -11.104  32.401  1.00  0.00    -0.350 N 
ATOM      4  H   UNL     1      28.602 -11.503  32.831  1.00  0.00     0.345 HD
ATOM      5  H   UNL     1      27.374 -10.354  33.034  1.00  0.00     0.345 HD
ATOM      6  H   UNL     1      27.976 -10.682  31.474  1.00  0.00     0.345 HD
ENDBRANCH   2   3
BRANCH   2   7
ATOM      7  C   UNL     1      27.005 -12.969  31.010  1.00  0.00     0.099 C 
ATOM      8  O   UNL     1      27.054 -12.416  29.880  1.00  0.00    -0.544 OA
ATOM      9  O   UNL     1      27.200 -14.340  31.112  1.00  0.00    -0.544 OA
ENDBRANCH   2   7
ENDBRANCH   1   2
BRANCH   1  10
ATOM     10  C   UNL     1      24.203 -12.559  31.901  1.00  0.00     0.076 C 
BRANCH  10  11
ATOM     11  S   UNL     1      23.218 -12.056  30.446  1.00  0.00    -0.165 SA
ATOM     12  C   UNL     1      21.733 -11.634  31.411  1.00  0.00     0.085 C 
ENDBRANCH  10  11
ENDBRANCH   1  10
TORSDOF 5
ENDMDL
MODEL 2
REMARK VINA RESULT:    -3.230      4.286      5.488
REMARK INTER + INTRA:          -4.233
REMARK INTER:                  -4.162
REMARK INTRA:                  -0.071
REMARK UNBOUND:                -0.153
REMARK SMILES CSCC[C@H]([NH3+])C(=O)[O-]
REMARK SMILES IDX 4 1 5 2 6 3 7 7 8 8 9 9 3 10 2 11 1 12
REMARK H PARENT 6 4 6 5 6 6
REMARK Flexibility Score: inf
ROOT
ATOM      1  C   UNL     1      22.299 -12.110  31.539  1.00  0.00     0.082 C 
ENDROOT
BRANCH   1   2
ATOM      2  C   UNL     1      21.045 -11.759  30.706  1.00  0.00     0.228 C 
BRANCH   2   3
ATOM      3  N   UNL     1      19.876 -11.607  31.581  1.00  0.00    -0.350 N 
ATOM      4  H   UNL     1      19.751 -12.469  32.161  1.00  0.00     0.345 HD
ATOM      5  H   UNL     1      19.016 -11.476  31.002  1.00  0.00     0.345 HD
ATOM      6  H   UNL     1      19.991 -10.781  32.212  1.00  0.00     0.345 HD
ENDBRANCH   2   3
BRANCH   2   7
ATOM      7  C   UNL     1      20.774 -12.807  29.657  1.00  0.00     0.099 C 
ATOM      8  O   UNL     1      19.951 -13.735  29.878  1.00  0.00    -0.544 OA
ATOM      9  O   UNL     1      21.444 -12.760  28.441  1.00  0.00    -0.544 OA
ENDBRANCH   2   7
ENDBRANCH   1   2
BRANCH   1  10
ATOM     10  C   UNL     1      23.576 -11.417  31.044  1.00  0.00     0.076 C 
BRANCH  10  11
ATOM     11  S   UNL     1      24.968 -11.699  32.194  1.00  0.00    -0.165 SA
ATOM     12  C   UNL     1      26.040 -12.473  30.943  1.00  0.00     0.085 C 
ENDBRANCH  10  11
ENDBRANCH   1  10
TORSDOF 5
ENDMDL
MODEL 3
REMARK VINA RESULT:    -3.228      4.148      5.240
REMARK INTER + INTRA:          -4.230
REMARK INTER:                  -4.128
REMARK INTRA:                  -0.102
REMARK UNBOUND:                -0.153
REMARK SMILES CSCC[C@H]([NH3+])C(=O)[O-]
REMARK SMILES IDX 4 1 5 2 6 3 7 7 8 8 9 9 3 10 2 11 1 12
REMARK H PARENT 6 4 6 5 6 6
REMARK Flexibility Score: inf
ROOT
ATOM      1  C   UNL     1      23.283 -11.130  30.856  1.00  0.00     0.082 C 
ENDROOT
BRANCH   1   2
ATOM      2  C   UNL     1      22.350 -12.271  30.389  1.00  0.00     0.228 C 
BRANCH   2   3
ATOM      3  N   UNL     1      22.544 -12.538  28.958  1.00  0.00    -0.350 N 
ATOM      4  H   UNL     1      23.273 -11.894  28.572  1.00  0.00     0.345 HD
ATOM      5  H   UNL     1      21.651 -12.366  28.442  1.00  0.00     0.345 HD
ATOM      6  H   UNL     1      22.842 -13.528  28.803  1.00  0.00     0.345 HD
ENDBRANCH   2   3
BRANCH   2   7
ATOM      7  C   UNL     1      20.905 -11.942  30.663  1.00  0.00     0.099 C 
ATOM      8  O   UNL     1      20.003 -12.305  29.862  1.00  0.00    -0.544 OA
ATOM      9  O   UNL     1      20.562 -11.222  31.800  1.00  0.00    -0.544 OA
ENDBRANCH   2   7
ENDBRANCH   1   2
BRANCH   1  10
ATOM     10  C   UNL     1      24.290 -11.565  31.929  1.00  0.00     0.076 C 
BRANCH  10  11
ATOM     11  S   UNL     1      25.563 -12.674  31.228  1.00  0.00    -0.165 SA
ATOM     12  C   UNL     1      26.952 -11.864  32.082  1.00  0.00     0.085 C 
ENDBRANCH  10  11
ENDBRANCH   1  10
TORSDOF 5
ENDMDL
MODEL 4
REMARK VINA RESULT:    -3.168      4.594      5.584
REMARK INTER + INTRA:          -4.155
REMARK INTER:                  -4.101
REMARK INTRA:                  -0.054
REMARK UNBOUND:                -0.153
REMARK SMILES CSCC[C@H]([NH3+])C(=O)[O-]
REMARK SMILES IDX 4 1 5 2 6 3 7 7 8 8 9 9 3 10 2 11 1 12
REMARK H PARENT 6 4 6 5 6 6
REMARK Flexibility Score: inf
ROOT
ATOM      1  C   UNL     1      22.667 -12.090  29.992  1.00  0.00     0.082 C 
ENDROOT
BRANCH   1   2
ATOM      2  C   UNL     1      21.934 -13.199  29.202  1.00  0.00     0.228 C 
BRANCH   2   3
ATOM      3  N   UNL     1      21.935 -12.890  27.767  1.00  0.00    -0.350 N 
ATOM      4  H   UNL     1      22.527 -13.583  27.254  1.00  0.00     0.345 HD
ATOM      5  H   UNL     1      22.338 -11.937  27.611  1.00  0.00     0.345 HD
ATOM      6  H   UNL     1      20.963 -12.915  27.382  1.00  0.00     0.345 HD
ENDBRANCH   2   3
BRANCH   2   7
ATOM      7  C   UNL     1      20.519 -13.375  29.693  1.00  0.00     0.099 C 
ATOM      8  O   UNL     1      19.917 -12.427  30.263  1.00  0.00    -0.544 OA
ATOM      9  O   UNL     1      19.875 -14.594  29.526  1.00  0.00    -0.544 OA
ENDBRANCH   2   7
ENDBRANCH   1   2
BRANCH   1  10
ATOM     10  C   UNL     1      23.934 -12.584  30.704  1.00  0.00     0.076 C 
BRANCH  10  11
ATOM     11  S   UNL     1      24.313 -11.555  32.166  1.00  0.00    -0.165 SA
ATOM     12  C   UNL     1      26.073 -12.015  32.220  1.00  0.00     0.085 C 
ENDBRANCH  10  11
ENDBRANCH   1  10
TORSDOF 5
ENDMDL
MODEL 5
REMARK VINA RESULT:    -3.154      3.484      4.465
REMARK INTER + INTRA:          -4.136
REMARK INTER:                  -3.987
REMARK INTRA:                  -0.149
REMARK UNBOUND:                -0.153
REMARK SMILES CSCC[C@H]([NH3+])C(=O)[O-]
REMARK SMILES IDX 4 1 5 2 6 3 7 7 8 8 9 9 3 10 2 11 1 12
REMARK H PARENT 6 4 6 5 6 6
REMARK Flexibility Score: inf
ROOT
ATOM      1  C   UNL     1      21.099 -11.720  31.070  1.00  0.00     0.082 C 
ENDROOT
BRANCH   1   2
ATOM      2  C   UNL     1      22.555 -11.513  30.591  1.00  0.00     0.228 C 
BRANCH   2   3
ATOM      3  N   UNL     1      22.798 -12.265  29.354  1.00  0.00    -0.350 N 
ATOM      4  H   UNL     1      23.500 -11.763  28.764  1.00  0.00     0.345 HD
ATOM      5  H   UNL     1      21.909 -12.344  28.808  1.00  0.00     0.345 HD
ATOM      6  H   UNL     1      23.152 -13.226  29.568  1.00  0.00     0.345 HD
ENDBRANCH   2   3
BRANCH   2   7
ATOM      7  C   UNL     1      23.543 -11.927  31.652  1.00  0.00     0.099 C 
ATOM      8  O   UNL     1      23.412 -13.026  32.254  1.00  0.00    -0.544 OA
ATOM      9  O   UNL     1      24.601 -11.089  31.978  1.00  0.00    -0.544 OA
ENDBRANCH   2   7
ENDBRANCH   1   2
BRANCH   1  10
ATOM     10  C   UNL     1      20.223 -12.469  30.057  1.00  0.00     0.076 C 
BRANCH  10  11
ATOM     11  S   UNL     1      19.877 -14.174  30.618  1.00  0.00    -0.165 SA
ATOM     12  C   UNL     1      20.194 -14.932  28.994  1.00  0.00     0.085 C 
ENDBRANCH  10  11
ENDBRANCH   1  10
TORSDOF 5
ENDMDL
MODEL 6
REMARK VINA RESULT:    -3.150      4.277      5.199
REMARK INTER + INTRA:          -4.132
REMARK INTER:                  -4.013
REMARK INTRA:                  -0.119
REMARK UNBOUND:                -0.153
REMARK SMILES CSCC[C@H]([NH3+])C(=O)[O-]
REMARK SMILES IDX 4 1 5 2 6 3 7 7 8 8 9 9 3 10 2 11 1 12
REMARK H PARENT 6 4 6 5 6 6
REMARK Flexibility Score: inf
ROOT
ATOM      1  C   UNL     1      23.557 -12.101  30.035  1.00  0.00     0.082 C 
ENDROOT
BRANCH   1   2
ATOM      2  C   UNL     1      22.239 -12.752  29.559  1.00  0.00     0.228 C 
BRANCH   2   3
ATOM      3  N   UNL     1      22.069 -12.564  28.113  1.00  0.00    -0.350 N 
ATOM      4  H   UNL     1      22.148 -11.549  27.874  1.00  0.00     0.345 HD
ATOM      5  H   UNL     1      21.120 -12.894  27.823  1.00  0.00     0.345 HD
ATOM      6  H   UNL     1      22.793 -13.100  27.582  1.00  0.00     0.345 HD
ENDBRANCH   2   3
BRANCH   2   7
ATOM      7  C   UNL     1      21.052 -12.188  30.298  1.00  0.00     0.099 C 
ATOM      8  O   UNL     1      19.879 -12.467  29.932  1.00  0.00    -0.544 OA
ATOM      9  O   UNL     1      21.249 -11.345  31.384  1.00  0.00    -0.544 OA
ENDBRANCH   2   7
ENDBRANCH   1   2
BRANCH   1  10
ATOM     10  C   UNL     1      24.716 -13.098  30.176  1.00  0.00     0.076 C 
BRANCH  10  11
ATOM     11  S   UNL     1      25.969 -12.490  31.360  1.00  0.00    -0.165 SA
ATOM     12  C   UNL     1      24.819 -11.388  32.241  1.00  0.00     0.085 C 
ENDBRANCH  10  11
ENDBRANCH   1  10
TORSDOF 5
ENDMDL
MODEL 7
REMARK VINA RESULT:    -3.065      2.505      3.238
REMARK INTER + INTRA:          -4.024
REMARK INTER:                  -3.832
REMARK INTRA:                  -0.191
REMARK UNBOUND:                -0.153
REMARK SMILES CSCC[C@H]([NH3+])C(=O)[O-]
REMARK SMILES IDX 4 1 5 2 6 3 7 7 8 8 9 9 3 10 2 11 1 12
REMARK H PARENT 6 4 6 5 6 6
REMARK Flexibility Score: inf
ROOT
ATOM      1  C   UNL     1      22.860 -11.446  30.810  1.00  0.00     0.082 C 
ENDROOT
BRANCH   1   2
ATOM      2  C   UNL     1      23.632 -11.801  32.101  1.00  0.00     0.228 C 
BRANCH   2   3
ATOM      3  N   UNL     1      24.900 -11.063  32.157  1.00  0.00    -0.350 N 
ATOM      4  H   UNL     1      25.247 -10.876  31.189  1.00  0.00     0.345 HD
ATOM      5  H   UNL     1      25.620 -11.634  32.657  1.00  0.00     0.345 HD
ATOM      6  H   UNL     1      24.777 -10.154  32.660  1.00  0.00     0.345 HD
ENDBRANCH   2   3
BRANCH   2   7
ATOM      7  C   UNL     1      23.892 -13.283  32.193  1.00  0.00     0.099 C 
ATOM      8  O   UNL     1      25.032 -13.750  31.932  1.00  0.00    -0.544 OA
ATOM      9  O   UNL     1      22.865 -14.145  32.556  1.00  0.00    -0.544 OA
ENDBRANCH   2   7
ENDBRANCH   1   2
BRANCH   1  10
ATOM     10  C   UNL     1      21.340 -11.369  31.009  1.00  0.00     0.076 C 
BRANCH  10  11
ATOM     11  S   UNL     1      20.466 -12.477  29.847  1.00  0.00    -0.165 SA
ATOM     12  C   UNL     1      21.964 -12.933  28.920  1.00  0.00     0.085 C 
ENDBRANCH  10  11
ENDBRANCH   1  10
TORSDOF 5
ENDMDL
MODEL 8
REMARK VINA RESULT:    -3.051      1.728      1.958
REMARK INTER + INTRA:          -4.007
REMARK INTER:                  -3.884
REMARK INTRA:                  -0.123
REMARK UNBOUND:                -0.153
REMARK SMILES CSCC[C@H]([NH3+])C(=O)[O-]
REMARK SMILES IDX 4 1 5 2 6 3 7 7 8 8 9 9 3 10 2 11 1 12
REMARK H PARENT 6 4 6 5 6 6
REMARK Flexibility Score: inf
ROOT
ATOM      1  C   UNL     1      24.516 -12.494  30.311  1.00  0.00     0.082 C 
ENDROOT
BRANCH   1   2
ATOM      2  C   UNL     1      25.276 -12.206  31.626  1.00  0.00     0.228 C 
BRANCH   2   3
ATOM      3  N   UNL     1      24.782 -10.967  32.241  1.00  0.00    -0.350 N 
ATOM      4  H   UNL     1      23.772 -11.073  32.494  1.00  0.00     0.345 HD
ATOM      5  H   UNL     1      24.867 -10.177  31.562  1.00  0.00     0.345 HD
ATOM      6  H   UNL     1      25.330 -10.737  33.102  1.00  0.00     0.345 HD
ENDBRANCH   2   3
BRANCH   2   7
ATOM      7  C   UNL     1      26.761 -12.110  31.390  1.00  0.00     0.099 C 
ATOM      8  O   UNL     1      27.293 -12.703  30.414  1.00  0.00    -0.544 OA
ATOM      9  O   UNL     1      27.555 -11.372  32.259  1.00  0.00    -0.544 OA
ENDBRANCH   2   7
ENDBRANCH   1   2
BRANCH   1  10
ATOM     10  C   UNL     1      23.233 -13.311  30.513  1.00  0.00     0.076 C 
BRANCH  10  11
ATOM     11  S   UNL     1      21.813 -12.530  29.666  1.00  0.00    -0.165 SA
ATOM     12  C   UNL     1      21.349 -11.489  31.085  1.00  0.00     0.085 C 
ENDBRANCH  10  11
ENDBRANCH   1  10
TORSDOF 5
ENDMDL
MODEL 9
REMARK VINA RESULT:    -3.026      4.980      5.782
REMARK INTER + INTRA:          -3.975
REMARK INTER:                  -3.900
REMARK INTRA:                  -0.075
REMARK UNBOUND:                -0.153
REMARK SMILES CSCC[C@H]([NH3+])C(=O)[O-]
REMARK SMILES IDX 4 1 5 2 6 3 7 7 8 8 9 9 3 10 2 11 1 12
REMARK H PARENT 6 4 6 5 6 6
REMARK Flexibility Score: inf
ROOT
ATOM      1  C   UNL     1      23.608 -13.693  28.956  1.00  0.00     0.082 C 
ENDROOT
BRANCH   1   2
ATOM      2  C   UNL     1      22.167 -13.158  29.123  1.00  0.00     0.228 C 
BRANCH   2   3
ATOM      3  N   UNL     1      21.630 -12.721  27.828  1.00  0.00    -0.350 N 
ATOM      4  H   UNL     1      22.369 -12.214  27.288  1.00  0.00     0.345 HD
ATOM      5  H   UNL     1      20.830 -12.065  27.980  1.00  0.00     0.345 HD
ATOM      6  H   UNL     1      21.297 -13.541  27.270  1.00  0.00     0.345 HD
ENDBRANCH   2   3
BRANCH   2   7
ATOM      7  C   UNL     1      22.117 -12.022  30.113  1.00  0.00     0.099 C 
ATOM      8  O   UNL     1      23.170 -11.413  30.442  1.00  0.00    -0.544 OA
ATOM      9  O   UNL     1      20.905 -11.649  30.679  1.00  0.00    -0.544 OA
ENDBRANCH   2   7
ENDBRANCH   1   2
BRANCH   1  10
ATOM     10  C   UNL     1      23.792 -14.572  27.711  1.00  0.00     0.076 C 
BRANCH  10  11
ATOM     11  S   UNL     1      24.977 -13.817  26.541  1.00  0.00    -0.165 SA
ATOM     12  C   UNL     1      24.608 -14.977  25.187  1.00  0.00     0.085 C 
ENDBRANCH  10  11
ENDBRANCH   1  10
TORSDOF 5
ENDMDL
