MODEL 1
REMARK VINA RESULT:    -5.385      0.000      0.000
REMARK INTER + INTRA:          -7.408
REMARK INTER:                  -6.959
REMARK INTRA:                  -0.449
REMARK UNBOUND:                -0.449
REMARK SMILES CCO[C@H]1O[C@@H](CO)[C@@H](O)[C@H](O)[C@H]1O
REMARK SMILES IDX 4 1 13 2 11 3 9 4 6 5 5 6 3 7 2 8 1 9 14 10 12 12 7 14 8 15
REMARK SMILES IDX 10 17
REMARK H PARENT 14 11 12 13 8 16 10 18
REMARK Flexibility Score: inf
ROOT
ATOM      1  C   UNL     1      35.349   2.680  44.623  1.00  0.00     0.281 C 
ATOM      2  C   UNL     1      34.346   3.300  43.632  1.00  0.00     0.202 C 
ATOM      3  C   UNL     1      35.063   4.205  42.623  1.00  0.00     0.179 C 
ATOM      4  C   UNL     1      35.896   5.244  43.387  1.00  0.00     0.177 C 
ATOM      5  C   UNL     1      36.785   4.592  44.485  1.00  0.00     0.178 C 
ATOM      6  O   UNL     1      36.086   3.675  45.323  1.00  0.00    -0.341 OA
ENDROOT
BRANCH   1   7
ATOM      7  O   UNL     1      36.209   1.766  43.963  1.00  0.00    -0.350 OA
BRANCH   7   8
ATOM      8  C   UNL     1      36.749   0.823  44.871  1.00  0.00     0.160 C 
ATOM      9  C   UNL     1      36.179  -0.562  44.589  1.00  0.00     0.035 C 
ENDBRANCH   7   8
ENDBRANCH   1   7
BRANCH   2  10
ATOM     10  O   UNL     1      33.594   2.304  42.982  1.00  0.00    -0.385 OA
ATOM     11  H   UNL     1      34.216   1.763  42.429  1.00  0.00     0.211 HD
ENDBRANCH   2  10
BRANCH   3  12
ATOM     12  O   UNL     1      34.104   4.852  41.826  1.00  0.00    -0.387 OA
ATOM     13  H   UNL     1      34.277   5.826  41.900  1.00  0.00     0.211 HD
ENDBRANCH   3  12
BRANCH   5  14
ATOM     14  C   UNL     1      38.150   4.043  44.006  1.00  0.00     0.191 C 
BRANCH  14  15
ATOM     15  O   UNL     1      38.082   3.523  42.707  1.00  0.00    -0.394 OA
ATOM     16  H   UNL     1      38.721   2.765  42.680  1.00  0.00     0.210 HD
ENDBRANCH  14  15
ENDBRANCH   5  14
BRANCH   4  17
ATOM     17  O   UNL     1      36.679   5.979  42.481  1.00  0.00    -0.387 OA
ATOM     18  H   UNL     1      36.910   6.834  42.931  1.00  0.00     0.211 HD
ENDBRANCH   4  17
TORSDOF 7
ENDMDL
MODEL 2
REMARK VINA RESULT:    -5.257      3.246      4.324
REMARK INTER + INTRA:          -7.243
REMARK INTER:                  -6.768
REMARK INTRA:                  -0.475
REMARK UNBOUND:                -0.449
REMARK SMILES CCO[C@H]1O[C@@H](CO)[C@@H](O)[C@H](O)[C@H]1O
REMARK SMILES IDX 4 1 13 2 11 3 9 4 6 5 5 6 3 7 2 8 1 9 14 10 12 12 7 14 8 15
REMARK SMILES IDX 10 17
REMARK H PARENT 14 11 12 13 8 16 10 18
REMARK Flexibility Score: inf
ROOT
ATOM      1  C   UNL     1      38.496  -0.178  45.229  1.00  0.00     0.281 C 
ATOM      2  C   UNL     1      38.041   0.304  46.620  1.00  0.00     0.202 C 
ATOM      3  C   UNL     1      37.347   1.668  46.525  1.00  0.00     0.179 C 
ATOM      4  C   UNL     1      38.278   2.655  45.805  1.00  0.00     0.177 C 
ATOM      5  C   UNL     1      38.838   2.070  44.476  1.00  0.00     0.178 C 
ATOM      6  O   UNL     1      39.370   0.754  44.604  1.00  0.00    -0.341 OA
ENDROOT
BRANCH   1   7
ATOM      7  O   UNL     1      37.378  -0.470  44.407  1.00  0.00    -0.350 OA
BRANCH   7   8
ATOM      8  C   UNL     1      37.556  -1.691  43.712  1.00  0.00     0.160 C 
ATOM      9  C   UNL     1      36.809  -2.813  44.423  1.00  0.00     0.035 C 
ENDBRANCH   7   8
ENDBRANCH   1   7
BRANCH   2  10
ATOM     10  O   UNL     1      37.213  -0.649  47.241  1.00  0.00    -0.385 OA
ATOM     11  H   UNL     1      36.293  -0.280  47.275  1.00  0.00     0.211 HD
ENDBRANCH   2  10
BRANCH   3  12
ATOM     12  O   UNL     1      37.069   2.131  47.822  1.00  0.00    -0.387 OA
ATOM     13  H   UNL     1      36.082   2.194  47.900  1.00  0.00     0.211 HD
ENDBRANCH   3  12
BRANCH   5  14
ATOM     14  C   UNL     1      37.927   2.227  43.236  1.00  0.00     0.191 C 
BRANCH  14  15
ATOM     15  O   UNL     1      38.295   1.362  42.198  1.00  0.00    -0.394 OA
ATOM     16  H   UNL     1      37.561   0.700  42.117  1.00  0.00     0.210 HD
ENDBRANCH  14  15
ENDBRANCH   5  14
BRANCH   4  17
ATOM     17  O   UNL     1      37.597   3.861  45.572  1.00  0.00    -0.387 OA
ATOM     18  H   UNL     1      38.132   4.578  46.001  1.00  0.00     0.211 HD
ENDBRANCH   4  17
TORSDOF 7
ENDMDL
MODEL 3
REMARK VINA RESULT:    -5.138      2.935      5.229
REMARK INTER + INTRA:          -7.089
REMARK INTER:                  -6.656
REMARK INTRA:                  -0.432
REMARK UNBOUND:                -0.449
REMARK SMILES CCO[C@H]1O[C@@H](CO)[C@@H](O)[C@H](O)[C@H]1O
REMARK SMILES IDX 4 1 13 2 11 3 9 4 6 5 5 6 3 7 2 8 1 9 14 10 12 12 7 14 8 15
REMARK SMILES IDX 10 17
REMARK H PARENT 14 11 12 13 8 16 10 18
REMARK Flexibility Score: inf
ROOT
ATOM      1  C   UNL     1      37.508   1.993  44.090  1.00  0.00     0.281 C 
ATOM      2  C   UNL     1      37.145   2.611  45.455  1.00  0.00     0.202 C 
ATOM      3  C   UNL     1      37.497   1.652  46.598  1.00  0.00     0.179 C 
ATOM      4  C   UNL     1      36.827   0.295  46.339  1.00  0.00     0.177 C 
ATOM      5  C   UNL     1      37.091  -0.223  44.896  1.00  0.00     0.178 C 
ATOM      6  O   UNL     1      36.853   0.749  43.881  1.00  0.00    -0.341 OA
ENDROOT
BRANCH   1   7
ATOM      7  O   UNL     1      38.913   1.869  43.952  1.00  0.00    -0.350 OA
BRANCH   7   8
ATOM      8  C   UNL     1      39.348   2.338  42.688  1.00  0.00     0.160 C 
ATOM      9  C   UNL     1      40.090   3.659  42.847  1.00  0.00     0.035 C 
ENDBRANCH   7   8
ENDBRANCH   1   7
BRANCH   2  10
ATOM     10  O   UNL     1      37.766   3.862  45.626  1.00  0.00    -0.385 OA
ATOM     11  H   UNL     1      38.650   3.710  46.052  1.00  0.00     0.211 HD
ENDBRANCH   2  10
BRANCH   3  12
ATOM     12  O   UNL     1      37.031   2.193  47.809  1.00  0.00    -0.387 OA
ATOM     13  H   UNL     1      37.632   1.860  48.523  1.00  0.00     0.211 HD
ENDBRANCH   3  12
BRANCH   5  14
ATOM     14  C   UNL     1      38.420  -0.988  44.690  1.00  0.00     0.191 C 
BRANCH  14  15
ATOM     15  O   UNL     1      38.448  -2.196  45.397  1.00  0.00    -0.394 OA
ATOM     16  H   UNL     1      38.265  -2.909  44.732  1.00  0.00     0.210 HD
ENDBRANCH  14  15
ENDBRANCH   5  14
BRANCH   4  17
ATOM     17  O   UNL     1      37.265  -0.638  47.294  1.00  0.00    -0.387 OA
ATOM     18  H   UNL     1      37.652  -1.401  46.790  1.00  0.00     0.211 HD
ENDBRANCH   4  17
TORSDOF 7
ENDMDL
MODEL 4
REMARK VINA RESULT:    -5.101      2.054      3.586
REMARK INTER + INTRA:          -7.042
REMARK INTER:                  -6.822
REMARK INTRA:                  -0.220
REMARK UNBOUND:                -0.449
REMARK SMILES CCO[C@H]1O[C@@H](CO)[C@@H](O)[C@H](O)[C@H]1O
REMARK SMILES IDX 4 1 13 2 11 3 9 4 6 5 5 6 3 7 2 8 1 9 14 10 12 12 7 14 8 15
REMARK SMILES IDX 10 17
REMARK H PARENT 14 11 12 13 8 16 10 18
REMARK Flexibility Score: inf
ROOT
ATOM      1  C   UNL     1      35.011   2.315  44.665  1.00  0.00     0.281 C 
ATOM      2  C   UNL     1      35.850   3.146  43.675  1.00  0.00     0.202 C 
ATOM      3  C   UNL     1      37.250   2.545  43.508  1.00  0.00     0.179 C 
ATOM      4  C   UNL     1      37.899   2.395  44.892  1.00  0.00     0.177 C 
ATOM      5  C   UNL     1      36.959   1.684  45.907  1.00  0.00     0.178 C 
ATOM      6  O   UNL     1      35.637   2.216  45.937  1.00  0.00    -0.341 OA
ENDROOT
BRANCH   1   7
ATOM      7  O   UNL     1      34.722   1.035  44.128  1.00  0.00    -0.350 OA
BRANCH   7   8
ATOM      8  C   UNL     1      33.336   0.750  44.196  1.00  0.00     0.160 C 
ATOM      9  C   UNL     1      32.549   2.032  44.439  1.00  0.00     0.035 C 
ENDBRANCH   7   8
ENDBRANCH   1   7
BRANCH   2  10
ATOM     10  O   UNL     1      35.195   3.271  42.436  1.00  0.00    -0.385 OA
ATOM     11  H   UNL     1      34.440   2.627  42.422  1.00  0.00     0.211 HD
ENDBRANCH   2  10
BRANCH   3  12
ATOM     12  O   UNL     1      38.024   3.401  42.706  1.00  0.00    -0.387 OA
ATOM     13  H   UNL     1      38.025   3.017  41.792  1.00  0.00     0.211 HD
ENDBRANCH   3  12
BRANCH   5  14
ATOM     14  C   UNL     1      36.980   0.138  45.874  1.00  0.00     0.191 C 
BRANCH  14  15
ATOM     15  O   UNL     1      37.394  -0.409  47.095  1.00  0.00    -0.394 OA
ATOM     16  H   UNL     1      37.785   0.339  47.614  1.00  0.00     0.210 HD
ENDBRANCH  14  15
ENDBRANCH   5  14
BRANCH   4  17
ATOM     17  O   UNL     1      39.116   1.703  44.769  1.00  0.00    -0.387 OA
ATOM     18  H   UNL     1      38.994   1.039  44.041  1.00  0.00     0.211 HD
ENDBRANCH   4  17
TORSDOF 7
ENDMDL
MODEL 5
REMARK VINA RESULT:    -5.081      2.694      5.191
REMARK INTER + INTRA:          -7.016
REMARK INTER:                  -6.634
REMARK INTRA:                  -0.382
REMARK UNBOUND:                -0.449
REMARK SMILES CCO[C@H]1O[C@@H](CO)[C@@H](O)[C@H](O)[C@H]1O
REMARK SMILES IDX 4 1 13 2 11 3 9 4 6 5 5 6 3 7 2 8 1 9 14 10 12 12 7 14 8 15
REMARK SMILES IDX 10 17
REMARK H PARENT 14 11 12 13 8 16 10 18
REMARK Flexibility Score: inf
ROOT
ATOM      1  C   UNL     1      38.719   2.387  44.760  1.00  0.00     0.281 C 
ATOM      2  C   UNL     1      38.332   1.291  43.749  1.00  0.00     0.202 C 
ATOM      3  C   UNL     1      37.388   0.267  44.389  1.00  0.00     0.179 C 
ATOM      4  C   UNL     1      38.035  -0.278  45.671  1.00  0.00     0.177 C 
ATOM      5  C   UNL     1      38.550   0.860  46.597  1.00  0.00     0.178 C 
ATOM      6  O   UNL     1      39.331   1.843  45.922  1.00  0.00    -0.341 OA
ENDROOT
BRANCH   1   7
ATOM      7  O   UNL     1      37.596   3.186  45.091  1.00  0.00    -0.350 OA
BRANCH   7   8
ATOM      8  C   UNL     1      37.858   4.559  44.866  1.00  0.00     0.160 C 
ATOM      9  C   UNL     1      36.554   5.349  44.871  1.00  0.00     0.035 C 
ENDBRANCH   7   8
ENDBRANCH   1   7
BRANCH   2  10
ATOM     10  O   UNL     1      37.770   1.849  42.586  1.00  0.00    -0.385 OA
ATOM     11  H   UNL     1      36.782   1.786  42.663  1.00  0.00     0.211 HD
ENDBRANCH   2  10
BRANCH   3  12
ATOM     12  O   UNL     1      37.167  -0.782  43.480  1.00  0.00    -0.387 OA
ATOM     13  H   UNL     1      37.464  -0.461  42.591  1.00  0.00     0.211 HD
ENDBRANCH   3  12
BRANCH   5  14
ATOM     14  C   UNL     1      37.499   1.481  47.547  1.00  0.00     0.191 C 
BRANCH  14  15
ATOM     15  O   UNL     1      37.116   0.594  48.561  1.00  0.00    -0.394 OA
ATOM     16  H   UNL     1      36.701  -0.183  48.105  1.00  0.00     0.210 HD
ENDBRANCH  14  15
ENDBRANCH   5  14
BRANCH   4  17
ATOM     17  O   UNL     1      37.117  -1.099  46.349  1.00  0.00    -0.387 OA
ATOM     18  H   UNL     1      36.561  -0.499  46.912  1.00  0.00     0.211 HD
ENDBRANCH   4  17
TORSDOF 7
ENDMDL
MODEL 6
REMARK VINA RESULT:    -5.067      2.537      5.017
REMARK INTER + INTRA:          -6.998
REMARK INTER:                  -6.499
REMARK INTRA:                  -0.499
REMARK UNBOUND:                -0.449
REMARK SMILES CCO[C@H]1O[C@@H](CO)[C@@H](O)[C@H](O)[C@H]1O
REMARK SMILES IDX 4 1 13 2 11 3 9 4 6 5 5 6 3 7 2 8 1 9 14 10 12 12 7 14 8 15
REMARK SMILES IDX 10 17
REMARK H PARENT 14 11 12 13 8 16 10 18
REMARK Flexibility Score: inf
ROOT
ATOM      1  C   UNL     1      36.535   1.545  44.885  1.00  0.00     0.281 C 
ATOM      2  C   UNL     1      36.976   1.376  46.352  1.00  0.00     0.202 C 
ATOM      3  C   UNL     1      38.457   0.988  46.436  1.00  0.00     0.179 C 
ATOM      4  C   UNL     1      38.698  -0.259  45.573  1.00  0.00     0.177 C 
ATOM      5  C   UNL     1      38.103  -0.107  44.144  1.00  0.00     0.178 C 
ATOM      6  O   UNL     1      36.758   0.363  44.126  1.00  0.00    -0.341 OA
ENDROOT
BRANCH   1   7
ATOM      7  O   UNL     1      37.170   2.667  44.295  1.00  0.00    -0.350 OA
BRANCH   7   8
ATOM      8  C   UNL     1      36.272   3.392  43.475  1.00  0.00     0.160 C 
ATOM      9  C   UNL     1      35.014   3.746  44.260  1.00  0.00     0.035 C 
ENDBRANCH   7   8
ENDBRANCH   1   7
BRANCH   2  10
ATOM     10  O   UNL     1      36.708   2.538  47.099  1.00  0.00    -0.385 OA
ATOM     11  H   UNL     1      35.796   2.850  46.863  1.00  0.00     0.211 HD
ENDBRANCH   2  10
BRANCH   3  12
ATOM     12  O   UNL     1      38.784   0.715  47.775  1.00  0.00    -0.387 OA
ATOM     13  H   UNL     1      39.127   1.559  48.166  1.00  0.00     0.211 HD
ENDBRANCH   3  12
BRANCH   5  14
ATOM     14  C   UNL     1      39.003   0.618  43.115  1.00  0.00     0.191 C 
BRANCH  14  15
ATOM     15  O   UNL     1      38.307   0.944  41.944  1.00  0.00    -0.394 OA
ATOM     16  H   UNL     1      37.556   0.300  41.881  1.00  0.00     0.210 HD
ENDBRANCH  14  15
ENDBRANCH   5  14
BRANCH   4  17
ATOM     17  O   UNL     1      40.075  -0.533  45.515  1.00  0.00    -0.387 OA
ATOM     18  H   UNL     1      40.166  -1.518  45.436  1.00  0.00     0.211 HD
ENDBRANCH   4  17
TORSDOF 7
ENDMDL
MODEL 7
REMARK VINA RESULT:    -4.949      1.737      4.475
REMARK INTER + INTRA:          -6.845
REMARK INTER:                  -6.376
REMARK INTRA:                  -0.469
REMARK UNBOUND:                -0.449
REMARK SMILES CCO[C@H]1O[C@@H](CO)[C@@H](O)[C@H](O)[C@H]1O
REMARK SMILES IDX 4 1 13 2 11 3 9 4 6 5 5 6 3 7 2 8 1 9 14 10 12 12 7 14 8 15
REMARK SMILES IDX 10 17
REMARK H PARENT 14 11 12 13 8 16 10 18
REMARK Flexibility Score: inf
ROOT
ATOM      1  C   UNL     1      37.234   5.214  44.760  1.00  0.00     0.281 C 
ATOM      2  C   UNL     1      37.632   3.726  44.734  1.00  0.00     0.202 C 
ATOM      3  C   UNL     1      36.908   2.987  43.602  1.00  0.00     0.179 C 
ATOM      4  C   UNL     1      35.396   3.218  43.740  1.00  0.00     0.177 C 
ATOM      5  C   UNL     1      35.047   4.724  43.917  1.00  0.00     0.178 C 
ATOM      6  O   UNL     1      35.830   5.385  44.908  1.00  0.00    -0.341 OA
ENDROOT
BRANCH   1   7
ATOM      7  O   UNL     1      37.720   5.885  43.610  1.00  0.00    -0.350 OA
BRANCH   7   8
ATOM      8  C   UNL     1      38.117   7.209  43.917  1.00  0.00     0.160 C 
ATOM      9  C   UNL     1      39.339   7.191  44.828  1.00  0.00     0.035 C 
ENDBRANCH   7   8
ENDBRANCH   1   7
BRANCH   2  10
ATOM     10  O   UNL     1      39.027   3.576  44.633  1.00  0.00    -0.385 OA
ATOM     11  H   UNL     1      39.244   3.354  43.689  1.00  0.00     0.211 HD
ENDBRANCH   2  10
BRANCH   3  12
ATOM     12  O   UNL     1      37.193   1.614  43.696  1.00  0.00    -0.387 OA
ATOM     13  H   UNL     1      36.728   1.171  42.940  1.00  0.00     0.211 HD
ENDBRANCH   3  12
BRANCH   5  14
ATOM     14  C   UNL     1      34.920   5.543  42.611  1.00  0.00     0.191 C 
BRANCH  14  15
ATOM     15  O   UNL     1      33.817   5.147  41.845  1.00  0.00    -0.394 OA
ATOM     16  H   UNL     1      33.061   5.721  42.133  1.00  0.00     0.210 HD
ENDBRANCH  14  15
ENDBRANCH   5  14
BRANCH   4  17
ATOM     17  O   UNL     1      34.733   2.679  42.624  1.00  0.00    -0.387 OA
ATOM     18  H   UNL     1      34.136   3.392  42.276  1.00  0.00     0.211 HD
ENDBRANCH   4  17
TORSDOF 7
ENDMDL
MODEL 8
REMARK VINA RESULT:    -4.932      2.547      4.702
REMARK INTER + INTRA:          -6.823
REMARK INTER:                  -6.371
REMARK INTRA:                  -0.452
REMARK UNBOUND:                -0.449
REMARK SMILES CCO[C@H]1O[C@@H](CO)[C@@H](O)[C@H](O)[C@H]1O
REMARK SMILES IDX 4 1 13 2 11 3 9 4 6 5 5 6 3 7 2 8 1 9 14 10 12 12 7 14 8 15
REMARK SMILES IDX 10 17
REMARK H PARENT 14 11 12 13 8 16 10 18
REMARK Flexibility Score: inf
ROOT
ATOM      1  C   UNL     1      37.893   6.248  43.353  1.00  0.00     0.281 C 
ATOM      2  C   UNL     1      37.709   7.599  44.071  1.00  0.00     0.202 C 
ATOM      3  C   UNL     1      36.988   7.412  45.411  1.00  0.00     0.179 C 
ATOM      4  C   UNL     1      35.672   6.657  45.171  1.00  0.00     0.177 C 
ATOM      5  C   UNL     1      35.879   5.376  44.312  1.00  0.00     0.178 C 
ATOM      6  O   UNL     1      36.651   5.591  43.134  1.00  0.00    -0.341 OA
ENDROOT
BRANCH   1   7
ATOM      7  O   UNL     1      38.799   5.421  44.064  1.00  0.00    -0.350 OA
BRANCH   7   8
ATOM      8  C   UNL     1      39.748   4.832  43.193  1.00  0.00     0.160 C 
ATOM      9  C   UNL     1      39.410   3.363  42.966  1.00  0.00     0.035 C 
ENDBRANCH   7   8
ENDBRANCH   1   7
BRANCH   2  10
ATOM     10  O   UNL     1      38.941   8.256  44.240  1.00  0.00    -0.385 OA
ATOM     11  H   UNL     1      39.147   8.276  45.211  1.00  0.00     0.211 HD
ENDBRANCH   2  10
BRANCH   3  12
ATOM     12  O   UNL     1      36.722   8.674  45.969  1.00  0.00    -0.387 OA
ATOM     13  H   UNL     1      36.536   8.530  46.932  1.00  0.00     0.211 HD
ENDBRANCH   3  12
BRANCH   5  14
ATOM     14  C   UNL     1      36.312   4.110  45.088  1.00  0.00     0.191 C 
BRANCH  14  15
ATOM     15  O   UNL     1      35.309   3.651  45.950  1.00  0.00    -0.394 OA
ATOM     16  H   UNL     1      35.273   2.667  45.833  1.00  0.00     0.210 HD
ENDBRANCH  14  15
ENDBRANCH   5  14
BRANCH   4  17
ATOM     17  O   UNL     1      35.078   6.341  46.405  1.00  0.00    -0.387 OA
ATOM     18  H   UNL     1      35.784   5.918  46.961  1.00  0.00     0.211 HD
ENDBRANCH   4  17
TORSDOF 7
ENDMDL
