MODEL 1
REMARK VINA RESULT:    -3.457      0.000      0.000
REMARK INTER + INTRA:          -4.512
REMARK INTER:                  -4.265
REMARK INTRA:                  -0.246
REMARK UNBOUND:                -0.246
REMARK SMILES C=CC[C@H](C)C(=O)CC
REMARK SMILES IDX 4 1 5 2 6 3 7 4 8 5 9 6 3 7 2 8 1 9
REMARK H PARENT
REMARK Flexibility Score: inf
ROOT
ATOM      1  C   UNL     1      20.468  28.175  43.090  1.00  0.00     0.057 C 
ATOM      2  C   UNL     1      20.227  28.916  41.768  1.00  0.00     0.016 C 
ENDROOT
BRANCH   1   3
ATOM      3  C   UNL     1      20.571  26.682  42.856  1.00  0.00     0.135 C 
ATOM      4  O   UNL     1      19.864  26.165  42.003  1.00  0.00    -0.299 OA
BRANCH   3   5
ATOM      5  C   UNL     1      21.540  25.815  43.622  1.00  0.00     0.072 C 
ATOM      6  C   UNL     1      22.980  26.240  43.354  1.00  0.00     0.012 C 
ENDBRANCH   3   5
ENDBRANCH   1   3
BRANCH   1   7
ATOM      7  C   UNL     1      19.377  28.488  44.136  1.00  0.00     0.038 C 
BRANCH   7   8
ATOM      8  C   UNL     1      18.032  28.730  43.504  1.00  0.00    -0.034 C 
ATOM      9  C   UNL     1      17.259  29.759  43.863  1.00  0.00     0.004 C 
ENDBRANCH   7   8
ENDBRANCH   1   7
TORSDOF 4
ENDMDL
MODEL 2
REMARK VINA RESULT:    -3.396      1.693      1.951
REMARK INTER + INTRA:          -4.436
REMARK INTER:                  -3.943
REMARK INTRA:                  -0.493
REMARK UNBOUND:                -0.246
REMARK SMILES C=CC[C@H](C)C(=O)CC
REMARK SMILES IDX 4 1 5 2 6 3 7 4 8 5 9 6 3 7 2 8 1 9
REMARK H PARENT
REMARK Flexibility Score: inf
ROOT
ATOM      1  C   UNL     1      21.074  28.469  43.188  1.00  0.00     0.057 C 
ATOM      2  C   UNL     1      20.757  28.920  41.754  1.00  0.00     0.016 C 
ENDROOT
BRANCH   1   3
ATOM      3  C   UNL     1      22.050  27.311  43.181  1.00  0.00     0.135 C 
ATOM      4  O   UNL     1      23.242  27.539  43.034  1.00  0.00    -0.299 OA
BRANCH   3   5
ATOM      5  C   UNL     1      21.601  25.884  43.378  1.00  0.00     0.072 C 
ATOM      6  C   UNL     1      21.306  25.216  42.039  1.00  0.00     0.012 C 
ENDBRANCH   3   5
ENDBRANCH   1   3
BRANCH   1   7
ATOM      7  C   UNL     1      19.797  28.102  43.974  1.00  0.00     0.038 C 
BRANCH   7   8
ATOM      8  C   UNL     1      18.581  28.038  43.089  1.00  0.00    -0.034 C 
ATOM      9  C   UNL     1      17.902  26.901  42.905  1.00  0.00     0.004 C 
ENDBRANCH   7   8
ENDBRANCH   1   7
TORSDOF 4
ENDMDL
MODEL 3
REMARK VINA RESULT:    -3.379      1.610      3.571
REMARK INTER + INTRA:          -4.415
REMARK INTER:                  -3.915
REMARK INTRA:                  -0.500
REMARK UNBOUND:                -0.246
REMARK SMILES C=CC[C@H](C)C(=O)CC
REMARK SMILES IDX 4 1 5 2 6 3 7 4 8 5 9 6 3 7 2 8 1 9
REMARK H PARENT
REMARK Flexibility Score: inf
ROOT
ATOM      1  C   UNL     1      20.304  28.022  43.242  1.00  0.00     0.057 C 
ATOM      2  C   UNL     1      19.088  28.607  43.976  1.00  0.00     0.016 C 
ENDROOT
BRANCH   1   3
ATOM      3  C   UNL     1      20.678  28.886  42.055  1.00  0.00     0.135 C 
ATOM      4  O   UNL     1      19.796  29.282  41.307  1.00  0.00    -0.299 OA
BRANCH   3   5
ATOM      5  C   UNL     1      22.104  29.297  41.782  1.00  0.00     0.072 C 
ATOM      6  C   UNL     1      22.920  29.322  43.071  1.00  0.00     0.012 C 
ENDBRANCH   3   5
ENDBRANCH   1   3
BRANCH   1   7
ATOM      7  C   UNL     1      20.065  26.562  42.799  1.00  0.00     0.038 C 
BRANCH   7   8
ATOM      8  C   UNL     1      21.347  25.780  42.694  1.00  0.00    -0.034 C 
ATOM      9  C   UNL     1      22.212  25.706  43.710  1.00  0.00     0.004 C 
ENDBRANCH   7   8
ENDBRANCH   1   7
TORSDOF 4
ENDMDL
MODEL 4
REMARK VINA RESULT:    -3.369      1.153      4.019
REMARK INTER + INTRA:          -4.404
REMARK INTER:                  -4.104
REMARK INTRA:                  -0.300
REMARK UNBOUND:                -0.246
REMARK SMILES C=CC[C@H](C)C(=O)CC
REMARK SMILES IDX 4 1 5 2 6 3 7 4 8 5 9 6 3 7 2 8 1 9
REMARK H PARENT
REMARK Flexibility Score: inf
ROOT
ATOM      1  C   UNL     1      19.762  27.549  41.979  1.00  0.00     0.057 C 
ATOM      2  C   UNL     1      20.700  28.763  42.044  1.00  0.00     0.016 C 
ENDROOT
BRANCH   1   3
ATOM      3  C   UNL     1      18.635  27.690  42.982  1.00  0.00     0.135 C 
ATOM      4  O   UNL     1      17.758  26.840  43.013  1.00  0.00    -0.299 OA
BRANCH   3   5
ATOM      5  C   UNL     1      18.577  28.832  43.966  1.00  0.00     0.072 C 
ATOM      6  C   UNL     1      17.327  29.679  43.744  1.00  0.00     0.012 C 
ENDBRANCH   3   5
ENDBRANCH   1   3
BRANCH   1   7
ATOM      7  C   UNL     1      20.519  26.221  42.193  1.00  0.00     0.038 C 
BRANCH   7   8
ATOM      8  C   UNL     1      21.236  26.179  43.516  1.00  0.00    -0.034 C 
ATOM      9  C   UNL     1      22.520  25.819  43.611  1.00  0.00     0.004 C 
ENDBRANCH   7   8
ENDBRANCH   1   7
TORSDOF 4
ENDMDL
MODEL 5
REMARK VINA RESULT:    -3.358      1.462      2.022
REMARK INTER + INTRA:          -4.389
REMARK INTER:                  -4.018
REMARK INTRA:                  -0.372
REMARK UNBOUND:                -0.246
REMARK SMILES C=CC[C@H](C)C(=O)CC
REMARK SMILES IDX 4 1 5 2 6 3 7 4 8 5 9 6 3 7 2 8 1 9
REMARK H PARENT
REMARK Flexibility Score: inf
ROOT
ATOM      1  C   UNL     1      19.868  27.201  42.319  1.00  0.00     0.057 C 
ATOM      2  C   UNL     1      19.689  25.996  41.385  1.00  0.00     0.016 C 
ENDROOT
BRANCH   1   3
ATOM      3  C   UNL     1      21.125  27.052  43.150  1.00  0.00     0.135 C 
ATOM      4  O   UNL     1      21.268  26.051  43.837  1.00  0.00    -0.299 OA
BRANCH   3   5
ATOM      5  C   UNL     1      22.222  28.087  43.136  1.00  0.00     0.072 C 
ATOM      6  C   UNL     1      21.958  29.147  42.071  1.00  0.00     0.012 C 
ENDBRANCH   3   5
ENDBRANCH   1   3
BRANCH   1   7
ATOM      7  C   UNL     1      18.637  27.418  43.226  1.00  0.00     0.038 C 
BRANCH   7   8
ATOM      8  C   UNL     1      18.589  28.808  43.800  1.00  0.00    -0.034 C 
ATOM      9  C   UNL     1      17.483  29.557  43.743  1.00  0.00     0.004 C 
ENDBRANCH   7   8
ENDBRANCH   1   7
TORSDOF 4
ENDMDL
MODEL 6
REMARK VINA RESULT:    -3.332      1.592      2.920
REMARK INTER + INTRA:          -4.357
REMARK INTER:                  -3.940
REMARK INTRA:                  -0.417
REMARK UNBOUND:                -0.246
REMARK SMILES C=CC[C@H](C)C(=O)CC
REMARK SMILES IDX 4 1 5 2 6 3 7 4 8 5 9 6 3 7 2 8 1 9
REMARK H PARENT
REMARK Flexibility Score: inf
ROOT
ATOM      1  C   UNL     1      20.833  26.266  43.123  1.00  0.00     0.057 C 
ATOM      2  C   UNL     1      22.198  25.830  43.675  1.00  0.00     0.016 C 
ENDROOT
BRANCH   1   3
ATOM      3  C   UNL     1      20.591  25.662  41.754  1.00  0.00     0.135 C 
ATOM      4  O   UNL     1      21.203  24.654  41.434  1.00  0.00    -0.299 OA
BRANCH   3   5
ATOM      5  C   UNL     1      19.597  26.250  40.784  1.00  0.00     0.072 C 
ATOM      6  C   UNL     1      18.178  25.801  41.119  1.00  0.00     0.012 C 
ENDBRANCH   3   5
ENDBRANCH   1   3
BRANCH   1   7
ATOM      7  C   UNL     1      20.694  27.803  43.072  1.00  0.00     0.038 C 
BRANCH   7   8
ATOM      8  C   UNL     1      19.640  28.312  44.019  1.00  0.00    -0.034 C 
ATOM      9  C   UNL     1      18.416  28.643  43.599  1.00  0.00     0.004 C 
ENDBRANCH   7   8
ENDBRANCH   1   7
TORSDOF 4
ENDMDL
MODEL 7
REMARK VINA RESULT:    -3.292      1.818      2.339
REMARK INTER + INTRA:          -4.308
REMARK INTER:                  -4.073
REMARK INTRA:                  -0.236
REMARK UNBOUND:                -0.246
REMARK SMILES C=CC[C@H](C)C(=O)CC
REMARK SMILES IDX 4 1 5 2 6 3 7 4 8 5 9 6 3 7 2 8 1 9
REMARK H PARENT
REMARK Flexibility Score: inf
ROOT
ATOM      1  C   UNL     1      19.893  27.385  43.503  1.00  0.00     0.057 C 
ATOM      2  C   UNL     1      19.293  28.538  44.321  1.00  0.00     0.016 C 
ENDROOT
BRANCH   1   3
ATOM      3  C   UNL     1      21.231  27.785  42.917  1.00  0.00     0.135 C 
ATOM      4  O   UNL     1      21.321  28.840  42.307  1.00  0.00    -0.299 OA
BRANCH   3   5
ATOM      5  C   UNL     1      22.466  26.935  43.087  1.00  0.00     0.072 C 
ATOM      6  C   UNL     1      22.137  25.635  43.815  1.00  0.00     0.012 C 
ENDBRANCH   3   5
ENDBRANCH   1   3
BRANCH   1   7
ATOM      7  C   UNL     1      18.933  26.903  42.394  1.00  0.00     0.038 C 
BRANCH   7   8
ATOM      8  C   UNL     1      17.491  26.968  42.819  1.00  0.00    -0.034 C 
ATOM      9  C   UNL     1      16.601  26.047  42.437  1.00  0.00     0.004 C 
ENDBRANCH   7   8
ENDBRANCH   1   7
TORSDOF 4
ENDMDL
MODEL 8
REMARK VINA RESULT:    -3.255      1.636      3.697
REMARK INTER + INTRA:          -4.262
REMARK INTER:                  -3.912
REMARK INTRA:                  -0.350
REMARK UNBOUND:                -0.246
REMARK SMILES C=CC[C@H](C)C(=O)CC
REMARK SMILES IDX 4 1 5 2 6 3 7 4 8 5 9 6 3 7 2 8 1 9
REMARK H PARENT
REMARK Flexibility Score: inf
ROOT
ATOM      1  C   UNL     1      21.422  26.896  43.221  1.00  0.00     0.057 C 
ATOM      2  C   UNL     1      22.034  25.580  43.722  1.00  0.00     0.016 C 
ENDROOT
BRANCH   1   3
ATOM      3  C   UNL     1      20.069  26.650  42.587  1.00  0.00     0.135 C 
ATOM      4  O   UNL     1      19.994  25.909  41.618  1.00  0.00    -0.299 OA
BRANCH   3   5
ATOM      5  C   UNL     1      18.805  27.268  43.131  1.00  0.00     0.072 C 
ATOM      6  C   UNL     1      19.123  28.471  44.014  1.00  0.00     0.012 C 
ENDBRANCH   3   5
ENDBRANCH   1   3
BRANCH   1   7
ATOM      7  C   UNL     1      22.359  27.633  42.239  1.00  0.00     0.038 C 
BRANCH   7   8
ATOM      8  C   UNL     1      22.389  29.118  42.484  1.00  0.00    -0.034 C 
ATOM      9  C   UNL     1      23.392  29.703  43.145  1.00  0.00     0.004 C 
ENDBRANCH   7   8
ENDBRANCH   1   7
TORSDOF 4
ENDMDL
MODEL 9
REMARK VINA RESULT:    -3.251      1.790      4.009
REMARK INTER + INTRA:          -4.257
REMARK INTER:                  -3.881
REMARK INTRA:                  -0.376
REMARK UNBOUND:                -0.246
REMARK SMILES C=CC[C@H](C)C(=O)CC
REMARK SMILES IDX 4 1 5 2 6 3 7 4 8 5 9 6 3 7 2 8 1 9
REMARK H PARENT
REMARK Flexibility Score: inf
ROOT
ATOM      1  C   UNL     1      20.726  27.670  42.937  1.00  0.00     0.057 C 
ATOM      2  C   UNL     1      21.838  28.712  43.121  1.00  0.00     0.016 C 
ENDROOT
BRANCH   1   3
ATOM      3  C   UNL     1      19.417  28.178  43.507  1.00  0.00     0.135 C 
ATOM      4  O   UNL     1      19.409  28.674  44.624  1.00  0.00    -0.299 OA
BRANCH   3   5
ATOM      5  C   UNL     1      18.127  28.116  42.729  1.00  0.00     0.072 C 
ATOM      6  C   UNL     1      17.516  26.719  42.796  1.00  0.00     0.012 C 
ENDBRANCH   3   5
ENDBRANCH   1   3
BRANCH   1   7
ATOM      7  C   UNL     1      21.100  26.308  43.560  1.00  0.00     0.038 C 
BRANCH   7   8
ATOM      8  C   UNL     1      21.577  25.320  42.529  1.00  0.00    -0.034 C 
ATOM      9  C   UNL     1      20.872  25.059  41.424  1.00  0.00     0.004 C 
ENDBRANCH   7   8
ENDBRANCH   1   7
TORSDOF 4
ENDMDL
