MODEL 1
REMARK VINA RESULT:    -3.972      0.000      0.000
REMARK INTER + INTRA:         -12.282
REMARK INTER:                  -8.616
REMARK INTRA:                  -3.666
REMARK UNBOUND:                -3.666
REMARK SMILES CCCCCCCCCCCCCCCCCCCCCC(=O)[O-]
REMARK SMILES IDX 12 1 11 2 10 3 9 4 8 5 7 6 6 7 5 8 4 9 3 10 2 11 1 12 13 13
REMARK SMILES IDX 14 14 15 15 16 16 17 17 18 18 19 19 20 20 21 21 22 22 23 23
REMARK SMILES IDX 24 24
REMARK H PARENT
REMARK Flexibility Score: inf
ROOT
ATOM      1  C   UNL     1      15.253 -32.400  -1.785  1.00  0.00     0.000 C 
ENDROOT
BRANCH   1   2
ATOM      2  C   UNL     1      16.286 -33.311  -2.472  1.00  0.00     0.000 C 
BRANCH   2   3
ATOM      3  C   UNL     1      17.280 -33.942  -1.481  1.00  0.00     0.000 C 
BRANCH   3   4
ATOM      4  C   UNL     1      17.767 -35.334  -1.935  1.00  0.00    -0.000 C 
BRANCH   4   5
ATOM      5  C   UNL     1      16.628 -36.305  -2.292  1.00  0.00    -0.000 C 
BRANCH   5   6
ATOM      6  C   UNL     1      17.087 -37.771  -2.361  1.00  0.00    -0.000 C 
BRANCH   6   7
ATOM      7  C   UNL     1      15.963 -38.754  -1.972  1.00  0.00    -0.000 C 
BRANCH   7   8
ATOM      8  C   UNL     1      14.758 -38.724  -2.929  1.00  0.00    -0.000 C 
BRANCH   8   9
ATOM      9  C   UNL     1      14.560 -40.046  -3.684  1.00  0.00    -0.000 C 
BRANCH   9  10
ATOM     10  C   UNL     1      15.764 -40.354  -4.583  1.00  0.00    -0.000 C 
BRANCH  10  11
ATOM     11  C   UNL     1      15.324 -40.535  -6.041  1.00  0.00    -0.003 C 
ATOM     12  C   UNL     1      13.859 -40.148  -6.228  1.00  0.00     0.004 C 
ENDBRANCH  10  11
ENDBRANCH   9  10
ENDBRANCH   8   9
ENDBRANCH   7   8
ENDBRANCH   6   7
ENDBRANCH   5   6
ENDBRANCH   4   5
ENDBRANCH   3   4
ENDBRANCH   2   3
ENDBRANCH   1   2
BRANCH   1  13
ATOM     13  C   UNL     1      13.844 -33.009  -1.639  1.00  0.00     0.000 C 
BRANCH  13  14
ATOM     14  C   UNL     1      13.556 -34.221  -2.547  1.00  0.00     0.000 C 
BRANCH  14  15
ATOM     15  C   UNL     1      13.250 -35.535  -1.804  1.00  0.00     0.000 C 
BRANCH  15  16
ATOM     16  C   UNL     1      13.757 -35.531  -0.352  1.00  0.00     0.000 C 
BRANCH  16  17
ATOM     17  C   UNL     1      13.528 -36.877   0.353  1.00  0.00     0.000 C 
BRANCH  17  18
ATOM     18  C   UNL     1      14.717 -37.294   1.231  1.00  0.00     0.000 C 
BRANCH  18  19
ATOM     19  C   UNL     1      15.678 -36.118   1.446  1.00  0.00     0.000 C 
BRANCH  19  20
ATOM     20  C   UNL     1      17.142 -36.584   1.393  1.00  0.00     0.006 C 
BRANCH  20  21
ATOM     21  C   UNL     1      17.273 -38.103   1.560  1.00  0.00     0.053 C 
BRANCH  21  22
ATOM     22  C   UNL     1      18.553 -38.618   0.975  1.00  0.00     0.041 C 
ATOM     23  O   UNL     1      19.509 -37.830   0.748  1.00  0.00    -0.550 OA
ATOM     24  O   UNL     1      18.675 -39.961   0.642  1.00  0.00    -0.550 OA
ENDBRANCH  21  22
ENDBRANCH  20  21
ENDBRANCH  19  20
ENDBRANCH  18  19
ENDBRANCH  17  18
ENDBRANCH  16  17
ENDBRANCH  15  16
ENDBRANCH  14  15
ENDBRANCH  13  14
ENDBRANCH   1  13
TORSDOF 20
ENDMDL
MODEL 2
REMARK VINA RESULT:    -3.735      2.117      5.413
REMARK INTER + INTRA:         -11.769
REMARK INTER:                  -8.027
REMARK INTRA:                  -3.742
REMARK UNBOUND:                -3.666
REMARK SMILES CCCCCCCCCCCCCCCCCCCCCC(=O)[O-]
REMARK SMILES IDX 12 1 11 2 10 3 9 4 8 5 7 6 6 7 5 8 4 9 3 10 2 11 1 12 13 13
REMARK SMILES IDX 14 14 15 15 16 16 17 17 18 18 19 19 20 20 21 21 22 22 23 23
REMARK SMILES IDX 24 24
REMARK H PARENT
REMARK Flexibility Score: inf
ROOT
ATOM      1  C   UNL     1      17.404 -34.128  -0.792  1.00  0.00     0.000 C 
ENDROOT
BRANCH   1   2
ATOM      2  C   UNL     1      16.943 -33.544  -2.140  1.00  0.00     0.000 C 
BRANCH   2   3
ATOM      3  C   UNL     1      15.651 -32.717  -2.021  1.00  0.00     0.000 C 
BRANCH   3   4
ATOM      4  C   UNL     1      14.416 -33.464  -2.567  1.00  0.00    -0.000 C 
BRANCH   4   5
ATOM      5  C   UNL     1      13.340 -33.745  -1.503  1.00  0.00    -0.000 C 
BRANCH   5   6
ATOM      6  C   UNL     1      13.852 -33.553  -0.066  1.00  0.00    -0.000 C 
BRANCH   6   7
ATOM      7  C   UNL     1      13.532 -34.764   0.835  1.00  0.00    -0.000 C 
BRANCH   7   8
ATOM      8  C   UNL     1      14.200 -34.697   2.221  1.00  0.00    -0.000 C 
BRANCH   8   9
ATOM      9  C   UNL     1      15.505 -35.503   2.296  1.00  0.00    -0.000 C 
BRANCH   9  10
ATOM     10  C   UNL     1      16.346 -35.081   3.507  1.00  0.00    -0.000 C 
BRANCH  10  11
ATOM     11  C   UNL     1      16.783 -36.305   4.321  1.00  0.00    -0.003 C 
ATOM     12  C   UNL     1      16.684 -36.036   5.820  1.00  0.00     0.004 C 
ENDBRANCH  10  11
ENDBRANCH   9  10
ENDBRANCH   8   9
ENDBRANCH   7   8
ENDBRANCH   6   7
ENDBRANCH   5   6
ENDBRANCH   4   5
ENDBRANCH   3   4
ENDBRANCH   2   3
ENDBRANCH   1   2
BRANCH   1  13
ATOM     13  C   UNL     1      17.436 -35.669  -0.728  1.00  0.00     0.000 C 
BRANCH  13  14
ATOM     14  C   UNL     1      17.541 -36.380  -2.091  1.00  0.00     0.000 C 
BRANCH  14  15
ATOM     15  C   UNL     1      16.520 -37.511  -2.317  1.00  0.00     0.000 C 
BRANCH  15  16
ATOM     16  C   UNL     1      15.064 -37.032  -2.195  1.00  0.00     0.000 C 
BRANCH  16  17
ATOM     17  C   UNL     1      14.206 -37.976  -1.336  1.00  0.00     0.000 C 
BRANCH  17  18
ATOM     18  C   UNL     1      14.794 -38.200   0.063  1.00  0.00     0.000 C 
BRANCH  18  19
ATOM     19  C   UNL     1      15.147 -39.677   0.279  1.00  0.00     0.000 C 
BRANCH  19  20
ATOM     20  C   UNL     1      16.635 -39.845   0.628  1.00  0.00     0.006 C 
BRANCH  20  21
ATOM     21  C   UNL     1      17.198 -38.624   1.365  1.00  0.00     0.053 C 
BRANCH  21  22
ATOM     22  C   UNL     1      18.687 -38.699   1.511  1.00  0.00     0.041 C 
ATOM     23  O   UNL     1      19.436 -38.238   0.609  1.00  0.00    -0.550 OA
ATOM     24  O   UNL     1      19.248 -39.317   2.622  1.00  0.00    -0.550 OA
ENDBRANCH  21  22
ENDBRANCH  20  21
ENDBRANCH  19  20
ENDBRANCH  18  19
ENDBRANCH  17  18
ENDBRANCH  16  17
ENDBRANCH  15  16
ENDBRANCH  14  15
ENDBRANCH  13  14
ENDBRANCH   1  13
TORSDOF 20
ENDMDL
MODEL 3
REMARK VINA RESULT:    -3.662      4.933      6.927
REMARK INTER + INTRA:         -11.610
REMARK INTER:                  -8.936
REMARK INTRA:                  -2.673
REMARK UNBOUND:                -3.666
REMARK SMILES CCCCCCCCCCCCCCCCCCCCCC(=O)[O-]
REMARK SMILES IDX 12 1 11 2 10 3 9 4 8 5 7 6 6 7 5 8 4 9 3 10 2 11 1 12 13 13
REMARK SMILES IDX 14 14 15 15 16 16 17 17 18 18 19 19 20 20 21 21 22 22 23 23
REMARK SMILES IDX 24 24
REMARK H PARENT
REMARK Flexibility Score: inf
ROOT
ATOM      1  C   UNL     1      17.429 -35.168   2.014  1.00  0.00     0.000 C 
ENDROOT
BRANCH   1   2
ATOM      2  C   UNL     1      17.588 -34.887   0.509  1.00  0.00     0.000 C 
BRANCH   2   3
ATOM      3  C   UNL     1      16.239 -34.765  -0.222  1.00  0.00     0.000 C 
BRANCH   3   4
ATOM      4  C   UNL     1      16.310 -35.257  -1.684  1.00  0.00    -0.000 C 
BRANCH   4   5
ATOM      5  C   UNL     1      17.736 -35.587  -2.158  1.00  0.00    -0.000 C 
BRANCH   5   6
ATOM      6  C   UNL     1      17.928 -37.074  -2.495  1.00  0.00    -0.000 C 
BRANCH   6   7
ATOM      7  C   UNL     1      16.795 -37.954  -1.926  1.00  0.00    -0.000 C 
BRANCH   7   8
ATOM      8  C   UNL     1      17.100 -38.527  -0.530  1.00  0.00    -0.000 C 
BRANCH   8   9
ATOM      9  C   UNL     1      18.596 -38.501  -0.186  1.00  0.00    -0.000 C 
BRANCH   9  10
ATOM     10  C   UNL     1      18.813 -38.377   1.327  1.00  0.00    -0.000 C 
BRANCH  10  11
ATOM     11  C   UNL     1      17.985 -39.423   2.084  1.00  0.00    -0.003 C 
ATOM     12  C   UNL     1      18.460 -39.565   3.528  1.00  0.00     0.004 C 
ENDBRANCH  10  11
ENDBRANCH   9  10
ENDBRANCH   8   9
ENDBRANCH   7   8
ENDBRANCH   6   7
ENDBRANCH   5   6
ENDBRANCH   4   5
ENDBRANCH   3   4
ENDBRANCH   2   3
ENDBRANCH   1   2
BRANCH   1  13
ATOM     13  C   UNL     1      16.222 -36.053   2.386  1.00  0.00     0.000 C 
BRANCH  13  14
ATOM     14  C   UNL     1      16.148 -36.471   3.868  1.00  0.00     0.000 C 
BRANCH  14  15
ATOM     15  C   UNL     1      16.752 -35.461   4.862  1.00  0.00     0.000 C 
BRANCH  15  16
ATOM     16  C   UNL     1      16.881 -36.031   6.285  1.00  0.00     0.000 C 
BRANCH  16  17
ATOM     17  C   UNL     1      17.854 -37.219   6.356  1.00  0.00     0.000 C 
BRANCH  17  18
ATOM     18  C   UNL     1      19.101 -36.913   7.197  1.00  0.00     0.000 C 
BRANCH  18  19
ATOM     19  C   UNL     1      18.924 -35.607   7.983  1.00  0.00     0.000 C 
BRANCH  19  20
ATOM     20  C   UNL     1      20.209 -35.242   8.744  1.00  0.00     0.006 C 
BRANCH  20  21
ATOM     21  C   UNL     1      20.595 -33.769   8.554  1.00  0.00     0.053 C 
BRANCH  21  22
ATOM     22  C   UNL     1      19.437 -32.853   8.804  1.00  0.00     0.041 C 
ATOM     23  O   UNL     1      18.911 -32.793   9.948  1.00  0.00    -0.550 OA
ATOM     24  O   UNL     1      18.910 -32.097   7.765  1.00  0.00    -0.550 OA
ENDBRANCH  21  22
ENDBRANCH  20  21
ENDBRANCH  19  20
ENDBRANCH  18  19
ENDBRANCH  17  18
ENDBRANCH  16  17
ENDBRANCH  15  16
ENDBRANCH  14  15
ENDBRANCH  13  14
ENDBRANCH   1  13
TORSDOF 20
ENDMDL
MODEL 4
REMARK VINA RESULT:    -3.661      2.773      4.936
REMARK INTER + INTRA:         -11.606
REMARK INTER:                  -8.177
REMARK INTRA:                  -3.429
REMARK UNBOUND:                -3.666
REMARK SMILES CCCCCCCCCCCCCCCCCCCCCC(=O)[O-]
REMARK SMILES IDX 12 1 11 2 10 3 9 4 8 5 7 6 6 7 5 8 4 9 3 10 2 11 1 12 13 13
REMARK SMILES IDX 14 14 15 15 16 16 17 17 18 18 19 19 20 20 21 21 22 22 23 23
REMARK SMILES IDX 24 24
REMARK H PARENT
REMARK Flexibility Score: inf
ROOT
ATOM      1  C   UNL     1      17.317 -36.201  -2.409  1.00  0.00     0.000 C 
ENDROOT
BRANCH   1   2
ATOM      2  C   UNL     1      17.162 -35.211  -1.241  1.00  0.00     0.000 C 
BRANCH   2   3
ATOM      3  C   UNL     1      17.337 -33.745  -1.673  1.00  0.00     0.000 C 
BRANCH   3   4
ATOM      4  C   UNL     1      16.092 -33.187  -2.396  1.00  0.00    -0.000 C 
BRANCH   4   5
ATOM      5  C   UNL     1      15.061 -32.547  -1.450  1.00  0.00    -0.000 C 
BRANCH   5   6
ATOM      6  C   UNL     1      13.663 -33.177  -1.569  1.00  0.00    -0.000 C 
BRANCH   6   7
ATOM      7  C   UNL     1      13.523 -34.054  -2.830  1.00  0.00    -0.000 C 
BRANCH   7   8
ATOM      8  C   UNL     1      13.073 -35.496  -2.533  1.00  0.00    -0.000 C 
BRANCH   8   9
ATOM      9  C   UNL     1      13.634 -36.037  -1.210  1.00  0.00    -0.000 C 
BRANCH   9  10
ATOM     10  C   UNL     1      14.038 -37.511  -1.344  1.00  0.00    -0.000 C 
BRANCH  10  11
ATOM     11  C   UNL     1      14.066 -37.937  -2.818  1.00  0.00    -0.003 C 
ATOM     12  C   UNL     1      14.936 -39.175  -3.018  1.00  0.00     0.004 C 
ENDBRANCH  10  11
ENDBRANCH   9  10
ENDBRANCH   8   9
ENDBRANCH   7   8
ENDBRANCH   6   7
ENDBRANCH   5   6
ENDBRANCH   4   5
ENDBRANCH   3   4
ENDBRANCH   2   3
ENDBRANCH   1   2
BRANCH   1  13
ATOM     13  C   UNL     1      18.152 -37.458  -2.091  1.00  0.00     0.000 C 
BRANCH  13  14
ATOM     14  C   UNL     1      17.742 -38.211  -0.810  1.00  0.00     0.000 C 
BRANCH  14  15
ATOM     15  C   UNL     1      18.674 -38.002   0.397  1.00  0.00     0.000 C 
BRANCH  15  16
ATOM     16  C   UNL     1      17.907 -37.811   1.716  1.00  0.00     0.000 C 
BRANCH  16  17
ATOM     17  C   UNL     1      16.385 -37.941   1.534  1.00  0.00     0.000 C 
BRANCH  17  18
ATOM     18  C   UNL     1      15.622 -36.708   2.039  1.00  0.00     0.000 C 
BRANCH  18  19
ATOM     19  C   UNL     1      16.591 -35.646   2.575  1.00  0.00     0.000 C 
BRANCH  19  20
ATOM     20  C   UNL     1      16.440 -35.476   4.095  1.00  0.00     0.006 C 
BRANCH  20  21
ATOM     21  C   UNL     1      15.510 -34.311   4.458  1.00  0.00     0.053 C 
BRANCH  21  22
ATOM     22  C   UNL     1      16.193 -33.307   5.335  1.00  0.00     0.041 C 
ATOM     23  O   UNL     1      16.515 -32.179   4.876  1.00  0.00    -0.550 OA
ATOM     24  O   UNL     1      16.513 -33.632   6.648  1.00  0.00    -0.550 OA
ENDBRANCH  21  22
ENDBRANCH  20  21
ENDBRANCH  19  20
ENDBRANCH  18  19
ENDBRANCH  17  18
ENDBRANCH  16  17
ENDBRANCH  15  16
ENDBRANCH  14  15
ENDBRANCH  13  14
ENDBRANCH   1  13
TORSDOF 20
ENDMDL
MODEL 5
REMARK VINA RESULT:    -3.595      1.972      5.185
REMARK INTER + INTRA:         -11.464
REMARK INTER:                  -7.693
REMARK INTRA:                  -3.770
REMARK UNBOUND:                -3.666
REMARK SMILES CCCCCCCCCCCCCCCCCCCCCC(=O)[O-]
REMARK SMILES IDX 12 1 11 2 10 3 9 4 8 5 7 6 6 7 5 8 4 9 3 10 2 11 1 12 13 13
REMARK SMILES IDX 14 14 15 15 16 16 17 17 18 18 19 19 20 20 21 21 22 22 23 23
REMARK SMILES IDX 24 24
REMARK H PARENT
REMARK Flexibility Score: inf
ROOT
ATOM      1  C   UNL     1      17.664 -34.640  -2.111  1.00  0.00     0.000 C 
ENDROOT
BRANCH   1   2
ATOM      2  C   UNL     1      16.905 -35.979  -2.118  1.00  0.00     0.000 C 
BRANCH   2   3
ATOM      3  C   UNL     1      17.834 -37.192  -2.304  1.00  0.00     0.000 C 
BRANCH   3   4
ATOM      4  C   UNL     1      18.326 -37.774  -0.962  1.00  0.00    -0.000 C 
BRANCH   4   5
ATOM      5  C   UNL     1      17.355 -38.788  -0.332  1.00  0.00    -0.000 C 
BRANCH   5   6
ATOM      6  C   UNL     1      17.414 -38.802   1.204  1.00  0.00    -0.000 C 
BRANCH   6   7
ATOM      7  C   UNL     1      16.013 -38.914   1.841  1.00  0.00    -0.000 C 
BRANCH   7   8
ATOM      8  C   UNL     1      14.956 -38.019   1.169  1.00  0.00    -0.000 C 
BRANCH   8   9
ATOM      9  C   UNL     1      14.752 -36.683   1.897  1.00  0.00    -0.000 C 
BRANCH   9  10
ATOM     10  C   UNL     1      15.623 -35.581   1.282  1.00  0.00    -0.000 C 
BRANCH  10  11
ATOM     11  C   UNL     1      16.846 -35.296   2.163  1.00  0.00    -0.003 C 
ATOM     12  C   UNL     1      18.056 -34.904   1.319  1.00  0.00     0.004 C 
ENDBRANCH  10  11
ENDBRANCH   9  10
ENDBRANCH   8   9
ENDBRANCH   7   8
ENDBRANCH   6   7
ENDBRANCH   5   6
ENDBRANCH   4   5
ENDBRANCH   3   4
ENDBRANCH   2   3
ENDBRANCH   1   2
BRANCH   1  13
ATOM     13  C   UNL     1      16.768 -33.384  -2.110  1.00  0.00     0.000 C 
BRANCH  13  14
ATOM     14  C   UNL     1      15.357 -33.587  -1.525  1.00  0.00     0.000 C 
BRANCH  14  15
ATOM     15  C   UNL     1      14.206 -33.056  -2.400  1.00  0.00     0.000 C 
BRANCH  15  16
ATOM     16  C   UNL     1      13.243 -34.167  -2.855  1.00  0.00     0.000 C 
BRANCH  16  17
ATOM     17  C   UNL     1      13.372 -35.440  -2.003  1.00  0.00     0.000 C 
BRANCH  17  18
ATOM     18  C   UNL     1      13.045 -36.715  -2.793  1.00  0.00     0.000 C 
BRANCH  18  19
ATOM     19  C   UNL     1      13.887 -37.897  -2.297  1.00  0.00     0.000 C 
BRANCH  19  20
ATOM     20  C   UNL     1      14.083 -38.941  -3.408  1.00  0.00     0.006 C 
BRANCH  20  21
ATOM     21  C   UNL     1      15.328 -39.807  -3.176  1.00  0.00     0.053 C 
BRANCH  21  22
ATOM     22  C   UNL     1      14.977 -41.143  -2.597  1.00  0.00     0.041 C 
ATOM     23  O   UNL     1      14.099 -41.861  -3.146  1.00  0.00    -0.550 OA
ATOM     24  O   UNL     1      15.588 -41.578  -1.428  1.00  0.00    -0.550 OA
ENDBRANCH  21  22
ENDBRANCH  20  21
ENDBRANCH  19  20
ENDBRANCH  18  19
ENDBRANCH  17  18
ENDBRANCH  16  17
ENDBRANCH  15  16
ENDBRANCH  14  15
ENDBRANCH  13  14
ENDBRANCH   1  13
TORSDOF 20
ENDMDL
MODEL 6
REMARK VINA RESULT:    -3.587      2.113      5.728
REMARK INTER + INTRA:         -11.446
REMARK INTER:                  -7.719
REMARK INTRA:                  -3.728
REMARK UNBOUND:                -3.666
REMARK SMILES CCCCCCCCCCCCCCCCCCCCCC(=O)[O-]
REMARK SMILES IDX 12 1 11 2 10 3 9 4 8 5 7 6 6 7 5 8 4 9 3 10 2 11 1 12 13 13
REMARK SMILES IDX 14 14 15 15 16 16 17 17 18 18 19 19 20 20 21 21 22 22 23 23
REMARK SMILES IDX 24 24
REMARK H PARENT
REMARK Flexibility Score: inf
ROOT
ATOM      1  C   UNL     1      14.474 -33.300  -1.708  1.00  0.00     0.000 C 
ENDROOT
BRANCH   1   2
ATOM      2  C   UNL     1      14.164 -34.724  -2.203  1.00  0.00     0.000 C 
BRANCH   2   3
ATOM      3  C   UNL     1      13.554 -35.618  -1.109  1.00  0.00     0.000 C 
BRANCH   3   4
ATOM      4  C   UNL     1      13.611 -34.966   0.289  1.00  0.00    -0.000 C 
BRANCH   4   5
ATOM      5  C   UNL     1      14.403 -35.785   1.323  1.00  0.00    -0.000 C 
BRANCH   5   6
ATOM      6  C   UNL     1      15.015 -34.918   2.435  1.00  0.00    -0.000 C 
BRANCH   6   7
ATOM      7  C   UNL     1      16.424 -35.398   2.842  1.00  0.00    -0.000 C 
BRANCH   7   8
ATOM      8  C   UNL     1      16.644 -36.908   2.642  1.00  0.00    -0.000 C 
BRANCH   8   9
ATOM      9  C   UNL     1      16.342 -37.730   3.903  1.00  0.00    -0.000 C 
BRANCH   9  10
ATOM     10  C   UNL     1      17.549 -38.587   4.305  1.00  0.00    -0.000 C 
BRANCH  10  11
ATOM     11  C   UNL     1      17.921 -38.350   5.774  1.00  0.00    -0.003 C 
ATOM     12  C   UNL     1      17.474 -36.968   6.242  1.00  0.00     0.004 C 
ENDBRANCH  10  11
ENDBRANCH   9  10
ENDBRANCH   8   9
ENDBRANCH   7   8
ENDBRANCH   6   7
ENDBRANCH   5   6
ENDBRANCH   4   5
ENDBRANCH   3   4
ENDBRANCH   2   3
ENDBRANCH   1   2
BRANCH   1  13
ATOM     13  C   UNL     1      15.870 -32.767  -2.091  1.00  0.00     0.000 C 
BRANCH  13  14
ATOM     14  C   UNL     1      16.996 -33.819  -2.088  1.00  0.00     0.000 C 
BRANCH  14  15
ATOM     15  C   UNL     1      17.356 -34.387  -0.703  1.00  0.00     0.000 C 
BRANCH  15  16
ATOM     16  C   UNL     1      17.504 -35.918  -0.708  1.00  0.00     0.000 C 
BRANCH  16  17
ATOM     17  C   UNL     1      17.541 -36.500  -2.130  1.00  0.00     0.000 C 
BRANCH  17  18
ATOM     18  C   UNL     1      16.623 -37.719  -2.294  1.00  0.00     0.000 C 
BRANCH  18  19
ATOM     19  C   UNL     1      16.024 -38.139  -0.946  1.00  0.00     0.000 C 
BRANCH  19  20
ATOM     20  C   UNL     1      16.211 -39.645  -0.702  1.00  0.00     0.006 C 
BRANCH  20  21
ATOM     21  C   UNL     1      16.644 -39.950   0.738  1.00  0.00     0.053 C 
BRANCH  21  22
ATOM     22  C   UNL     1      18.133 -40.047   0.862  1.00  0.00     0.041 C 
ATOM     23  O   UNL     1      18.664 -41.086   1.337  1.00  0.00    -0.550 OA
ATOM     24  O   UNL     1      18.935 -38.973   0.494  1.00  0.00    -0.550 OA
ENDBRANCH  21  22
ENDBRANCH  20  21
ENDBRANCH  19  20
ENDBRANCH  18  19
ENDBRANCH  17  18
ENDBRANCH  16  17
ENDBRANCH  15  16
ENDBRANCH  14  15
ENDBRANCH  13  14
ENDBRANCH   1  13
TORSDOF 20
ENDMDL
MODEL 7
REMARK VINA RESULT:    -3.565      4.779      8.919
REMARK INTER + INTRA:         -11.399
REMARK INTER:                  -9.176
REMARK INTRA:                  -2.223
REMARK UNBOUND:                -3.666
REMARK SMILES CCCCCCCCCCCCCCCCCCCCCC(=O)[O-]
REMARK SMILES IDX 12 1 11 2 10 3 9 4 8 5 7 6 6 7 5 8 4 9 3 10 2 11 1 12 13 13
REMARK SMILES IDX 14 14 15 15 16 16 17 17 18 18 19 19 20 20 21 21 22 22 23 23
REMARK SMILES IDX 24 24
REMARK H PARENT
REMARK Flexibility Score: inf
ROOT
ATOM      1  C   UNL     1      15.852 -35.501   1.825  1.00  0.00     0.000 C 
ENDROOT
BRANCH   1   2
ATOM      2  C   UNL     1      15.401 -35.963   3.223  1.00  0.00     0.000 C 
BRANCH   2   3
ATOM      3  C   UNL     1      16.508 -35.826   4.283  1.00  0.00     0.000 C 
BRANCH   3   4
ATOM      4  C   UNL     1      16.952 -37.189   4.855  1.00  0.00    -0.000 C 
BRANCH   4   5
ATOM      5  C   UNL     1      17.512 -37.109   6.286  1.00  0.00    -0.000 C 
BRANCH   5   6
ATOM      6  C   UNL     1      18.738 -38.011   6.503  1.00  0.00    -0.000 C 
BRANCH   6   7
ATOM      7  C   UNL     1      19.856 -37.296   7.290  1.00  0.00    -0.000 C 
BRANCH   7   8
ATOM      8  C   UNL     1      19.392 -36.007   7.990  1.00  0.00    -0.000 C 
BRANCH   8   9
ATOM      9  C   UNL     1      20.410 -35.479   9.011  1.00  0.00    -0.000 C 
BRANCH   9  10
ATOM     10  C   UNL     1      20.561 -33.957   8.903  1.00  0.00    -0.000 C 
BRANCH  10  11
ATOM     11  C   UNL     1      21.124 -33.371  10.204  1.00  0.00    -0.003 C 
ATOM     12  C   UNL     1      20.040 -32.645  10.997  1.00  0.00     0.004 C 
ENDBRANCH  10  11
ENDBRANCH   9  10
ENDBRANCH   8   9
ENDBRANCH   7   8
ENDBRANCH   6   7
ENDBRANCH   5   6
ENDBRANCH   4   5
ENDBRANCH   3   4
ENDBRANCH   2   3
ENDBRANCH   1   2
BRANCH   1  13
ATOM     13  C   UNL     1      17.359 -35.201   1.694  1.00  0.00     0.000 C 
BRANCH  13  14
ATOM     14  C   UNL     1      17.854 -34.948   0.257  1.00  0.00     0.000 C 
BRANCH  14  15
ATOM     15  C   UNL     1      16.768 -34.500  -0.739  1.00  0.00     0.000 C 
BRANCH  15  16
ATOM     16  C   UNL     1      16.928 -35.147  -2.125  1.00  0.00     0.000 C 
BRANCH  16  17
ATOM     17  C   UNL     1      17.751 -36.445  -2.076  1.00  0.00     0.000 C 
BRANCH  17  18
ATOM     18  C   UNL     1      16.891 -37.698  -2.286  1.00  0.00     0.000 C 
BRANCH  18  19
ATOM     19  C   UNL     1      16.050 -38.001  -1.040  1.00  0.00     0.000 C 
BRANCH  19  20
ATOM     20  C   UNL     1      16.627 -39.192  -0.259  1.00  0.00     0.006 C 
BRANCH  20  21
ATOM     21  C   UNL     1      17.035 -38.807   1.169  1.00  0.00     0.053 C 
BRANCH  21  22
ATOM     22  C   UNL     1      18.523 -38.774   1.333  1.00  0.00     0.041 C 
ATOM     23  O   UNL     1      19.249 -38.264   0.438  1.00  0.00    -0.550 OA
ATOM     24  O   UNL     1      19.113 -39.345   2.454  1.00  0.00    -0.550 OA
ENDBRANCH  21  22
ENDBRANCH  20  21
ENDBRANCH  19  20
ENDBRANCH  18  19
ENDBRANCH  17  18
ENDBRANCH  16  17
ENDBRANCH  15  16
ENDBRANCH  14  15
ENDBRANCH  13  14
ENDBRANCH   1  13
TORSDOF 20
ENDMDL
MODEL 8
REMARK VINA RESULT:    -3.554      1.773      3.483
REMARK INTER + INTRA:         -11.375
REMARK INTER:                  -8.132
REMARK INTRA:                  -3.243
REMARK UNBOUND:                -3.666
REMARK SMILES CCCCCCCCCCCCCCCCCCCCCC(=O)[O-]
REMARK SMILES IDX 12 1 11 2 10 3 9 4 8 5 7 6 6 7 5 8 4 9 3 10 2 11 1 12 13 13
REMARK SMILES IDX 14 14 15 15 16 16 17 17 18 18 19 19 20 20 21 21 22 22 23 23
REMARK SMILES IDX 24 24
REMARK H PARENT
REMARK Flexibility Score: inf
ROOT
ATOM      1  C   UNL     1      16.742 -33.415  -2.145  1.00  0.00     0.000 C 
ENDROOT
BRANCH   1   2
ATOM      2  C   UNL     1      15.483 -32.541  -2.002  1.00  0.00     0.000 C 
BRANCH   2   3
ATOM      3  C   UNL     1      14.257 -33.334  -1.515  1.00  0.00     0.000 C 
BRANCH   3   4
ATOM      4  C   UNL     1      13.504 -34.028  -2.670  1.00  0.00    -0.000 C 
BRANCH   4   5
ATOM      5  C   UNL     1      13.403 -35.556  -2.514  1.00  0.00    -0.000 C 
BRANCH   5   6
ATOM      6  C   UNL     1      13.822 -36.047  -1.119  1.00  0.00    -0.000 C 
BRANCH   6   7
ATOM      7  C   UNL     1      14.098 -37.564  -1.091  1.00  0.00    -0.000 C 
BRANCH   7   8
ATOM      8  C   UNL     1      14.603 -38.124  -2.433  1.00  0.00    -0.000 C 
BRANCH   8   9
ATOM      9  C   UNL     1      13.723 -39.258  -2.979  1.00  0.00    -0.000 C 
BRANCH   9  10
ATOM     10  C   UNL     1      14.276 -39.799  -4.302  1.00  0.00    -0.000 C 
BRANCH  10  11
ATOM     11  C   UNL     1      15.775 -40.105  -4.182  1.00  0.00    -0.003 C 
ATOM     12  C   UNL     1      16.288 -40.848  -5.413  1.00  0.00     0.004 C 
ENDBRANCH  10  11
ENDBRANCH   9  10
ENDBRANCH   8   9
ENDBRANCH   7   8
ENDBRANCH   6   7
ENDBRANCH   5   6
ENDBRANCH   4   5
ENDBRANCH   3   4
ENDBRANCH   2   3
ENDBRANCH   1   2
BRANCH   1  13
ATOM     13  C   UNL     1      17.273 -34.010  -0.825  1.00  0.00     0.000 C 
BRANCH  13  14
ATOM     14  C   UNL     1      17.433 -35.543  -0.815  1.00  0.00     0.000 C 
BRANCH  14  15
ATOM     15  C   UNL     1      17.565 -36.195  -2.205  1.00  0.00     0.000 C 
BRANCH  15  16
ATOM     16  C   UNL     1      18.089 -37.639  -2.138  1.00  0.00     0.000 C 
BRANCH  16  17
ATOM     17  C   UNL     1      18.499 -38.050  -0.714  1.00  0.00     0.000 C 
BRANCH  17  18
ATOM     18  C   UNL     1      17.434 -38.907  -0.016  1.00  0.00     0.000 C 
BRANCH  18  19
ATOM     19  C   UNL     1      17.916 -39.359   1.368  1.00  0.00     0.000 C 
BRANCH  19  20
ATOM     20  C   UNL     1      17.381 -38.431   2.471  1.00  0.00     0.006 C 
BRANCH  20  21
ATOM     21  C   UNL     1      16.120 -37.676   2.030  1.00  0.00     0.053 C 
BRANCH  21  22
ATOM     22  C   UNL     1      16.061 -36.301   2.622  1.00  0.00     0.041 C 
ATOM     23  O   UNL     1      16.655 -36.050   3.704  1.00  0.00    -0.550 OA
ATOM     24  O   UNL     1      15.313 -35.307   2.001  1.00  0.00    -0.550 OA
ENDBRANCH  21  22
ENDBRANCH  20  21
ENDBRANCH  19  20
ENDBRANCH  18  19
ENDBRANCH  17  18
ENDBRANCH  16  17
ENDBRANCH  15  16
ENDBRANCH  14  15
ENDBRANCH  13  14
ENDBRANCH   1  13
TORSDOF 20
ENDMDL
MODEL 9
REMARK VINA RESULT:    -3.498      2.078      5.199
REMARK INTER + INTRA:         -11.254
REMARK INTER:                  -7.373
REMARK INTRA:                  -3.881
REMARK UNBOUND:                -3.666
REMARK SMILES CCCCCCCCCCCCCCCCCCCCCC(=O)[O-]
REMARK SMILES IDX 12 1 11 2 10 3 9 4 8 5 7 6 6 7 5 8 4 9 3 10 2 11 1 12 13 13
REMARK SMILES IDX 14 14 15 15 16 16 17 17 18 18 19 19 20 20 21 21 22 22 23 23
REMARK SMILES IDX 24 24
REMARK H PARENT
REMARK Flexibility Score: inf
ROOT
ATOM      1  C   UNL     1      15.488 -32.871  -1.838  1.00  0.00     0.000 C 
ENDROOT
BRANCH   1   2
ATOM      2  C   UNL     1      14.251 -33.522  -2.482  1.00  0.00     0.000 C 
BRANCH   2   3
ATOM      3  C   UNL     1      13.229 -34.020  -1.444  1.00  0.00     0.000 C 
BRANCH   3   4
ATOM      4  C   UNL     1      13.681 -33.754   0.008  1.00  0.00    -0.000 C 
BRANCH   4   5
ATOM      5  C   UNL     1      13.792 -35.026   0.866  1.00  0.00    -0.000 C 
BRANCH   5   6
ATOM      6  C   UNL     1      15.096 -35.090   1.679  1.00  0.00    -0.000 C 
BRANCH   6   7
ATOM      7  C   UNL     1      15.118 -36.285   2.655  1.00  0.00    -0.000 C 
BRANCH   7   8
ATOM      8  C   UNL     1      16.465 -37.029   2.690  1.00  0.00    -0.000 C 
BRANCH   8   9
ATOM      9  C   UNL     1      16.524 -38.208   1.708  1.00  0.00    -0.000 C 
BRANCH   9  10
ATOM     10  C   UNL     1      17.975 -38.595   1.398  1.00  0.00    -0.000 C 
BRANCH  10  11
ATOM     11  C   UNL     1      18.041 -39.979   0.740  1.00  0.00    -0.003 C 
ATOM     12  C   UNL     1      16.673 -40.410   0.219  1.00  0.00     0.004 C 
ENDBRANCH  10  11
ENDBRANCH   9  10
ENDBRANCH   8   9
ENDBRANCH   7   8
ENDBRANCH   6   7
ENDBRANCH   5   6
ENDBRANCH   4   5
ENDBRANCH   3   4
ENDBRANCH   2   3
ENDBRANCH   1   2
BRANCH   1  13
ATOM     13  C   UNL     1      16.821 -33.599  -2.109  1.00  0.00     0.000 C 
BRANCH  13  14
ATOM     14  C   UNL     1      17.519 -34.176  -0.862  1.00  0.00     0.000 C 
BRANCH  14  15
ATOM     15  C   UNL     1      17.660 -35.709  -0.844  1.00  0.00     0.000 C 
BRANCH  15  16
ATOM     16  C   UNL     1      17.566 -36.332  -2.247  1.00  0.00     0.000 C 
BRANCH  16  17
ATOM     17  C   UNL     1      16.677 -37.587  -2.274  1.00  0.00     0.000 C 
BRANCH  17  18
ATOM     18  C   UNL     1      15.328 -37.370  -1.574  1.00  0.00     0.000 C 
BRANCH  18  19
ATOM     19  C   UNL     1      14.171 -37.463  -2.576  1.00  0.00     0.000 C 
BRANCH  19  20
ATOM     20  C   UNL     1      13.669 -38.910  -2.709  1.00  0.00     0.006 C 
BRANCH  20  21
ATOM     21  C   UNL     1      14.045 -39.531  -4.061  1.00  0.00     0.053 C 
BRANCH  21  22
ATOM     22  C   UNL     1      15.245 -40.421  -3.950  1.00  0.00     0.041 C 
ATOM     23  O   UNL     1      15.365 -41.205  -2.970  1.00  0.00    -0.550 OA
ATOM     24  O   UNL     1      16.251 -40.356  -4.905  1.00  0.00    -0.550 OA
ENDBRANCH  21  22
ENDBRANCH  20  21
ENDBRANCH  19  20
ENDBRANCH  18  19
ENDBRANCH  17  18
ENDBRANCH  16  17
ENDBRANCH  15  16
ENDBRANCH  14  15
ENDBRANCH  13  14
ENDBRANCH   1  13
TORSDOF 20
ENDMDL
