MODEL 1
REMARK VINA RESULT:     4.558      0.000      0.000
REMARK INTER + INTRA:           5.776
REMARK INTER:                   5.890
REMARK INTRA:                  -0.114
REMARK UNBOUND:                -0.114
REMARK SMILES CCCCCCC(=O)[O-]
REMARK SMILES IDX 5 1 6 2 7 3 8 4 9 5 4 6 3 7 2 8 1 9
REMARK H PARENT
REMARK Flexibility Score: inf
ROOT
ATOM      1  C   UNL     1      -1.274  -8.007  24.431  1.00  0.00     0.006 C 
ENDROOT
BRANCH   1   2
ATOM      2  C   UNL     1      -0.832  -8.958  25.551  1.00  0.00     0.053 C 
BRANCH   2   3
ATOM      3  C   UNL     1       0.293  -8.383  26.356  1.00  0.00     0.041 C 
ATOM      4  O   UNL     1       0.964  -9.119  27.125  1.00  0.00    -0.550 OA
ATOM      5  O   UNL     1       0.577  -7.025  26.281  1.00  0.00    -0.550 OA
ENDBRANCH   2   3
ENDBRANCH   1   2
BRANCH   1   6
ATOM      6  C   UNL     1      -2.728  -8.250  24.001  1.00  0.00     0.000 C 
BRANCH   6   7
ATOM      7  C   UNL     1      -3.197  -7.174  23.014  1.00  0.00    -0.000 C 
BRANCH   7   8
ATOM      8  C   UNL     1      -2.437  -7.276  21.686  1.00  0.00    -0.003 C 
ATOM      9  C   UNL     1      -3.344  -6.945  20.505  1.00  0.00     0.004 C 
ENDBRANCH   7   8
ENDBRANCH   6   7
ENDBRANCH   1   6
TORSDOF 5
ENDMDL
MODEL 2
REMARK VINA RESULT:     7.189      3.137      5.250
REMARK INTER + INTRA:           9.177
REMARK INTER:                   9.353
REMARK INTRA:                  -0.177
REMARK UNBOUND:                -0.114
REMARK SMILES CCCCCCC(=O)[O-]
REMARK SMILES IDX 5 1 6 2 7 3 8 4 9 5 4 6 3 7 2 8 1 9
REMARK H PARENT
REMARK Flexibility Score: inf
ROOT
ATOM      1  C   UNL     1      -2.173  -7.419  23.730  1.00  0.00     0.006 C 
ENDROOT
BRANCH   1   2
ATOM      2  C   UNL     1      -3.286  -7.097  22.725  1.00  0.00     0.053 C 
BRANCH   2   3
ATOM      3  C   UNL     1      -2.808  -7.216  21.310  1.00  0.00     0.041 C 
ATOM      4  O   UNL     1      -3.567  -6.907  20.356  1.00  0.00    -0.550 OA
ATOM      5  O   UNL     1      -1.533  -7.700  21.047  1.00  0.00    -0.550 OA
ENDBRANCH   2   3
ENDBRANCH   1   2
BRANCH   1   6
ATOM      6  C   UNL     1      -2.251  -8.866  24.241  1.00  0.00     0.000 C 
BRANCH   6   7
ATOM      7  C   UNL     1      -1.126  -9.157  25.242  1.00  0.00    -0.000 C 
BRANCH   7   8
ATOM      8  C   UNL     1      -0.273  -7.908  25.491  1.00  0.00    -0.003 C 
ATOM      9  C   UNL     1       0.636  -8.095  26.701  1.00  0.00     0.004 C 
ENDBRANCH   7   8
ENDBRANCH   6   7
ENDBRANCH   1   6
TORSDOF 5
ENDMDL
