MODEL 1
REMARK VINA RESULT:    -4.893      0.000      0.000
REMARK INTER + INTRA:          -6.489
REMARK INTER:                  -6.323
REMARK INTRA:                  -0.166
REMARK UNBOUND:                -0.166
REMARK SMILES CCCCCCC(=O)[O-]
REMARK SMILES IDX 5 1 6 2 7 3 8 4 9 5 4 6 3 7 2 8 1 9
REMARK H PARENT
REMARK Flexibility Score: inf
ROOT
ATOM      1  C   UNL     1      26.549 -10.102  19.894  1.00  0.00     0.006 C 
ENDROOT
BRANCH   1   2
ATOM      2  C   UNL     1      26.853  -8.596  19.886  1.00  0.00     0.053 C 
BRANCH   2   3
ATOM      3  C   UNL     1      25.692  -7.793  19.385  1.00  0.00     0.041 C 
ATOM      4  O   UNL     1      25.837  -7.004  18.415  1.00  0.00    -0.550 OA
ATOM      5  O   UNL     1      24.440  -7.941  19.970  1.00  0.00    -0.550 OA
ENDBRANCH   2   3
ENDBRANCH   1   2
BRANCH   1   6
ATOM      6  C   UNL     1      27.516 -10.938  20.751  1.00  0.00     0.000 C 
BRANCH   6   7
ATOM      7  C   UNL     1      27.782 -12.331  20.161  1.00  0.00    -0.000 C 
BRANCH   7   8
ATOM      8  C   UNL     1      26.726 -12.691  19.109  1.00  0.00    -0.003 C 
ATOM      9  C   UNL     1      27.281 -13.677  18.085  1.00  0.00     0.004 C 
ENDBRANCH   7   8
ENDBRANCH   6   7
ENDBRANCH   1   6
TORSDOF 5
ENDMDL
MODEL 2
REMARK VINA RESULT:    -4.855      1.979      2.468
REMARK INTER + INTRA:          -6.440
REMARK INTER:                  -6.226
REMARK INTRA:                  -0.213
REMARK UNBOUND:                -0.166
REMARK SMILES CCCCCCC(=O)[O-]
REMARK SMILES IDX 5 1 6 2 7 3 8 4 9 5 4 6 3 7 2 8 1 9
REMARK H PARENT
REMARK Flexibility Score: inf
ROOT
ATOM      1  C   UNL     1      28.126 -11.079  21.424  1.00  0.00     0.006 C 
ENDROOT
BRANCH   1   2
ATOM      2  C   UNL     1      28.727  -9.726  21.010  1.00  0.00     0.053 C 
BRANCH   2   3
ATOM      3  C   UNL     1      27.859  -8.578  21.423  1.00  0.00     0.041 C 
ATOM      4  O   UNL     1      28.098  -7.952  22.489  1.00  0.00    -0.550 OA
ATOM      5  O   UNL     1      26.804  -8.178  20.611  1.00  0.00    -0.550 OA
ENDBRANCH   2   3
ENDBRANCH   1   2
BRANCH   1   6
ATOM      6  C   UNL     1      27.823 -12.024  20.247  1.00  0.00     0.000 C 
BRANCH   6   7
ATOM      7  C   UNL     1      26.492 -11.702  19.554  1.00  0.00    -0.000 C 
BRANCH   7   8
ATOM      8  C   UNL     1      26.302 -12.569  18.302  1.00  0.00    -0.003 C 
ATOM      9  C   UNL     1      27.252 -13.763  18.309  1.00  0.00     0.004 C 
ENDBRANCH   7   8
ENDBRANCH   6   7
ENDBRANCH   1   6
TORSDOF 5
ENDMDL
MODEL 3
REMARK VINA RESULT:    -4.767      2.936      3.233
REMARK INTER + INTRA:          -6.327
REMARK INTER:                  -6.192
REMARK INTRA:                  -0.135
REMARK UNBOUND:                -0.166
REMARK SMILES CCCCCCC(=O)[O-]
REMARK SMILES IDX 5 1 6 2 7 3 8 4 9 5 4 6 3 7 2 8 1 9
REMARK H PARENT
REMARK Flexibility Score: inf
ROOT
ATOM      1  C   UNL     1      28.003 -10.789  21.309  1.00  0.00     0.006 C 
ENDROOT
BRANCH   1   2
ATOM      2  C   UNL     1      28.450  -9.367  20.934  1.00  0.00     0.053 C 
BRANCH   2   3
ATOM      3  C   UNL     1      29.034  -8.637  22.104  1.00  0.00     0.041 C 
ATOM      4  O   UNL     1      30.249  -8.780  22.400  1.00  0.00    -0.550 OA
ATOM      5  O   UNL     1      28.240  -7.773  22.850  1.00  0.00    -0.550 OA
ENDBRANCH   2   3
ENDBRANCH   1   2
BRANCH   1   6
ATOM      6  C   UNL     1      27.257 -11.534  20.187  1.00  0.00     0.000 C 
BRANCH   6   7
ATOM      7  C   UNL     1      27.840 -12.927  19.908  1.00  0.00    -0.000 C 
BRANCH   7   8
ATOM      8  C   UNL     1      27.293 -13.497  18.593  1.00  0.00    -0.003 C 
ATOM      9  C   UNL     1      26.201 -12.602  18.017  1.00  0.00     0.004 C 
ENDBRANCH   7   8
ENDBRANCH   6   7
ENDBRANCH   1   6
TORSDOF 5
ENDMDL
MODEL 4
REMARK VINA RESULT:    -4.473     10.373     11.281
REMARK INTER + INTRA:          -5.947
REMARK INTER:                  -5.753
REMARK INTRA:                  -0.194
REMARK UNBOUND:                -0.166
REMARK SMILES CCCCCCC(=O)[O-]
REMARK SMILES IDX 5 1 6 2 7 3 8 4 9 5 4 6 3 7 2 8 1 9
REMARK H PARENT
REMARK Flexibility Score: inf
ROOT
ATOM      1  C   UNL     1      36.738 -10.779  20.681  1.00  0.00     0.006 C 
ENDROOT
BRANCH   1   2
ATOM      2  C   UNL     1      37.898 -11.465  21.420  1.00  0.00     0.053 C 
BRANCH   2   3
ATOM      3  C   UNL     1      39.223 -10.867  21.060  1.00  0.00     0.041 C 
ATOM      4  O   UNL     1      39.768 -11.147  19.960  1.00  0.00    -0.550 OA
ATOM      5  O   UNL     1      39.841  -9.974  21.927  1.00  0.00    -0.550 OA
ENDBRANCH   2   3
ENDBRANCH   1   2
BRANCH   1   6
ATOM      6  C   UNL     1      36.197  -9.519  21.382  1.00  0.00     0.000 C 
BRANCH   6   7
ATOM      7  C   UNL     1      34.749  -9.194  20.988  1.00  0.00    -0.000 C 
BRANCH   7   8
ATOM      8  C   UNL     1      34.305 -10.039  19.787  1.00  0.00    -0.003 C 
ATOM      9  C   UNL     1      33.040  -9.472  19.151  1.00  0.00     0.004 C 
ENDBRANCH   7   8
ENDBRANCH   6   7
ENDBRANCH   1   6
TORSDOF 5
ENDMDL
MODEL 5
REMARK VINA RESULT:    -4.410     10.935     11.923
REMARK INTER + INTRA:          -5.864
REMARK INTER:                  -5.770
REMARK INTRA:                  -0.095
REMARK UNBOUND:                -0.166
REMARK SMILES CCCCCCC(=O)[O-]
REMARK SMILES IDX 5 1 6 2 7 3 8 4 9 5 4 6 3 7 2 8 1 9
REMARK H PARENT
REMARK Flexibility Score: inf
ROOT
ATOM      1  C   UNL     1      38.117 -10.397  21.372  1.00  0.00     0.006 C 
ENDROOT
BRANCH   1   2
ATOM      2  C   UNL     1      38.257 -11.871  21.785  1.00  0.00     0.053 C 
BRANCH   2   3
ATOM      3  C   UNL     1      39.355 -12.561  21.035  1.00  0.00     0.041 C 
ATOM      4  O   UNL     1      39.439 -13.817  21.046  1.00  0.00    -0.550 OA
ATOM      5  O   UNL     1      40.267 -11.816  20.298  1.00  0.00    -0.550 OA
ENDBRANCH   2   3
ENDBRANCH   1   2
BRANCH   1   6
ATOM      6  C   UNL     1      36.714  -9.806  21.603  1.00  0.00     0.000 C 
BRANCH   6   7
ATOM      7  C   UNL     1      35.690 -10.282  20.562  1.00  0.00    -0.000 C 
BRANCH   7   8
ATOM      8  C   UNL     1      34.450  -9.379  20.561  1.00  0.00    -0.003 C 
ATOM      9  C   UNL     1      33.530  -9.706  19.389  1.00  0.00     0.004 C 
ENDBRANCH   7   8
ENDBRANCH   6   7
ENDBRANCH   1   6
TORSDOF 5
ENDMDL
MODEL 6
REMARK VINA RESULT:    -4.394     10.889     11.849
REMARK INTER + INTRA:          -5.844
REMARK INTER:                  -5.682
REMARK INTRA:                  -0.162
REMARK UNBOUND:                -0.166
REMARK SMILES CCCCCCC(=O)[O-]
REMARK SMILES IDX 5 1 6 2 7 3 8 4 9 5 4 6 3 7 2 8 1 9
REMARK H PARENT
REMARK Flexibility Score: inf
ROOT
ATOM      1  C   UNL     1      37.483 -10.911  21.041  1.00  0.00     0.006 C 
ENDROOT
BRANCH   1   2
ATOM      2  C   UNL     1      38.270 -11.950  21.855  1.00  0.00     0.053 C 
BRANCH   2   3
ATOM      3  C   UNL     1      39.305 -12.644  21.025  1.00  0.00     0.041 C 
ATOM      4  O   UNL     1      40.116 -11.976  20.331  1.00  0.00    -0.550 OA
ATOM      5  O   UNL     1      39.395 -14.031  21.043  1.00  0.00    -0.550 OA
ENDBRANCH   2   3
ENDBRANCH   1   2
BRANCH   1   6
ATOM      6  C   UNL     1      36.738  -9.869  21.896  1.00  0.00     0.000 C 
BRANCH   6   7
ATOM      7  C   UNL     1      35.510  -9.284  21.183  1.00  0.00    -0.000 C 
BRANCH   7   8
ATOM      8  C   UNL     1      34.955 -10.271  20.149  1.00  0.00    -0.003 C 
ATOM      9  C   UNL     1      33.694  -9.724  19.486  1.00  0.00     0.004 C 
ENDBRANCH   7   8
ENDBRANCH   6   7
ENDBRANCH   1   6
TORSDOF 5
ENDMDL
MODEL 7
REMARK VINA RESULT:    -4.384     11.162     12.332
REMARK INTER + INTRA:          -5.831
REMARK INTER:                  -5.641
REMARK INTRA:                  -0.189
REMARK UNBOUND:                -0.166
REMARK SMILES CCCCCCC(=O)[O-]
REMARK SMILES IDX 5 1 6 2 7 3 8 4 9 5 4 6 3 7 2 8 1 9
REMARK H PARENT
REMARK Flexibility Score: inf
ROOT
ATOM      1  C   UNL     1      37.788 -10.622  21.301  1.00  0.00     0.006 C 
ENDROOT
BRANCH   1   2
ATOM      2  C   UNL     1      38.305 -11.927  21.929  1.00  0.00     0.053 C 
BRANCH   2   3
ATOM      3  C   UNL     1      39.301 -12.616  21.049  1.00  0.00     0.041 C 
ATOM      4  O   UNL     1      39.352 -13.873  21.012  1.00  0.00    -0.550 OA
ATOM      5  O   UNL     1      40.153 -11.868  20.246  1.00  0.00    -0.550 OA
ENDBRANCH   2   3
ENDBRANCH   1   2
BRANCH   1   6
ATOM      6  C   UNL     1      36.385 -10.733  20.676  1.00  0.00     0.000 C 
BRANCH   6   7
ATOM      7  C   UNL     1      35.505  -9.510  20.971  1.00  0.00    -0.000 C 
BRANCH   7   8
ATOM      8  C   UNL     1      36.143  -8.621  22.046  1.00  0.00    -0.003 C 
ATOM      9  C   UNL     1      35.359  -7.325  22.227  1.00  0.00     0.004 C 
ENDBRANCH   7   8
ENDBRANCH   6   7
ENDBRANCH   1   6
TORSDOF 5
ENDMDL
MODEL 8
REMARK VINA RESULT:    -4.285      1.667      2.740
REMARK INTER + INTRA:          -5.703
REMARK INTER:                  -5.512
REMARK INTRA:                  -0.191
REMARK UNBOUND:                -0.166
REMARK SMILES CCCCCCC(=O)[O-]
REMARK SMILES IDX 5 1 6 2 7 3 8 4 9 5 4 6 3 7 2 8 1 9
REMARK H PARENT
REMARK Flexibility Score: inf
ROOT
ATOM      1  C   UNL     1      26.202  -8.327  19.320  1.00  0.00     0.006 C 
ENDROOT
BRANCH   1   2
ATOM      2  C   UNL     1      27.368  -7.525  18.718  1.00  0.00     0.053 C 
BRANCH   2   3
ATOM      3  C   UNL     1      27.102  -6.051  18.736  1.00  0.00     0.041 C 
ATOM      4  O   UNL     1      26.111  -5.593  19.361  1.00  0.00    -0.550 OA
ATOM      5  O   UNL     1      27.970  -5.181  18.087  1.00  0.00    -0.550 OA
ENDBRANCH   2   3
ENDBRANCH   1   2
BRANCH   1   6
ATOM      6  C   UNL     1      26.607  -9.692  19.903  1.00  0.00     0.000 C 
BRANCH   6   7
ATOM      7  C   UNL     1      27.737  -9.586  20.938  1.00  0.00    -0.000 C 
BRANCH   7   8
ATOM      8  C   UNL     1      28.378 -10.956  21.192  1.00  0.00    -0.003 C 
ATOM      9  C   UNL     1      27.750 -12.031  20.309  1.00  0.00     0.004 C 
ENDBRANCH   7   8
ENDBRANCH   6   7
ENDBRANCH   1   6
TORSDOF 5
ENDMDL
MODEL 9
REMARK VINA RESULT:    -4.159      9.555     10.276
REMARK INTER + INTRA:          -5.541
REMARK INTER:                  -5.452
REMARK INTRA:                  -0.089
REMARK UNBOUND:                -0.166
REMARK SMILES CCCCCCC(=O)[O-]
REMARK SMILES IDX 5 1 6 2 7 3 8 4 9 5 4 6 3 7 2 8 1 9
REMARK H PARENT
REMARK Flexibility Score: inf
ROOT
ATOM      1  C   UNL     1      36.245 -10.744  20.613  1.00  0.00     0.006 C 
ENDROOT
BRANCH   1   2
ATOM      2  C   UNL     1      35.487  -9.591  21.289  1.00  0.00     0.053 C 
BRANCH   2   3
ATOM      3  C   UNL     1      34.275  -9.183  20.509  1.00  0.00     0.041 C 
ATOM      4  O   UNL     1      33.649  -8.133  20.810  1.00  0.00    -0.550 OA
ATOM      5  O   UNL     1      33.856  -9.948  19.427  1.00  0.00    -0.550 OA
ENDBRANCH   2   3
ENDBRANCH   1   2
BRANCH   1   6
ATOM      6  C   UNL     1      37.763 -10.741  20.871  1.00  0.00     0.000 C 
BRANCH   6   7
ATOM      7  C   UNL     1      38.220 -11.923  21.739  1.00  0.00    -0.000 C 
BRANCH   7   8
ATOM      8  C   UNL     1      39.458 -12.598  21.136  1.00  0.00    -0.003 C 
ATOM      9  C   UNL     1      39.393 -14.114  21.297  1.00  0.00     0.004 C 
ENDBRANCH   7   8
ENDBRANCH   6   7
ENDBRANCH   1   6
TORSDOF 5
ENDMDL
