MODEL 1
REMARK VINA RESULT:    -6.239      0.000      0.000
REMARK INTER + INTRA:          -7.184
REMARK INTER:                  -7.151
REMARK INTRA:                  -0.033
REMARK UNBOUND:                -0.033
REMARK SMILES C=C(C)[C@@H]1CC[C@]2(C(=O)[O-])CC[C@@]3(C)[C@H](CC[C@@H]4[C@@]5(C)CC[C@H](O)C(C)(C)[C@H]5CC[C@@]43C)[C@H]12
REMARK SMILES IDX 7 1 6 2 33 3 11 4 5 5 15 6 4 7 12 8 16 9 13 10 17 11 31 12
REMARK SMILES IDX 14 13 18 14 30 15 32 16 19 17 29 18 21 19 20 20 28 21 22 22
REMARK SMILES IDX 25 23 23 24 26 25 27 26 8 27 9 28 10 29 2 30 3 31 1 32 24 33
REMARK H PARENT 24 34
REMARK Flexibility Score: inf
ROOT
ATOM      1  C   UNL     1      70.361  53.686  17.840  1.00  0.00     0.014 C 
ATOM      2  C   UNL     1      69.493  52.874  16.847  1.00  0.00     0.014 C 
ATOM      3  C   UNL     1      69.364  54.042  18.949  1.00  0.00     0.012 C 
ATOM      4  C   UNL     1      71.592  52.959  18.493  1.00  0.00     0.014 C 
ATOM      5  C   UNL     1      68.205  52.350  17.557  1.00  0.00     0.009 C 
ATOM      6  C   UNL     1      70.037  54.826  20.184  1.00  0.00     0.000 C 
ATOM      7  C   UNL     1      68.357  52.815  19.039  1.00  0.00     0.018 C 
ATOM      8  C   UNL     1      72.429  53.901  19.346  1.00  0.00     0.008 C 
ATOM      9  C   UNL     1      69.154  54.605  21.422  1.00  0.00     0.005 C 
ATOM     10  C   UNL     1      71.651  54.791  20.382  1.00  0.00    -0.024 C 
ATOM     11  C   UNL     1      69.604  55.466  22.581  1.00  0.00     0.005 C 
ATOM     12  C   UNL     1      72.002  54.396  21.925  1.00  0.00    -0.024 C 
ATOM     13  C   UNL     1      72.203  56.251  20.011  1.00  0.00     0.012 C 
ATOM     14  C   UNL     1      71.060  55.128  22.998  1.00  0.00     0.002 C 
ATOM     15  C   UNL     1      73.505  54.694  22.280  1.00  0.00     0.008 C 
ATOM     16  C   UNL     1      71.835  52.842  22.084  1.00  0.00     0.012 C 
ATOM     17  C   UNL     1      71.704  56.367  23.869  1.00  0.00    -0.026 C 
ATOM     18  C   UNL     1      73.781  54.700  23.784  1.00  0.00     0.005 C 
ATOM     19  C   UNL     1      70.635  56.784  24.932  1.00  0.00     0.010 C 
ATOM     20  C   UNL     1      71.955  57.629  22.982  1.00  0.00     0.012 C 
ATOM     21  C   UNL     1      73.067  55.900  24.512  1.00  0.00     0.003 C 
ATOM     22  C   UNL     1      71.049  57.437  26.231  1.00  0.00     0.033 C 
ATOM     23  C   UNL     1      72.960  55.610  26.099  1.00  0.00    -0.006 C 
ATOM     24  C   UNL     1      72.424  56.949  26.733  1.00  0.00     0.120 C 
ATOM     25  C   UNL     1      72.033  54.393  26.451  1.00  0.00     0.014 C 
ATOM     26  C   UNL     1      74.373  55.324  26.647  1.00  0.00     0.014 C 
ENDROOT
BRANCH   1  27
ATOM     27  C   UNL     1      70.819  54.956  17.125  1.00  0.00     0.048 C 
ATOM     28  O   UNL     1      70.188  56.036  17.233  1.00  0.00    -0.550 OA
ATOM     29  O   UNL     1      71.828  54.822  16.152  1.00  0.00    -0.550 OA
ENDBRANCH   1  27
BRANCH   7  30
ATOM     30  C   UNL     1      68.599  51.498  19.868  1.00  0.00    -0.077 C 
ATOM     31  C   UNL     1      67.653  50.344  19.635  1.00  0.00     0.039 C 
ATOM     32  C   UNL     1      69.884  51.102  20.148  1.00  0.00     0.008 C 
ENDBRANCH   7  30
BRANCH  24  33
ATOM     33  O   UNL     1      73.304  58.052  26.580  1.00  0.00    -0.393 OA
ATOM     34  H   UNL     1      73.486  58.373  27.471  1.00  0.00     0.210 HD
ENDBRANCH  24  33
TORSDOF 3
ENDMDL
MODEL 2
REMARK VINA RESULT:    -6.032      1.841      4.002
REMARK INTER + INTRA:          -6.946
REMARK INTER:                  -6.312
REMARK INTRA:                  -0.634
REMARK UNBOUND:                -0.033
REMARK SMILES C=C(C)[C@@H]1CC[C@]2(C(=O)[O-])CC[C@@]3(C)[C@H](CC[C@@H]4[C@@]5(C)CC[C@H](O)C(C)(C)[C@H]5CC[C@@]43C)[C@H]12
REMARK SMILES IDX 7 1 6 2 33 3 11 4 5 5 15 6 4 7 12 8 16 9 13 10 17 11 31 12
REMARK SMILES IDX 14 13 18 14 30 15 32 16 19 17 29 18 21 19 20 20 28 21 22 22
REMARK SMILES IDX 25 23 23 24 26 25 27 26 8 27 9 28 10 29 2 30 3 31 1 32 24 33
REMARK H PARENT 24 34
REMARK Flexibility Score: inf
ROOT
ATOM      1  C   UNL     1      70.412  53.888  17.768  1.00  0.00     0.014 C 
ATOM      2  C   UNL     1      70.580  53.844  16.229  1.00  0.00     0.014 C 
ATOM      3  C   UNL     1      71.859  53.804  18.270  1.00  0.00     0.012 C 
ATOM      4  C   UNL     1      69.744  55.167  18.391  1.00  0.00     0.014 C 
ATOM      5  C   UNL     1      72.043  54.222  15.834  1.00  0.00     0.009 C 
ATOM      6  C   UNL     1      71.987  53.924  19.870  1.00  0.00     0.000 C 
ATOM      7  C   UNL     1      72.740  54.566  17.187  1.00  0.00     0.018 C 
ATOM      8  C   UNL     1      69.525  55.028  19.890  1.00  0.00     0.008 C 
ATOM      9  C   UNL     1      73.406  54.415  20.195  1.00  0.00     0.005 C 
ATOM     10  C   UNL     1      70.751  54.531  20.738  1.00  0.00    -0.024 C 
ATOM     11  C   UNL     1      73.678  54.369  21.682  1.00  0.00     0.005 C 
ATOM     12  C   UNL     1      71.311  55.680  21.751  1.00  0.00    -0.024 C 
ATOM     13  C   UNL     1      70.096  53.307  21.543  1.00  0.00     0.012 C 
ATOM     14  C   UNL     1      72.694  55.282  22.461  1.00  0.00     0.002 C 
ATOM     15  C   UNL     1      70.258  56.048  22.860  1.00  0.00     0.008 C 
ATOM     16  C   UNL     1      71.528  56.999  20.926  1.00  0.00     0.012 C 
ATOM     17  C   UNL     1      72.647  54.845  24.047  1.00  0.00    -0.026 C 
ATOM     18  C   UNL     1      70.860  56.821  24.032  1.00  0.00     0.005 C 
ATOM     19  C   UNL     1      74.129  54.668  24.517  1.00  0.00     0.010 C 
ATOM     20  C   UNL     1      71.956  53.458  24.245  1.00  0.00     0.012 C 
ATOM     21  C   UNL     1      71.866  55.942  24.868  1.00  0.00     0.003 C 
ATOM     22  C   UNL     1      74.508  54.848  25.970  1.00  0.00     0.033 C 
ATOM     23  C   UNL     1      72.832  56.886  25.758  1.00  0.00    -0.006 C 
ATOM     24  C   UNL     1      73.637  55.901  26.686  1.00  0.00     0.120 C 
ATOM     25  C   UNL     1      73.790  57.785  24.899  1.00  0.00     0.014 C 
ATOM     26  C   UNL     1      71.956  57.803  26.635  1.00  0.00     0.014 C 
ENDROOT
BRANCH   1  27
ATOM     27  C   UNL     1      69.643  52.636  18.186  1.00  0.00     0.048 C 
ATOM     28  O   UNL     1      70.233  51.567  18.477  1.00  0.00    -0.550 OA
ATOM     29  O   UNL     1      68.247  52.644  18.004  1.00  0.00    -0.550 OA
ENDBRANCH   1  27
BRANCH   7  30
ATOM     30  C   UNL     1      72.989  56.120  17.146  1.00  0.00    -0.077 C 
ATOM     31  C   UNL     1      74.386  56.610  17.441  1.00  0.00     0.039 C 
ATOM     32  C   UNL     1      72.325  56.887  16.219  1.00  0.00     0.008 C 
ENDBRANCH   7  30
BRANCH  24  33
ATOM     33  O   UNL     1      72.827  55.175  27.598  1.00  0.00    -0.393 OA
ATOM     34  H   UNL     1      72.444  55.830  28.193  1.00  0.00     0.210 HD
ENDBRANCH  24  33
TORSDOF 3
ENDMDL
MODEL 3
REMARK VINA RESULT:    -6.004      2.238      7.331
REMARK INTER + INTRA:          -6.914
REMARK INTER:                  -6.303
REMARK INTRA:                  -0.612
REMARK UNBOUND:                -0.033
REMARK SMILES C=C(C)[C@@H]1CC[C@]2(C(=O)[O-])CC[C@@]3(C)[C@H](CC[C@@H]4[C@@]5(C)CC[C@H](O)C(C)(C)[C@H]5CC[C@@]43C)[C@H]12
REMARK SMILES IDX 7 1 6 2 33 3 11 4 5 5 15 6 4 7 12 8 16 9 13 10 17 11 31 12
REMARK SMILES IDX 14 13 18 14 30 15 32 16 19 17 29 18 21 19 20 20 28 21 22 22
REMARK SMILES IDX 25 23 23 24 26 25 27 26 8 27 9 28 10 29 2 30 3 31 1 32 24 33
REMARK H PARENT 24 34
REMARK Flexibility Score: inf
ROOT
ATOM      1  C   UNL     1      70.515  55.693  25.942  1.00  0.00     0.014 C 
ATOM      2  C   UNL     1      70.622  55.178  27.398  1.00  0.00     0.014 C 
ATOM      3  C   UNL     1      71.977  55.700  25.476  1.00  0.00     0.012 C 
ATOM      4  C   UNL     1      69.674  54.837  24.927  1.00  0.00     0.014 C 
ATOM      5  C   UNL     1      71.985  54.446  27.615  1.00  0.00     0.009 C 
ATOM      6  C   UNL     1      72.151  56.116  23.931  1.00  0.00     0.000 C 
ATOM      7  C   UNL     1      72.673  54.476  26.215  1.00  0.00     0.018 C 
ATOM      8  C   UNL     1      69.545  55.517  23.572  1.00  0.00     0.008 C 
ATOM      9  C   UNL     1      73.483  55.534  23.433  1.00  0.00     0.005 C 
ATOM     10  C   UNL     1      70.871  56.061  22.928  1.00  0.00    -0.024 C 
ATOM     11  C   UNL     1      73.822  56.042  22.049  1.00  0.00     0.005 C 
ATOM     12  C   UNL     1      71.278  55.252  21.571  1.00  0.00    -0.024 C 
ATOM     13  C   UNL     1      70.460  57.578  22.605  1.00  0.00     0.012 C 
ATOM     14  C   UNL     1      72.737  55.631  21.019  1.00  0.00     0.002 C 
ATOM     15  C   UNL     1      70.227  55.469  20.421  1.00  0.00     0.008 C 
ATOM     16  C   UNL     1      71.241  53.713  21.886  1.00  0.00     0.012 C 
ATOM     17  C   UNL     1      72.831  56.586  19.682  1.00  0.00    -0.026 C 
ATOM     18  C   UNL     1      70.745  55.055  19.043  1.00  0.00     0.005 C 
ATOM     19  C   UNL     1      74.340  56.661  19.278  1.00  0.00     0.010 C 
ATOM     20  C   UNL     1      72.385  58.052  19.986  1.00  0.00     0.012 C 
ATOM     21  C   UNL     1      71.916  55.985  18.546  1.00  0.00     0.003 C 
ATOM     22  C   UNL     1      74.746  56.929  17.847  1.00  0.00     0.033 C 
ATOM     23  C   UNL     1      72.752  55.255  17.370  1.00  0.00    -0.006 C 
ATOM     24  C   UNL     1      73.746  56.348  16.825  1.00  0.00     0.120 C 
ATOM     25  C   UNL     1      73.512  53.969  17.849  1.00  0.00     0.014 C 
ATOM     26  C   UNL     1      71.776  54.856  16.244  1.00  0.00     0.014 C 
ENDROOT
BRANCH   1  27
ATOM     27  C   UNL     1      69.980  57.123  25.994  1.00  0.00     0.048 C 
ATOM     28  O   UNL     1      70.745  58.108  26.135  1.00  0.00    -0.550 OA
ATOM     29  O   UNL     1      68.588  57.288  26.122  1.00  0.00    -0.550 OA
ENDBRANCH   1  27
BRANCH   7  30
ATOM     30  C   UNL     1      72.662  52.984  25.712  1.00  0.00    -0.077 C 
ATOM     31  C   UNL     1      73.903  52.472  25.021  1.00  0.00     0.039 C 
ATOM     32  C   UNL     1      72.017  52.025  26.455  1.00  0.00     0.008 C 
ENDBRANCH   7  30
BRANCH  24  33
ATOM     33  O   UNL     1      73.105  57.468  16.233  1.00  0.00    -0.393 OA
ATOM     34  H   UNL     1      72.518  57.112  15.557  1.00  0.00     0.210 HD
ENDBRANCH  24  33
TORSDOF 3
ENDMDL
MODEL 4
REMARK VINA RESULT:    -5.957      2.733      7.097
REMARK INTER + INTRA:          -6.861
REMARK INTER:                  -6.360
REMARK INTRA:                  -0.501
REMARK UNBOUND:                -0.033
REMARK SMILES C=C(C)[C@@H]1CC[C@]2(C(=O)[O-])CC[C@@]3(C)[C@H](CC[C@@H]4[C@@]5(C)CC[C@H](O)C(C)(C)[C@H]5CC[C@@]43C)[C@H]12
REMARK SMILES IDX 7 1 6 2 33 3 11 4 5 5 15 6 4 7 12 8 16 9 13 10 17 11 31 12
REMARK SMILES IDX 14 13 18 14 30 15 32 16 19 17 29 18 21 19 20 20 28 21 22 22
REMARK SMILES IDX 25 23 23 24 26 25 27 26 8 27 9 28 10 29 2 30 3 31 1 32 24 33
REMARK H PARENT 24 34
REMARK Flexibility Score: inf
ROOT
ATOM      1  C   UNL     1      72.052  52.377  24.940  1.00  0.00     0.014 C 
ATOM      2  C   UNL     1      71.989  52.243  26.482  1.00  0.00     0.014 C 
ATOM      3  C   UNL     1      71.090  53.538  24.661  1.00  0.00     0.012 C 
ATOM      4  C   UNL     1      73.445  52.718  24.297  1.00  0.00     0.014 C 
ATOM      5  C   UNL     1      71.428  53.555  27.117  1.00  0.00     0.009 C 
ATOM      6  C   UNL     1      71.034  53.959  23.108  1.00  0.00     0.000 C 
ATOM      7  C   UNL     1      71.219  54.518  25.907  1.00  0.00     0.018 C 
ATOM      8  C   UNL     1      73.395  52.696  22.777  1.00  0.00     0.008 C 
ATOM      9  C   UNL     1      70.557  55.418  23.031  1.00  0.00     0.005 C 
ATOM     10  C   UNL     1      72.221  53.490  22.098  1.00  0.00    -0.024 C 
ATOM     11  C   UNL     1      70.287  55.834  21.602  1.00  0.00     0.005 C 
ATOM     12  C   UNL     1      72.753  54.777  21.249  1.00  0.00    -0.024 C 
ATOM     13  C   UNL     1      71.602  52.366  21.135  1.00  0.00     0.012 C 
ATOM     14  C   UNL     1      71.570  55.733  20.736  1.00  0.00     0.002 C 
ATOM     15  C   UNL     1      73.628  54.345  20.015  1.00  0.00     0.008 C 
ATOM     16  C   UNL     1      73.712  55.612  22.171  1.00  0.00     0.012 C 
ATOM     17  C   UNL     1      71.175  55.680  19.139  1.00  0.00    -0.026 C 
ATOM     18  C   UNL     1      73.827  55.465  18.994  1.00  0.00     0.005 C 
ATOM     19  C   UNL     1      70.120  56.808  18.891  1.00  0.00     0.010 C 
ATOM     20  C   UNL     1      70.476  54.336  18.760  1.00  0.00     0.012 C 
ATOM     21  C   UNL     1      72.482  55.854  18.273  1.00  0.00     0.003 C 
ATOM     22  C   UNL     1      69.967  57.440  17.526  1.00  0.00     0.033 C 
ATOM     23  C   UNL     1      72.611  57.317  17.595  1.00  0.00    -0.006 C 
ATOM     24  C   UNL     1      71.298  57.501  16.746  1.00  0.00     0.120 C 
ATOM     25  C   UNL     1      72.791  58.475  18.639  1.00  0.00     0.014 C 
ATOM     26  C   UNL     1      73.828  57.318  16.648  1.00  0.00     0.014 C 
ENDROOT
BRANCH   1  27
ATOM     27  C   UNL     1      71.497  51.086  24.340  1.00  0.00     0.048 C 
ATOM     28  O   UNL     1      70.334  51.025  23.872  1.00  0.00    -0.550 OA
ATOM     29  O   UNL     1      72.239  49.907  24.543  1.00  0.00    -0.550 OA
ENDBRANCH   1  27
BRANCH   7  30
ATOM     30  C   UNL     1      72.310  55.641  26.073  1.00  0.00    -0.077 C 
ATOM     31  C   UNL     1      71.833  57.072  26.145  1.00  0.00     0.039 C 
ATOM     32  C   UNL     1      73.420  55.396  26.845  1.00  0.00     0.008 C 
ENDBRANCH   7  30
BRANCH  24  33
ATOM     33  O   UNL     1      71.164  56.571  15.682  1.00  0.00    -0.393 OA
ATOM     34  H   UNL     1      70.270  56.684  15.340  1.00  0.00     0.210 HD
ENDBRANCH  24  33
TORSDOF 3
ENDMDL
MODEL 5
REMARK VINA RESULT:    -5.946      3.574      6.463
REMARK INTER + INTRA:          -6.848
REMARK INTER:                  -6.697
REMARK INTRA:                  -0.151
REMARK UNBOUND:                -0.033
REMARK SMILES C=C(C)[C@@H]1CC[C@]2(C(=O)[O-])CC[C@@]3(C)[C@H](CC[C@@H]4[C@@]5(C)CC[C@H](O)C(C)(C)[C@H]5CC[C@@]43C)[C@H]12
REMARK SMILES IDX 7 1 6 2 33 3 11 4 5 5 15 6 4 7 12 8 16 9 13 10 17 11 31 12
REMARK SMILES IDX 14 13 18 14 30 15 32 16 19 17 29 18 21 19 20 20 28 21 22 22
REMARK SMILES IDX 25 23 23 24 26 25 27 26 8 27 9 28 10 29 2 30 3 31 1 32 24 33
REMARK H PARENT 24 34
REMARK Flexibility Score: inf
ROOT
ATOM      1  C   UNL     1      74.275  53.811  24.659  1.00  0.00     0.014 C 
ATOM      2  C   UNL     1      75.231  52.598  24.784  1.00  0.00     0.014 C 
ATOM      3  C   UNL     1      73.246  53.327  23.630  1.00  0.00     0.012 C 
ATOM      4  C   UNL     1      73.508  54.269  25.952  1.00  0.00     0.014 C 
ATOM      5  C   UNL     1      74.534  51.304  24.257  1.00  0.00     0.009 C 
ATOM      6  C   UNL     1      72.057  54.381  23.374  1.00  0.00     0.000 C 
ATOM      7  C   UNL     1      73.093  51.762  23.871  1.00  0.00     0.018 C 
ATOM      8  C   UNL     1      72.705  55.541  25.722  1.00  0.00     0.008 C 
ATOM      9  C   UNL     1      70.844  53.604  22.839  1.00  0.00     0.005 C 
ATOM     10  C   UNL     1      71.786  55.573  24.448  1.00  0.00    -0.024 C 
ATOM     11  C   UNL     1      69.746  54.540  22.386  1.00  0.00     0.005 C 
ATOM     12  C   UNL     1      70.201  55.614  24.828  1.00  0.00    -0.024 C 
ATOM     13  C   UNL     1      72.259  56.943  23.759  1.00  0.00     0.012 C 
ATOM     14  C   UNL     1      69.237  55.419  23.559  1.00  0.00     0.002 C 
ATOM     15  C   UNL     1      69.808  56.947  25.565  1.00  0.00     0.008 C 
ATOM     16  C   UNL     1      69.914  54.465  25.861  1.00  0.00     0.012 C 
ATOM     17  C   UNL     1      68.451  56.743  22.979  1.00  0.00    -0.026 C 
ATOM     18  C   UNL     1      68.300  57.195  25.601  1.00  0.00     0.005 C 
ATOM     19  C   UNL     1      67.476  56.244  21.863  1.00  0.00     0.010 C 
ATOM     20  C   UNL     1      69.433  57.743  22.288  1.00  0.00     0.012 C 
ATOM     21  C   UNL     1      67.711  57.472  24.166  1.00  0.00     0.003 C 
ATOM     22  C   UNL     1      66.222  57.019  21.526  1.00  0.00     0.033 C 
ATOM     23  C   UNL     1      66.111  57.240  24.161  1.00  0.00    -0.006 C 
ATOM     24  C   UNL     1      65.621  57.739  22.751  1.00  0.00     0.120 C 
ATOM     25  C   UNL     1      65.694  55.750  24.424  1.00  0.00     0.014 C 
ATOM     26  C   UNL     1      65.479  58.124  25.256  1.00  0.00     0.014 C 
ENDROOT
BRANCH   1  27
ATOM     27  C   UNL     1      75.078  54.976  24.082  1.00  0.00     0.048 C 
ATOM     28  O   UNL     1      75.203  55.141  22.844  1.00  0.00    -0.550 OA
ATOM     29  O   UNL     1      75.872  55.719  24.976  1.00  0.00    -0.550 OA
ENDBRANCH   1  27
BRANCH   7  30
ATOM     30  C   UNL     1      72.143  51.094  24.934  1.00  0.00    -0.077 C 
ATOM     31  C   UNL     1      72.055  49.586  24.940  1.00  0.00     0.039 C 
ATOM     32  C   UNL     1      72.028  51.652  26.184  1.00  0.00     0.008 C 
ENDBRANCH   7  30
BRANCH  24  33
ATOM     33  O   UNL     1      65.831  59.125  22.524  1.00  0.00    -0.393 OA
ATOM     34  H   UNL     1      66.008  59.512  23.388  1.00  0.00     0.210 HD
ENDBRANCH  24  33
TORSDOF 3
ENDMDL
MODEL 6
REMARK VINA RESULT:    -5.817      2.798      7.424
REMARK INTER + INTRA:          -6.700
REMARK INTER:                  -6.438
REMARK INTRA:                  -0.262
REMARK UNBOUND:                -0.033
REMARK SMILES C=C(C)[C@@H]1CC[C@]2(C(=O)[O-])CC[C@@]3(C)[C@H](CC[C@@H]4[C@@]5(C)CC[C@H](O)C(C)(C)[C@H]5CC[C@@]43C)[C@H]12
REMARK SMILES IDX 7 1 6 2 33 3 11 4 5 5 15 6 4 7 12 8 16 9 13 10 17 11 31 12
REMARK SMILES IDX 14 13 18 14 30 15 32 16 19 17 29 18 21 19 20 20 28 21 22 22
REMARK SMILES IDX 25 23 23 24 26 25 27 26 8 27 9 28 10 29 2 30 3 31 1 32 24 33
REMARK H PARENT 24 34
REMARK Flexibility Score: inf
ROOT
ATOM      1  C   UNL     1      68.108  57.017  25.057  1.00  0.00     0.014 C 
ATOM      2  C   UNL     1      66.888  57.434  25.915  1.00  0.00     0.014 C 
ATOM      3  C   UNL     1      67.464  56.220  23.916  1.00  0.00     0.012 C 
ATOM      4  C   UNL     1      68.983  58.163  24.432  1.00  0.00     0.014 C 
ATOM      5  C   UNL     1      65.575  57.332  25.074  1.00  0.00     0.009 C 
ATOM      6  C   UNL     1      68.520  55.735  22.802  1.00  0.00     0.000 C 
ATOM      7  C   UNL     1      66.052  56.903  23.652  1.00  0.00     0.018 C 
ATOM      8  C   UNL     1      70.216  57.621  23.723  1.00  0.00     0.008 C 
ATOM      9  C   UNL     1      67.752  55.504  21.492  1.00  0.00     0.005 C 
ATOM     10  C   UNL     1      69.985  56.438  22.715  1.00  0.00    -0.024 C 
ATOM     11  C   UNL     1      68.632  54.858  20.444  1.00  0.00     0.005 C 
ATOM     12  C   UNL     1      70.291  56.869  21.172  1.00  0.00    -0.024 C 
ATOM     13  C   UNL     1      71.054  55.365  23.247  1.00  0.00     0.012 C 
ATOM     14  C   UNL     1      69.850  55.757  20.102  1.00  0.00     0.002 C 
ATOM     15  C   UNL     1      71.809  57.215  20.949  1.00  0.00     0.008 C 
ATOM     16  C   UNL     1      69.510  58.198  20.870  1.00  0.00     0.012 C 
ATOM     17  C   UNL     1      71.033  54.864  19.387  1.00  0.00    -0.026 C 
ATOM     18  C   UNL     1      72.209  57.254  19.474  1.00  0.00     0.005 C 
ATOM     19  C   UNL     1      70.344  53.986  18.291  1.00  0.00     0.010 C 
ATOM     20  C   UNL     1      71.696  53.870  20.394  1.00  0.00     0.012 C 
ATOM     21  C   UNL     1      72.135  55.831  18.803  1.00  0.00     0.003 C 
ATOM     22  C   UNL     1      71.118  53.505  17.085  1.00  0.00     0.033 C 
ATOM     23  C   UNL     1      72.074  55.972  17.193  1.00  0.00    -0.006 C 
ATOM     24  C   UNL     1      72.208  54.503  16.640  1.00  0.00     0.120 C 
ATOM     25  C   UNL     1      70.766  56.667  16.675  1.00  0.00     0.014 C 
ATOM     26  C   UNL     1      73.287  56.800  16.723  1.00  0.00     0.014 C 
ENDROOT
BRANCH   1  27
ATOM     27  C   UNL     1      68.979  56.094  25.908  1.00  0.00     0.048 C 
ATOM     28  O   UNL     1      68.590  54.950  26.248  1.00  0.00    -0.550 OA
ATOM     29  O   UNL     1      70.127  56.654  26.501  1.00  0.00    -0.550 OA
ENDBRANCH   1  27
BRANCH   7  30
ATOM     30  C   UNL     1      65.806  58.158  22.733  1.00  0.00    -0.077 C 
ATOM     31  C   UNL     1      65.826  57.942  21.239  1.00  0.00     0.039 C 
ATOM     32  C   UNL     1      64.915  59.125  23.133  1.00  0.00     0.008 C 
ENDBRANCH   7  30
BRANCH  24  33
ATOM     33  O   UNL     1      73.447  53.882  16.947  1.00  0.00    -0.393 OA
ATOM     34  H   UNL     1      73.576  53.199  16.279  1.00  0.00     0.210 HD
ENDBRANCH  24  33
TORSDOF 3
ENDMDL
MODEL 7
REMARK VINA RESULT:    -5.716      2.378      7.123
REMARK INTER + INTRA:          -6.584
REMARK INTER:                  -6.551
REMARK INTRA:                  -0.033
REMARK UNBOUND:                -0.033
REMARK SMILES C=C(C)[C@@H]1CC[C@]2(C(=O)[O-])CC[C@@]3(C)[C@H](CC[C@@H]4[C@@]5(C)CC[C@H](O)C(C)(C)[C@H]5CC[C@@]43C)[C@H]12
REMARK SMILES IDX 7 1 6 2 33 3 11 4 5 5 15 6 4 7 12 8 16 9 13 10 17 11 31 12
REMARK SMILES IDX 14 13 18 14 30 15 32 16 19 17 29 18 21 19 20 20 28 21 22 22
REMARK SMILES IDX 25 23 23 24 26 25 27 26 8 27 9 28 10 29 2 30 3 31 1 32 24 33
REMARK H PARENT 24 34
REMARK Flexibility Score: inf
ROOT
ATOM      1  C   UNL     1      71.603  53.959  25.762  1.00  0.00     0.014 C 
ATOM      2  C   UNL     1      71.518  52.931  26.918  1.00  0.00     0.014 C 
ATOM      3  C   UNL     1      72.751  53.412  24.905  1.00  0.00     0.012 C 
ATOM      4  C   UNL     1      70.337  54.130  24.846  1.00  0.00     0.014 C 
ATOM      5  C   UNL     1      72.219  51.597  26.507  1.00  0.00     0.009 C 
ATOM      6  C   UNL     1      72.999  54.257  23.558  1.00  0.00     0.000 C 
ATOM      7  C   UNL     1      72.673  51.829  25.033  1.00  0.00     0.018 C 
ATOM      8  C   UNL     1      70.508  55.254  23.836  1.00  0.00     0.008 C 
ATOM      9  C   UNL     1      73.700  53.338  22.546  1.00  0.00     0.005 C 
ATOM     10  C   UNL     1      71.842  55.259  23.006  1.00  0.00    -0.024 C 
ATOM     11  C   UNL     1      74.148  54.106  21.322  1.00  0.00     0.005 C 
ATOM     12  C   UNL     1      71.586  54.973  21.420  1.00  0.00    -0.024 C 
ATOM     13  C   UNL     1      72.358  56.758  23.256  1.00  0.00     0.012 C 
ATOM     14  C   UNL     1      72.940  54.747  20.589  1.00  0.00     0.002 C 
ATOM     15  C   UNL     1      70.759  56.126  20.742  1.00  0.00     0.008 C 
ATOM     16  C   UNL     1      70.694  53.687  21.291  1.00  0.00     0.012 C 
ATOM     17  C   UNL     1      73.452  55.964  19.606  1.00  0.00    -0.026 C 
ATOM     18  C   UNL     1      70.820  56.095  19.215  1.00  0.00     0.005 C 
ATOM     19  C   UNL     1      74.685  55.421  18.810  1.00  0.00     0.010 C 
ATOM     20  C   UNL     1      73.965  57.192  20.424  1.00  0.00     0.012 C 
ATOM     21  C   UNL     1      72.264  56.416  18.672  1.00  0.00     0.003 C 
ATOM     22  C   UNL     1      75.045  55.991  17.457  1.00  0.00     0.033 C 
ATOM     23  C   UNL     1      72.418  55.902  17.147  1.00  0.00    -0.006 C 
ATOM     24  C   UNL     1      73.809  56.455  16.658  1.00  0.00     0.120 C 
ATOM     25  C   UNL     1      72.332  54.342  17.000  1.00  0.00     0.014 C 
ATOM     26  C   UNL     1      71.297  56.536  16.296  1.00  0.00     0.014 C 
ENDROOT
BRANCH   1  27
ATOM     27  C   UNL     1      72.000  55.304  26.367  1.00  0.00     0.048 C 
ATOM     28  O   UNL     1      73.195  55.577  26.639  1.00  0.00    -0.550 OA
ATOM     29  O   UNL     1      70.964  56.135  26.833  1.00  0.00    -0.550 OA
ENDBRANCH   1  27
BRANCH   7  30
ATOM     30  C   UNL     1      71.757  50.890  24.161  1.00  0.00    -0.077 C 
ATOM     31  C   UNL     1      71.652  49.442  24.574  1.00  0.00     0.039 C 
ATOM     32  C   UNL     1      70.598  51.389  23.620  1.00  0.00     0.008 C 
ENDBRANCH   7  30
BRANCH  24  33
ATOM     33  O   UNL     1      73.885  57.872  16.620  1.00  0.00    -0.393 OA
ATOM     34  H   UNL     1      73.114  58.167  16.122  1.00  0.00     0.210 HD
ENDBRANCH  24  33
TORSDOF 3
ENDMDL
MODEL 8
REMARK VINA RESULT:    -5.653      2.125      4.644
REMARK INTER + INTRA:          -6.512
REMARK INTER:                  -5.874
REMARK INTRA:                  -0.638
REMARK UNBOUND:                -0.033
REMARK SMILES C=C(C)[C@@H]1CC[C@]2(C(=O)[O-])CC[C@@]3(C)[C@H](CC[C@@H]4[C@@]5(C)CC[C@H](O)C(C)(C)[C@H]5CC[C@@]43C)[C@H]12
REMARK SMILES IDX 7 1 6 2 33 3 11 4 5 5 15 6 4 7 12 8 16 9 13 10 17 11 31 12
REMARK SMILES IDX 14 13 18 14 30 15 32 16 19 17 29 18 21 19 20 20 28 21 22 22
REMARK SMILES IDX 25 23 23 24 26 25 27 26 8 27 9 28 10 29 2 30 3 31 1 32 24 33
REMARK H PARENT 24 34
REMARK Flexibility Score: inf
ROOT
ATOM      1  C   UNL     1      71.524  55.323  17.427  1.00  0.00     0.014 C 
ATOM      2  C   UNL     1      72.229  55.799  16.133  1.00  0.00     0.014 C 
ATOM      3  C   UNL     1      72.597  55.545  18.500  1.00  0.00     0.012 C 
ATOM      4  C   UNL     1      70.218  56.081  17.865  1.00  0.00     0.014 C 
ATOM      5  C   UNL     1      73.445  56.714  16.485  1.00  0.00     0.009 C 
ATOM      6  C   UNL     1      72.087  55.212  19.990  1.00  0.00     0.000 C 
ATOM      7  C   UNL     1      73.410  56.832  18.040  1.00  0.00     0.018 C 
ATOM      8  C   UNL     1      69.559  55.436  19.075  1.00  0.00     0.008 C 
ATOM      9  C   UNL     1      72.965  55.998  20.976  1.00  0.00     0.005 C 
ATOM     10  C   UNL     1      70.492  55.113  20.297  1.00  0.00    -0.024 C 
ATOM     11  C   UNL     1      72.684  55.592  22.406  1.00  0.00     0.005 C 
ATOM     12  C   UNL     1      70.134  56.018  21.606  1.00  0.00    -0.024 C 
ATOM     13  C   UNL     1      70.155  53.564  20.544  1.00  0.00     0.012 C 
ATOM     14  C   UNL     1      71.208  55.875  22.791  1.00  0.00     0.002 C 
ATOM     15  C   UNL     1      68.704  55.688  22.174  1.00  0.00     0.008 C 
ATOM     16  C   UNL     1      70.071  57.523  21.161  1.00  0.00     0.012 C 
ATOM     17  C   UNL     1      70.784  54.989  24.111  1.00  0.00    -0.026 C 
ATOM     18  C   UNL     1      68.479  56.220  23.589  1.00  0.00     0.005 C 
ATOM     19  C   UNL     1      71.936  55.148  25.158  1.00  0.00     0.010 C 
ATOM     20  C   UNL     1      70.699  53.464  23.782  1.00  0.00     0.012 C 
ATOM     21  C   UNL     1      69.387  55.488  24.648  1.00  0.00     0.003 C 
ATOM     22  C   UNL     1      71.665  54.991  26.637  1.00  0.00     0.033 C 
ATOM     23  C   UNL     1      69.499  56.371  25.998  1.00  0.00    -0.006 C 
ATOM     24  C   UNL     1      70.249  55.455  27.036  1.00  0.00     0.120 C 
ATOM     25  C   UNL     1      70.242  57.738  25.792  1.00  0.00     0.014 C 
ATOM     26  C   UNL     1      68.076  56.662  26.518  1.00  0.00     0.014 C 
ENDROOT
BRANCH   1  27
ATOM     27  C   UNL     1      71.240  53.829  17.277  1.00  0.00     0.048 C 
ATOM     28  O   UNL     1      72.091  52.962  17.594  1.00  0.00    -0.550 OA
ATOM     29  O   UNL     1      70.092  53.459  16.551  1.00  0.00    -0.550 OA
ENDBRANCH   1  27
BRANCH   7  30
ATOM     30  C   UNL     1      72.999  58.323  18.336  1.00  0.00    -0.077 C 
ATOM     31  C   UNL     1      73.872  59.111  19.283  1.00  0.00     0.039 C 
ATOM     32  C   UNL     1      72.454  59.086  17.333  1.00  0.00     0.008 C 
ENDBRANCH   7  30
BRANCH  24  33
ATOM     33  O   UNL     1      69.540  54.274  27.380  1.00  0.00    -0.393 OA
ATOM     34  H   UNL     1      68.965  54.513  28.116  1.00  0.00     0.210 HD
ENDBRANCH  24  33
TORSDOF 3
ENDMDL
MODEL 9
REMARK VINA RESULT:    -5.639      3.263      4.733
REMARK INTER + INTRA:          -6.496
REMARK INTER:                  -5.955
REMARK INTRA:                  -0.541
REMARK UNBOUND:                -0.033
REMARK SMILES C=C(C)[C@@H]1CC[C@]2(C(=O)[O-])CC[C@@]3(C)[C@H](CC[C@@H]4[C@@]5(C)CC[C@H](O)C(C)(C)[C@H]5CC[C@@]43C)[C@H]12
REMARK SMILES IDX 7 1 6 2 33 3 11 4 5 5 15 6 4 7 12 8 16 9 13 10 17 11 31 12
REMARK SMILES IDX 14 13 18 14 30 15 32 16 19 17 29 18 21 19 20 20 28 21 22 22
REMARK SMILES IDX 25 23 23 24 26 25 27 26 8 27 9 28 10 29 2 30 3 31 1 32 24 33
REMARK H PARENT 24 34
REMARK Flexibility Score: inf
ROOT
ATOM      1  C   UNL     1      71.063  56.915  17.327  1.00  0.00     0.014 C 
ATOM      2  C   UNL     1      71.860  56.145  16.245  1.00  0.00     0.014 C 
ATOM      3  C   UNL     1      70.034  55.878  17.794  1.00  0.00     0.012 C 
ATOM      4  C   UNL     1      71.854  57.431  18.583  1.00  0.00     0.014 C 
ATOM      5  C   UNL     1      71.656  54.606  16.417  1.00  0.00     0.009 C 
ATOM      6  C   UNL     1      69.113  56.396  19.009  1.00  0.00     0.000 C 
ATOM      7  C   UNL     1      70.760  54.467  17.687  1.00  0.00     0.018 C 
ATOM      8  C   UNL     1      70.984  58.277  19.501  1.00  0.00     0.008 C 
ATOM      9  C   UNL     1      68.581  55.163  19.756  1.00  0.00     0.005 C 
ATOM     10  C   UNL     1      69.583  57.680  19.890  1.00  0.00    -0.024 C 
ATOM     11  C   UNL     1      67.550  55.551  20.792  1.00  0.00     0.005 C 
ATOM     12  C   UNL     1      69.483  57.317  21.477  1.00  0.00    -0.024 C 
ATOM     13  C   UNL     1      68.610  58.897  19.505  1.00  0.00     0.012 C 
ATOM     14  C   UNL     1      68.155  56.501  21.860  1.00  0.00     0.002 C 
ATOM     15  C   UNL     1      69.568  58.602  22.380  1.00  0.00     0.008 C 
ATOM     16  C   UNL     1      70.736  56.451  21.862  1.00  0.00     0.012 C 
ATOM     17  C   UNL     1      66.957  57.307  22.649  1.00  0.00    -0.026 C 
ATOM     18  C   UNL     1      69.107  58.362  23.817  1.00  0.00     0.005 C 
ATOM     19  C   UNL     1      65.870  56.250  23.033  1.00  0.00     0.010 C 
ATOM     20  C   UNL     1      66.250  58.346  21.721  1.00  0.00     0.012 C 
ATOM     21  C   UNL     1      67.565  58.050  23.901  1.00  0.00     0.003 C 
ATOM     22  C   UNL     1      64.958  56.471  24.218  1.00  0.00     0.033 C 
ATOM     23  C   UNL     1      67.212  57.332  25.306  1.00  0.00    -0.006 C 
ATOM     24  C   UNL     1      65.640  57.261  25.355  1.00  0.00     0.120 C 
ATOM     25  C   UNL     1      67.860  55.911  25.462  1.00  0.00     0.014 C 
ATOM     26  C   UNL     1      67.712  58.227  26.458  1.00  0.00     0.014 C 
ENDROOT
BRANCH   1  27
ATOM     27  C   UNL     1      70.352  58.079  16.638  1.00  0.00     0.048 C 
ATOM     28  O   UNL     1      69.137  58.018  16.329  1.00  0.00    -0.550 OA
ATOM     29  O   UNL     1      71.153  59.125  16.144  1.00  0.00    -0.550 OA
ENDBRANCH   1  27
BRANCH   7  30
ATOM     30  C   UNL     1      71.693  53.838  18.788  1.00  0.00    -0.077 C 
ATOM     31  C   UNL     1      71.159  52.654  19.560  1.00  0.00     0.039 C 
ATOM     32  C   UNL     1      73.049  53.785  18.577  1.00  0.00     0.008 C 
ENDBRANCH   7  30
BRANCH  24  33
ATOM     33  O   UNL     1      65.005  58.530  25.377  1.00  0.00    -0.393 OA
ATOM     34  H   UNL     1      64.889  58.787  24.455  1.00  0.00     0.210 HD
ENDBRANCH  24  33
TORSDOF 3
ENDMDL
