MODEL 1
REMARK VINA RESULT:    -4.108      0.000      0.000
REMARK INTER + INTRA:          -5.559
REMARK INTER:                  -5.069
REMARK INTRA:                  -0.490
REMARK UNBOUND:                -0.490
REMARK SMILES CCCCC=CC(C)=O
REMARK SMILES IDX 4 1 3 2 2 3 1 4 5 5 6 6 7 7 9 8 8 9
REMARK H PARENT
REMARK Flexibility Score: inf
ROOT
ATOM      1  C   UNL     1      29.209  57.797  10.974  1.00  0.00     0.027 C 
ENDROOT
BRANCH   1   2
ATOM      2  C   UNL     1      29.663  58.722  12.107  1.00  0.00     0.004 C 
BRANCH   2   3
ATOM      3  C   UNL     1      28.614  58.782  13.223  1.00  0.00    -0.003 C 
ATOM      4  C   UNL     1      27.439  57.855  12.928  1.00  0.00     0.004 C 
ENDBRANCH   2   3
ENDBRANCH   1   2
BRANCH   1   5
ATOM      5  C   UNL     1      30.288  56.803  10.636  1.00  0.00    -0.023 C 
ATOM      6  C   UNL     1      30.292  55.507  10.985  1.00  0.00     0.042 C 
BRANCH   6   7
ATOM      7  C   UNL     1      29.202  54.797  11.682  1.00  0.00     0.152 C 
ATOM      8  O   UNL     1      29.246  54.705  12.937  1.00  0.00    -0.295 OA
ATOM      9  C   UNL     1      28.096  54.105  10.945  1.00  0.00     0.093 C 
ENDBRANCH   6   7
ENDBRANCH   1   5
TORSDOF 4
ENDMDL
MODEL 2
REMARK VINA RESULT:    -4.088      6.810      8.912
REMARK INTER + INTRA:          -5.534
REMARK INTER:                  -5.010
REMARK INTRA:                  -0.524
REMARK UNBOUND:                -0.490
REMARK SMILES CCCCC=CC(C)=O
REMARK SMILES IDX 4 1 3 2 2 3 1 4 5 5 6 6 7 7 9 8 8 9
REMARK H PARENT
REMARK Flexibility Score: inf
ROOT
ATOM      1  C   UNL     1      29.356  48.366  16.627  1.00  0.00     0.027 C 
ENDROOT
BRANCH   1   2
ATOM      2  C   UNL     1      29.819  47.427  15.508  1.00  0.00     0.004 C 
BRANCH   2   3
ATOM      3  C   UNL     1      28.783  47.360  14.381  1.00  0.00    -0.003 C 
ATOM      4  C   UNL     1      27.539  48.175  14.724  1.00  0.00     0.004 C 
ENDBRANCH   2   3
ENDBRANCH   1   2
BRANCH   1   5
ATOM      5  C   UNL     1      30.403  49.409  16.910  1.00  0.00    -0.023 C 
ATOM      6  C   UNL     1      30.296  50.718  16.634  1.00  0.00     0.042 C 
BRANCH   6   7
ATOM      7  C   UNL     1      29.102  51.389  16.087  1.00  0.00     0.152 C 
ATOM      8  O   UNL     1      28.164  51.690  16.873  1.00  0.00    -0.295 OA
ATOM      9  C   UNL     1      28.924  51.644  14.621  1.00  0.00     0.093 C 
ENDBRANCH   6   7
ENDBRANCH   1   5
TORSDOF 4
ENDMDL
MODEL 3
REMARK VINA RESULT:    -4.003      5.645      6.826
REMARK INTER + INTRA:          -5.429
REMARK INTER:                  -4.862
REMARK INTRA:                  -0.566
REMARK UNBOUND:                -0.490
REMARK SMILES CCCCC=CC(C)=O
REMARK SMILES IDX 4 1 3 2 2 3 1 4 5 5 6 6 7 7 9 8 8 9
REMARK H PARENT
REMARK Flexibility Score: inf
ROOT
ATOM      1  C   UNL     1      25.276  51.949   7.935  1.00  0.00     0.027 C 
ENDROOT
BRANCH   1   2
ATOM      2  C   UNL     1      26.720  51.566   8.272  1.00  0.00     0.004 C 
BRANCH   2   3
ATOM      3  C   UNL     1      27.184  52.249   9.564  1.00  0.00    -0.003 C 
ATOM      4  C   UNL     1      26.100  52.196  10.637  1.00  0.00     0.004 C 
ENDBRANCH   2   3
ENDBRANCH   1   2
BRANCH   1   5
ATOM      5  C   UNL     1      25.245  53.058   6.918  1.00  0.00    -0.023 C 
ATOM      6  C   UNL     1      24.875  54.326   7.157  1.00  0.00     0.042 C 
BRANCH   6   7
ATOM      7  C   UNL     1      24.522  54.888   8.474  1.00  0.00     0.152 C 
ATOM      8  O   UNL     1      25.434  55.394   9.180  1.00  0.00    -0.295 OA
ATOM      9  C   UNL     1      23.137  54.798   9.040  1.00  0.00     0.093 C 
ENDBRANCH   6   7
ENDBRANCH   1   5
TORSDOF 4
ENDMDL
MODEL 4
REMARK VINA RESULT:    -3.983      1.497      1.881
REMARK INTER + INTRA:          -5.405
REMARK INTER:                  -4.974
REMARK INTRA:                  -0.430
REMARK UNBOUND:                -0.490
REMARK SMILES CCCCC=CC(C)=O
REMARK SMILES IDX 4 1 3 2 2 3 1 4 5 5 6 6 7 7 9 8 8 9
REMARK H PARENT
REMARK Flexibility Score: inf
ROOT
ATOM      1  C   UNL     1      29.783  56.959  10.574  1.00  0.00     0.027 C 
ENDROOT
BRANCH   1   2
ATOM      2  C   UNL     1      30.445  57.736  11.716  1.00  0.00     0.004 C 
BRANCH   2   3
ATOM      3  C   UNL     1      29.636  58.988  12.071  1.00  0.00    -0.003 C 
ATOM      4  C   UNL     1      28.596  58.689  13.148  1.00  0.00     0.004 C 
ENDBRANCH   2   3
ENDBRANCH   1   2
BRANCH   1   5
ATOM      5  C   UNL     1      29.652  55.502  10.930  1.00  0.00    -0.023 C 
ATOM      6  C   UNL     1      28.526  54.897  11.340  1.00  0.00     0.042 C 
BRANCH   6   7
ATOM      7  C   UNL     1      27.193  55.524  11.429  1.00  0.00     0.152 C 
ATOM      8  O   UNL     1      26.734  55.809  12.566  1.00  0.00    -0.295 OA
ATOM      9  C   UNL     1      26.330  55.748  10.225  1.00  0.00     0.093 C 
ENDBRANCH   6   7
ENDBRANCH   1   5
TORSDOF 4
ENDMDL
MODEL 5
REMARK VINA RESULT:    -3.973      8.240      9.231
REMARK INTER + INTRA:          -5.392
REMARK INTER:                  -4.814
REMARK INTRA:                  -0.577
REMARK UNBOUND:                -0.490
REMARK SMILES CCCCC=CC(C)=O
REMARK SMILES IDX 4 1 3 2 2 3 1 4 5 5 6 6 7 7 9 8 8 9
REMARK H PARENT
REMARK Flexibility Score: inf
ROOT
ATOM      1  C   UNL     1      25.697  54.287  19.592  1.00  0.00     0.027 C 
ENDROOT
BRANCH   1   2
ATOM      2  C   UNL     1      27.183  54.476  19.274  1.00  0.00     0.004 C 
BRANCH   2   3
ATOM      3  C   UNL     1      27.537  53.864  17.915  1.00  0.00    -0.003 C 
ATOM      4  C   UNL     1      26.348  53.912  16.960  1.00  0.00     0.004 C 
ENDBRANCH   2   3
ENDBRANCH   1   2
BRANCH   1   5
ATOM      5  C   UNL     1      25.513  53.257  20.674  1.00  0.00    -0.023 C 
ATOM      6  C   UNL     1      24.961  52.044  20.511  1.00  0.00     0.042 C 
BRANCH   6   7
ATOM      7  C   UNL     1      24.518  51.463  19.230  1.00  0.00     0.152 C 
ATOM      8  O   UNL     1      23.335  51.667  18.850  1.00  0.00    -0.295 OA
ATOM      9  C   UNL     1      25.394  50.564  18.410  1.00  0.00     0.093 C 
ENDBRANCH   6   7
ENDBRANCH   1   5
TORSDOF 4
ENDMDL
MODEL 6
REMARK VINA RESULT:    -3.958      7.917      9.309
REMARK INTER + INTRA:          -5.373
REMARK INTER:                  -4.928
REMARK INTRA:                  -0.445
REMARK UNBOUND:                -0.490
REMARK SMILES CCCCC=CC(C)=O
REMARK SMILES IDX 4 1 3 2 2 3 1 4 5 5 6 6 7 7 9 8 8 9
REMARK H PARENT
REMARK Flexibility Score: inf
ROOT
ATOM      1  C   UNL     1      29.386  49.240  17.078  1.00  0.00     0.027 C 
ENDROOT
BRANCH   1   2
ATOM      2  C   UNL     1      30.251  48.603  15.986  1.00  0.00     0.004 C 
BRANCH   2   3
ATOM      3  C   UNL     1      29.682  47.247  15.554  1.00  0.00    -0.003 C 
ATOM      4  C   UNL     1      28.695  47.404  14.401  1.00  0.00     0.004 C 
ENDBRANCH   2   3
ENDBRANCH   1   2
BRANCH   1   5
ATOM      5  C   UNL     1      28.945  50.619  16.666  1.00  0.00    -0.023 C 
ATOM      6  C   UNL     1      27.672  51.030  16.550  1.00  0.00     0.042 C 
BRANCH   6   7
ATOM      7  C   UNL     1      26.475  50.237  16.892  1.00  0.00     0.152 C 
ATOM      8  O   UNL     1      25.991  50.341  18.050  1.00  0.00    -0.295 OA
ATOM      9  C   UNL     1      25.870  49.247  15.943  1.00  0.00     0.093 C 
ENDBRANCH   6   7
ENDBRANCH   1   5
TORSDOF 4
ENDMDL
MODEL 7
REMARK VINA RESULT:    -3.924      4.160      6.170
REMARK INTER + INTRA:          -5.332
REMARK INTER:                  -4.734
REMARK INTRA:                  -0.598
REMARK UNBOUND:                -0.490
REMARK SMILES CCCCC=CC(C)=O
REMARK SMILES IDX 4 1 3 2 2 3 1 4 5 5 6 6 7 7 9 8 8 9
REMARK H PARENT
REMARK Flexibility Score: inf
ROOT
ATOM      1  C   UNL     1      25.207  52.113   7.854  1.00  0.00     0.027 C 
ENDROOT
BRANCH   1   2
ATOM      2  C   UNL     1      25.186  53.327   6.920  1.00  0.00     0.004 C 
BRANCH   2   3
ATOM      3  C   UNL     1      24.842  54.608   7.689  1.00  0.00    -0.003 C 
ATOM      4  C   UNL     1      23.905  54.316   8.857  1.00  0.00     0.004 C 
ENDBRANCH   2   3
ENDBRANCH   1   2
BRANCH   1   5
ATOM      5  C   UNL     1      26.617  51.630   8.064  1.00  0.00    -0.023 C 
ATOM      6  C   UNL     1      27.370  51.868   9.149  1.00  0.00     0.042 C 
BRANCH   6   7
ATOM      7  C   UNL     1      26.926  52.564  10.372  1.00  0.00     0.152 C 
ATOM      8  O   UNL     1      26.208  51.939  11.196  1.00  0.00    -0.295 OA
ATOM      9  C   UNL     1      27.222  54.011  10.625  1.00  0.00     0.093 C 
ENDBRANCH   6   7
ENDBRANCH   1   5
TORSDOF 4
ENDMDL
MODEL 8
REMARK VINA RESULT:    -3.890      7.741      8.811
REMARK INTER + INTRA:          -5.289
REMARK INTER:                  -4.695
REMARK INTRA:                  -0.594
REMARK UNBOUND:                -0.490
REMARK SMILES CCCCC=CC(C)=O
REMARK SMILES IDX 4 1 3 2 2 3 1 4 5 5 6 6 7 7 9 8 8 9
REMARK H PARENT
REMARK Flexibility Score: inf
ROOT
ATOM      1  C   UNL     1      25.310  53.966  19.797  1.00  0.00     0.027 C 
ENDROOT
BRANCH   1   2
ATOM      2  C   UNL     1      25.310  52.773  20.757  1.00  0.00     0.004 C 
BRANCH   2   3
ATOM      3  C   UNL     1      24.988  51.470  20.016  1.00  0.00    -0.003 C 
ATOM      4  C   UNL     1      23.990  51.709  18.886  1.00  0.00     0.004 C 
ENDBRANCH   2   3
ENDBRANCH   1   2
BRANCH   1   5
ATOM      5  C   UNL     1      26.715  54.444  19.546  1.00  0.00    -0.023 C 
ATOM      6  C   UNL     1      27.438  54.197  18.442  1.00  0.00     0.042 C 
BRANCH   6   7
ATOM      7  C   UNL     1      26.959  53.493  17.237  1.00  0.00     0.152 C 
ATOM      8  O   UNL     1      26.230  54.117  16.422  1.00  0.00    -0.295 OA
ATOM      9  C   UNL     1      27.234  52.040  16.993  1.00  0.00     0.093 C 
ENDBRANCH   6   7
ENDBRANCH   1   5
TORSDOF 4
ENDMDL
MODEL 9
REMARK VINA RESULT:    -3.774      8.482      9.757
REMARK INTER + INTRA:          -5.147
REMARK INTER:                  -4.541
REMARK INTRA:                  -0.606
REMARK UNBOUND:                -0.490
REMARK SMILES CCCCC=CC(C)=O
REMARK SMILES IDX 4 1 3 2 2 3 1 4 5 5 6 6 7 7 9 8 8 9
REMARK H PARENT
REMARK Flexibility Score: inf
ROOT
ATOM      1  C   UNL     1      25.482  52.562  17.476  1.00  0.00     0.027 C 
ENDROOT
BRANCH   1   2
ATOM      2  C   UNL     1      25.832  51.087  17.695  1.00  0.00     0.004 C 
BRANCH   2   3
ATOM      3  C   UNL     1      24.823  50.415  18.633  1.00  0.00    -0.003 C 
ATOM      4  C   UNL     1      23.440  51.045  18.500  1.00  0.00     0.004 C 
ENDBRANCH   2   3
ENDBRANCH   1   2
BRANCH   1   5
ATOM      5  C   UNL     1      26.470  53.452  18.180  1.00  0.00    -0.023 C 
ATOM      6  C   UNL     1      26.305  53.993  19.397  1.00  0.00     0.042 C 
BRANCH   6   7
ATOM      7  C   UNL     1      25.170  53.743  20.306  1.00  0.00     0.152 C 
ATOM      8  O   UNL     1      24.127  54.436  20.176  1.00  0.00    -0.295 OA
ATOM      9  C   UNL     1      25.246  52.759  21.434  1.00  0.00     0.093 C 
ENDBRANCH   6   7
ENDBRANCH   1   5
TORSDOF 4
ENDMDL
