MODEL 1
REMARK VINA RESULT:    -4.166      0.000      0.000
REMARK INTER + INTRA:          -6.413
REMARK INTER:                  -6.358
REMARK INTRA:                  -0.055
REMARK UNBOUND:                -0.055
REMARK SMILES CC1=CCC[C@H](C)C(=O)C[C@@H](C(C)C)C(=O)C1
REMARK SMILES IDX 8 1 9 2 6 3 7 4 5 5 4 6 3 7 2 8 1 9 10 11 11 12 15 13 16 14
REMARK SMILES IDX 17 15 12 17 13 18 14 19
REMARK H PARENT
REMARK Flexibility Score: 70.00
ROOT
ATOM      1  C   UNL     1      20.189 -12.051  68.035  1.00  0.00     0.136 C 
ATOM      2  O   UNL     1      21.119 -12.283  68.795  1.00  0.00    -0.299 OA
ENDROOT
BRANCH   1   3
ATOM      3  C   UNL     1      18.894 -11.462  68.568  1.00  0.00     0.053 C 
ATOM      4  C   UNL     1      19.053  -9.998  69.009  1.00  0.00     0.016 C 
BRANCH   3   5
ATOM      5  C   UNL     1      17.740 -11.626  67.557  1.00  0.00     0.015 C 
BRANCH   5   6
ATOM      6  C   UNL     1      17.133 -10.289  67.085  1.00  0.00     0.028 C 
BRANCH   6   7
ATOM      7  C   UNL     1      17.000 -10.266  65.584  1.00  0.00    -0.028 C 
ATOM      8  C   UNL     1      18.009  -9.986  64.725  1.00  0.00    -0.070 CG0
ATOM      9  C   UNL     1      17.724 -10.072  63.247  1.00  0.00     0.039 C 
ATOM     10  G   UNL     1      19.399  -9.573  65.186  1.00  0.00     0.000 G0
ENDBRANCH   6   7
ENDBRANCH   5   6
ENDBRANCH   3   5
ENDBRANCH   1   3
BRANCH   1  11
ATOM     11  C   UNL     1      20.354 -12.354  66.565  1.00  0.00     0.087 C 
BRANCH  11  12
ATOM     12  C   UNL     1      21.257 -11.314  65.851  1.00  0.00     0.066 C 
BRANCH  12  13
ATOM     13  C   UNL     1      20.484 -10.542  64.790  1.00  0.00     0.140 C 
ATOM     14  O   UNL     1      20.771 -10.676  63.609  1.00  0.00    -0.299 OA
BRANCH  13  15
ATOM     15  C   UNL     1      19.409  -9.556  65.181  1.00  0.00     0.106 CG0
ATOM     16  G   UNL     1      18.023 -10.003  64.741  1.00  0.00     0.000 G0
ENDBRANCH  13  15
ENDBRANCH  12  13
BRANCH  12  17
ATOM     17  C   UNL     1      22.561 -11.961  65.290  1.00  0.00    -0.006 C 
ATOM     18  C   UNL     1      23.851 -11.210  65.664  1.00  0.00     0.008 C 
ATOM     19  C   UNL     1      22.674 -13.440  65.695  1.00  0.00     0.008 C 
ENDBRANCH  12  17
ENDBRANCH  11  12
ENDBRANCH   1  11
TORSDOF 1
ENDMDL
MODEL 2
REMARK VINA RESULT:    -4.094      2.217      3.942
REMARK INTER + INTRA:          -6.302
REMARK INTER:                  -6.192
REMARK INTRA:                  -0.110
REMARK UNBOUND:                -0.055
REMARK SMILES CC1=CCC[C@H](C)C(=O)C[C@@H](C(C)C)C(=O)C1
REMARK SMILES IDX 8 1 9 2 6 3 7 4 5 5 4 6 3 7 2 8 1 9 10 11 11 12 15 13 16 14
REMARK SMILES IDX 17 15 12 17 13 18 14 19
REMARK H PARENT
REMARK Flexibility Score: 70.00
ROOT
ATOM      1  C   UNL     1      20.430 -10.070  65.931  1.00  0.00     0.136 C 
ATOM      2  O   UNL     1      21.532 -10.495  66.247  1.00  0.00    -0.299 OA
ENDROOT
BRANCH   1   3
ATOM      3  C   UNL     1      20.255  -9.279  64.645  1.00  0.00     0.053 C 
ATOM      4  C   UNL     1      21.104  -9.837  63.493  1.00  0.00     0.016 C 
BRANCH   3   5
ATOM      5  C   UNL     1      18.768  -9.168  64.249  1.00  0.00     0.015 C 
BRANCH   5   6
ATOM      6  C   UNL     1      18.300 -10.269  63.277  1.00  0.00     0.028 C 
BRANCH   6   7
ATOM      7  C   UNL     1      16.818 -10.507  63.417  1.00  0.00    -0.028 C 
ATOM      8  C   UNL     1      16.262 -11.458  64.204  1.00  0.00    -0.070 CG0
ATOM      9  C   UNL     1      14.758 -11.521  64.283  1.00  0.00     0.039 C 
ATOM     10  G   UNL     1      17.085 -12.468  64.991  1.00  0.00     0.000 G0
ENDBRANCH   6   7
ENDBRANCH   5   6
ENDBRANCH   3   5
ENDBRANCH   1   3
BRANCH   1  11
ATOM     11  C   UNL     1      19.253 -10.350  66.834  1.00  0.00     0.087 C 
BRANCH  11  12
ATOM     12  C   UNL     1      18.848 -11.848  66.820  1.00  0.00     0.066 C 
BRANCH  12  13
ATOM     13  C   UNL     1      17.402 -12.028  66.378  1.00  0.00     0.140 C 
ATOM     14  O   UNL     1      16.494 -11.862  67.180  1.00  0.00    -0.299 OA
BRANCH  13  15
ATOM     15  C   UNL     1      17.073 -12.480  64.975  1.00  0.00     0.106 CG0
ATOM     16  G   UNL     1      16.258 -11.449  64.208  1.00  0.00     0.000 G0
ENDBRANCH  13  15
ENDBRANCH  12  13
BRANCH  12  17
ATOM     17  C   UNL     1      19.150 -12.546  68.182  1.00  0.00    -0.006 C 
ATOM     18  C   UNL     1      20.230 -13.640  68.106  1.00  0.00     0.008 C 
ATOM     19  C   UNL     1      19.509 -11.523  69.272  1.00  0.00     0.008 C 
ENDBRANCH  12  17
ENDBRANCH  11  12
ENDBRANCH   1  11
TORSDOF 1
ENDMDL
MODEL 3
REMARK VINA RESULT:    -3.986      2.577      5.455
REMARK INTER + INTRA:          -6.138
REMARK INTER:                  -6.569
REMARK INTRA:                   0.431
REMARK UNBOUND:                -0.055
REMARK SMILES CC1=CCC[C@H](C)C(=O)C[C@@H](C(C)C)C(=O)C1
REMARK SMILES IDX 8 1 9 2 6 3 7 4 5 5 4 6 3 7 2 8 1 9 10 11 11 12 15 13 16 14
REMARK SMILES IDX 17 15 12 17 13 18 14 19
REMARK H PARENT
REMARK Flexibility Score: 70.00
ROOT
ATOM      1  C   UNL     1      18.324 -10.109  64.077  1.00  0.00     0.136 C 
ATOM      2  O   UNL     1      18.334 -10.524  62.926  1.00  0.00    -0.299 OA
ENDROOT
BRANCH   1   3
ATOM      3  C   UNL     1      19.552 -10.266  64.957  1.00  0.00     0.053 C 
ATOM      4  C   UNL     1      20.862 -10.173  64.159  1.00  0.00     0.016 C 
BRANCH   3   5
ATOM      5  C   UNL     1      19.535  -9.268  66.134  1.00  0.00     0.015 C 
BRANCH   5   6
ATOM      6  C   UNL     1      18.772  -9.780  67.372  1.00  0.00     0.028 C 
BRANCH   6   7
ATOM      7  C   UNL     1      18.962 -11.266  67.537  1.00  0.00    -0.028 C 
ATOM      8  C   UNL     1      18.008 -12.195  67.296  1.00  0.00    -0.070 CG0
ATOM      9  C   UNL     1      18.381 -13.648  67.445  1.00  0.00     0.039 C 
ATOM     10  G   UNL     1      16.582 -11.837  66.902  1.00  0.00     0.000 G0
ENDBRANCH   6   7
ENDBRANCH   5   6
ENDBRANCH   3   5
ENDBRANCH   1   3
BRANCH   1  11
ATOM     11  C   UNL     1      17.077  -9.438  64.600  1.00  0.00     0.087 C 
BRANCH  11  12
ATOM     12  C   UNL     1      15.901 -10.436  64.767  1.00  0.00     0.066 C 
BRANCH  12  13
ATOM     13  C   UNL     1      16.363 -11.739  65.404  1.00  0.00     0.140 C 
ATOM     14  O   UNL     1      16.522 -12.733  64.712  1.00  0.00    -0.299 OA
BRANCH  13  15
ATOM     15  C   UNL     1      16.562 -11.841  66.898  1.00  0.00     0.106 CG0
ATOM     16  G   UNL     1      17.992 -12.205  67.270  1.00  0.00     0.000 G0
ENDBRANCH  13  15
ENDBRANCH  12  13
BRANCH  12  17
ATOM     17  C   UNL     1      15.135 -10.663  63.426  1.00  0.00    -0.006 C 
ATOM     18  C   UNL     1      13.726 -11.257  63.596  1.00  0.00     0.008 C 
ATOM     19  C   UNL     1      15.068  -9.374  62.591  1.00  0.00     0.008 C 
ENDBRANCH  12  17
ENDBRANCH  11  12
ENDBRANCH   1  11
TORSDOF 1
ENDMDL
MODEL 4
REMARK VINA RESULT:    -3.837      2.395      4.636
REMARK INTER + INTRA:          -5.911
REMARK INTER:                  -6.202
REMARK INTRA:                   0.291
REMARK UNBOUND:                -0.055
REMARK SMILES CC1=CCC[C@H](C)C(=O)C[C@@H](C(C)C)C(=O)C1
REMARK SMILES IDX 8 1 9 2 6 3 7 4 5 5 4 6 3 7 2 8 1 9 10 11 11 12 15 13 16 14
REMARK SMILES IDX 17 15 12 17 13 18 14 19
REMARK H PARENT
REMARK Flexibility Score: 70.00
ROOT
ATOM      1  C   UNL     1      16.404 -11.714  67.375  1.00  0.00     0.136 C 
ATOM      2  O   UNL     1      15.319 -12.133  67.752  1.00  0.00    -0.299 OA
ENDROOT
BRANCH   1   3
ATOM      3  C   UNL     1      17.667 -12.056  68.147  1.00  0.00     0.053 C 
ATOM      4  C   UNL     1      18.355 -13.323  67.614  1.00  0.00     0.016 C 
BRANCH   3   5
ATOM      5  C   UNL     1      18.642 -10.861  68.194  1.00  0.00     0.015 C 
BRANCH   5   6
ATOM      6  C   UNL     1      20.018 -11.157  67.566  1.00  0.00     0.028 C 
BRANCH   6   7
ATOM      7  C   UNL     1      20.237 -10.306  66.341  1.00  0.00    -0.028 C 
ATOM      8  C   UNL     1      19.762 -10.596  65.107  1.00  0.00    -0.070 CG0
ATOM      9  C   UNL     1      20.014  -9.603  64.001  1.00  0.00     0.039 C 
ATOM     10  G   UNL     1      19.008 -11.878  64.790  1.00  0.00     0.000 G0
ENDBRANCH   6   7
ENDBRANCH   5   6
ENDBRANCH   3   5
ENDBRANCH   1   3
BRANCH   1  11
ATOM     11  C   UNL     1      16.465 -10.859  66.132  1.00  0.00     0.087 C 
BRANCH  11  12
ATOM     12  C   UNL     1      16.387 -11.706  64.835  1.00  0.00     0.066 C 
BRANCH  12  13
ATOM     13  C   UNL     1      17.701 -11.667  64.067  1.00  0.00     0.140 C 
ATOM     14  O   UNL     1      17.694 -11.502  62.855  1.00  0.00    -0.299 OA
BRANCH  13  15
ATOM     15  C   UNL     1      19.016 -11.901  64.771  1.00  0.00     0.106 CG0
ATOM     16  G   UNL     1      19.731 -10.602  65.114  1.00  0.00     0.000 G0
ENDBRANCH  13  15
ENDBRANCH  12  13
BRANCH  12  17
ATOM     17  C   UNL     1      15.164 -11.308  63.951  1.00  0.00    -0.006 C 
ATOM     18  C   UNL     1      13.809 -11.798  64.490  1.00  0.00     0.008 C 
ATOM     19  C   UNL     1      15.118  -9.792  63.703  1.00  0.00     0.008 C 
ENDBRANCH  12  17
ENDBRANCH  11  12
ENDBRANCH   1  11
TORSDOF 1
ENDMDL
MODEL 5
REMARK VINA RESULT:    -3.767      3.607      5.622
REMARK INTER + INTRA:          -5.803
REMARK INTER:                  -5.755
REMARK INTRA:                  -0.048
REMARK UNBOUND:                -0.055
REMARK SMILES CC1=CCC[C@H](C)C(=O)C[C@@H](C(C)C)C(=O)C1
REMARK SMILES IDX 8 1 9 2 6 3 7 4 5 5 4 6 3 7 2 8 1 9 10 11 11 12 15 13 16 14
REMARK SMILES IDX 17 15 12 17 13 18 14 19
REMARK H PARENT
REMARK Flexibility Score: 70.00
ROOT
ATOM      1  C   UNL     1      14.499 -12.032  64.168  1.00  0.00     0.136 C 
ATOM      2  O   UNL     1      13.788 -12.033  65.164  1.00  0.00    -0.299 OA
ENDROOT
BRANCH   1   3
ATOM      3  C   UNL     1      13.875 -12.000  62.783  1.00  0.00     0.053 C 
ATOM      4  C   UNL     1      13.307 -13.365  62.365  1.00  0.00     0.016 C 
BRANCH   3   5
ATOM      5  C   UNL     1      12.813 -10.887  62.668  1.00  0.00     0.015 C 
BRANCH   5   6
ATOM      6  C   UNL     1      13.305  -9.507  63.147  1.00  0.00     0.028 C 
BRANCH   6   7
ATOM      7  C   UNL     1      14.100  -8.821  62.066  1.00  0.00    -0.028 C 
ATOM      8  C   UNL     1      15.374  -8.385  62.206  1.00  0.00    -0.070 CG0
ATOM      9  C   UNL     1      16.051  -7.779  61.003  1.00  0.00     0.039 C 
ATOM     10  G   UNL     1      16.138  -8.466  63.519  1.00  0.00     0.000 G0
ENDBRANCH   6   7
ENDBRANCH   5   6
ENDBRANCH   3   5
ENDBRANCH   1   3
BRANCH   1  11
ATOM     11  C   UNL     1      15.998 -12.056  64.342  1.00  0.00     0.087 C 
BRANCH  11  12
ATOM     12  C   UNL     1      16.550 -10.701  64.858  1.00  0.00     0.066 C 
BRANCH  12  13
ATOM     13  C   UNL     1      16.893  -9.766  63.707  1.00  0.00     0.140 C 
ATOM     14  O   UNL     1      17.813 -10.042  62.951  1.00  0.00    -0.299 OA
BRANCH  13  15
ATOM     15  C   UNL     1      16.156  -8.460  63.525  1.00  0.00     0.106 CG0
ATOM     16  G   UNL     1      15.371  -8.412  62.223  1.00  0.00     0.000 G0
ENDBRANCH  13  15
ENDBRANCH  12  13
BRANCH  12  17
ATOM     17  C   UNL     1      17.740 -10.896  65.848  1.00  0.00    -0.006 C 
ATOM     18  C   UNL     1      17.679  -9.996  67.095  1.00  0.00     0.008 C 
ATOM     19  C   UNL     1      17.891 -12.368  66.264  1.00  0.00     0.008 C 
ENDBRANCH  12  17
ENDBRANCH  11  12
ENDBRANCH   1  11
TORSDOF 1
ENDMDL
MODEL 6
REMARK VINA RESULT:    -3.723      4.873      7.308
REMARK INTER + INTRA:          -5.737
REMARK INTER:                  -5.471
REMARK INTRA:                  -0.267
REMARK UNBOUND:                -0.055
REMARK SMILES CC1=CCC[C@H](C)C(=O)C[C@@H](C(C)C)C(=O)C1
REMARK SMILES IDX 8 1 9 2 6 3 7 4 5 5 4 6 3 7 2 8 1 9 10 11 11 12 15 13 16 14
REMARK SMILES IDX 17 15 12 17 13 18 14 19
REMARK H PARENT
REMARK Flexibility Score: 70.00
ROOT
ATOM      1  C   UNL     1      14.468 -12.284  61.147  1.00  0.00     0.136 C 
ATOM      2  O   UNL     1      14.035 -13.387  61.453  1.00  0.00    -0.299 OA
ENDROOT
BRANCH   1   3
ATOM      3  C   UNL     1      13.736 -11.430  60.126  1.00  0.00     0.053 C 
ATOM      4  C   UNL     1      13.453 -12.190  58.821  1.00  0.00     0.016 C 
BRANCH   3   5
ATOM      5  C   UNL     1      12.447 -10.824  60.718  1.00  0.00     0.015 C 
BRANCH   5   6
ATOM      6  C   UNL     1      12.652  -9.441  61.368  1.00  0.00     0.028 C 
BRANCH   6   7
ATOM      7  C   UNL     1      13.637  -8.621  60.574  1.00  0.00    -0.028 C 
ATOM      8  C   UNL     1      14.796  -8.122  61.066  1.00  0.00    -0.070 CG0
ATOM      9  C   UNL     1      15.703  -7.379  60.120  1.00  0.00     0.039 C 
ATOM     10  G   UNL     1      15.207  -8.264  62.524  1.00  0.00     0.000 G0
ENDBRANCH   6   7
ENDBRANCH   5   6
ENDBRANCH   3   5
ENDBRANCH   1   3
BRANCH   1  11
ATOM     11  C   UNL     1      15.734 -11.791  61.805  1.00  0.00     0.087 C 
BRANCH  11  12
ATOM     12  C   UNL     1      15.443 -10.842  62.998  1.00  0.00     0.066 C 
BRANCH  12  13
ATOM     13  C   UNL     1      16.072  -9.473  62.785  1.00  0.00     0.140 C 
ATOM     14  O   UNL     1      17.284  -9.338  62.872  1.00  0.00    -0.299 OA
BRANCH  13  15
ATOM     15  C   UNL     1      15.212  -8.256  62.536  1.00  0.00     0.106 CG0
ATOM     16  G   UNL     1      14.795  -8.127  61.079  1.00  0.00     0.000 G0
ENDBRANCH  13  15
ENDBRANCH  12  13
BRANCH  12  17
ATOM     17  C   UNL     1      15.847 -11.482  64.363  1.00  0.00    -0.006 C 
ATOM     18  C   UNL     1      14.657 -11.819  65.279  1.00  0.00     0.008 C 
ATOM     19  C   UNL     1      16.729 -12.725  64.163  1.00  0.00     0.008 C 
ENDBRANCH  12  17
ENDBRANCH  11  12
ENDBRANCH   1  11
TORSDOF 1
ENDMDL
MODEL 7
REMARK VINA RESULT:    -3.638     12.601     14.911
REMARK INTER + INTRA:          -5.607
REMARK INTER:                  -5.328
REMARK INTRA:                  -0.278
REMARK UNBOUND:                -0.055
REMARK SMILES CC1=CCC[C@H](C)C(=O)C[C@@H](C(C)C)C(=O)C1
REMARK SMILES IDX 8 1 9 2 6 3 7 4 5 5 4 6 3 7 2 8 1 9 10 11 11 12 15 13 16 14
REMARK SMILES IDX 17 15 12 17 13 18 14 19
REMARK H PARENT
REMARK Flexibility Score: 70.00
ROOT
ATOM      1  C   UNL     1       8.022 -10.237  57.025  1.00  0.00     0.136 C 
ATOM      2  O   UNL     1       7.385 -10.735  56.107  1.00  0.00    -0.299 OA
ENDROOT
BRANCH   1   3
ATOM      3  C   UNL     1       9.119 -11.030  57.715  1.00  0.00     0.053 C 
ATOM      4  C   UNL     1       8.834 -12.541  57.723  1.00  0.00     0.016 C 
BRANCH   3   5
ATOM      5  C   UNL     1      10.504 -10.720  57.111  1.00  0.00     0.015 C 
BRANCH   5   6
ATOM      6  C   UNL     1      11.362  -9.776  57.977  1.00  0.00     0.028 C 
BRANCH   6   7
ATOM      7  C   UNL     1      11.900  -8.637  57.150  1.00  0.00    -0.028 C 
ATOM      8  C   UNL     1      11.390  -7.383  57.143  1.00  0.00    -0.070 CG0
ATOM      9  C   UNL     1      12.089  -6.340  56.309  1.00  0.00     0.039 C 
ATOM     10  G   UNL     1      10.141  -6.992  57.919  1.00  0.00     0.000 G0
ENDBRANCH   6   7
ENDBRANCH   5   6
ENDBRANCH   3   5
ENDBRANCH   1   3
BRANCH   1  11
ATOM     11  C   UNL     1       7.700  -8.826  57.454  1.00  0.00     0.087 C 
BRANCH  11  12
ATOM     12  C   UNL     1       8.138  -7.778  56.397  1.00  0.00     0.066 C 
BRANCH  12  13
ATOM     13  C   UNL     1       8.957  -6.661  57.028  1.00  0.00     0.140 C 
ATOM     14  O   UNL     1       8.700  -5.495  56.767  1.00  0.00    -0.299 OA
BRANCH  13  15
ATOM     15  C   UNL     1      10.134  -6.974  57.921  1.00  0.00     0.106 CG0
ATOM     16  G   UNL     1      11.373  -7.374  57.132  1.00  0.00     0.000 G0
ENDBRANCH  13  15
ENDBRANCH  12  13
BRANCH  12  17
ATOM     17  C   UNL     1       6.928  -7.242  55.571  1.00  0.00    -0.006 C 
ATOM     18  C   UNL     1       6.762  -7.902  54.191  1.00  0.00     0.008 C 
ATOM     19  C   UNL     1       5.616  -7.341  56.366  1.00  0.00     0.008 C 
ENDBRANCH  12  17
ENDBRANCH  11  12
ENDBRANCH   1  11
TORSDOF 1
ENDMDL
MODEL 8
REMARK VINA RESULT:    -3.635     13.034     15.000
REMARK INTER + INTRA:          -5.603
REMARK INTER:                  -5.279
REMARK INTRA:                  -0.324
REMARK UNBOUND:                -0.055
REMARK SMILES CC1=CCC[C@H](C)C(=O)C[C@@H](C(C)C)C(=O)C1
REMARK SMILES IDX 8 1 9 2 6 3 7 4 5 5 4 6 3 7 2 8 1 9 10 11 11 12 15 13 16 14
REMARK SMILES IDX 17 15 12 17 13 18 14 19
REMARK H PARENT
REMARK Flexibility Score: 70.00
ROOT
ATOM      1  C   UNL     1      11.776  -0.248  57.509  1.00  0.00     0.136 C 
ATOM      2  O   UNL     1      11.250   0.566  58.256  1.00  0.00    -0.299 OA
ENDROOT
BRANCH   1   3
ATOM      3  C   UNL     1      11.659  -0.091  56.002  1.00  0.00     0.053 C 
ATOM      4  C   UNL     1      12.710   0.873  55.429  1.00  0.00     0.016 C 
BRANCH   3   5
ATOM      5  C   UNL     1      11.697  -1.459  55.288  1.00  0.00     0.015 C 
BRANCH   5   6
ATOM      6  C   UNL     1      12.924  -1.648  54.375  1.00  0.00     0.028 C 
BRANCH   6   7
ATOM      7  C   UNL     1      13.451  -3.056  54.478  1.00  0.00    -0.028 C 
ATOM      8  C   UNL     1      14.467  -3.441  55.285  1.00  0.00    -0.070 CG0
ATOM      9  C   UNL     1      14.829  -4.904  55.320  1.00  0.00     0.039 C 
ATOM     10  G   UNL     1      15.264  -2.464  56.137  1.00  0.00     0.000 G0
ENDBRANCH   6   7
ENDBRANCH   5   6
ENDBRANCH   3   5
ENDBRANCH   1   3
BRANCH   1  11
ATOM     11  C   UNL     1      12.544  -1.400  58.111  1.00  0.00     0.087 C 
BRANCH  11  12
ATOM     12  C   UNL     1      14.077  -1.160  58.082  1.00  0.00     0.066 C 
BRANCH  12  13
ATOM     13  C   UNL     1      14.820  -2.382  57.561  1.00  0.00     0.140 C 
ATOM     14  O   UNL     1      15.104  -3.295  58.323  1.00  0.00    -0.299 OA
BRANCH  13  15
ATOM     15  C   UNL     1      15.278  -2.454  56.123  1.00  0.00     0.106 CG0
ATOM     16  G   UNL     1      14.474  -3.454  55.306  1.00  0.00     0.000 G0
ENDBRANCH  13  15
ENDBRANCH  12  13
BRANCH  12  17
ATOM     17  C   UNL     1      14.617  -0.673  59.462  1.00  0.00    -0.006 C 
ATOM     18  C   UNL     1      14.938   0.830  59.521  1.00  0.00     0.008 C 
ATOM     19  C   UNL     1      13.663  -1.055  60.606  1.00  0.00     0.008 C 
ENDBRANCH  12  17
ENDBRANCH  11  12
ENDBRANCH   1  11
TORSDOF 1
ENDMDL
MODEL 9
REMARK VINA RESULT:    -3.571      4.048      6.456
REMARK INTER + INTRA:          -5.505
REMARK INTER:                  -5.440
REMARK INTRA:                  -0.065
REMARK UNBOUND:                -0.055
REMARK SMILES CC1=CCC[C@H](C)C(=O)C[C@@H](C(C)C)C(=O)C1
REMARK SMILES IDX 8 1 9 2 6 3 7 4 5 5 4 6 3 7 2 8 1 9 10 11 11 12 15 13 16 14
REMARK SMILES IDX 17 15 12 17 13 18 14 19
REMARK H PARENT
REMARK Flexibility Score: 70.00
ROOT
ATOM      1  C   UNL     1      15.817  -9.128  63.025  1.00  0.00     0.136 C 
ATOM      2  O   UNL     1      16.960  -8.872  62.672  1.00  0.00    -0.299 OA
ENDROOT
BRANCH   1   3
ATOM      3  C   UNL     1      14.653  -8.293  62.518  1.00  0.00     0.053 C 
ATOM      4  C   UNL     1      15.080  -7.289  61.435  1.00  0.00     0.016 C 
BRANCH   3   5
ATOM      5  C   UNL     1      13.488  -9.182  62.037  1.00  0.00     0.015 C 
BRANCH   5   6
ATOM      6  C   UNL     1      13.902 -10.236  60.991  1.00  0.00     0.028 C 
BRANCH   6   7
ATOM      7  C   UNL     1      13.248 -11.562  61.285  1.00  0.00    -0.028 C 
ATOM      8  C   UNL     1      13.910 -12.677  61.677  1.00  0.00    -0.070 CG0
ATOM      9  C   UNL     1      13.098 -13.906  61.996  1.00  0.00     0.039 C 
ATOM     10  G   UNL     1      15.426 -12.744  61.789  1.00  0.00     0.000 G0
ENDBRANCH   6   7
ENDBRANCH   5   6
ENDBRANCH   3   5
ENDBRANCH   1   3
BRANCH   1  11
ATOM     11  C   UNL     1      15.587 -10.286  63.966  1.00  0.00     0.087 C 
BRANCH  11  12
ATOM     12  C   UNL     1      16.604 -11.436  63.739  1.00  0.00     0.066 C 
BRANCH  12  13
ATOM     13  C   UNL     1      15.919 -12.688  63.210  1.00  0.00     0.140 C 
ATOM     14  O   UNL     1      15.802 -13.669  63.930  1.00  0.00    -0.299 OA
BRANCH  13  15
ATOM     15  C   UNL     1      15.440 -12.762  61.779  1.00  0.00     0.106 CG0
ATOM     16  G   UNL     1      13.925 -12.679  61.668  1.00  0.00     0.000 G0
ENDBRANCH  13  15
ENDBRANCH  12  13
BRANCH  12  17
ATOM     17  C   UNL     1      17.462 -11.714  65.012  1.00  0.00    -0.006 C 
ATOM     18  C   UNL     1      18.964 -11.430  64.836  1.00  0.00     0.008 C 
ATOM     19  C   UNL     1      16.920 -10.955  66.234  1.00  0.00     0.008 C 
ENDBRANCH  12  17
ENDBRANCH  11  12
ENDBRANCH   1  11
TORSDOF 1
ENDMDL
