MODEL 1
REMARK VINA RESULT:    -6.789      0.000      0.000
REMARK INTER + INTRA:          -7.279
REMARK INTER:                  -7.186
REMARK INTRA:                  -0.093
REMARK UNBOUND:                -0.093
REMARK SMILES C=C(C)[C@H]1CC=C(C)C(=O)C1
REMARK SMILES IDX 8 1 7 2 6 3 5 4 4 5 11 6 9 7 10 8 2 9 1 10 3 11
REMARK H PARENT
REMARK Flexibility Score: inf
ROOT
ATOM      1  C   UNL     1     101.560  45.595  54.758  1.00  0.00     0.048 C 
ATOM      2  C   UNL     1     102.412  46.821  54.579  1.00  0.00    -0.012 C 
ATOM      3  C   UNL     1     102.737  47.245  53.346  1.00  0.00    -0.019 C 
ATOM      4  C   UNL     1     103.653  48.419  53.119  1.00  0.00     0.036 C 
ATOM      5  C   UNL     1     103.535  49.446  54.263  1.00  0.00     0.025 C 
ATOM      6  C   UNL     1     103.783  48.764  55.622  1.00  0.00     0.089 C 
ATOM      7  C   UNL     1     102.912  47.548  55.773  1.00  0.00     0.158 C 
ATOM      8  O   UNL     1     102.647  47.122  56.930  1.00  0.00    -0.295 OA
ENDROOT
BRANCH   5   9
ATOM      9  C   UNL     1     104.465  50.633  54.050  1.00  0.00    -0.077 C 
ATOM     10  C   UNL     1     105.787  50.463  53.872  1.00  0.00     0.008 C 
ATOM     11  C   UNL     1     103.911  52.034  54.036  1.00  0.00     0.039 C 
ENDBRANCH   5   9
TORSDOF 1
ENDMDL
MODEL 2
REMARK VINA RESULT:    -6.756     10.130     11.250
REMARK INTER + INTRA:          -7.244
REMARK INTER:                  -7.151
REMARK INTRA:                  -0.093
REMARK UNBOUND:                -0.093
REMARK SMILES C=C(C)[C@H]1CC=C(C)C(=O)C1
REMARK SMILES IDX 8 1 7 2 6 3 5 4 4 5 11 6 9 7 10 8 2 9 1 10 3 11
REMARK H PARENT
REMARK Flexibility Score: inf
ROOT
ATOM      1  C   UNL     1     108.665  45.084  64.509  1.00  0.00     0.048 C 
ATOM      2  C   UNL     1     108.317  46.545  64.580  1.00  0.00    -0.012 C 
ATOM      3  C   UNL     1     108.009  47.110  65.761  1.00  0.00    -0.019 C 
ATOM      4  C   UNL     1     107.576  48.548  65.870  1.00  0.00     0.036 C 
ATOM      5  C   UNL     1     108.224  49.410  64.769  1.00  0.00     0.025 C 
ATOM      6  C   UNL     1     107.927  48.815  63.380  1.00  0.00     0.089 C 
ATOM      7  C   UNL     1     108.293  47.356  63.338  1.00  0.00     0.158 C 
ATOM      8  O   UNL     1     108.535  46.816  62.225  1.00  0.00    -0.295 OA
ENDROOT
BRANCH   5   9
ATOM      9  C   UNL     1     107.785  50.866  64.863  1.00  0.00    -0.077 C 
ATOM     10  C   UNL     1     106.495  51.196  65.047  1.00  0.00     0.008 C 
ATOM     11  C   UNL     1     108.803  51.971  64.750  1.00  0.00     0.039 C 
ENDBRANCH   5   9
TORSDOF 1
ENDMDL
MODEL 3
REMARK VINA RESULT:    -5.894     10.212     11.591
REMARK INTER + INTRA:          -6.332
REMARK INTER:                  -6.237
REMARK INTRA:                  -0.094
REMARK UNBOUND:                -0.093
REMARK SMILES C=C(C)[C@H]1CC=C(C)C(=O)C1
REMARK SMILES IDX 8 1 7 2 6 3 5 4 4 5 11 6 9 7 10 8 2 9 1 10 3 11
REMARK H PARENT
REMARK Flexibility Score: inf
ROOT
ATOM      1  C   UNL     1     108.124  52.509  64.906  1.00  0.00     0.048 C 
ATOM      2  C   UNL     1     108.157  51.050  64.544  1.00  0.00    -0.012 C 
ATOM      3  C   UNL     1     109.191  50.550  63.846  1.00  0.00    -0.019 C 
ATOM      4  C   UNL     1     109.230  49.115  63.391  1.00  0.00     0.036 C 
ATOM      5  C   UNL     1     108.468  48.199  64.370  1.00  0.00     0.025 C 
ATOM      6  C   UNL     1     107.029  48.711  64.571  1.00  0.00     0.089 C 
ATOM      7  C   UNL     1     107.030  50.169  64.940  1.00  0.00     0.158 C 
ATOM      8  O   UNL     1     106.037  50.648  65.552  1.00  0.00    -0.295 OA
ENDROOT
BRANCH   5   9
ATOM      9  C   UNL     1     108.491  46.746  63.914  1.00  0.00    -0.077 C 
ATOM     10  C   UNL     1     108.588  46.423  62.613  1.00  0.00     0.008 C 
ATOM     11  C   UNL     1     108.403  45.635  64.928  1.00  0.00     0.039 C 
ENDBRANCH   5   9
TORSDOF 1
ENDMDL
MODEL 4
REMARK VINA RESULT:    -5.383      1.414      2.061
REMARK INTER + INTRA:          -5.791
REMARK INTER:                  -5.702
REMARK INTRA:                  -0.089
REMARK UNBOUND:                -0.093
REMARK SMILES C=C(C)[C@H]1CC=C(C)C(=O)C1
REMARK SMILES IDX 8 1 7 2 6 3 5 4 4 5 11 6 9 7 10 8 2 9 1 10 3 11
REMARK H PARENT
REMARK Flexibility Score: inf
ROOT
ATOM      1  C   UNL     1     101.598  45.596  55.124  1.00  0.00     0.048 C 
ATOM      2  C   UNL     1     102.306  46.895  54.859  1.00  0.00    -0.012 C 
ATOM      3  C   UNL     1     102.790  47.622  55.881  1.00  0.00    -0.019 C 
ATOM      4  C   UNL     1     103.434  48.967  55.671  1.00  0.00     0.036 C 
ATOM      5  C   UNL     1     104.128  49.044  54.296  1.00  0.00     0.025 C 
ATOM      6  C   UNL     1     103.133  48.691  53.175  1.00  0.00     0.089 C 
ATOM      7  C   UNL     1     102.448  47.384  53.464  1.00  0.00     0.158 C 
ATOM      8  O   UNL     1     101.952  46.726  52.510  1.00  0.00    -0.295 OA
ENDROOT
BRANCH   5   9
ATOM      9  C   UNL     1     104.775  50.404  54.068  1.00  0.00    -0.077 C 
ATOM     10  C   UNL     1     106.089  50.519  53.810  1.00  0.00     0.008 C 
ATOM     11  C   UNL     1     103.940  51.657  54.129  1.00  0.00     0.039 C 
ENDBRANCH   5   9
TORSDOF 1
ENDMDL
MODEL 5
REMARK VINA RESULT:    -5.184     10.345     11.305
REMARK INTER + INTRA:          -5.580
REMARK INTER:                  -5.492
REMARK INTRA:                  -0.088
REMARK UNBOUND:                -0.093
REMARK SMILES C=C(C)[C@H]1CC=C(C)C(=O)C1
REMARK SMILES IDX 8 1 7 2 6 3 5 4 4 5 11 6 9 7 10 8 2 9 1 10 3 11
REMARK H PARENT
REMARK Flexibility Score: inf
ROOT
ATOM      1  C   UNL     1     108.658  45.144  64.144  1.00  0.00     0.048 C 
ATOM      2  C   UNL     1     108.354  46.607  64.315  1.00  0.00    -0.012 C 
ATOM      3  C   UNL     1     108.087  47.371  63.241  1.00  0.00    -0.019 C 
ATOM      4  C   UNL     1     107.857  48.855  63.354  1.00  0.00     0.036 C 
ATOM      5  C   UNL     1     107.230  49.220  64.714  1.00  0.00     0.025 C 
ATOM      6  C   UNL     1     108.095  48.673  65.866  1.00  0.00     0.089 C 
ATOM      7  C   UNL     1     108.374  47.208  65.671  1.00  0.00     0.158 C 
ATOM      8  O   UNL     1     108.672  46.501  66.672  1.00  0.00    -0.295 OA
ENDROOT
BRANCH   5   9
ATOM      9  C   UNL     1     107.002  50.720  64.845  1.00  0.00    -0.077 C 
ATOM     10  C   UNL     1     105.763  51.236  64.917  1.00  0.00     0.008 C 
ATOM     11  C   UNL     1     108.178  51.661  64.894  1.00  0.00     0.039 C 
ENDBRANCH   5   9
TORSDOF 1
ENDMDL
MODEL 6
REMARK VINA RESULT:    -5.097     10.093     10.890
REMARK INTER + INTRA:          -5.488
REMARK INTER:                  -5.396
REMARK INTRA:                  -0.092
REMARK UNBOUND:                -0.093
REMARK SMILES C=C(C)[C@H]1CC=C(C)C(=O)C1
REMARK SMILES IDX 8 1 7 2 6 3 5 4 4 5 11 6 9 7 10 8 2 9 1 10 3 11
REMARK H PARENT
REMARK Flexibility Score: inf
ROOT
ATOM      1  C   UNL     1     108.976  45.648  62.596  1.00  0.00     0.048 C 
ATOM      2  C   UNL     1     108.709  46.997  63.204  1.00  0.00    -0.012 C 
ATOM      3  C   UNL     1     108.972  48.116  62.507  1.00  0.00    -0.019 C 
ATOM      4  C   UNL     1     108.797  49.488  63.104  1.00  0.00     0.036 C 
ATOM      5  C   UNL     1     107.667  49.500  64.152  1.00  0.00     0.025 C 
ATOM      6  C   UNL     1     107.922  48.425  65.225  1.00  0.00     0.089 C 
ATOM      7  C   UNL     1     108.177  47.087  64.586  1.00  0.00     0.158 C 
ATOM      8  O   UNL     1     107.976  46.038  65.257  1.00  0.00    -0.295 OA
ENDROOT
BRANCH   5   9
ATOM      9  C   UNL     1     107.488  50.881  64.770  1.00  0.00    -0.077 C 
ATOM     10  C   UNL     1     106.291  51.297  65.217  1.00  0.00     0.008 C 
ATOM     11  C   UNL     1     108.666  51.813  64.890  1.00  0.00     0.039 C 
ENDBRANCH   5   9
TORSDOF 1
ENDMDL
MODEL 7
REMARK VINA RESULT:    -5.009      2.021      4.676
REMARK INTER + INTRA:          -5.395
REMARK INTER:                  -5.300
REMARK INTRA:                  -0.094
REMARK UNBOUND:                -0.093
REMARK SMILES C=C(C)[C@H]1CC=C(C)C(=O)C1
REMARK SMILES IDX 8 1 7 2 6 3 5 4 4 5 11 6 9 7 10 8 2 9 1 10 3 11
REMARK H PARENT
REMARK Flexibility Score: inf
ROOT
ATOM      1  C   UNL     1     104.317  52.495  53.992  1.00  0.00     0.048 C 
ATOM      2  C   UNL     1     103.880  51.127  54.437  1.00  0.00    -0.012 C 
ATOM      3  C   UNL     1     102.776  50.981  55.189  1.00  0.00    -0.019 C 
ATOM      4  C   UNL     1     102.345  49.642  55.726  1.00  0.00     0.036 C 
ATOM      5  C   UNL     1     102.768  48.501  54.780  1.00  0.00     0.025 C 
ATOM      6  C   UNL     1     104.284  48.563  54.512  1.00  0.00     0.089 C 
ATOM      7  C   UNL     1     104.688  49.940  54.061  1.00  0.00     0.158 C 
ATOM      8  O   UNL     1     105.750  50.081  53.397  1.00  0.00    -0.295 OA
ENDROOT
BRANCH   5   9
ATOM      9  C   UNL     1     102.347  47.139  55.317  1.00  0.00    -0.077 C 
ATOM     10  C   UNL     1     102.308  46.891  56.638  1.00  0.00     0.008 C 
ATOM     11  C   UNL     1     101.963  46.037  54.365  1.00  0.00     0.039 C 
ENDBRANCH   5   9
TORSDOF 1
ENDMDL
MODEL 8
REMARK VINA RESULT:    -4.562     17.078     18.115
REMARK INTER + INTRA:          -4.922
REMARK INTER:                  -4.828
REMARK INTRA:                  -0.094
REMARK UNBOUND:                -0.093
REMARK SMILES C=C(C)[C@H]1CC=C(C)C(=O)C1
REMARK SMILES IDX 8 1 7 2 6 3 5 4 4 5 11 6 9 7 10 8 2 9 1 10 3 11
REMARK H PARENT
REMARK Flexibility Score: inf
ROOT
ATOM      1  C   UNL     1     100.924  32.875  63.376  1.00  0.00     0.048 C 
ATOM      2  C   UNL     1      99.603  33.514  63.706  1.00  0.00    -0.012 C 
ATOM      3  C   UNL     1      99.055  33.345  64.922  1.00  0.00    -0.019 C 
ATOM      4  C   UNL     1      97.698  33.897  65.271  1.00  0.00     0.036 C 
ATOM      5  C   UNL     1      97.404  35.189  64.484  1.00  0.00     0.025 C 
ATOM      6  C   UNL     1      97.563  34.942  62.971  1.00  0.00     0.089 C 
ATOM      7  C   UNL     1      98.895  34.311  62.674  1.00  0.00     0.158 C 
ATOM      8  O   UNL     1      99.386  34.430  61.518  1.00  0.00    -0.295 OA
ENDROOT
BRANCH   5   9
ATOM      9  C   UNL     1      96.029  35.751  64.820  1.00  0.00    -0.077 C 
ATOM     10  C   UNL     1      95.678  37.001  64.468  1.00  0.00     0.008 C 
ATOM     11  C   UNL     1      95.028  34.906  65.564  1.00  0.00     0.039 C 
ENDBRANCH   5   9
TORSDOF 1
ENDMDL
MODEL 9
REMARK VINA RESULT:    -4.430      1.853      3.345
REMARK INTER + INTRA:          -4.782
REMARK INTER:                  -4.693
REMARK INTRA:                  -0.089
REMARK UNBOUND:                -0.093
REMARK SMILES C=C(C)[C@H]1CC=C(C)C(=O)C1
REMARK SMILES IDX 8 1 7 2 6 3 5 4 4 5 11 6 9 7 10 8 2 9 1 10 3 11
REMARK H PARENT
REMARK Flexibility Score: inf
ROOT
ATOM      1  C   UNL     1     102.741  47.498  52.045  1.00  0.00     0.048 C 
ATOM      2  C   UNL     1     102.934  47.871  53.489  1.00  0.00    -0.012 C 
ATOM      3  C   UNL     1     103.648  48.962  53.816  1.00  0.00    -0.019 C 
ATOM      4  C   UNL     1     103.936  49.330  55.248  1.00  0.00     0.036 C 
ATOM      5  C   UNL     1     102.801  48.865  56.181  1.00  0.00     0.025 C 
ATOM      6  C   UNL     1     102.548  47.355  56.005  1.00  0.00     0.089 C 
ATOM      7  C   UNL     1     102.351  47.015  54.553  1.00  0.00     0.158 C 
ATOM      8  O   UNL     1     101.722  45.966  54.248  1.00  0.00    -0.295 OA
ENDROOT
BRANCH   5   9
ATOM      9  C   UNL     1     103.086  49.222  57.634  1.00  0.00    -0.077 C 
ATOM     10  C   UNL     1     102.743  50.420  58.140  1.00  0.00     0.008 C 
ATOM     11  C   UNL     1     103.765  48.226  58.538  1.00  0.00     0.039 C 
ENDBRANCH   5   9
TORSDOF 1
ENDMDL
