MODEL 1
REMARK VINA RESULT:    -5.062      0.000      0.000
REMARK INTER + INTRA:          -6.454
REMARK INTER:                  -5.949
REMARK INTRA:                  -0.504
REMARK UNBOUND:                -0.504
REMARK SMILES C=C[C@]1(C)CC[C@@H](C(=C)C)C[C@@H]1C(=C)C
REMARK SMILES IDX 7 1 6 2 5 3 3 4 12 5 11 6 4 7 8 8 10 9 9 10 13 11 14 12
REMARK SMILES IDX 15 13 2 14 1 15
REMARK H PARENT
REMARK Flexibility Score: inf
ROOT
ATOM      1  C   UNL     1     143.426 139.556 132.433  1.00  0.00     0.015 C 
ATOM      2  C   UNL     1     142.541 140.730 131.973  1.00  0.00     0.009 C 
ATOM      3  C   UNL     1     142.294 141.737 133.106  1.00  0.00     0.012 C 
ATOM      4  C   UNL     1     143.611 142.293 133.726  1.00  0.00    -0.008 C 
ATOM      5  C   UNL     1     144.583 141.134 134.160  1.00  0.00     0.024 C 
ATOM      6  C   UNL     1     144.748 140.034 133.075  1.00  0.00     0.017 C 
ATOM      7  C   UNL     1     144.322 143.168 132.654  1.00  0.00     0.016 C 
ENDROOT
BRANCH   1   8
ATOM      8  C   UNL     1     143.693 138.589 131.285  1.00  0.00    -0.077 C 
ATOM      9  C   UNL     1     144.089 139.112 129.927  1.00  0.00     0.039 C 
ATOM     10  C   UNL     1     143.584 137.258 131.451  1.00  0.00     0.008 C 
ENDBRANCH   1   8
BRANCH   5  11
ATOM     11  C   UNL     1     144.357 140.544 135.561  1.00  0.00    -0.077 C 
ATOM     12  C   UNL     1     145.165 140.794 136.604  1.00  0.00     0.008 C 
ATOM     13  C   UNL     1     143.166 139.647 135.811  1.00  0.00     0.039 C 
ENDBRANCH   5  11
BRANCH   4  14
ATOM     14  C   UNL     1     143.313 143.238 134.899  1.00  0.00    -0.028 C 
ATOM     15  C   UNL     1     142.274 144.083 134.963  1.00  0.00     0.004 C 
ENDBRANCH   4  14
TORSDOF 3
ENDMDL
MODEL 2
REMARK VINA RESULT:    -5.042      3.323      4.644
REMARK INTER + INTRA:          -6.430
REMARK INTER:                  -5.880
REMARK INTRA:                  -0.550
REMARK UNBOUND:                -0.504
REMARK SMILES C=C[C@]1(C)CC[C@@H](C(=C)C)C[C@@H]1C(=C)C
REMARK SMILES IDX 7 1 6 2 5 3 3 4 12 5 11 6 4 7 8 8 10 9 9 10 13 11 14 12
REMARK SMILES IDX 15 13 2 14 1 15
REMARK H PARENT
REMARK Flexibility Score: inf
ROOT
ATOM      1  C   UNL     1     139.572 138.775 132.353  1.00  0.00     0.015 C 
ATOM      2  C   UNL     1     140.767 139.604 131.846  1.00  0.00     0.009 C 
ATOM      3  C   UNL     1     141.805 139.845 132.953  1.00  0.00     0.012 C 
ATOM      4  C   UNL     1     142.326 138.525 133.598  1.00  0.00    -0.008 C 
ATOM      5  C   UNL     1     141.141 137.608 134.081  1.00  0.00     0.024 C 
ATOM      6  C   UNL     1     140.015 137.454 133.022  1.00  0.00     0.017 C 
ATOM      7  C   UNL     1     143.153 137.755 132.530  1.00  0.00     0.016 C 
ENDROOT
BRANCH   1   8
ATOM      8  C   UNL     1     138.573 138.512 131.231  1.00  0.00    -0.077 C 
ATOM      9  C   UNL     1     139.054 138.062 129.875  1.00  0.00     0.039 C 
ATOM     10  C   UNL     1     137.251 138.674 131.419  1.00  0.00     0.008 C 
ENDBRANCH   1   8
BRANCH   5  11
ATOM     11  C   UNL     1     140.588 137.893 135.486  1.00  0.00    -0.077 C 
ATOM     12  C   UNL     1     140.788 137.079 136.535  1.00  0.00     0.008 C 
ATOM     13  C   UNL     1     139.788 139.151 135.734  1.00  0.00     0.039 C 
ENDBRANCH   5  11
BRANCH   4  14
ATOM     14  C   UNL     1     143.304 138.820 134.744  1.00  0.00    -0.028 C 
ATOM     15  C   UNL     1     143.963 139.975 134.918  1.00  0.00     0.004 C 
ENDBRANCH   4  14
TORSDOF 3
ENDMDL
MODEL 3
REMARK VINA RESULT:    -5.020      3.343      4.618
REMARK INTER + INTRA:          -6.405
REMARK INTER:                  -5.818
REMARK INTRA:                  -0.588
REMARK UNBOUND:                -0.504
REMARK SMILES C=C[C@]1(C)CC[C@@H](C(=C)C)C[C@@H]1C(=C)C
REMARK SMILES IDX 7 1 6 2 5 3 3 4 12 5 11 6 4 7 8 8 10 9 9 10 13 11 14 12
REMARK SMILES IDX 15 13 2 14 1 15
REMARK H PARENT
REMARK Flexibility Score: inf
ROOT
ATOM      1  C   UNL     1     142.597 143.408 132.446  1.00  0.00     0.015 C 
ATOM      2  C   UNL     1     141.400 142.552 131.990  1.00  0.00     0.009 C 
ATOM      3  C   UNL     1     140.391 142.332 133.127  1.00  0.00     0.012 C 
ATOM      4  C   UNL     1     139.870 143.663 133.748  1.00  0.00    -0.008 C 
ATOM      5  C   UNL     1     141.055 144.607 134.176  1.00  0.00     0.024 C 
ATOM      6  C   UNL     1     142.154 144.743 133.087  1.00  0.00     0.017 C 
ATOM      7  C   UNL     1     139.009 144.394 132.678  1.00  0.00     0.016 C 
ENDROOT
BRANCH   1   8
ATOM      8  C   UNL     1     143.567 143.650 131.294  1.00  0.00    -0.077 C 
ATOM      9  C   UNL     1     143.049 144.061 129.939  1.00  0.00     0.039 C 
ATOM     10  C   UNL     1     144.894 143.504 131.454  1.00  0.00     0.008 C 
ENDBRANCH   1   8
BRANCH   5  11
ATOM     11  C   UNL     1     141.644 144.367 135.576  1.00  0.00    -0.077 C 
ATOM     12  C   UNL     1     141.419 145.184 136.618  1.00  0.00     0.008 C 
ATOM     13  C   UNL     1     142.510 143.154 135.825  1.00  0.00     0.039 C 
ENDBRANCH   5  11
BRANCH   4  14
ATOM     14  C   UNL     1     138.922 143.390 134.924  1.00  0.00    -0.028 C 
ATOM     15  C   UNL     1     138.574 142.173 135.368  1.00  0.00     0.004 C 
ENDBRANCH   4  14
TORSDOF 3
ENDMDL
MODEL 4
REMARK VINA RESULT:    -5.015      4.534      6.561
REMARK INTER + INTRA:          -6.399
REMARK INTER:                  -5.851
REMARK INTRA:                  -0.548
REMARK UNBOUND:                -0.504
REMARK SMILES C=C[C@]1(C)CC[C@@H](C(=C)C)C[C@@H]1C(=C)C
REMARK SMILES IDX 7 1 6 2 5 3 3 4 12 5 11 6 4 7 8 8 10 9 9 10 13 11 14 12
REMARK SMILES IDX 15 13 2 14 1 15
REMARK H PARENT
REMARK Flexibility Score: inf
ROOT
ATOM      1  C   UNL     1     138.785 142.611 132.333  1.00  0.00     0.015 C 
ATOM      2  C   UNL     1     139.599 141.420 131.791  1.00  0.00     0.009 C 
ATOM      3  C   UNL     1     139.843 140.356 132.871  1.00  0.00     0.012 C 
ATOM      4  C   UNL     1     138.526 139.831 133.519  1.00  0.00    -0.008 C 
ATOM      5  C   UNL     1     137.624 141.012 134.038  1.00  0.00     0.024 C 
ATOM      6  C   UNL     1     137.468 142.163 133.006  1.00  0.00     0.017 C 
ATOM      7  C   UNL     1     137.738 139.035 132.441  1.00  0.00     0.016 C 
ENDROOT
BRANCH   1   8
ATOM      8  C   UNL     1     138.518 143.637 131.237  1.00  0.00    -0.077 C 
ATOM      9  C   UNL     1     138.046 143.190 129.877  1.00  0.00     0.039 C 
ATOM     10  C   UNL     1     138.696 144.953 131.452  1.00  0.00     0.008 C 
ENDBRANCH   1   8
BRANCH   5  11
ATOM     11  C   UNL     1     137.929 141.532 135.452  1.00  0.00    -0.077 C 
ATOM     12  C   UNL     1     137.104 141.351 136.497  1.00  0.00     0.008 C 
ATOM     13  C   UNL     1     139.220 142.273 135.714  1.00  0.00     0.039 C 
ENDBRANCH   5  11
BRANCH   4  14
ATOM     14  C   UNL     1     138.826 138.825 134.640  1.00  0.00    -0.028 C 
ATOM     15  C   UNL     1     139.960 138.119 134.759  1.00  0.00     0.004 C 
ENDBRANCH   4  14
TORSDOF 3
ENDMDL
MODEL 5
REMARK VINA RESULT:    -4.852      2.434      4.328
REMARK INTER + INTRA:          -6.207
REMARK INTER:                  -5.624
REMARK INTRA:                  -0.583
REMARK UNBOUND:                -0.504
REMARK SMILES C=C[C@]1(C)CC[C@@H](C(=C)C)C[C@@H]1C(=C)C
REMARK SMILES IDX 7 1 6 2 5 3 3 4 12 5 11 6 4 7 8 8 10 9 9 10 13 11 14 12
REMARK SMILES IDX 15 13 2 14 1 15
REMARK H PARENT
REMARK Flexibility Score: inf
ROOT
ATOM      1  C   UNL     1     142.960 142.449 134.118  1.00  0.00     0.015 C 
ATOM      2  C   UNL     1     141.711 141.698 133.619  1.00  0.00     0.009 C 
ATOM      3  C   UNL     1     140.494 141.951 134.521  1.00  0.00     0.012 C 
ATOM      4  C   UNL     1     140.159 143.465 134.682  1.00  0.00    -0.008 C 
ATOM      5  C   UNL     1     141.419 144.294 135.133  1.00  0.00     0.024 C 
ATOM      6  C   UNL     1     142.697 143.959 134.316  1.00  0.00     0.017 C 
ATOM      7  C   UNL     1     139.671 144.004 133.307  1.00  0.00     0.016 C 
ENDROOT
BRANCH   1   8
ATOM      8  C   UNL     1     144.147 142.217 133.188  1.00  0.00    -0.077 C 
ATOM      9  C   UNL     1     144.997 140.981 133.336  1.00  0.00     0.039 C 
ATOM     10  C   UNL     1     144.463 143.100 132.224  1.00  0.00     0.008 C 
ENDBRANCH   1   8
BRANCH   5  11
ATOM     11  C   UNL     1     141.689 144.353 136.645  1.00  0.00    -0.077 C 
ATOM     12  C   UNL     1     141.483 145.454 137.387  1.00  0.00     0.008 C 
ATOM     13  C   UNL     1     142.198 143.124 137.362  1.00  0.00     0.039 C 
ENDBRANCH   5  11
BRANCH   4  14
ATOM     14  C   UNL     1     138.983 143.670 135.647  1.00  0.00    -0.028 C 
ATOM     15  C   UNL     1     138.403 142.703 136.373  1.00  0.00     0.004 C 
ENDBRANCH   4  14
TORSDOF 3
ENDMDL
MODEL 6
REMARK VINA RESULT:    -4.821      4.068      6.388
REMARK INTER + INTRA:          -6.171
REMARK INTER:                  -5.590
REMARK INTRA:                  -0.581
REMARK UNBOUND:                -0.504
REMARK SMILES C=C[C@]1(C)CC[C@@H](C(=C)C)C[C@@H]1C(=C)C
REMARK SMILES IDX 7 1 6 2 5 3 3 4 12 5 11 6 4 7 8 8 10 9 9 10 13 11 14 12
REMARK SMILES IDX 15 13 2 14 1 15
REMARK H PARENT
REMARK Flexibility Score: inf
ROOT
ATOM      1  C   UNL     1     139.899 143.058 134.112  1.00  0.00     0.015 C 
ATOM      2  C   UNL     1     140.609 141.795 133.590  1.00  0.00     0.009 C 
ATOM      3  C   UNL     1     140.298 140.566 134.457  1.00  0.00     0.012 C 
ATOM      4  C   UNL     1     138.771 140.284 134.590  1.00  0.00    -0.008 C 
ATOM      5  C   UNL     1     137.983 141.562 135.062  1.00  0.00     0.024 C 
ATOM      6  C   UNL     1     138.378 142.847 134.283  1.00  0.00     0.017 C 
ATOM      7  C   UNL     1     138.234 139.852 133.195  1.00  0.00     0.016 C 
ENDROOT
BRANCH   1   8
ATOM      8  C   UNL     1     140.188 144.259 133.216  1.00  0.00    -0.077 C 
ATOM      9  C   UNL     1     139.269 144.587 132.066  1.00  0.00     0.039 C 
ATOM     10  C   UNL     1     141.258 145.047 133.425  1.00  0.00     0.008 C 
ENDBRANCH   1   8
BRANCH   5  11
ATOM     11  C   UNL     1     137.913 141.797 136.579  1.00  0.00    -0.077 C 
ATOM     12  C   UNL     1     136.798 141.602 137.304  1.00  0.00     0.008 C 
ATOM     13  C   UNL     1     139.147 142.254 137.324  1.00  0.00     0.039 C 
ENDBRANCH   5  11
BRANCH   4  14
ATOM     14  C   UNL     1     138.508 139.092 135.521  1.00  0.00    -0.028 C 
ATOM     15  C   UNL     1     139.455 138.397 136.168  1.00  0.00     0.004 C 
ENDBRANCH   4  14
TORSDOF 3
ENDMDL
MODEL 7
REMARK VINA RESULT:    -4.818      3.406      5.169
REMARK INTER + INTRA:          -6.167
REMARK INTER:                  -5.588
REMARK INTRA:                  -0.579
REMARK UNBOUND:                -0.504
REMARK SMILES C=C[C@]1(C)CC[C@@H](C(=C)C)C[C@@H]1C(=C)C
REMARK SMILES IDX 7 1 6 2 5 3 3 4 12 5 11 6 4 7 8 8 10 9 9 10 13 11 14 12
REMARK SMILES IDX 15 13 2 14 1 15
REMARK H PARENT
REMARK Flexibility Score: inf
ROOT
ATOM      1  C   UNL     1     139.189 139.861 134.097  1.00  0.00     0.015 C 
ATOM      2  C   UNL     1     140.445 140.583 133.574  1.00  0.00     0.009 C 
ATOM      3  C   UNL     1     141.678 140.282 134.439  1.00  0.00     0.012 C 
ATOM      4  C   UNL     1     141.974 138.758 134.570  1.00  0.00    -0.008 C 
ATOM      5  C   UNL     1     140.703 137.958 135.044  1.00  0.00     0.024 C 
ATOM      6  C   UNL     1     139.414 138.342 134.267  1.00  0.00     0.017 C 
ATOM      7  C   UNL     1     142.409 138.225 133.175  1.00  0.00     0.016 C 
ENDROOT
BRANCH   1   8
ATOM      8  C   UNL     1     137.985 140.140 133.203  1.00  0.00    -0.077 C 
ATOM      9  C   UNL     1     137.637 139.194 132.082  1.00  0.00     0.039 C 
ATOM     10  C   UNL     1     137.211 141.225 133.389  1.00  0.00     0.008 C 
ENDBRANCH   1   8
BRANCH   5  11
ATOM     11  C   UNL     1     140.471 137.886 136.562  1.00  0.00    -0.077 C 
ATOM     12  C   UNL     1     140.684 136.774 137.286  1.00  0.00     0.008 C 
ATOM     13  C   UNL     1     139.995 139.112 137.306  1.00  0.00     0.039 C 
ENDBRANCH   5  11
BRANCH   4  14
ATOM     14  C   UNL     1     143.169 138.505 135.500  1.00  0.00    -0.028 C 
ATOM     15  C   UNL     1     143.780 139.441 136.241  1.00  0.00     0.004 C 
ENDBRANCH   4  14
TORSDOF 3
ENDMDL
MODEL 8
REMARK VINA RESULT:    -4.768      1.368      4.725
REMARK INTER + INTRA:          -6.109
REMARK INTER:                  -5.601
REMARK INTRA:                  -0.508
REMARK UNBOUND:                -0.504
REMARK SMILES C=C[C@]1(C)CC[C@@H](C(=C)C)C[C@@H]1C(=C)C
REMARK SMILES IDX 7 1 6 2 5 3 3 4 12 5 11 6 4 7 8 8 10 9 9 10 13 11 14 12
REMARK SMILES IDX 15 13 2 14 1 15
REMARK H PARENT
REMARK Flexibility Score: inf
ROOT
ATOM      1  C   UNL     1     143.203 141.978 134.611  1.00  0.00     0.015 C 
ATOM      2  C   UNL     1     144.385 142.074 133.628  1.00  0.00     0.009 C 
ATOM      3  C   UNL     1     144.745 140.704 133.033  1.00  0.00     0.012 C 
ATOM      4  C   UNL     1     143.541 140.009 132.329  1.00  0.00    -0.008 C 
ATOM      5  C   UNL     1     142.280 139.939 133.269  1.00  0.00     0.024 C 
ATOM      6  C   UNL     1     141.973 141.284 133.984  1.00  0.00     0.017 C 
ATOM      7  C   UNL     1     143.175 140.836 131.063  1.00  0.00     0.016 C 
ENDROOT
BRANCH   1   8
ATOM      8  C   UNL     1     142.835 143.353 135.160  1.00  0.00    -0.077 C 
ATOM      9  C   UNL     1     142.098 144.344 134.296  1.00  0.00     0.039 C 
ATOM     10  C   UNL     1     143.156 143.713 136.416  1.00  0.00     0.008 C 
ENDBRANCH   1   8
BRANCH   5  11
ATOM     11  C   UNL     1     142.212 138.739 134.227  1.00  0.00    -0.077 C 
ATOM     12  C   UNL     1     142.982 138.626 135.322  1.00  0.00     0.008 C 
ATOM     13  C   UNL     1     141.228 137.623 133.959  1.00  0.00     0.039 C 
ENDBRANCH   5  11
BRANCH   4  14
ATOM     14  C   UNL     1     143.930 138.617 131.815  1.00  0.00    -0.028 C 
ATOM     15  C   UNL     1     144.375 138.348 130.579  1.00  0.00     0.004 C 
ENDBRANCH   4  14
TORSDOF 3
ENDMDL
MODEL 9
REMARK VINA RESULT:    -4.765      2.484      4.835
REMARK INTER + INTRA:          -6.104
REMARK INTER:                  -5.526
REMARK INTRA:                  -0.578
REMARK UNBOUND:                -0.504
REMARK SMILES C=C[C@]1(C)CC[C@@H](C(=C)C)C[C@@H]1C(=C)C
REMARK SMILES IDX 7 1 6 2 5 3 3 4 12 5 11 6 4 7 8 8 10 9 9 10 13 11 14 12
REMARK SMILES IDX 15 13 2 14 1 15
REMARK H PARENT
REMARK Flexibility Score: inf
ROOT
ATOM      1  C   UNL     1     140.400 143.246 134.547  1.00  0.00     0.015 C 
ATOM      2  C   UNL     1     140.459 144.372 133.498  1.00  0.00     0.009 C 
ATOM      3  C   UNL     1     141.895 144.634 133.021  1.00  0.00     0.012 C 
ATOM      4  C   UNL     1     142.592 143.361 132.454  1.00  0.00    -0.008 C 
ATOM      5  C   UNL     1     142.508 142.155 133.463  1.00  0.00     0.024 C 
ATOM      6  C   UNL     1     141.088 141.952 134.058  1.00  0.00     0.017 C 
ATOM      7  C   UNL     1     141.872 142.960 131.134  1.00  0.00     0.016 C 
ENDROOT
BRANCH   1   8
ATOM      8  C   UNL     1     138.963 142.974 134.978  1.00  0.00    -0.077 C 
ATOM      9  C   UNL     1     138.528 143.255 136.394  1.00  0.00     0.039 C 
ATOM     10  C   UNL     1     138.055 142.479 134.117  1.00  0.00     0.008 C 
ENDBRANCH   1   8
BRANCH   5  11
ATOM     11  C   UNL     1     143.607 142.088 134.536  1.00  0.00    -0.077 C 
ATOM     12  C   UNL     1     143.642 142.902 135.604  1.00  0.00     0.008 C 
ATOM     13  C   UNL     1     144.705 141.057 134.419  1.00  0.00     0.039 C 
ENDBRANCH   5  11
BRANCH   4  14
ATOM     14  C   UNL     1     144.045 143.656 132.059  1.00  0.00    -0.028 C 
ATOM     15  C   UNL     1     144.738 142.996 131.120  1.00  0.00     0.004 C 
ENDBRANCH   4  14
TORSDOF 3
ENDMDL
