MODEL 1
REMARK VINA RESULT:    -3.705      0.000      0.000
REMARK INTER + INTRA:          -7.529
REMARK INTER:                  -6.520
REMARK INTRA:                  -1.009
REMARK UNBOUND:                -1.009
REMARK SMILES CCCCCCCCCCCCCCC(=O)[O-]
REMARK SMILES IDX 9 1 10 2 11 3 12 4 13 5 14 6 15 7 16 8 17 9 8 10 7 11 6 12
REMARK SMILES IDX 5 13 4 14 3 15 2 16 1 17
REMARK H PARENT
REMARK Flexibility Score: inf
ROOT
ATOM      1  C   UNL     1     -20.709   2.271   7.659  1.00  0.00     0.000 C 
ENDROOT
BRANCH   1   2
ATOM      2  C   UNL     1     -21.544   2.686   8.887  1.00  0.00     0.000 C 
BRANCH   2   3
ATOM      3  C   UNL     1     -21.728   1.585   9.947  1.00  0.00     0.000 C 
BRANCH   3   4
ATOM      4  C   UNL     1     -20.981   1.890  11.257  1.00  0.00     0.000 C 
BRANCH   4   5
ATOM      5  C   UNL     1     -21.722   1.363  12.499  1.00  0.00     0.006 C 
BRANCH   5   6
ATOM      6  C   UNL     1     -20.799   0.803  13.593  1.00  0.00     0.053 C 
BRANCH   6   7
ATOM      7  C   UNL     1     -21.137  -0.614  13.942  1.00  0.00     0.041 C 
ATOM      8  O   UNL     1     -21.745  -0.876  15.013  1.00  0.00    -0.550 OA
ATOM      9  O   UNL     1     -20.751  -1.648  13.099  1.00  0.00    -0.550 OA
ENDBRANCH   6   7
ENDBRANCH   5   6
ENDBRANCH   4   5
ENDBRANCH   3   4
ENDBRANCH   2   3
ENDBRANCH   1   2
BRANCH   1  10
ATOM     10  C   UNL     1     -19.962   0.929   7.800  1.00  0.00     0.000 C 
BRANCH  10  11
ATOM     11  C   UNL     1     -20.531  -0.223   6.949  1.00  0.00    -0.000 C 
BRANCH  11  12
ATOM     12  C   UNL     1     -20.215  -1.636   7.477  1.00  0.00    -0.000 C 
BRANCH  12  13
ATOM     13  C   UNL     1     -20.042  -1.739   9.006  1.00  0.00    -0.000 C 
BRANCH  13  14
ATOM     14  C   UNL     1     -19.522  -3.096   9.512  1.00  0.00    -0.000 C 
BRANCH  14  15
ATOM     15  C   UNL     1     -19.026  -4.007   8.379  1.00  0.00    -0.000 C 
BRANCH  15  16
ATOM     16  C   UNL     1     -19.238  -5.484   8.729  1.00  0.00    -0.003 C 
ATOM     17  C   UNL     1     -20.712  -5.786   8.982  1.00  0.00     0.004 C 
ENDBRANCH  15  16
ENDBRANCH  14  15
ENDBRANCH  13  14
ENDBRANCH  12  13
ENDBRANCH  11  12
ENDBRANCH  10  11
ENDBRANCH   1  10
TORSDOF 13
ENDMDL
MODEL 2
REMARK VINA RESULT:    -3.449      1.637      5.489
REMARK INTER + INTRA:          -7.078
REMARK INTER:                  -6.009
REMARK INTRA:                  -1.069
REMARK UNBOUND:                -1.009
REMARK SMILES CCCCCCCCCCCCCCC(=O)[O-]
REMARK SMILES IDX 9 1 10 2 11 3 12 4 13 5 14 6 15 7 16 8 17 9 8 10 7 11 6 12
REMARK SMILES IDX 5 13 4 14 3 15 2 16 1 17
REMARK H PARENT
REMARK Flexibility Score: inf
ROOT
ATOM      1  C   UNL     1     -20.127  -1.739   7.121  1.00  0.00     0.000 C 
ENDROOT
BRANCH   1   2
ATOM      2  C   UNL     1     -20.395  -1.806   8.637  1.00  0.00     0.000 C 
BRANCH   2   3
ATOM      3  C   UNL     1     -19.361  -2.615   9.442  1.00  0.00     0.000 C 
BRANCH   3   4
ATOM      4  C   UNL     1     -19.135  -2.052  10.856  1.00  0.00     0.000 C 
BRANCH   4   5
ATOM      5  C   UNL     1     -20.382  -1.350  11.422  1.00  0.00     0.006 C 
BRANCH   5   6
ATOM      6  C   UNL     1     -20.672  -1.674  12.896  1.00  0.00     0.053 C 
BRANCH   6   7
ATOM      7  C   UNL     1     -20.982  -0.442  13.691  1.00  0.00     0.041 C 
ATOM      8  O   UNL     1     -20.927  -0.468  14.948  1.00  0.00    -0.550 OA
ATOM      9  O   UNL     1     -21.364   0.726  13.042  1.00  0.00    -0.550 OA
ENDBRANCH   6   7
ENDBRANCH   5   6
ENDBRANCH   4   5
ENDBRANCH   3   4
ENDBRANCH   2   3
ENDBRANCH   1   2
BRANCH   1  10
ATOM     10  C   UNL     1     -19.725  -0.348   6.589  1.00  0.00     0.000 C 
BRANCH  10  11
ATOM     11  C   UNL     1     -20.788   0.752   6.779  1.00  0.00    -0.000 C 
BRANCH  11  12
ATOM     12  C   UNL     1     -20.436   1.816   7.837  1.00  0.00    -0.000 C 
BRANCH  12  13
ATOM     13  C   UNL     1     -21.207   1.695   9.167  1.00  0.00    -0.000 C 
BRANCH  13  14
ATOM     14  C   UNL     1     -22.016   2.942   9.566  1.00  0.00    -0.000 C 
BRANCH  14  15
ATOM     15  C   UNL     1     -21.919   4.074   8.533  1.00  0.00    -0.000 C 
BRANCH  15  16
ATOM     16  C   UNL     1     -21.866   5.443   9.221  1.00  0.00    -0.003 C 
ATOM     17  C   UNL     1     -20.437   5.813   9.605  1.00  0.00     0.004 C 
ENDBRANCH  15  16
ENDBRANCH  14  15
ENDBRANCH  13  14
ENDBRANCH  12  13
ENDBRANCH  11  12
ENDBRANCH  10  11
ENDBRANCH   1  10
TORSDOF 13
ENDMDL
MODEL 3
REMARK VINA RESULT:    -3.213      2.302      5.508
REMARK INTER + INTRA:          -6.664
REMARK INTER:                  -5.586
REMARK INTRA:                  -1.078
REMARK UNBOUND:                -1.009
REMARK SMILES CCCCCCCCCCCCCCC(=O)[O-]
REMARK SMILES IDX 9 1 10 2 11 3 12 4 13 5 14 6 15 7 16 8 17 9 8 10 7 11 6 12
REMARK SMILES IDX 5 13 4 14 3 15 2 16 1 17
REMARK H PARENT
REMARK Flexibility Score: inf
ROOT
ATOM      1  C   UNL     1     -19.985   0.949   7.786  1.00  0.00     0.000 C 
ENDROOT
BRANCH   1   2
ATOM      2  C   UNL     1     -20.386  -0.203   6.845  1.00  0.00     0.000 C 
BRANCH   2   3
ATOM      3  C   UNL     1     -20.311  -1.607   7.471  1.00  0.00     0.000 C 
BRANCH   3   4
ATOM      4  C   UNL     1     -20.054  -1.570   8.987  1.00  0.00     0.000 C 
BRANCH   4   5
ATOM      5  C   UNL     1     -19.819  -2.969   9.585  1.00  0.00     0.006 C 
BRANCH   5   6
ATOM      6  C   UNL     1     -18.937  -3.883   8.719  1.00  0.00     0.053 C 
BRANCH   6   7
ATOM      7  C   UNL     1     -19.475  -5.280   8.649  1.00  0.00     0.041 C 
ATOM      8  O   UNL     1     -20.532  -5.584   9.261  1.00  0.00    -0.550 OA
ATOM      9  O   UNL     1     -18.788  -6.253   7.934  1.00  0.00    -0.550 OA
ENDBRANCH   6   7
ENDBRANCH   5   6
ENDBRANCH   4   5
ENDBRANCH   3   4
ENDBRANCH   2   3
ENDBRANCH   1   2
BRANCH   1  10
ATOM     10  C   UNL     1     -20.923   2.173   7.757  1.00  0.00     0.000 C 
BRANCH  10  11
ATOM     11  C   UNL     1     -21.533   2.557   9.120  1.00  0.00    -0.000 C 
BRANCH  11  12
ATOM     12  C   UNL     1     -21.494   1.442  10.184  1.00  0.00    -0.000 C 
BRANCH  12  13
ATOM     13  C   UNL     1     -21.130   1.911  11.608  1.00  0.00    -0.000 C 
BRANCH  13  14
ATOM     14  C   UNL     1     -21.800   1.119  12.744  1.00  0.00    -0.000 C 
BRANCH  14  15
ATOM     15  C   UNL     1     -20.787   0.464  13.695  1.00  0.00    -0.000 C 
BRANCH  15  16
ATOM     16  C   UNL     1     -21.178  -0.985  14.002  1.00  0.00    -0.003 C 
ATOM     17  C   UNL     1     -20.794  -1.915  12.855  1.00  0.00     0.004 C 
ENDBRANCH  15  16
ENDBRANCH  14  15
ENDBRANCH  13  14
ENDBRANCH  12  13
ENDBRANCH  11  12
ENDBRANCH  10  11
ENDBRANCH   1  10
TORSDOF 13
ENDMDL
MODEL 4
REMARK VINA RESULT:    -3.076      3.043      6.989
REMARK INTER + INTRA:          -6.422
REMARK INTER:                  -5.389
REMARK INTRA:                  -1.033
REMARK UNBOUND:                -1.009
REMARK SMILES CCCCCCCCCCCCCCC(=O)[O-]
REMARK SMILES IDX 9 1 10 2 11 3 12 4 13 5 14 6 15 7 16 8 17 9 8 10 7 11 6 12
REMARK SMILES IDX 5 13 4 14 3 15 2 16 1 17
REMARK H PARENT
REMARK Flexibility Score: inf
ROOT
ATOM      1  C   UNL     1     -21.155  -1.616  13.322  1.00  0.00     0.000 C 
ENDROOT
BRANCH   1   2
ATOM      2  C   UNL     1     -20.029  -1.783  12.282  1.00  0.00     0.000 C 
BRANCH   2   3
ATOM      3  C   UNL     1     -20.437  -2.534  11.001  1.00  0.00     0.000 C 
BRANCH   3   4
ATOM      4  C   UNL     1     -19.695  -2.027   9.752  1.00  0.00     0.000 C 
BRANCH   4   5
ATOM      5  C   UNL     1     -20.413  -0.847   9.074  1.00  0.00     0.006 C 
BRANCH   5   6
ATOM      6  C   UNL     1     -20.563  -0.991   7.551  1.00  0.00     0.053 C 
BRANCH   6   7
ATOM      7  C   UNL     1     -20.422   0.323   6.846  1.00  0.00     0.041 C 
ATOM      8  O   UNL     1     -21.204   0.627   5.908  1.00  0.00    -0.550 OA
ATOM      9  O   UNL     1     -19.404   1.199   7.206  1.00  0.00    -0.550 OA
ENDBRANCH   6   7
ENDBRANCH   5   6
ENDBRANCH   4   5
ENDBRANCH   3   4
ENDBRANCH   2   3
ENDBRANCH   1   2
BRANCH   1  10
ATOM     10  C   UNL     1     -21.024  -0.379  14.233  1.00  0.00     0.000 C 
BRANCH  10  11
ATOM     11  C   UNL     1     -20.769   0.949  13.493  1.00  0.00    -0.000 C 
BRANCH  11  12
ATOM     12  C   UNL     1     -21.745   1.245  12.336  1.00  0.00    -0.000 C 
BRANCH  12  13
ATOM     13  C   UNL     1     -21.162   2.097  11.191  1.00  0.00    -0.000 C 
BRANCH  13  14
ATOM     14  C   UNL     1     -21.998   2.110   9.900  1.00  0.00    -0.000 C 
BRANCH  14  15
ATOM     15  C   UNL     1     -21.463   3.097   8.851  1.00  0.00    -0.000 C 
BRANCH  15  16
ATOM     16  C   UNL     1     -22.257   4.408   8.874  1.00  0.00    -0.003 C 
ATOM     17  C   UNL     1     -21.360   5.590   9.232  1.00  0.00     0.004 C 
ENDBRANCH  15  16
ENDBRANCH  14  15
ENDBRANCH  13  14
ENDBRANCH  12  13
ENDBRANCH  11  12
ENDBRANCH  10  11
ENDBRANCH   1  10
TORSDOF 13
ENDMDL
MODEL 5
REMARK VINA RESULT:    -3.047      2.791      4.880
REMARK INTER + INTRA:          -6.371
REMARK INTER:                  -5.251
REMARK INTRA:                  -1.120
REMARK UNBOUND:                -1.009
REMARK SMILES CCCCCCCCCCCCCCC(=O)[O-]
REMARK SMILES IDX 9 1 10 2 11 3 12 4 13 5 14 6 15 7 16 8 17 9 8 10 7 11 6 12
REMARK SMILES IDX 5 13 4 14 3 15 2 16 1 17
REMARK H PARENT
REMARK Flexibility Score: inf
ROOT
ATOM      1  C   UNL     1     -20.744   0.547  13.536  1.00  0.00     0.000 C 
ENDROOT
BRANCH   1   2
ATOM      2  C   UNL     1     -21.528   1.396  12.517  1.00  0.00     0.000 C 
BRANCH   2   3
ATOM      3  C   UNL     1     -21.131   1.174  11.046  1.00  0.00     0.000 C 
BRANCH   3   4
ATOM      4  C   UNL     1     -21.801   2.176  10.090  1.00  0.00     0.000 C 
BRANCH   4   5
ATOM      5  C   UNL     1     -21.331   2.013   8.634  1.00  0.00     0.006 C 
BRANCH   5   6
ATOM      6  C   UNL     1     -20.448   0.778   8.391  1.00  0.00     0.053 C 
BRANCH   6   7
ATOM      7  C   UNL     1     -20.430   0.375   6.948  1.00  0.00     0.041 C 
ATOM      8  O   UNL     1     -19.720  -0.592   6.568  1.00  0.00    -0.550 OA
ATOM      9  O   UNL     1     -21.173   1.092   6.018  1.00  0.00    -0.550 OA
ENDBRANCH   6   7
ENDBRANCH   5   6
ENDBRANCH   4   5
ENDBRANCH   3   4
ENDBRANCH   2   3
ENDBRANCH   1   2
BRANCH   1  10
ATOM     10  C   UNL     1     -21.505  -0.674  14.092  1.00  0.00     0.000 C 
BRANCH  10  11
ATOM     11  C   UNL     1     -21.162  -2.016  13.416  1.00  0.00    -0.000 C 
BRANCH  11  12
ATOM     12  C   UNL     1     -20.034  -1.944  12.367  1.00  0.00    -0.000 C 
BRANCH  12  13
ATOM     13  C   UNL     1     -20.435  -2.390  10.946  1.00  0.00    -0.000 C 
BRANCH  13  14
ATOM     14  C   UNL     1     -19.291  -2.386   9.917  1.00  0.00    -0.000 C 
BRANCH  14  15
ATOM     15  C   UNL     1     -19.644  -3.142   8.627  1.00  0.00    -0.000 C 
BRANCH  15  16
ATOM     16  C   UNL     1     -18.902  -4.481   8.554  1.00  0.00    -0.003 C 
ATOM     17  C   UNL     1     -19.852  -5.652   8.785  1.00  0.00     0.004 C 
ENDBRANCH  15  16
ENDBRANCH  14  15
ENDBRANCH  13  14
ENDBRANCH  12  13
ENDBRANCH  11  12
ENDBRANCH  10  11
ENDBRANCH   1  10
TORSDOF 13
ENDMDL
MODEL 6
REMARK VINA RESULT:    -2.877      2.428      5.970
REMARK INTER + INTRA:          -6.071
REMARK INTER:                  -4.875
REMARK INTRA:                  -1.197
REMARK UNBOUND:                -1.009
REMARK SMILES CCCCCCCCCCCCCCC(=O)[O-]
REMARK SMILES IDX 9 1 10 2 11 3 12 4 13 5 14 6 15 7 16 8 17 9 8 10 7 11 6 12
REMARK SMILES IDX 5 13 4 14 3 15 2 16 1 17
REMARK H PARENT
REMARK Flexibility Score: inf
ROOT
ATOM      1  C   UNL     1     -21.520  -0.707  13.523  1.00  0.00     0.000 C 
ENDROOT
BRANCH   1   2
ATOM      2  C   UNL     1     -20.769  -1.925  12.949  1.00  0.00     0.000 C 
BRANCH   2   3
ATOM      3  C   UNL     1     -19.963  -1.645  11.668  1.00  0.00     0.000 C 
BRANCH   3   4
ATOM      4  C   UNL     1     -20.364  -2.562  10.500  1.00  0.00     0.000 C 
BRANCH   4   5
ATOM      5  C   UNL     1     -19.156  -3.022   9.665  1.00  0.00     0.006 C 
BRANCH   5   6
ATOM      6  C   UNL     1     -19.527  -3.835   8.414  1.00  0.00     0.053 C 
BRANCH   6   7
ATOM      7  C   UNL     1     -19.651  -5.298   8.712  1.00  0.00     0.041 C 
ATOM      8  O   UNL     1     -18.758  -6.101   8.333  1.00  0.00    -0.550 OA
ATOM      9  O   UNL     1     -20.771  -5.779   9.381  1.00  0.00    -0.550 OA
ENDBRANCH   6   7
ENDBRANCH   5   6
ENDBRANCH   4   5
ENDBRANCH   3   4
ENDBRANCH   2   3
ENDBRANCH   1   2
BRANCH   1  10
ATOM     10  C   UNL     1     -20.682   0.582  13.637  1.00  0.00     0.000 C 
BRANCH  10  11
ATOM     11  C   UNL     1     -21.125   1.730  12.708  1.00  0.00    -0.000 C 
BRANCH  11  12
ATOM     12  C   UNL     1     -21.972   1.292  11.497  1.00  0.00    -0.000 C 
BRANCH  12  13
ATOM     13  C   UNL     1     -21.521   1.872  10.141  1.00  0.00    -0.000 C 
BRANCH  13  14
ATOM     14  C   UNL     1     -20.850   0.863   9.193  1.00  0.00    -0.000 C 
BRANCH  14  15
ATOM     15  C   UNL     1     -20.462   1.479   7.841  1.00  0.00    -0.000 C 
BRANCH  15  16
ATOM     16  C   UNL     1     -20.840   0.548   6.683  1.00  0.00    -0.003 C 
ATOM     17  C   UNL     1     -20.137  -0.801   6.807  1.00  0.00     0.004 C 
ENDBRANCH  15  16
ENDBRANCH  14  15
ENDBRANCH  13  14
ENDBRANCH  12  13
ENDBRANCH  11  12
ENDBRANCH  10  11
ENDBRANCH   1  10
TORSDOF 13
ENDMDL
MODEL 7
REMARK VINA RESULT:    -2.788      3.175      5.347
REMARK INTER + INTRA:          -5.915
REMARK INTER:                  -4.961
REMARK INTRA:                  -0.954
REMARK UNBOUND:                -1.009
REMARK SMILES CCCCCCCCCCCCCCC(=O)[O-]
REMARK SMILES IDX 9 1 10 2 11 3 12 4 13 5 14 6 15 7 16 8 17 9 8 10 7 11 6 12
REMARK SMILES IDX 5 13 4 14 3 15 2 16 1 17
REMARK H PARENT
REMARK Flexibility Score: inf
ROOT
ATOM      1  C   UNL     1     -20.807  -0.769   7.263  1.00  0.00     0.000 C 
ENDROOT
BRANCH   1   2
ATOM      2  C   UNL     1     -19.966   0.477   6.924  1.00  0.00     0.000 C 
BRANCH   2   3
ATOM      3  C   UNL     1     -20.404   1.768   7.638  1.00  0.00     0.000 C 
BRANCH   3   4
ATOM      4  C   UNL     1     -21.118   1.497   8.974  1.00  0.00     0.000 C 
BRANCH   4   5
ATOM      5  C   UNL     1     -21.464   2.789   9.735  1.00  0.00     0.006 C 
BRANCH   5   6
ATOM      6  C   UNL     1     -22.195   3.843   8.888  1.00  0.00     0.053 C 
BRANCH   6   7
ATOM      7  C   UNL     1     -21.623   5.214   9.081  1.00  0.00     0.041 C 
ATOM      8  O   UNL     1     -20.712   5.408   9.927  1.00  0.00    -0.550 OA
ATOM      9  O   UNL     1     -22.120   6.284   8.346  1.00  0.00    -0.550 OA
ENDBRANCH   6   7
ENDBRANCH   5   6
ENDBRANCH   4   5
ENDBRANCH   3   4
ENDBRANCH   2   3
ENDBRANCH   1   2
BRANCH   1  10
ATOM     10  C   UNL     1     -20.026  -2.099   7.287  1.00  0.00     0.000 C 
BRANCH  10  11
ATOM     11  C   UNL     1     -19.607  -2.580   8.690  1.00  0.00    -0.000 C 
BRANCH  11  12
ATOM     12  C   UNL     1     -19.993  -1.631   9.843  1.00  0.00    -0.000 C 
BRANCH  12  13
ATOM     13  C   UNL     1     -20.401  -2.330  11.156  1.00  0.00    -0.000 C 
BRANCH  13  14
ATOM     14  C   UNL     1     -20.068  -1.550  12.439  1.00  0.00    -0.000 C 
BRANCH  14  15
ATOM     15  C   UNL     1     -21.073  -1.806  13.572  1.00  0.00    -0.000 C 
BRANCH  15  16
ATOM     16  C   UNL     1     -21.569  -0.488  14.176  1.00  0.00    -0.003 C 
ATOM     17  C   UNL     1     -21.125   0.706  13.335  1.00  0.00     0.004 C 
ENDBRANCH  15  16
ENDBRANCH  14  15
ENDBRANCH  13  14
ENDBRANCH  12  13
ENDBRANCH  11  12
ENDBRANCH  10  11
ENDBRANCH   1  10
TORSDOF 13
ENDMDL
MODEL 8
REMARK VINA RESULT:    -2.737      3.177      5.412
REMARK INTER + INTRA:          -5.825
REMARK INTER:                  -4.652
REMARK INTRA:                  -1.173
REMARK UNBOUND:                -1.009
REMARK SMILES CCCCCCCCCCCCCCC(=O)[O-]
REMARK SMILES IDX 9 1 10 2 11 3 12 4 13 5 14 6 15 7 16 8 17 9 8 10 7 11 6 12
REMARK SMILES IDX 5 13 4 14 3 15 2 16 1 17
REMARK H PARENT
REMARK Flexibility Score: inf
ROOT
ATOM      1  C   UNL     1     -20.595   0.045  13.846  1.00  0.00     0.000 C 
ENDROOT
BRANCH   1   2
ATOM      2  C   UNL     1     -20.900   1.420  13.220  1.00  0.00     0.000 C 
BRANCH   2   3
ATOM      3  C   UNL     1     -21.887   1.389  12.039  1.00  0.00     0.000 C 
BRANCH   3   4
ATOM      4  C   UNL     1     -21.237   1.810  10.709  1.00  0.00     0.000 C 
BRANCH   4   5
ATOM      5  C   UNL     1     -22.189   2.624   9.815  1.00  0.00     0.006 C 
BRANCH   5   6
ATOM      6  C   UNL     1     -21.478   3.477   8.751  1.00  0.00     0.053 C 
BRANCH   6   7
ATOM      7  C   UNL     1     -21.568   4.942   9.054  1.00  0.00     0.041 C 
ATOM      8  O   UNL     1     -22.372   5.673   8.419  1.00  0.00    -0.550 OA
ATOM      9  O   UNL     1     -20.739   5.504  10.017  1.00  0.00    -0.550 OA
ENDBRANCH   6   7
ENDBRANCH   5   6
ENDBRANCH   4   5
ENDBRANCH   3   4
ENDBRANCH   2   3
ENDBRANCH   1   2
BRANCH   1  10
ATOM     10  C   UNL     1     -21.469  -1.116  13.330  1.00  0.00     0.000 C 
BRANCH  10  11
ATOM     11  C   UNL     1     -20.709  -2.202  12.544  1.00  0.00    -0.000 C 
BRANCH  11  12
ATOM     12  C   UNL     1     -19.701  -1.666  11.508  1.00  0.00    -0.000 C 
BRANCH  12  13
ATOM     13  C   UNL     1     -19.946  -2.129  10.058  1.00  0.00    -0.000 C 
BRANCH  13  14
ATOM     14  C   UNL     1     -20.313  -1.007   9.071  1.00  0.00    -0.000 C 
BRANCH  14  15
ATOM     15  C   UNL     1     -20.264  -1.461   7.604  1.00  0.00    -0.000 C 
BRANCH  15  16
ATOM     16  C   UNL     1     -20.439  -0.271   6.654  1.00  0.00    -0.003 C 
ATOM     17  C   UNL     1     -19.855   1.005   7.255  1.00  0.00     0.004 C 
ENDBRANCH  15  16
ENDBRANCH  14  15
ENDBRANCH  13  14
ENDBRANCH  12  13
ENDBRANCH  11  12
ENDBRANCH  10  11
ENDBRANCH   1  10
TORSDOF 13
ENDMDL
MODEL 9
REMARK VINA RESULT:    -2.591      1.210      2.255
REMARK INTER + INTRA:          -5.570
REMARK INTER:                  -4.498
REMARK INTRA:                  -1.072
REMARK UNBOUND:                -1.009
REMARK SMILES CCCCCCCCCCCCCCC(=O)[O-]
REMARK SMILES IDX 9 1 10 2 11 3 12 4 13 5 14 6 15 7 16 8 17 9 8 10 7 11 6 12
REMARK SMILES IDX 5 13 4 14 3 15 2 16 1 17
REMARK H PARENT
REMARK Flexibility Score: inf
ROOT
ATOM      1  C   UNL     1     -20.517   0.229   6.871  1.00  0.00     0.000 C 
ENDROOT
BRANCH   1   2
ATOM      2  C   UNL     1     -20.029   1.342   7.818  1.00  0.00     0.000 C 
BRANCH   2   3
ATOM      3  C   UNL     1     -21.005   2.521   7.989  1.00  0.00     0.000 C 
BRANCH   3   4
ATOM      4  C   UNL     1     -21.886   2.387   9.243  1.00  0.00     0.000 C 
BRANCH   4   5
ATOM      5  C   UNL     1     -21.066   2.152  10.523  1.00  0.00     0.006 C 
BRANCH   5   6
ATOM      6  C   UNL     1     -21.491   0.912  11.326  1.00  0.00     0.053 C 
BRANCH   6   7
ATOM      7  C   UNL     1     -21.233   1.076  12.792  1.00  0.00     0.041 C 
ATOM      8  O   UNL     1     -20.810   2.173  13.244  1.00  0.00    -0.550 OA
ATOM      9  O   UNL     1     -21.429   0.005  13.656  1.00  0.00    -0.550 OA
ENDBRANCH   6   7
ENDBRANCH   5   6
ENDBRANCH   4   5
ENDBRANCH   3   4
ENDBRANCH   2   3
ENDBRANCH   1   2
BRANCH   1  10
ATOM     10  C   UNL     1     -20.442  -1.199   7.448  1.00  0.00     0.000 C 
BRANCH  10  11
ATOM     11  C   UNL     1     -20.221  -1.273   8.972  1.00  0.00    -0.000 C 
BRANCH  11  12
ATOM     12  C   UNL     1     -20.024  -2.697   9.530  1.00  0.00    -0.000 C 
BRANCH  12  13
ATOM     13  C   UNL     1     -18.717  -3.393   9.097  1.00  0.00    -0.000 C 
BRANCH  13  14
ATOM     14  C   UNL     1     -18.907  -4.670   8.261  1.00  0.00    -0.000 C 
BRANCH  14  15
ATOM     15  C   UNL     1     -19.640  -5.783   9.025  1.00  0.00    -0.000 C 
BRANCH  15  16
ATOM     16  C   UNL     1     -20.981  -6.114   8.361  1.00  0.00    -0.003 C 
ATOM     17  C   UNL     1     -22.007  -6.577   9.391  1.00  0.00     0.004 C 
ENDBRANCH  15  16
ENDBRANCH  14  15
ENDBRANCH  13  14
ENDBRANCH  12  13
ENDBRANCH  11  12
ENDBRANCH  10  11
ENDBRANCH   1  10
TORSDOF 13
ENDMDL
