MODEL 1
REMARK VINA RESULT:    -3.953      0.000      0.000
REMARK INTER + INTRA:          -6.376
REMARK INTER:                  -5.801
REMARK INTRA:                  -0.574
REMARK UNBOUND:                -0.574
REMARK SMILES O=C([O-])CCCCCCCC(=O)[O-]
REMARK SMILES IDX 7 1 6 2 5 3 4 4 2 5 1 6 3 7 8 8 9 9 10 10 11 11 12 12 13 13
REMARK H PARENT
REMARK Flexibility Score: inf
ROOT
ATOM      1  C   UNL     1     -36.224  81.352 -19.195  1.00  0.00     0.000 C 
ENDROOT
BRANCH   1   2
ATOM      2  C   UNL     1     -36.362  82.120 -17.876  1.00  0.00     0.000 C 
BRANCH   2   3
ATOM      3  C   UNL     1     -36.984  83.505 -18.107  1.00  0.00     0.006 C 
BRANCH   3   4
ATOM      4  C   UNL     1     -36.148  84.629 -17.482  1.00  0.00     0.053 C 
BRANCH   4   5
ATOM      5  C   UNL     1     -34.977  84.993 -18.342  1.00  0.00     0.041 C 
ATOM      6  O   UNL     1     -33.947  85.505 -17.829  1.00  0.00    -0.550 OA
ATOM      7  O   UNL     1     -35.010  84.736 -19.707  1.00  0.00    -0.550 OA
ENDBRANCH   4   5
ENDBRANCH   3   4
ENDBRANCH   2   3
ENDBRANCH   1   2
BRANCH   1   8
ATOM      8  C   UNL     1     -37.164  81.925 -20.267  1.00  0.00     0.000 C 
BRANCH   8   9
ATOM      9  C   UNL     1     -38.021  80.843 -20.943  1.00  0.00     0.006 C 
BRANCH   9  10
ATOM     10  C   UNL     1     -38.764  79.961 -19.931  1.00  0.00     0.053 C 
BRANCH  10  11
ATOM     11  C   UNL     1     -38.378  78.527 -20.107  1.00  0.00     0.041 C 
ATOM     12  O   UNL     1     -39.215  77.613 -19.885  1.00  0.00    -0.550 OA
ATOM     13  O   UNL     1     -37.078  78.197 -20.470  1.00  0.00    -0.550 OA
ENDBRANCH  10  11
ENDBRANCH   9  10
ENDBRANCH   8   9
ENDBRANCH   1   8
TORSDOF 8
ENDMDL
MODEL 2
REMARK VINA RESULT:    -3.950      3.366      4.819
REMARK INTER + INTRA:          -6.372
REMARK INTER:                  -5.661
REMARK INTRA:                  -0.711
REMARK UNBOUND:                -0.574
REMARK SMILES O=C([O-])CCCCCCCC(=O)[O-]
REMARK SMILES IDX 7 1 6 2 5 3 4 4 2 5 1 6 3 7 8 8 9 9 10 10 11 11 12 12 13 13
REMARK H PARENT
REMARK Flexibility Score: inf
ROOT
ATOM      1  C   UNL     1     -35.902  81.109 -20.102  1.00  0.00     0.000 C 
ENDROOT
BRANCH   1   2
ATOM      2  C   UNL     1     -36.522  81.600 -18.790  1.00  0.00     0.000 C 
BRANCH   2   3
ATOM      3  C   UNL     1     -37.095  83.016 -18.947  1.00  0.00     0.006 C 
BRANCH   3   4
ATOM      4  C   UNL     1     -36.474  84.009 -17.955  1.00  0.00     0.053 C 
BRANCH   4   5
ATOM      5  C   UNL     1     -35.290  84.713 -18.544  1.00  0.00     0.041 C 
ATOM      6  O   UNL     1     -35.126  84.744 -19.793  1.00  0.00    -0.550 OA
ATOM      7  O   UNL     1     -34.383  85.362 -17.715  1.00  0.00    -0.550 OA
ENDBRANCH   4   5
ENDBRANCH   3   4
ENDBRANCH   2   3
ENDBRANCH   1   2
BRANCH   1   8
ATOM      8  C   UNL     1     -34.378  81.305 -20.099  1.00  0.00     0.000 C 
BRANCH   8   9
ATOM      9  C   UNL     1     -33.776  81.234 -18.687  1.00  0.00     0.006 C 
BRANCH   9  10
ATOM     10  C   UNL     1     -32.295  80.833 -18.696  1.00  0.00     0.053 C 
BRANCH  10  11
ATOM     11  C   UNL     1     -31.450  81.969 -19.180  1.00  0.00     0.041 C 
ATOM     12  O   UNL     1     -30.423  81.746 -19.872  1.00  0.00    -0.550 OA
ATOM     13  O   UNL     1     -31.771  83.274 -18.825  1.00  0.00    -0.550 OA
ENDBRANCH  10  11
ENDBRANCH   9  10
ENDBRANCH   8   9
ENDBRANCH   1   8
TORSDOF 8
ENDMDL
MODEL 3
REMARK VINA RESULT:    -3.922     18.031     20.107
REMARK INTER + INTRA:          -6.330
REMARK INTER:                  -5.766
REMARK INTRA:                  -0.564
REMARK UNBOUND:                -0.574
REMARK SMILES O=C([O-])CCCCCCCC(=O)[O-]
REMARK SMILES IDX 7 1 6 2 5 3 4 4 2 5 1 6 3 7 8 8 9 9 10 10 11 11 12 12 13 13
REMARK H PARENT
REMARK Flexibility Score: inf
ROOT
ATOM      1  C   UNL     1     -24.778  95.271 -30.594  1.00  0.00     0.000 C 
ENDROOT
BRANCH   1   2
ATOM      2  C   UNL     1     -24.368  96.353 -29.589  1.00  0.00     0.000 C 
BRANCH   2   3
ATOM      3  C   UNL     1     -25.003  96.097 -28.214  1.00  0.00     0.006 C 
BRANCH   3   4
ATOM      4  C   UNL     1     -25.741  94.752 -28.156  1.00  0.00     0.053 C 
BRANCH   4   5
ATOM      5  C   UNL     1     -26.609  94.649 -26.939  1.00  0.00     0.041 C 
ATOM      6  O   UNL     1     -26.303  95.268 -25.886  1.00  0.00    -0.550 OA
ATOM      7  O   UNL     1     -27.774  93.893 -26.978  1.00  0.00    -0.550 OA
ENDBRANCH   4   5
ENDBRANCH   3   4
ENDBRANCH   2   3
ENDBRANCH   1   2
BRANCH   1   8
ATOM      8  C   UNL     1     -23.636  94.972 -31.577  1.00  0.00     0.000 C 
BRANCH   8   9
ATOM      9  C   UNL     1     -23.276  93.479 -31.630  1.00  0.00     0.006 C 
BRANCH   9  10
ATOM     10  C   UNL     1     -24.240  92.610 -30.812  1.00  0.00     0.053 C 
BRANCH  10  11
ATOM     11  C   UNL     1     -23.480  91.743 -29.858  1.00  0.00     0.041 C 
ATOM     12  O   UNL     1     -23.654  91.861 -28.617  1.00  0.00    -0.550 OA
ATOM     13  O   UNL     1     -22.542  90.838 -30.339  1.00  0.00    -0.550 OA
ENDBRANCH  10  11
ENDBRANCH   9  10
ENDBRANCH   8   9
ENDBRANCH   1   8
TORSDOF 8
ENDMDL
MODEL 4
REMARK VINA RESULT:    -3.898     14.449     15.543
REMARK INTER + INTRA:          -6.296
REMARK INTER:                  -5.624
REMARK INTRA:                  -0.672
REMARK UNBOUND:                -0.574
REMARK SMILES O=C([O-])CCCCCCCC(=O)[O-]
REMARK SMILES IDX 7 1 6 2 5 3 4 4 2 5 1 6 3 7 8 8 9 9 10 10 11 11 12 12 13 13
REMARK H PARENT
REMARK Flexibility Score: inf
ROOT
ATOM      1  C   UNL     1     -21.825  82.564 -23.796  1.00  0.00     0.000 C 
ENDROOT
BRANCH   1   2
ATOM      2  C   UNL     1     -21.269  83.436 -22.665  1.00  0.00     0.000 C 
BRANCH   2   3
ATOM      3  C   UNL     1     -22.327  84.430 -22.164  1.00  0.00     0.006 C 
BRANCH   3   4
ATOM      4  C   UNL     1     -22.292  84.596 -20.639  1.00  0.00     0.053 C 
BRANCH   4   5
ATOM      5  C   UNL     1     -22.407  83.279 -19.935  1.00  0.00     0.041 C 
ATOM      6  O   UNL     1     -21.444  82.836 -19.255  1.00  0.00    -0.550 OA
ATOM      7  O   UNL     1     -23.591  82.555 -20.004  1.00  0.00    -0.550 OA
ENDBRANCH   4   5
ENDBRANCH   3   4
ENDBRANCH   2   3
ENDBRANCH   1   2
BRANCH   1   8
ATOM      8  C   UNL     1     -22.456  81.278 -23.240  1.00  0.00     0.000 C 
BRANCH   8   9
ATOM      9  C   UNL     1     -21.479  80.465 -22.377  1.00  0.00     0.006 C 
BRANCH   9  10
ATOM     10  C   UNL     1     -20.452  79.692 -23.215  1.00  0.00     0.053 C 
BRANCH  10  11
ATOM     11  C   UNL     1     -21.086  78.487 -23.835  1.00  0.00     0.041 C 
ATOM     12  O   UNL     1     -20.811  78.165 -25.021  1.00  0.00    -0.550 OA
ATOM     13  O   UNL     1     -22.017  77.746 -23.119  1.00  0.00    -0.550 OA
ENDBRANCH  10  11
ENDBRANCH   9  10
ENDBRANCH   8   9
ENDBRANCH   1   8
TORSDOF 8
ENDMDL
MODEL 5
REMARK VINA RESULT:    -3.866      3.253      5.438
REMARK INTER + INTRA:          -6.248
REMARK INTER:                  -5.584
REMARK INTRA:                  -0.664
REMARK UNBOUND:                -0.574
REMARK SMILES O=C([O-])CCCCCCCC(=O)[O-]
REMARK SMILES IDX 7 1 6 2 5 3 4 4 2 5 1 6 3 7 8 8 9 9 10 10 11 11 12 12 13 13
REMARK H PARENT
REMARK Flexibility Score: inf
ROOT
ATOM      1  C   UNL     1     -36.149  81.149 -19.473  1.00  0.00     0.000 C 
ENDROOT
BRANCH   1   2
ATOM      2  C   UNL     1     -34.721  81.186 -18.918  1.00  0.00     0.000 C 
BRANCH   2   3
ATOM      3  C   UNL     1     -33.699  81.429 -20.038  1.00  0.00     0.006 C 
BRANCH   3   4
ATOM      4  C   UNL     1     -32.518  82.291 -19.572  1.00  0.00     0.053 C 
BRANCH   4   5
ATOM      5  C   UNL     1     -31.259  81.487 -19.452  1.00  0.00     0.041 C 
ATOM      6  O   UNL     1     -31.315  80.241 -19.280  1.00  0.00    -0.550 OA
ATOM      7  O   UNL     1     -30.023  82.112 -19.562  1.00  0.00    -0.550 OA
ENDBRANCH   4   5
ENDBRANCH   3   4
ENDBRANCH   2   3
ENDBRANCH   1   2
BRANCH   1   8
ATOM      8  C   UNL     1     -37.046  82.166 -18.752  1.00  0.00     0.000 C 
BRANCH   8   9
ATOM      9  C   UNL     1     -36.332  82.860 -17.582  1.00  0.00     0.006 C 
BRANCH   9  10
ATOM     10  C   UNL     1     -36.377  84.390 -17.687  1.00  0.00     0.053 C 
BRANCH  10  11
ATOM     11  C   UNL     1     -35.180  84.898 -18.427  1.00  0.00     0.041 C 
ATOM     12  O   UNL     1     -35.090  84.742 -19.673  1.00  0.00    -0.550 OA
ATOM     13  O   UNL     1     -34.138  85.501 -17.732  1.00  0.00    -0.550 OA
ENDBRANCH  10  11
ENDBRANCH   9  10
ENDBRANCH   8   9
ENDBRANCH   1   8
TORSDOF 8
ENDMDL
MODEL 6
REMARK VINA RESULT:    -3.848      2.792      5.137
REMARK INTER + INTRA:          -6.222
REMARK INTER:                  -5.437
REMARK INTRA:                  -0.786
REMARK UNBOUND:                -0.574
REMARK SMILES O=C([O-])CCCCCCCC(=O)[O-]
REMARK SMILES IDX 7 1 6 2 5 3 4 4 2 5 1 6 3 7 8 8 9 9 10 10 11 11 12 12 13 13
REMARK H PARENT
REMARK Flexibility Score: inf
ROOT
ATOM      1  C   UNL     1     -36.837  81.889 -20.220  1.00  0.00     0.000 C 
ENDROOT
BRANCH   1   2
ATOM      2  C   UNL     1     -36.254  80.517 -19.865  1.00  0.00     0.000 C 
BRANCH   2   3
ATOM      3  C   UNL     1     -34.826  80.367 -20.409  1.00  0.00     0.006 C 
BRANCH   3   4
ATOM      4  C   UNL     1     -34.091  81.711 -20.490  1.00  0.00     0.053 C 
BRANCH   4   5
ATOM      5  C   UNL     1     -33.092  81.865 -19.384  1.00  0.00     0.041 C 
ATOM      6  O   UNL     1     -33.001  80.988 -18.485  1.00  0.00    -0.550 OA
ATOM      7  O   UNL     1     -32.240  82.962 -19.363  1.00  0.00    -0.550 OA
ENDBRANCH   4   5
ENDBRANCH   3   4
ENDBRANCH   2   3
ENDBRANCH   1   2
BRANCH   1   8
ATOM      8  C   UNL     1     -37.410  82.583 -18.975  1.00  0.00     0.000 C 
BRANCH   8   9
ATOM      9  C   UNL     1     -36.340  82.861 -17.908  1.00  0.00     0.006 C 
BRANCH   9  10
ATOM     10  C   UNL     1     -36.200  84.355 -17.587  1.00  0.00     0.053 C 
BRANCH  10  11
ATOM     11  C   UNL     1     -35.066  84.950 -18.358  1.00  0.00     0.041 C 
ATOM     12  O   UNL     1     -35.098  84.977 -19.616  1.00  0.00    -0.550 OA
ATOM     13  O   UNL     1     -33.948  85.434 -17.688  1.00  0.00    -0.550 OA
ENDBRANCH  10  11
ENDBRANCH   9  10
ENDBRANCH   8   9
ENDBRANCH   1   8
TORSDOF 8
ENDMDL
MODEL 7
REMARK VINA RESULT:    -3.782     14.467     16.278
REMARK INTER + INTRA:          -6.125
REMARK INTER:                  -5.523
REMARK INTRA:                  -0.603
REMARK UNBOUND:                -0.574
REMARK SMILES O=C([O-])CCCCCCCC(=O)[O-]
REMARK SMILES IDX 7 1 6 2 5 3 4 4 2 5 1 6 3 7 8 8 9 9 10 10 11 11 12 12 13 13
REMARK H PARENT
REMARK Flexibility Score: inf
ROOT
ATOM      1  C   UNL     1     -21.739  82.246 -24.083  1.00  0.00     0.000 C 
ENDROOT
BRANCH   1   2
ATOM      2  C   UNL     1     -22.496  81.142 -23.337  1.00  0.00     0.000 C 
BRANCH   2   3
ATOM      3  C   UNL     1     -21.544  80.319 -22.456  1.00  0.00     0.006 C 
BRANCH   3   4
ATOM      4  C   UNL     1     -20.621  79.415 -23.284  1.00  0.00     0.053 C 
BRANCH   4   5
ATOM      5  C   UNL     1     -21.316  78.159 -23.713  1.00  0.00     0.041 C 
ATOM      6  O   UNL     1     -22.240  77.672 -23.010  1.00  0.00    -0.550 OA
ATOM      7  O   UNL     1     -20.963  77.543 -24.908  1.00  0.00    -0.550 OA
ENDBRANCH   4   5
ENDBRANCH   3   4
ENDBRANCH   2   3
ENDBRANCH   1   2
BRANCH   1   8
ATOM      8  C   UNL     1     -22.104  83.633 -23.532  1.00  0.00     0.000 C 
BRANCH   8   9
ATOM      9  C   UNL     1     -21.294  84.003 -22.280  1.00  0.00     0.006 C 
BRANCH   9  10
ATOM     10  C   UNL     1     -22.183  84.455 -21.114  1.00  0.00     0.053 C 
BRANCH  10  11
ATOM     11  C   UNL     1     -22.380  83.334 -20.143  1.00  0.00     0.041 C 
ATOM     12  O   UNL     1     -21.443  82.982 -19.380  1.00  0.00    -0.550 OA
ATOM     13  O   UNL     1     -23.586  82.644 -20.114  1.00  0.00    -0.550 OA
ENDBRANCH  10  11
ENDBRANCH   9  10
ENDBRANCH   8   9
ENDBRANCH   1   8
TORSDOF 8
ENDMDL
MODEL 8
REMARK VINA RESULT:    -3.756     13.404     15.122
REMARK INTER + INTRA:          -6.087
REMARK INTER:                  -5.608
REMARK INTRA:                  -0.479
REMARK UNBOUND:                -0.574
REMARK SMILES O=C([O-])CCCCCCCC(=O)[O-]
REMARK SMILES IDX 7 1 6 2 5 3 4 4 2 5 1 6 3 7 8 8 9 9 10 10 11 11 12 12 13 13
REMARK H PARENT
REMARK Flexibility Score: inf
ROOT
ATOM      1  C   UNL     1     -21.444  84.565 -22.508  1.00  0.00     0.000 C 
ENDROOT
BRANCH   1   2
ATOM      2  C   UNL     1     -22.478  84.364 -23.622  1.00  0.00     0.000 C 
BRANCH   2   3
ATOM      3  C   UNL     1     -23.141  85.695 -24.005  1.00  0.00     0.006 C 
BRANCH   3   4
ATOM      4  C   UNL     1     -22.128  86.843 -24.101  1.00  0.00     0.053 C 
BRANCH   4   5
ATOM      5  C   UNL     1     -22.602  87.925 -25.024  1.00  0.00     0.041 C 
ATOM      6  O   UNL     1     -23.071  87.633 -26.156  1.00  0.00    -0.550 OA
ATOM      7  O   UNL     1     -22.554  89.253 -24.621  1.00  0.00    -0.550 OA
ENDBRANCH   4   5
ENDBRANCH   3   4
ENDBRANCH   2   3
ENDBRANCH   1   2
BRANCH   1   8
ATOM      8  C   UNL     1     -22.130  84.701 -21.140  1.00  0.00     0.000 C 
BRANCH   8   9
ATOM      9  C   UNL     1     -21.956  83.451 -20.264  1.00  0.00     0.006 C 
BRANCH   9  10
ATOM     10  C   UNL     1     -23.277  82.712 -20.019  1.00  0.00     0.053 C 
BRANCH  10  11
ATOM     11  C   UNL     1     -23.628  81.864 -21.200  1.00  0.00     0.041 C 
ATOM     12  O   UNL     1     -22.867  80.926 -21.556  1.00  0.00    -0.550 OA
ATOM     13  O   UNL     1     -24.772  82.139 -21.939  1.00  0.00    -0.550 OA
ENDBRANCH  10  11
ENDBRANCH   9  10
ENDBRANCH   8   9
ENDBRANCH   1   8
TORSDOF 8
ENDMDL
MODEL 9
REMARK VINA RESULT:    -3.701     17.871     20.572
REMARK INTER + INTRA:          -6.007
REMARK INTER:                  -5.427
REMARK INTRA:                  -0.580
REMARK UNBOUND:                -0.574
REMARK SMILES O=C([O-])CCCCCCCC(=O)[O-]
REMARK SMILES IDX 7 1 6 2 5 3 4 4 2 5 1 6 3 7 8 8 9 9 10 10 11 11 12 12 13 13
REMARK H PARENT
REMARK Flexibility Score: inf
ROOT
ATOM      1  C   UNL     1     -24.493  92.662 -30.412  1.00  0.00     0.000 C 
ENDROOT
BRANCH   1   2
ATOM      2  C   UNL     1     -23.248  92.665 -31.306  1.00  0.00     0.000 C 
BRANCH   2   3
ATOM      3  C   UNL     1     -23.258  93.866 -32.262  1.00  0.00     0.006 C 
BRANCH   3   4
ATOM      4  C   UNL     1     -24.377  94.863 -31.931  1.00  0.00     0.053 C 
BRANCH   4   5
ATOM      5  C   UNL     1     -23.835  96.124 -31.328  1.00  0.00     0.041 C 
ATOM      6  O   UNL     1     -23.948  96.336 -30.092  1.00  0.00    -0.550 OA
ATOM      7  O   UNL     1     -23.177  97.050 -32.128  1.00  0.00    -0.550 OA
ENDBRANCH   4   5
ENDBRANCH   3   4
ENDBRANCH   2   3
ENDBRANCH   1   2
BRANCH   1   8
ATOM      8  C   UNL     1     -24.106  92.555 -28.930  1.00  0.00     0.000 C 
BRANCH   8   9
ATOM      9  C   UNL     1     -24.766  93.640 -28.066  1.00  0.00     0.006 C 
BRANCH   9  10
ATOM     10  C   UNL     1     -26.273  93.766 -28.325  1.00  0.00     0.053 C 
BRANCH  10  11
ATOM     11  C   UNL     1     -26.970  94.288 -27.108  1.00  0.00     0.041 C 
ATOM     12  O   UNL     1     -26.317  94.869 -26.203  1.00  0.00    -0.550 OA
ATOM     13  O   UNL     1     -28.336  94.089 -26.952  1.00  0.00    -0.550 OA
ENDBRANCH  10  11
ENDBRANCH   9  10
ENDBRANCH   8   9
ENDBRANCH   1   8
TORSDOF 8
ENDMDL
