MODEL 1
REMARK VINA RESULT:    -8.804      0.000      0.000
REMARK INTER + INTRA:          -9.576
REMARK INTER:                  -9.576
REMARK INTRA:                   0.000
REMARK UNBOUND:                 0.000
REMARK SMILES C[C@H]1CC[C@H]2[N@H+](C1)C[C@H]1[C@H]3C[C@H]4[C@H](C[C@H](O)[C@H]5C[C@@H](O)CC[C@]54C)[C@H]3CC[C@@H]1[C@]2(C)O
REMARK SMILES IDX 5 1 6 2 8 3 7 4 4 5 29 6 3 7 28 8 30 9 2 10 27 11 9 12 1 13
REMARK SMILES IDX 26 14 10 15 25 16 11 17 13 18 12 19 14 20 23 21 15 22 17 23
REMARK SMILES IDX 22 24 24 25 18 26 21 27 19 28 31 30 16 32 20 34
REMARK H PARENT 6 29 31 31 16 33 20 35
REMARK Flexibility Score: inf
ROOT
ATOM      1  C   UNL     1      -9.127 -19.341 -24.861  1.00  0.00     0.216 C 
ATOM      2  N   UNL     1      -8.481 -19.267 -26.200  1.00  0.00    -0.330 N 
ATOM      3  C   UNL     1      -7.706 -20.495 -26.547  1.00  0.00     0.266 C 
ATOM      4  C   UNL     1      -9.473 -19.027 -27.284  1.00  0.00     0.265 C 
ATOM      5  C   UNL     1     -10.039 -18.110 -24.591  1.00  0.00     0.069 C 
ATOM      6  C   UNL     1      -8.081 -19.553 -23.696  1.00  0.00     0.117 C 
ATOM      7  C   UNL     1     -11.057 -17.911 -25.706  1.00  0.00     0.015 C 
ATOM      8  C   UNL     1      -6.924 -20.539 -24.123  1.00  0.00     0.036 C 
ATOM      9  C   UNL     1      -7.421 -18.213 -23.253  1.00  0.00     0.049 C 
ATOM     10  C   UNL     1     -10.321 -17.769 -27.040  1.00  0.00     0.041 C 
ATOM     11  C   UNL     1      -6.486 -21.461 -22.960  1.00  0.00     0.007 C 
ATOM     12  C   UNL     1      -7.314 -21.389 -25.341  1.00  0.00     0.054 C 
ATOM     13  C   UNL     1     -11.317 -17.553 -28.185  1.00  0.00     0.013 C 
ATOM     14  C   UNL     1      -5.314 -22.345 -23.361  1.00  0.00     0.004 C 
ATOM     15  C   UNL     1      -6.245 -22.457 -25.736  1.00  0.00     0.002 C 
ATOM     16  C   UNL     1      -5.664 -23.253 -24.563  1.00  0.00    -0.004 C 
ATOM     17  C   UNL     1      -5.022 -21.973 -26.540  1.00  0.00     0.009 C 
ATOM     18  C   UNL     1      -4.379 -23.890 -25.136  1.00  0.00    -0.001 C 
ATOM     19  C   UNL     1      -3.803 -22.808 -26.076  1.00  0.00    -0.001 C 
ATOM     20  C   UNL     1      -4.639 -25.250 -25.843  1.00  0.00     0.036 C 
ATOM     21  C   UNL     1      -2.843 -23.363 -27.190  1.00  0.00    -0.024 C 
ATOM     22  C   UNL     1      -4.767 -25.150 -27.374  1.00  0.00     0.118 C 
ATOM     23  C   UNL     1      -3.495 -24.544 -28.019  1.00  0.00     0.026 C 
ATOM     24  C   UNL     1      -2.387 -22.185 -28.118  1.00  0.00     0.010 C 
ATOM     25  C   UNL     1      -1.567 -23.903 -26.479  1.00  0.00     0.012 C 
ATOM     26  C   UNL     1      -3.787 -24.146 -29.482  1.00  0.00     0.038 C 
ATOM     27  C   UNL     1      -1.684 -22.663 -29.400  1.00  0.00     0.032 C 
ATOM     28  C   UNL     1      -2.507 -23.699 -30.206  1.00  0.00     0.114 C 
ATOM     29  H   UNL     1      -7.818 -18.455 -26.195  1.00  0.00     0.348 HD
ENDROOT
BRANCH   6  30
ATOM     30  O   UNL     1      -8.820 -20.091 -22.615  1.00  0.00    -0.384 OA
ATOM     31  H   UNL     1      -9.266 -19.355 -22.119  1.00  0.00     0.211 HD
ENDBRANCH   6  30
BRANCH  22  32
ATOM     32  O   UNL     1      -4.981 -26.435 -27.903  1.00  0.00    -0.393 OA
ATOM     33  H   UNL     1      -5.460 -26.959 -27.208  1.00  0.00     0.210 HD
ENDBRANCH  22  32
BRANCH  28  34
ATOM     34  O   UNL     1      -2.859 -23.171 -31.460  1.00  0.00    -0.393 OA
ATOM     35  H   UNL     1      -3.652 -22.591 -31.314  1.00  0.00     0.210 HD
ENDBRANCH  28  34
TORSDOF 3
ENDMDL
MODEL 2
REMARK VINA RESULT:    -8.773      2.457      3.104
REMARK INTER + INTRA:          -9.542
REMARK INTER:                  -9.542
REMARK INTRA:                   0.000
REMARK UNBOUND:                 0.000
REMARK SMILES C[C@H]1CC[C@H]2[N@H+](C1)C[C@H]1[C@H]3C[C@H]4[C@H](C[C@H](O)[C@H]5C[C@@H](O)CC[C@]54C)[C@H]3CC[C@@H]1[C@]2(C)O
REMARK SMILES IDX 5 1 6 2 8 3 7 4 4 5 29 6 3 7 28 8 30 9 2 10 27 11 9 12 1 13
REMARK SMILES IDX 26 14 10 15 25 16 11 17 13 18 12 19 14 20 23 21 15 22 17 23
REMARK SMILES IDX 22 24 24 25 18 26 21 27 19 28 31 30 16 32 20 34
REMARK H PARENT 6 29 31 31 16 33 20 35
REMARK Flexibility Score: inf
ROOT
ATOM      1  C   UNL     1      -8.596 -16.671 -28.112  1.00  0.00     0.216 C 
ATOM      2  N   UNL     1      -7.565 -17.070 -29.110  1.00  0.00    -0.330 N 
ATOM      3  C   UNL     1      -7.139 -18.495 -28.976  1.00  0.00     0.266 C 
ATOM      4  C   UNL     1      -8.032 -16.859 -30.507  1.00  0.00     0.265 C 
ATOM      5  C   UNL     1      -9.119 -15.229 -28.368  1.00  0.00     0.069 C 
ATOM      6  C   UNL     1      -8.097 -16.850 -26.624  1.00  0.00     0.117 C 
ATOM      7  C   UNL     1      -9.612 -15.058 -29.799  1.00  0.00     0.015 C 
ATOM      8  C   UNL     1      -7.229 -18.158 -26.452  1.00  0.00     0.036 C 
ATOM      9  C   UNL     1      -7.234 -15.644 -26.148  1.00  0.00     0.049 C 
ATOM     10  C   UNL     1      -8.482 -15.413 -30.767  1.00  0.00     0.041 C 
ATOM     11  C   UNL     1      -7.493 -18.859 -25.099  1.00  0.00     0.007 C 
ATOM     12  C   UNL     1      -7.450 -19.149 -27.603  1.00  0.00     0.054 C 
ATOM     13  C   UNL     1      -8.941 -15.238 -32.219  1.00  0.00     0.013 C 
ATOM     14  C   UNL     1      -6.587 -20.068 -24.912  1.00  0.00     0.004 C 
ATOM     15  C   UNL     1      -6.695 -20.505 -27.425  1.00  0.00     0.002 C 
ATOM     16  C   UNL     1      -6.796 -21.120 -26.026  1.00  0.00    -0.004 C 
ATOM     17  C   UNL     1      -5.193 -20.532 -27.770  1.00  0.00     0.009 C 
ATOM     18  C   UNL     1      -5.658 -22.164 -25.987  1.00  0.00    -0.001 C 
ATOM     19  C   UNL     1      -4.508 -21.503 -26.777  1.00  0.00    -0.001 C 
ATOM     20  C   UNL     1      -6.084 -23.547 -26.553  1.00  0.00     0.036 C 
ATOM     21  C   UNL     1      -3.462 -22.518 -27.368  1.00  0.00    -0.024 C 
ATOM     22  C   UNL     1      -5.678 -23.781 -28.019  1.00  0.00     0.118 C 
ATOM     23  C   UNL     1      -4.145 -23.667 -28.217  1.00  0.00     0.026 C 
ATOM     24  C   UNL     1      -2.393 -21.735 -28.205  1.00  0.00     0.010 C 
ATOM     25  C   UNL     1      -2.713 -23.167 -26.167  1.00  0.00     0.012 C 
ATOM     26  C   UNL     1      -3.815 -23.565 -29.721  1.00  0.00     0.038 C 
ATOM     27  C   UNL     1      -1.500 -22.655 -29.055  1.00  0.00     0.032 C 
ATOM     28  C   UNL     1      -2.299 -23.621 -29.967  1.00  0.00     0.114 C 
ATOM     29  H   UNL     1      -6.722 -16.464 -28.965  1.00  0.00     0.348 HD
ENDROOT
BRANCH   6  30
ATOM     30  O   UNL     1      -9.271 -16.926 -25.836  1.00  0.00    -0.384 OA
ATOM     31  H   UNL     1      -9.842 -17.670 -26.163  1.00  0.00     0.211 HD
ENDBRANCH   6  30
BRANCH  22  32
ATOM     32  O   UNL     1      -6.096 -25.063 -28.415  1.00  0.00    -0.393 OA
ATOM     33  H   UNL     1      -5.380 -25.436 -28.994  1.00  0.00     0.210 HD
ENDBRANCH  22  32
BRANCH  28  34
ATOM     34  O   UNL     1      -2.050 -23.332 -31.319  1.00  0.00    -0.393 OA
ATOM     35  H   UNL     1      -2.810 -22.779 -31.638  1.00  0.00     0.210 HD
ENDBRANCH  28  34
TORSDOF 3
ENDMDL
MODEL 3
REMARK VINA RESULT:    -8.669      3.440      5.052
REMARK INTER + INTRA:          -9.429
REMARK INTER:                  -9.429
REMARK INTRA:                   0.000
REMARK UNBOUND:                 0.000
REMARK SMILES C[C@H]1CC[C@H]2[N@H+](C1)C[C@H]1[C@H]3C[C@H]4[C@H](C[C@H](O)[C@H]5C[C@@H](O)CC[C@]54C)[C@H]3CC[C@@H]1[C@]2(C)O
REMARK SMILES IDX 5 1 6 2 8 3 7 4 4 5 29 6 3 7 28 8 30 9 2 10 27 11 9 12 1 13
REMARK SMILES IDX 26 14 10 15 25 16 11 17 13 18 12 19 14 20 23 21 15 22 17 23
REMARK SMILES IDX 22 24 24 25 18 26 21 27 19 28 31 30 16 32 20 34
REMARK H PARENT 6 29 31 31 16 33 20 35
REMARK Flexibility Score: inf
ROOT
ATOM      1  C   UNL     1     -10.013 -16.910 -29.264  1.00  0.00     0.216 C 
ATOM      2  N   UNL     1     -10.282 -18.342 -29.568  1.00  0.00    -0.330 N 
ATOM      3  C   UNL     1      -9.188 -19.253 -29.118  1.00  0.00     0.266 C 
ATOM      4  C   UNL     1     -11.554 -18.812 -28.956  1.00  0.00     0.265 C 
ATOM      5  C   UNL     1     -11.230 -16.007 -29.617  1.00  0.00     0.069 C 
ATOM      6  C   UNL     1      -8.688 -16.385 -29.944  1.00  0.00     0.117 C 
ATOM      7  C   UNL     1     -12.507 -16.503 -28.953  1.00  0.00     0.015 C 
ATOM      8  C   UNL     1      -7.545 -17.475 -29.913  1.00  0.00     0.036 C 
ATOM      9  C   UNL     1      -8.914 -15.980 -31.431  1.00  0.00     0.049 C 
ATOM     10  C   UNL     1     -12.760 -17.954 -29.367  1.00  0.00     0.041 C 
ATOM     11  C   UNL     1      -6.151 -16.851 -29.665  1.00  0.00     0.007 C 
ATOM     12  C   UNL     1      -7.820 -18.565 -28.866  1.00  0.00     0.054 C 
ATOM     13  C   UNL     1     -14.049 -18.482 -28.726  1.00  0.00     0.013 C 
ATOM     14  C   UNL     1      -5.052 -17.903 -29.725  1.00  0.00     0.004 C 
ATOM     15  C   UNL     1      -6.666 -19.609 -28.722  1.00  0.00     0.002 C 
ATOM     16  C   UNL     1      -5.257 -19.009 -28.663  1.00  0.00    -0.004 C 
ATOM     17  C   UNL     1      -6.584 -20.728 -29.779  1.00  0.00     0.009 C 
ATOM     18  C   UNL     1      -4.324 -20.203 -28.957  1.00  0.00    -0.001 C 
ATOM     19  C   UNL     1      -5.084 -21.030 -30.016  1.00  0.00    -0.001 C 
ATOM     20  C   UNL     1      -3.959 -21.016 -27.682  1.00  0.00     0.036 C 
ATOM     21  C   UNL     1      -4.657 -22.541 -30.088  1.00  0.00    -0.024 C 
ATOM     22  C   UNL     1      -4.813 -22.279 -27.473  1.00  0.00     0.118 C 
ATOM     23  C   UNL     1      -4.705 -23.253 -28.674  1.00  0.00     0.026 C 
ATOM     24  C   UNL     1      -5.546 -23.285 -31.142  1.00  0.00     0.010 C 
ATOM     25  C   UNL     1      -3.192 -22.586 -30.615  1.00  0.00     0.012 C 
ATOM     26  C   UNL     1      -5.817 -24.319 -28.588  1.00  0.00     0.038 C 
ATOM     27  C   UNL     1      -5.404 -24.815 -31.081  1.00  0.00     0.032 C 
ATOM     28  C   UNL     1      -5.640 -25.401 -29.665  1.00  0.00     0.114 C 
ATOM     29  H   UNL     1     -10.378 -18.440 -30.607  1.00  0.00     0.348 HD
ENDROOT
BRANCH   6  30
ATOM     30  O   UNL     1      -8.305 -15.244 -29.200  1.00  0.00    -0.384 OA
ATOM     31  H   UNL     1      -7.418 -14.925 -29.514  1.00  0.00     0.211 HD
ENDBRANCH   6  30
BRANCH  22  32
ATOM     32  O   UNL     1      -4.384 -22.938 -26.308  1.00  0.00    -0.393 OA
ATOM     33  H   UNL     1      -3.393 -22.984 -26.349  1.00  0.00     0.210 HD
ENDBRANCH  22  32
BRANCH  28  34
ATOM     34  O   UNL     1      -6.775 -26.229 -29.664  1.00  0.00    -0.393 OA
ATOM     35  H   UNL     1      -6.563 -27.007 -30.243  1.00  0.00     0.210 HD
ENDBRANCH  28  34
TORSDOF 3
ENDMDL
MODEL 4
REMARK VINA RESULT:    -8.605      2.180      2.664
REMARK INTER + INTRA:          -9.359
REMARK INTER:                  -9.359
REMARK INTRA:                   0.000
REMARK UNBOUND:                 0.000
REMARK SMILES C[C@H]1CC[C@H]2[N@H+](C1)C[C@H]1[C@H]3C[C@H]4[C@H](C[C@H](O)[C@H]5C[C@@H](O)CC[C@]54C)[C@H]3CC[C@@H]1[C@]2(C)O
REMARK SMILES IDX 5 1 6 2 8 3 7 4 4 5 29 6 3 7 28 8 30 9 2 10 27 11 9 12 1 13
REMARK SMILES IDX 26 14 10 15 25 16 11 17 13 18 12 19 14 20 23 21 15 22 17 23
REMARK SMILES IDX 22 24 24 25 18 26 21 27 19 28 31 30 16 32 20 34
REMARK H PARENT 6 29 31 31 16 33 20 35
REMARK Flexibility Score: inf
ROOT
ATOM      1  C   UNL     1      -7.549 -18.784 -23.924  1.00  0.00     0.216 C 
ATOM      2  N   UNL     1      -6.311 -18.696 -24.745  1.00  0.00    -0.330 N 
ATOM      3  C   UNL     1      -6.196 -19.791 -25.754  1.00  0.00     0.266 C 
ATOM      4  C   UNL     1      -6.210 -17.396 -25.463  1.00  0.00     0.265 C 
ATOM      5  C   UNL     1      -7.707 -17.554 -22.985  1.00  0.00     0.069 C 
ATOM      6  C   UNL     1      -7.648 -20.141 -23.122  1.00  0.00     0.117 C 
ATOM      7  C   UNL     1      -7.625 -16.244 -23.756  1.00  0.00     0.015 C 
ATOM      8  C   UNL     1      -7.121 -21.362 -23.974  1.00  0.00     0.036 C 
ATOM      9  C   UNL     1      -6.828 -20.099 -21.799  1.00  0.00     0.049 C 
ATOM     10  C   UNL     1      -6.298 -16.189 -24.516  1.00  0.00     0.041 C 
ATOM     11  C   UNL     1      -7.959 -22.641 -23.740  1.00  0.00     0.007 C 
ATOM     12  C   UNL     1      -7.076 -21.038 -25.474  1.00  0.00     0.054 C 
ATOM     13  C   UNL     1      -6.176 -14.875 -25.295  1.00  0.00     0.013 C 
ATOM     14  C   UNL     1      -7.386 -23.829 -24.500  1.00  0.00     0.004 C 
ATOM     15  C   UNL     1      -6.663 -22.249 -26.371  1.00  0.00     0.002 C 
ATOM     16  C   UNL     1      -7.353 -23.573 -26.025  1.00  0.00    -0.004 C 
ATOM     17  C   UNL     1      -5.162 -22.588 -26.460  1.00  0.00     0.009 C 
ATOM     18  C   UNL     1      -6.488 -24.645 -26.722  1.00  0.00    -0.001 C 
ATOM     19  C   UNL     1      -5.041 -24.128 -26.568  1.00  0.00    -0.001 C 
ATOM     20  C   UNL     1      -6.902 -24.892 -28.200  1.00  0.00     0.036 C 
ATOM     21  C   UNL     1      -4.032 -24.698 -27.630  1.00  0.00    -0.024 C 
ATOM     22  C   UNL     1      -6.045 -24.136 -29.231  1.00  0.00     0.118 C 
ATOM     23  C   UNL     1      -4.545 -24.509 -29.116  1.00  0.00     0.026 C 
ATOM     24  C   UNL     1      -2.624 -24.045 -27.414  1.00  0.00     0.010 C 
ATOM     25  C   UNL     1      -3.875 -26.222 -27.351  1.00  0.00     0.012 C 
ATOM     26  C   UNL     1      -3.690 -23.499 -29.911  1.00  0.00     0.038 C 
ATOM     27  C   UNL     1      -1.649 -24.317 -28.572  1.00  0.00     0.032 C 
ATOM     28  C   UNL     1      -2.216 -23.931 -29.961  1.00  0.00     0.114 C 
ATOM     29  H   UNL     1      -5.488 -18.763 -24.099  1.00  0.00     0.348 HD
ENDROOT
BRANCH   6  30
ATOM     30  O   UNL     1      -9.021 -20.304 -22.818  1.00  0.00    -0.384 OA
ATOM     31  H   UNL     1      -9.116 -20.865 -22.005  1.00  0.00     0.211 HD
ENDBRANCH   6  30
BRANCH  22  32
ATOM     32  O   UNL     1      -6.497 -24.449 -30.525  1.00  0.00    -0.393 OA
ATOM     33  H   UNL     1      -7.285 -25.044 -30.420  1.00  0.00     0.210 HD
ENDBRANCH  22  32
BRANCH  28  34
ATOM     34  O   UNL     1      -1.460 -22.890 -30.524  1.00  0.00    -0.393 OA
ATOM     35  H   UNL     1      -0.904 -22.512 -29.793  1.00  0.00     0.210 HD
ENDBRANCH  28  34
TORSDOF 3
ENDMDL
MODEL 5
REMARK VINA RESULT:    -8.590      4.690      7.284
REMARK INTER + INTRA:          -9.343
REMARK INTER:                  -9.343
REMARK INTRA:                   0.000
REMARK UNBOUND:                 0.000
REMARK SMILES C[C@H]1CC[C@H]2[N@H+](C1)C[C@H]1[C@H]3C[C@H]4[C@H](C[C@H](O)[C@H]5C[C@@H](O)CC[C@]54C)[C@H]3CC[C@@H]1[C@]2(C)O
REMARK SMILES IDX 5 1 6 2 8 3 7 4 4 5 29 6 3 7 28 8 30 9 2 10 27 11 9 12 1 13
REMARK SMILES IDX 26 14 10 15 25 16 11 17 13 18 12 19 14 20 23 21 15 22 17 23
REMARK SMILES IDX 22 24 24 25 18 26 21 27 19 28 31 30 16 32 20 34
REMARK H PARENT 6 29 31 31 16 33 20 35
REMARK Flexibility Score: inf
ROOT
ATOM      1  C   UNL     1      -7.205 -21.306 -25.399  1.00  0.00     0.216 C 
ATOM      2  N   UNL     1      -8.025 -21.783 -24.252  1.00  0.00    -0.330 N 
ATOM      3  C   UNL     1      -7.840 -23.236 -23.960  1.00  0.00     0.266 C 
ATOM      4  C   UNL     1      -7.735 -21.023 -23.005  1.00  0.00     0.265 C 
ATOM      5  C   UNL     1      -7.314 -19.766 -25.585  1.00  0.00     0.069 C 
ATOM      6  C   UNL     1      -7.535 -22.076 -26.738  1.00  0.00     0.117 C 
ATOM      7  C   UNL     1      -6.984 -19.021 -24.299  1.00  0.00     0.015 C 
ATOM      8  C   UNL     1      -7.799 -23.611 -26.480  1.00  0.00     0.036 C 
ATOM      9  C   UNL     1      -8.790 -21.494 -27.453  1.00  0.00     0.049 C 
ATOM     10  C   UNL     1      -7.912 -19.507 -23.183  1.00  0.00     0.041 C 
ATOM     11  C   UNL     1      -7.225 -24.499 -27.609  1.00  0.00     0.007 C 
ATOM     12  C   UNL     1      -7.241 -24.069 -25.124  1.00  0.00     0.054 C 
ATOM     13  C   UNL     1      -7.616 -18.766 -21.874  1.00  0.00     0.013 C 
ATOM     14  C   UNL     1      -7.563 -25.967 -27.389  1.00  0.00     0.004 C 
ATOM     15  C   UNL     1      -7.383 -25.604 -24.868  1.00  0.00     0.002 C 
ATOM     16  C   UNL     1      -6.992 -26.494 -26.052  1.00  0.00    -0.004 C 
ATOM     17  C   UNL     1      -8.760 -26.123 -24.410  1.00  0.00     0.009 C 
ATOM     18  C   UNL     1      -7.614 -27.867 -25.716  1.00  0.00    -0.001 C 
ATOM     19  C   UNL     1      -8.960 -27.522 -25.045  1.00  0.00    -0.001 C 
ATOM     20  C   UNL     1      -6.690 -28.751 -24.832  1.00  0.00     0.036 C 
ATOM     21  C   UNL     1      -9.533 -28.657 -24.120  1.00  0.00    -0.024 C 
ATOM     22  C   UNL     1      -7.022 -28.706 -23.330  1.00  0.00     0.118 C 
ATOM     23  C   UNL     1      -8.479 -29.156 -23.049  1.00  0.00     0.026 C 
ATOM     24  C   UNL     1     -10.856 -28.160 -23.444  1.00  0.00     0.010 C 
ATOM     25  C   UNL     1      -9.913 -29.857 -25.037  1.00  0.00     0.012 C 
ATOM     26  C   UNL     1      -8.877 -28.776 -21.607  1.00  0.00     0.038 C 
ATOM     27  C   UNL     1     -11.337 -29.079 -22.308  1.00  0.00     0.032 C 
ATOM     28  C   UNL     1     -10.252 -29.355 -21.236  1.00  0.00     0.114 C 
ATOM     29  H   UNL     1      -9.034 -21.626 -24.487  1.00  0.00     0.348 HD
ENDROOT
BRANCH   6  30
ATOM     30  O   UNL     1      -6.400 -21.900 -27.566  1.00  0.00    -0.384 OA
ATOM     31  H   UNL     1      -6.025 -20.991 -27.427  1.00  0.00     0.211 HD
ENDBRANCH   6  30
BRANCH  22  32
ATOM     32  O   UNL     1      -6.140 -29.552 -22.636  1.00  0.00    -0.393 OA
ATOM     33  H   UNL     1      -5.691 -28.998 -21.945  1.00  0.00     0.210 HD
ENDBRANCH  22  32
BRANCH  28  34
ATOM     34  O   UNL     1     -10.646 -28.822 -19.997  1.00  0.00    -0.393 OA
ATOM     35  H   UNL     1     -11.584 -29.110 -19.846  1.00  0.00     0.210 HD
ENDBRANCH  28  34
TORSDOF 3
ENDMDL
MODEL 6
REMARK VINA RESULT:    -8.564      5.065      6.957
REMARK INTER + INTRA:          -9.315
REMARK INTER:                  -9.315
REMARK INTRA:                   0.000
REMARK UNBOUND:                 0.000
REMARK SMILES C[C@H]1CC[C@H]2[N@H+](C1)C[C@H]1[C@H]3C[C@H]4[C@H](C[C@H](O)[C@H]5C[C@@H](O)CC[C@]54C)[C@H]3CC[C@@H]1[C@]2(C)O
REMARK SMILES IDX 5 1 6 2 8 3 7 4 4 5 29 6 3 7 28 8 30 9 2 10 27 11 9 12 1 13
REMARK SMILES IDX 26 14 10 15 25 16 11 17 13 18 12 19 14 20 23 21 15 22 17 23
REMARK SMILES IDX 22 24 24 25 18 26 21 27 19 28 31 30 16 32 20 34
REMARK H PARENT 6 29 31 31 16 33 20 35
REMARK Flexibility Score: inf
ROOT
ATOM      1  C   UNL     1     -10.057 -28.723 -23.242  1.00  0.00     0.216 C 
ATOM      2  N   UNL     1     -10.235 -27.283 -23.576  1.00  0.00    -0.330 N 
ATOM      3  C   UNL     1      -9.317 -26.813 -24.657  1.00  0.00     0.266 C 
ATOM      4  C   UNL     1     -11.630 -26.976 -23.993  1.00  0.00     0.265 C 
ATOM      5  C   UNL     1     -11.121 -29.212 -22.218  1.00  0.00     0.069 C 
ATOM      6  C   UNL     1      -8.591 -29.054 -22.757  1.00  0.00     0.117 C 
ATOM      7  C   UNL     1     -12.536 -28.905 -22.689  1.00  0.00     0.015 C 
ATOM      8  C   UNL     1      -7.509 -28.245 -23.575  1.00  0.00     0.036 C 
ATOM      9  C   UNL     1      -8.386 -28.724 -21.248  1.00  0.00     0.049 C 
ATOM     10  C   UNL     1     -12.668 -27.402 -22.942  1.00  0.00     0.041 C 
ATOM     11  C   UNL     1      -6.239 -29.085 -23.850  1.00  0.00     0.007 C 
ATOM     12  C   UNL     1      -8.073 -27.708 -24.898  1.00  0.00     0.054 C 
ATOM     13  C   UNL     1     -14.087 -27.055 -23.406  1.00  0.00     0.013 C 
ATOM     14  C   UNL     1      -5.172 -28.265 -24.562  1.00  0.00     0.004 C 
ATOM     15  C   UNL     1      -7.012 -26.993 -25.795  1.00  0.00     0.002 C 
ATOM     16  C   UNL     1      -5.674 -27.730 -25.923  1.00  0.00    -0.004 C 
ATOM     17  C   UNL     1      -6.639 -25.541 -25.433  1.00  0.00     0.009 C 
ATOM     18  C   UNL     1      -4.701 -26.658 -26.461  1.00  0.00    -0.001 C 
ATOM     19  C   UNL     1      -5.134 -25.358 -25.749  1.00  0.00    -0.001 C 
ATOM     20  C   UNL     1      -4.715 -26.549 -28.012  1.00  0.00     0.036 C 
ATOM     21  C   UNL     1      -4.711 -24.040 -26.494  1.00  0.00    -0.024 C 
ATOM     22  C   UNL     1      -5.599 -25.413 -28.556  1.00  0.00     0.118 C 
ATOM     23  C   UNL     1      -5.159 -24.030 -28.013  1.00  0.00     0.026 C 
ATOM     24  C   UNL     1      -5.270 -22.799 -25.716  1.00  0.00     0.010 C 
ATOM     25  C   UNL     1      -3.157 -23.951 -26.436  1.00  0.00     0.012 C 
ATOM     26  C   UNL     1      -6.256 -22.981 -28.297  1.00  0.00     0.038 C 
ATOM     27  C   UNL     1      -5.157 -21.487 -26.510  1.00  0.00     0.032 C 
ATOM     28  C   UNL     1      -5.786 -21.566 -27.924  1.00  0.00     0.114 C 
ATOM     29  H   UNL     1     -10.034 -26.723 -22.714  1.00  0.00     0.348 HD
ENDROOT
BRANCH   6  30
ATOM     30  O   UNL     1      -8.429 -30.445 -22.959  1.00  0.00    -0.384 OA
ATOM     31  H   UNL     1      -8.821 -30.701 -23.835  1.00  0.00     0.211 HD
ENDBRANCH   6  30
BRANCH  22  32
ATOM     32  O   UNL     1      -5.519 -25.399 -29.960  1.00  0.00    -0.393 OA
ATOM     33  H   UNL     1      -4.723 -25.938 -30.210  1.00  0.00     0.210 HD
ENDBRANCH  22  32
BRANCH  28  34
ATOM     34  O   UNL     1      -6.878 -20.688 -28.021  1.00  0.00    -0.393 OA
ATOM     35  H   UNL     1      -7.443 -21.014 -28.770  1.00  0.00     0.210 HD
ENDBRANCH  28  34
TORSDOF 3
ENDMDL
MODEL 7
REMARK VINA RESULT:    -8.471      2.697      4.522
REMARK INTER + INTRA:          -9.214
REMARK INTER:                  -9.214
REMARK INTRA:                   0.000
REMARK UNBOUND:                 0.000
REMARK SMILES C[C@H]1CC[C@H]2[N@H+](C1)C[C@H]1[C@H]3C[C@H]4[C@H](C[C@H](O)[C@H]5C[C@@H](O)CC[C@]54C)[C@H]3CC[C@@H]1[C@]2(C)O
REMARK SMILES IDX 5 1 6 2 8 3 7 4 4 5 29 6 3 7 28 8 30 9 2 10 27 11 9 12 1 13
REMARK SMILES IDX 26 14 10 15 25 16 11 17 13 18 12 19 14 20 23 21 15 22 17 23
REMARK SMILES IDX 22 24 24 25 18 26 21 27 19 28 31 30 16 32 20 34
REMARK H PARENT 6 29 31 31 16 33 20 35
REMARK Flexibility Score: inf
ROOT
ATOM      1  C   UNL     1      -6.367 -17.601 -25.940  1.00  0.00     0.216 C 
ATOM      2  N   UNL     1      -6.980 -18.858 -25.431  1.00  0.00    -0.330 N 
ATOM      3  C   UNL     1      -6.085 -20.046 -25.569  1.00  0.00     0.266 C 
ATOM      4  C   UNL     1      -7.377 -18.745 -24.001  1.00  0.00     0.265 C 
ATOM      5  C   UNL     1      -7.266 -16.364 -25.653  1.00  0.00     0.069 C 
ATOM      6  C   UNL     1      -5.981 -17.693 -27.469  1.00  0.00     0.117 C 
ATOM      7  C   UNL     1      -7.630 -16.265 -24.178  1.00  0.00     0.015 C 
ATOM      8  C   UNL     1      -5.403 -19.115 -27.840  1.00  0.00     0.036 C 
ATOM      9  C   UNL     1      -7.201 -17.422 -28.398  1.00  0.00     0.049 C 
ATOM     10  C   UNL     1      -8.320 -17.559 -23.742  1.00  0.00     0.041 C 
ATOM     11  C   UNL     1      -4.249 -19.025 -28.867  1.00  0.00     0.007 C 
ATOM     12  C   UNL     1      -4.935 -19.886 -26.598  1.00  0.00     0.054 C 
ATOM     13  C   UNL     1      -8.713 -17.489 -22.262  1.00  0.00     0.013 C 
ATOM     14  C   UNL     1      -3.762 -20.407 -29.279  1.00  0.00     0.004 C 
ATOM     15  C   UNL     1      -4.256 -21.256 -26.922  1.00  0.00     0.002 C 
ATOM     16  C   UNL     1      -3.241 -21.217 -28.069  1.00  0.00    -0.004 C 
ATOM     17  C   UNL     1      -5.180 -22.448 -27.241  1.00  0.00     0.009 C 
ATOM     18  C   UNL     1      -3.058 -22.699 -28.464  1.00  0.00    -0.001 C 
ATOM     19  C   UNL     1      -4.467 -23.311 -28.312  1.00  0.00    -0.001 C 
ATOM     20  C   UNL     1      -1.974 -23.423 -27.617  1.00  0.00     0.036 C 
ATOM     21  C   UNL     1      -4.478 -24.869 -28.105  1.00  0.00    -0.024 C 
ATOM     22  C   UNL     1      -2.535 -24.244 -26.442  1.00  0.00     0.118 C 
ATOM     23  C   UNL     1      -3.530 -25.331 -26.923  1.00  0.00     0.026 C 
ATOM     24  C   UNL     1      -5.952 -25.356 -27.890  1.00  0.00     0.010 C 
ATOM     25  C   UNL     1      -3.972 -25.518 -29.427  1.00  0.00     0.012 C 
ATOM     26  C   UNL     1      -4.318 -25.890 -25.719  1.00  0.00     0.038 C 
ATOM     27  C   UNL     1      -6.042 -26.810 -27.397  1.00  0.00     0.032 C 
ATOM     28  C   UNL     1      -5.192 -27.086 -26.130  1.00  0.00     0.114 C 
ATOM     29  H   UNL     1      -7.850 -19.042 -25.985  1.00  0.00     0.348 HD
ENDROOT
BRANCH   6  30
ATOM     30  O   UNL     1      -5.003 -16.691 -27.675  1.00  0.00    -0.384 OA
ATOM     31  H   UNL     1      -5.047 -16.373 -28.615  1.00  0.00     0.211 HD
ENDBRANCH   6  30
BRANCH  22  32
ATOM     32  O   UNL     1      -1.472 -24.865 -25.764  1.00  0.00    -0.393 OA
ATOM     33  H   UNL     1      -1.027 -25.470 -26.414  1.00  0.00     0.210 HD
ENDBRANCH  22  32
BRANCH  28  34
ATOM     34  O   UNL     1      -6.024 -27.429 -25.051  1.00  0.00    -0.393 OA
ATOM     35  H   UNL     1      -6.804 -26.816 -25.085  1.00  0.00     0.210 HD
ENDBRANCH  28  34
TORSDOF 3
ENDMDL
MODEL 8
REMARK VINA RESULT:    -8.356      3.293      7.316
REMARK INTER + INTRA:          -9.088
REMARK INTER:                  -9.088
REMARK INTRA:                   0.000
REMARK UNBOUND:                 0.000
REMARK SMILES C[C@H]1CC[C@H]2[N@H+](C1)C[C@H]1[C@H]3C[C@H]4[C@H](C[C@H](O)[C@H]5C[C@@H](O)CC[C@]54C)[C@H]3CC[C@@H]1[C@]2(C)O
REMARK SMILES IDX 5 1 6 2 8 3 7 4 4 5 29 6 3 7 28 8 30 9 2 10 27 11 9 12 1 13
REMARK SMILES IDX 26 14 10 15 25 16 11 17 13 18 12 19 14 20 23 21 15 22 17 23
REMARK SMILES IDX 22 24 24 25 18 26 21 27 19 28 31 30 16 32 20 34
REMARK H PARENT 6 29 31 31 16 33 20 35
REMARK Flexibility Score: inf
ROOT
ATOM      1  C   UNL     1      -6.330 -26.382 -26.271  1.00  0.00     0.216 C 
ATOM      2  N   UNL     1      -6.959 -25.264 -25.515  1.00  0.00    -0.330 N 
ATOM      3  C   UNL     1      -7.098 -24.015 -26.323  1.00  0.00     0.266 C 
ATOM      4  C   UNL     1      -8.305 -25.629 -24.997  1.00  0.00     0.265 C 
ATOM      5  C   UNL     1      -6.330 -27.703 -25.449  1.00  0.00     0.069 C 
ATOM      6  C   UNL     1      -4.883 -26.023 -26.790  1.00  0.00     0.117 C 
ATOM      7  C   UNL     1      -7.726 -28.059 -24.958  1.00  0.00     0.015 C 
ATOM      8  C   UNL     1      -4.795 -24.526 -27.286  1.00  0.00     0.036 C 
ATOM      9  C   UNL     1      -3.801 -26.219 -25.687  1.00  0.00     0.049 C 
ATOM     10  C   UNL     1      -8.280 -26.898 -24.130  1.00  0.00     0.041 C 
ATOM     11  C   UNL     1      -3.894 -24.378 -28.534  1.00  0.00     0.007 C 
ATOM     12  C   UNL     1      -6.183 -23.935 -27.574  1.00  0.00     0.054 C 
ATOM     13  C   UNL     1      -9.683 -27.228 -23.607  1.00  0.00     0.013 C 
ATOM     14  C   UNL     1      -3.750 -22.920 -28.947  1.00  0.00     0.004 C 
ATOM     15  C   UNL     1      -6.145 -22.491 -28.170  1.00  0.00     0.002 C 
ATOM     16  C   UNL     1      -5.118 -22.282 -29.287  1.00  0.00    -0.004 C 
ATOM     17  C   UNL     1      -5.916 -21.324 -27.189  1.00  0.00     0.009 C 
ATOM     18  C   UNL     1      -4.975 -20.748 -29.389  1.00  0.00    -0.001 C 
ATOM     19  C   UNL     1      -5.070 -20.258 -27.928  1.00  0.00    -0.001 C 
ATOM     20  C   UNL     1      -6.031 -20.101 -30.329  1.00  0.00     0.036 C 
ATOM     21  C   UNL     1      -5.510 -18.757 -27.775  1.00  0.00    -0.024 C 
ATOM     22  C   UNL     1      -7.252 -19.516 -29.597  1.00  0.00     0.118 C 
ATOM     23  C   UNL     1      -6.841 -18.431 -28.569  1.00  0.00     0.026 C 
ATOM     24  C   UNL     1      -5.641 -18.404 -26.254  1.00  0.00     0.010 C 
ATOM     25  C   UNL     1      -4.363 -17.875 -28.350  1.00  0.00     0.012 C 
ATOM     26  C   UNL     1      -8.027 -18.122 -27.630  1.00  0.00     0.038 C 
ATOM     27  C   UNL     1      -6.338 -17.057 -26.004  1.00  0.00     0.032 C 
ATOM     28  C   UNL     1      -7.714 -16.933 -26.707  1.00  0.00     0.114 C 
ATOM     29  H   UNL     1      -6.351 -25.049 -24.689  1.00  0.00     0.348 HD
ENDROOT
BRANCH   6  30
ATOM     30  O   UNL     1      -4.630 -26.916 -27.858  1.00  0.00    -0.384 OA
ATOM     31  H   UNL     1      -5.052 -27.794 -27.664  1.00  0.00     0.211 HD
ENDBRANCH   6  30
BRANCH  22  32
ATOM     32  O   UNL     1      -8.125 -18.945 -30.540  1.00  0.00    -0.393 OA
ATOM     33  H   UNL     1      -7.573 -18.679 -31.322  1.00  0.00     0.210 HD
ENDBRANCH  22  32
BRANCH  28  34
ATOM     34  O   UNL     1      -8.739 -16.821 -25.754  1.00  0.00    -0.393 OA
ATOM     35  H   UNL     1      -8.367 -16.306 -24.991  1.00  0.00     0.210 HD
ENDBRANCH  28  34
TORSDOF 3
ENDMDL
MODEL 9
REMARK VINA RESULT:    -8.234      5.061      6.490
REMARK INTER + INTRA:          -8.956
REMARK INTER:                  -8.956
REMARK INTRA:                   0.000
REMARK UNBOUND:                 0.000
REMARK SMILES C[C@H]1CC[C@H]2[N@H+](C1)C[C@H]1[C@H]3C[C@H]4[C@H](C[C@H](O)[C@H]5C[C@@H](O)CC[C@]54C)[C@H]3CC[C@@H]1[C@]2(C)O
REMARK SMILES IDX 5 1 6 2 8 3 7 4 4 5 29 6 3 7 28 8 30 9 2 10 27 11 9 12 1 13
REMARK SMILES IDX 26 14 10 15 25 16 11 17 13 18 12 19 14 20 23 21 15 22 17 23
REMARK SMILES IDX 22 24 24 25 18 26 21 27 19 28 31 30 16 32 20 34
REMARK H PARENT 6 29 31 31 16 33 20 35
REMARK Flexibility Score: inf
ROOT
ATOM      1  C   UNL     1     -11.120 -26.854 -21.909  1.00  0.00     0.216 C 
ATOM      2  N   UNL     1     -10.636 -25.457 -22.079  1.00  0.00    -0.330 N 
ATOM      3  C   UNL     1      -9.912 -25.240 -23.367  1.00  0.00     0.266 C 
ATOM      4  C   UNL     1     -11.747 -24.469 -22.004  1.00  0.00     0.265 C 
ATOM      5  C   UNL     1     -11.989 -27.010 -20.628  1.00  0.00     0.069 C 
ATOM      6  C   UNL     1      -9.945 -27.909 -21.943  1.00  0.00     0.117 C 
ATOM      7  C   UNL     1     -13.130 -26.003 -20.597  1.00  0.00     0.015 C 
ATOM      8  C   UNL     1      -8.851 -27.529 -23.016  1.00  0.00     0.036 C 
ATOM      9  C   UNL     1      -9.232 -28.036 -20.564  1.00  0.00     0.049 C 
ATOM     10  C   UNL     1     -12.556 -24.588 -20.703  1.00  0.00     0.041 C 
ATOM     11  C   UNL     1      -8.283 -28.775 -23.736  1.00  0.00     0.007 C 
ATOM     12  C   UNL     1      -9.385 -26.529 -24.051  1.00  0.00     0.054 C 
ATOM     13  C   UNL     1     -13.679 -23.545 -20.662  1.00  0.00     0.013 C 
ATOM     14  C   UNL     1      -7.169 -28.400 -24.703  1.00  0.00     0.004 C 
ATOM     15  C   UNL     1      -8.373 -26.203 -25.197  1.00  0.00     0.002 C 
ATOM     16  C   UNL     1      -7.662 -27.421 -25.795  1.00  0.00    -0.004 C 
ATOM     17  C   UNL     1      -7.252 -25.192 -24.887  1.00  0.00     0.009 C 
ATOM     18  C   UNL     1      -6.456 -26.822 -26.551  1.00  0.00    -0.001 C 
ATOM     19  C   UNL     1      -5.990 -25.650 -25.660  1.00  0.00    -0.001 C 
ATOM     20  C   UNL     1      -6.803 -26.395 -28.005  1.00  0.00     0.036 C 
ATOM     21  C   UNL     1      -5.170 -24.545 -26.420  1.00  0.00    -0.024 C 
ATOM     22  C   UNL     1      -7.109 -24.895 -28.165  1.00  0.00     0.118 C 
ATOM     23  C   UNL     1      -5.920 -24.012 -27.709  1.00  0.00     0.026 C 
ATOM     24  C   UNL     1      -4.822 -23.382 -25.430  1.00  0.00     0.010 C 
ATOM     25  C   UNL     1      -3.822 -25.186 -26.861  1.00  0.00     0.012 C 
ATOM     26  C   UNL     1      -6.380 -22.546 -27.560  1.00  0.00     0.038 C 
ATOM     27  C   UNL     1      -4.276 -22.129 -26.136  1.00  0.00     0.032 C 
ATOM     28  C   UNL     1      -5.193 -21.614 -27.274  1.00  0.00     0.114 C 
ATOM     29  H   UNL     1      -9.973 -25.245 -21.295  1.00  0.00     0.348 HD
ENDROOT
BRANCH   6  30
ATOM     30  O   UNL     1     -10.554 -29.144 -22.271  1.00  0.00    -0.384 OA
ATOM     31  H   UNL     1     -11.198 -29.010 -23.014  1.00  0.00     0.211 HD
ENDBRANCH   6  30
BRANCH  22  32
ATOM     32  O   UNL     1      -7.390 -24.623 -29.516  1.00  0.00    -0.393 OA
ATOM     33  H   UNL     1      -7.996 -23.837 -29.533  1.00  0.00     0.210 HD
ENDBRANCH  22  32
BRANCH  28  34
ATOM     34  O   UNL     1      -5.688 -20.337 -26.960  1.00  0.00    -0.393 OA
ATOM     35  H   UNL     1      -5.728 -20.281 -25.969  1.00  0.00     0.210 HD
ENDBRANCH  28  34
TORSDOF 3
ENDMDL
