MODEL 1
REMARK VINA RESULT:    -3.559      0.000      0.000
REMARK INTER + INTRA:          -5.770
REMARK INTER:                  -5.431
REMARK INTRA:                  -0.338
REMARK UNBOUND:                -0.338
REMARK SMILES CC1=CCC[C@H](C)C(=O)C[C@@H](C(C)C)C(=O)C1
REMARK SMILES IDX 8 1 9 2 6 3 7 4 5 5 4 6 3 7 2 8 1 9 10 11 11 12 15 13 16 14
REMARK SMILES IDX 17 15 12 17 13 18 14 19
REMARK H PARENT
REMARK Flexibility Score: 70.00
ROOT
ATOM      1  C   UNL     1     -16.312  11.588 -28.257  1.00  0.00     0.136 C 
ATOM      2  O   UNL     1     -17.041  10.930 -27.528  1.00  0.00    -0.299 OA
ENDROOT
BRANCH   1   3
ATOM      3  C   UNL     1     -14.815  11.372 -28.211  1.00  0.00     0.053 C 
ATOM      4  C   UNL     1     -14.335  11.112 -26.779  1.00  0.00     0.016 C 
BRANCH   3   5
ATOM      5  C   UNL     1     -14.445  10.205 -29.157  1.00  0.00     0.015 C 
BRANCH   5   6
ATOM      6  C   UNL     1     -13.741  10.599 -30.471  1.00  0.00     0.028 C 
BRANCH   6   7
ATOM      7  C   UNL     1     -13.568  12.078 -30.744  1.00  0.00    -0.028 C 
ATOM      8  C   UNL     1     -14.230  12.821 -31.664  1.00  0.00    -0.070 CG0
ATOM      9  C   UNL     1     -13.806  14.259 -31.838  1.00  0.00     0.039 C 
ATOM     10  G   UNL     1     -15.419  12.324 -32.467  1.00  0.00     0.000 G0
ENDBRANCH   6   7
ENDBRANCH   5   6
ENDBRANCH   3   5
ENDBRANCH   1   3
BRANCH   1  11
ATOM     11  C   UNL     1     -16.930  12.552 -29.244  1.00  0.00     0.087 C 
BRANCH  11  12
ATOM     12  C   UNL     1     -17.267  11.877 -30.605  1.00  0.00     0.066 C 
BRANCH  12  13
ATOM     13  C   UNL     1     -16.732  12.694 -31.774  1.00  0.00     0.140 C 
ATOM     14  O   UNL     1     -17.376  13.655 -32.173  1.00  0.00    -0.299 OA
BRANCH  13  15
ATOM     15  C   UNL     1     -15.436  12.343 -32.476  1.00  0.00     0.106 CG0
ATOM     16  G   UNL     1     -14.239  12.809 -31.666  1.00  0.00     0.000 G0
ENDBRANCH  13  15
ENDBRANCH  12  13
BRANCH  12  17
ATOM     17  C   UNL     1     -18.792  11.576 -30.745  1.00  0.00    -0.006 C 
ATOM     18  C   UNL     1     -19.186  10.138 -30.361  1.00  0.00     0.008 C 
ATOM     19  C   UNL     1     -19.639  12.585 -29.956  1.00  0.00     0.008 C 
ENDBRANCH  12  17
ENDBRANCH  11  12
ENDBRANCH   1  11
TORSDOF 1
ENDMDL
MODEL 2
REMARK VINA RESULT:    -3.468      1.972      4.888
REMARK INTER + INTRA:          -5.631
REMARK INTER:                  -5.561
REMARK INTRA:                  -0.070
REMARK UNBOUND:                -0.338
REMARK SMILES CC1=CCC[C@H](C)C(=O)C[C@@H](C(C)C)C(=O)C1
REMARK SMILES IDX 8 1 9 2 6 3 7 4 5 5 4 6 3 7 2 8 1 9 10 11 11 12 15 13 16 14
REMARK SMILES IDX 17 15 12 17 13 18 14 19
REMARK H PARENT
REMARK Flexibility Score: 70.00
ROOT
ATOM      1  C   UNL     1     -16.642  13.068 -31.436  1.00  0.00     0.136 C 
ATOM      2  O   UNL     1     -16.615  13.358 -32.624  1.00  0.00    -0.299 OA
ENDROOT
BRANCH   1   3
ATOM      3  C   UNL     1     -17.952  12.672 -30.791  1.00  0.00     0.053 C 
ATOM      4  C   UNL     1     -18.382  11.266 -31.224  1.00  0.00     0.016 C 
BRANCH   3   5
ATOM      5  C   UNL     1     -17.808  12.775 -29.253  1.00  0.00     0.015 C 
BRANCH   5   6
ATOM      6  C   UNL     1     -17.676  11.438 -28.498  1.00  0.00     0.028 C 
BRANCH   6   7
ATOM      7  C   UNL     1     -16.364  11.173 -27.789  1.00  0.00    -0.028 C 
ATOM      8  C   UNL     1     -15.282  10.531 -28.291  1.00  0.00    -0.070 CG0
ATOM      9  C   UNL     1     -14.123  10.280 -27.358  1.00  0.00     0.039 C 
ATOM     10  G   UNL     1     -15.128  10.126 -29.747  1.00  0.00     0.000 G0
ENDBRANCH   6   7
ENDBRANCH   5   6
ENDBRANCH   3   5
ENDBRANCH   1   3
BRANCH   1  11
ATOM     11  C   UNL     1     -15.349  13.039 -30.654  1.00  0.00     0.087 C 
BRANCH  11  12
ATOM     12  C   UNL     1     -14.280  12.114 -31.303  1.00  0.00     0.066 C 
BRANCH  12  13
ATOM     13  C   UNL     1     -14.009  10.891 -30.436  1.00  0.00     0.140 C 
ATOM     14  O   UNL     1     -12.859  10.498 -30.302  1.00  0.00    -0.299 OA
BRANCH  13  15
ATOM     15  C   UNL     1     -15.124  10.128 -29.751  1.00  0.00     0.106 CG0
ATOM     16  G   UNL     1     -15.253  10.549 -28.297  1.00  0.00     0.000 G0
ENDBRANCH  13  15
ENDBRANCH  12  13
BRANCH  12  17
ATOM     17  C   UNL     1     -12.972  12.890 -31.653  1.00  0.00    -0.006 C 
ATOM     18  C   UNL     1     -12.716  13.041 -33.163  1.00  0.00     0.008 C 
ATOM     19  C   UNL     1     -12.934  14.265 -30.970  1.00  0.00     0.008 C 
ENDBRANCH  12  17
ENDBRANCH  11  12
ENDBRANCH   1  11
TORSDOF 1
ENDMDL
MODEL 3
REMARK VINA RESULT:    -3.187      1.966      4.706
REMARK INTER + INTRA:          -5.202
REMARK INTER:                  -5.600
REMARK INTRA:                   0.398
REMARK UNBOUND:                -0.338
REMARK SMILES CC1=CCC[C@H](C)C(=O)C[C@@H](C(C)C)C(=O)C1
REMARK SMILES IDX 8 1 9 2 6 3 7 4 5 5 4 6 3 7 2 8 1 9 10 11 11 12 15 13 16 14
REMARK SMILES IDX 17 15 12 17 13 18 14 19
REMARK H PARENT
REMARK Flexibility Score: 70.00
ROOT
ATOM      1  C   UNL     1     -16.063  13.429 -29.501  1.00  0.00     0.136 C 
ATOM      2  O   UNL     1     -17.065  14.001 -29.097  1.00  0.00    -0.299 OA
ENDROOT
BRANCH   1   3
ATOM      3  C   UNL     1     -15.467  13.816 -30.837  1.00  0.00     0.053 C 
ATOM      4  C   UNL     1     -14.245  12.953 -31.170  1.00  0.00     0.016 C 
BRANCH   3   5
ATOM      5  C   UNL     1     -16.559  13.702 -31.928  1.00  0.00     0.015 C 
BRANCH   5   6
ATOM      6  C   UNL     1     -17.285  12.345 -32.017  1.00  0.00     0.028 C 
BRANCH   6   7
ATOM      7  C   UNL     1     -18.551  12.186 -31.201  1.00  0.00    -0.028 C 
ATOM      8  C   UNL     1     -18.877  11.146 -30.397  1.00  0.00    -0.070 CG0
ATOM      9  C   UNL     1     -20.251  11.150 -29.771  1.00  0.00     0.039 C 
ATOM     10  G   UNL     1     -17.924  10.025 -30.021  1.00  0.00     0.000 G0
ENDBRANCH   6   7
ENDBRANCH   5   6
ENDBRANCH   3   5
ENDBRANCH   1   3
BRANCH   1  11
ATOM     11  C   UNL     1     -15.397  12.396 -28.621  1.00  0.00     0.087 C 
BRANCH  11  12
ATOM     12  C   UNL     1     -15.586  10.947 -29.154  1.00  0.00     0.066 C 
BRANCH  12  13
ATOM     13  C   UNL     1     -16.999  10.443 -28.893  1.00  0.00     0.140 C 
ATOM     14  O   UNL     1     -17.400  10.362 -27.739  1.00  0.00    -0.299 OA
BRANCH  13  15
ATOM     15  C   UNL     1     -17.922  10.013 -30.015  1.00  0.00     0.106 CG0
ATOM     16  G   UNL     1     -18.878  11.133 -30.387  1.00  0.00     0.000 G0
ENDBRANCH  13  15
ENDBRANCH  12  13
BRANCH  12  17
ATOM     17  C   UNL     1     -14.500   9.974 -28.598  1.00  0.00    -0.006 C 
ATOM     18  C   UNL     1     -13.215   9.917 -29.444  1.00  0.00     0.008 C 
ATOM     19  C   UNL     1     -14.157  10.292 -27.135  1.00  0.00     0.008 C 
ENDBRANCH  12  17
ENDBRANCH  11  12
ENDBRANCH   1  11
TORSDOF 1
ENDMDL
MODEL 4
REMARK VINA RESULT:    -2.773      1.890      4.165
REMARK INTER + INTRA:          -4.571
REMARK INTER:                  -5.013
REMARK INTRA:                   0.442
REMARK UNBOUND:                -0.338
REMARK SMILES CC1=CCC[C@H](C)C(=O)C[C@@H](C(C)C)C(=O)C1
REMARK SMILES IDX 8 1 9 2 6 3 7 4 5 5 4 6 3 7 2 8 1 9 10 11 11 12 15 13 16 14
REMARK SMILES IDX 17 15 12 17 13 18 14 19
REMARK H PARENT
REMARK Flexibility Score: 70.00
ROOT
ATOM      1  C   UNL     1     -15.180  10.454 -30.004  1.00  0.00     0.136 C 
ATOM      2  O   UNL     1     -16.108   9.895 -30.571  1.00  0.00    -0.299 OA
ENDROOT
BRANCH   1   3
ATOM      3  C   UNL     1     -14.760   9.995 -28.625  1.00  0.00     0.053 C 
ATOM      4  C   UNL     1     -13.705  10.932 -28.025  1.00  0.00     0.016 C 
BRANCH   3   5
ATOM      5  C   UNL     1     -16.013   9.897 -27.722  1.00  0.00     0.015 C 
BRANCH   5   6
ATOM      6  C   UNL     1     -16.901  11.156 -27.661  1.00  0.00     0.028 C 
BRANCH   6   7
ATOM      7  C   UNL     1     -18.105  11.196 -28.577  1.00  0.00    -0.028 C 
ATOM      8  C   UNL     1     -18.441  12.187 -29.438  1.00  0.00    -0.070 CG0
ATOM      9  C   UNL     1     -19.756  12.061 -30.169  1.00  0.00     0.039 C 
ATOM     10  G   UNL     1     -17.545  13.366 -29.776  1.00  0.00     0.000 G0
ENDBRANCH   6   7
ENDBRANCH   5   6
ENDBRANCH   3   5
ENDBRANCH   1   3
BRANCH   1  11
ATOM     11  C   UNL     1     -14.423  11.545 -30.726  1.00  0.00     0.087 C 
BRANCH  11  12
ATOM     12  C   UNL     1     -15.026  12.957 -30.472  1.00  0.00     0.066 C 
BRANCH  12  13
ATOM     13  C   UNL     1     -16.512  12.991 -30.807  1.00  0.00     0.140 C 
ATOM     14  O   UNL     1     -16.872  12.729 -31.946  1.00  0.00    -0.299 OA
BRANCH  13  15
ATOM     15  C   UNL     1     -17.560  13.363 -29.779  1.00  0.00     0.106 CG0
ATOM     16  G   UNL     1     -18.447  12.173 -29.457  1.00  0.00     0.000 G0
ENDBRANCH  13  15
ENDBRANCH  12  13
BRANCH  12  17
ATOM     17  C   UNL     1     -14.228  14.074 -31.215  1.00  0.00    -0.006 C 
ATOM     18  C   UNL     1     -14.712  15.502 -30.908  1.00  0.00     0.008 C 
ATOM     19  C   UNL     1     -12.720  13.958 -30.949  1.00  0.00     0.008 C 
ENDBRANCH  12  17
ENDBRANCH  11  12
ENDBRANCH   1  11
TORSDOF 1
ENDMDL
MODEL 5
REMARK VINA RESULT:    -2.756      9.372     11.762
REMARK INTER + INTRA:          -4.545
REMARK INTER:                  -5.287
REMARK INTRA:                   0.743
REMARK UNBOUND:                -0.338
REMARK SMILES CC1=CCC[C@H](C)C(=O)C[C@@H](C(C)C)C(=O)C1
REMARK SMILES IDX 8 1 9 2 6 3 7 4 5 5 4 6 3 7 2 8 1 9 10 11 11 12 15 13 16 14
REMARK SMILES IDX 17 15 12 17 13 18 14 19
REMARK H PARENT
REMARK Flexibility Score: 70.00
ROOT
ATOM      1  C   UNL     1     -24.899  11.347 -29.796  1.00  0.00     0.136 C 
ATOM      2  O   UNL     1     -23.778  11.834 -29.837  1.00  0.00    -0.299 OA
ENDROOT
BRANCH   1   3
ATOM      3  C   UNL     1     -25.222  10.294 -28.759  1.00  0.00     0.053 C 
ATOM      4  C   UNL     1     -23.967   9.876 -27.983  1.00  0.00     0.016 C 
BRANCH   3   5
ATOM      5  C   UNL     1     -26.322  10.835 -27.815  1.00  0.00     0.015 C 
BRANCH   5   6
ATOM      6  C   UNL     1     -27.621  10.007 -27.749  1.00  0.00     0.028 C 
BRANCH   6   7
ATOM      7  C   UNL     1     -28.430   9.891 -29.023  1.00  0.00    -0.028 C 
ATOM      8  C   UNL     1     -29.084  10.887 -29.668  1.00  0.00    -0.070 CG0
ATOM      9  C   UNL     1     -29.927  10.512 -30.863  1.00  0.00     0.039 C 
ATOM     10  G   UNL     1     -28.956  12.359 -29.317  1.00  0.00     0.000 G0
ENDBRANCH   6   7
ENDBRANCH   5   6
ENDBRANCH   3   5
ENDBRANCH   1   3
BRANCH   1  11
ATOM     11  C   UNL     1     -25.963  11.864 -30.738  1.00  0.00     0.087 C 
BRANCH  11  12
ATOM     12  C   UNL     1     -26.616  13.183 -30.233  1.00  0.00     0.066 C 
BRANCH  12  13
ATOM     13  C   UNL     1     -28.135  13.119 -30.329  1.00  0.00     0.140 C 
ATOM     14  O   UNL     1     -28.700  13.701 -31.244  1.00  0.00    -0.299 OA
BRANCH  13  15
ATOM     15  C   UNL     1     -28.974  12.374 -29.311  1.00  0.00     0.106 CG0
ATOM     16  G   UNL     1     -29.084  10.903 -29.673  1.00  0.00     0.000 G0
ENDBRANCH  13  15
ENDBRANCH  12  13
BRANCH  12  17
ATOM     17  C   UNL     1     -26.032  14.437 -30.957  1.00  0.00    -0.006 C 
ATOM     18  C   UNL     1     -26.239  15.756 -30.192  1.00  0.00     0.008 C 
ATOM     19  C   UNL     1     -24.546  14.248 -31.296  1.00  0.00     0.008 C 
ENDBRANCH  12  17
ENDBRANCH  11  12
ENDBRANCH   1  11
TORSDOF 1
ENDMDL
MODEL 6
REMARK VINA RESULT:    -2.754      1.508      3.705
REMARK INTER + INTRA:          -4.542
REMARK INTER:                  -6.072
REMARK INTRA:                   1.530
REMARK UNBOUND:                -0.338
REMARK SMILES CC1=CCC[C@H](C)C(=O)C[C@@H](C(C)C)C(=O)C1
REMARK SMILES IDX 8 1 9 2 6 3 7 4 5 5 4 6 3 7 2 8 1 9 10 11 11 12 15 13 16 14
REMARK SMILES IDX 17 15 12 17 13 18 14 19
REMARK H PARENT
REMARK Flexibility Score: 70.00
ROOT
ATOM      1  C   UNL     1     -17.723  11.044 -29.457  1.00  0.00     0.136 C 
ATOM      2  O   UNL     1     -17.879   9.947 -28.938  1.00  0.00    -0.299 OA
ENDROOT
BRANCH   1   3
ATOM      3  C   UNL     1     -18.522  11.411 -30.688  1.00  0.00     0.053 C 
ATOM      4  C   UNL     1     -20.004  11.611 -30.350  1.00  0.00     0.016 C 
BRANCH   3   5
ATOM      5  C   UNL     1     -17.908  12.680 -31.327  1.00  0.00     0.015 C 
BRANCH   5   6
ATOM      6  C   UNL     1     -16.583  12.478 -32.089  1.00  0.00     0.028 C 
BRANCH   6   7
ATOM      7  C   UNL     1     -15.462  13.452 -31.796  1.00  0.00    -0.028 C 
ATOM      8  C   UNL     1     -14.280  13.178 -31.194  1.00  0.00    -0.070 CG0
ATOM      9  C   UNL     1     -13.359  14.338 -30.900  1.00  0.00     0.039 C 
ATOM     10  G   UNL     1     -13.788  11.777 -30.876  1.00  0.00     0.000 G0
ENDBRANCH   6   7
ENDBRANCH   5   6
ENDBRANCH   3   5
ENDBRANCH   1   3
BRANCH   1  11
ATOM     11  C   UNL     1     -16.787  12.039 -28.810  1.00  0.00     0.087 C 
BRANCH  11  12
ATOM     12  C   UNL     1     -15.327  11.510 -28.714  1.00  0.00     0.066 C 
BRANCH  12  13
ATOM     13  C   UNL     1     -14.829  11.017 -30.067  1.00  0.00     0.140 C 
ATOM     14  O   UNL     1     -15.270   9.970 -30.519  1.00  0.00    -0.299 OA
BRANCH  13  15
ATOM     15  C   UNL     1     -13.784  11.772 -30.863  1.00  0.00     0.106 CG0
ATOM     16  G   UNL     1     -14.257  13.181 -31.176  1.00  0.00     0.000 G0
ENDBRANCH  13  15
ENDBRANCH  12  13
BRANCH  12  17
ATOM     17  C   UNL     1     -15.170  10.430 -27.598  1.00  0.00    -0.006 C 
ATOM     18  C   UNL     1     -13.712  10.158 -27.187  1.00  0.00     0.008 C 
ATOM     19  C   UNL     1     -16.014  10.772 -26.362  1.00  0.00     0.008 C 
ENDBRANCH  12  17
ENDBRANCH  11  12
ENDBRANCH   1  11
TORSDOF 1
ENDMDL
MODEL 7
REMARK VINA RESULT:    -2.599      2.085      4.765
REMARK INTER + INTRA:          -4.305
REMARK INTER:                  -4.961
REMARK INTRA:                   0.656
REMARK UNBOUND:                -0.338
REMARK SMILES CC1=CCC[C@H](C)C(=O)C[C@@H](C(C)C)C(=O)C1
REMARK SMILES IDX 8 1 9 2 6 3 7 4 5 5 4 6 3 7 2 8 1 9 10 11 11 12 15 13 16 14
REMARK SMILES IDX 17 15 12 17 13 18 14 19
REMARK H PARENT
REMARK Flexibility Score: 70.00
ROOT
ATOM      1  C   UNL     1     -14.472  12.119 -31.226  1.00  0.00     0.136 C 
ATOM      2  O   UNL     1     -13.356  12.094 -30.726  1.00  0.00    -0.299 OA
ENDROOT
BRANCH   1   3
ATOM      3  C   UNL     1     -14.874  13.283 -32.105  1.00  0.00     0.053 C 
ATOM      4  C   UNL     1     -14.752  12.926 -33.590  1.00  0.00     0.016 C 
BRANCH   3   5
ATOM      5  C   UNL     1     -16.314  13.717 -31.739  1.00  0.00     0.015 C 
BRANCH   5   6
ATOM      6  C   UNL     1     -17.441  12.772 -32.202  1.00  0.00     0.028 C 
BRANCH   6   7
ATOM      7  C   UNL     1     -18.628  12.609 -31.277  1.00  0.00    -0.028 C 
ATOM      8  C   UNL     1     -19.007  11.482 -30.628  1.00  0.00    -0.070 CG0
ATOM      9  C   UNL     1     -20.298  11.526 -29.847  1.00  0.00     0.039 C 
ATOM     10  G   UNL     1     -18.179  10.211 -30.569  1.00  0.00     0.000 G0
ENDBRANCH   6   7
ENDBRANCH   5   6
ENDBRANCH   3   5
ENDBRANCH   1   3
BRANCH   1  11
ATOM     11  C   UNL     1     -15.402  10.946 -31.015  1.00  0.00     0.087 C 
BRANCH  11  12
ATOM     12  C   UNL     1     -15.788  10.752 -29.520  1.00  0.00     0.066 C 
BRANCH  12  13
ATOM     13  C   UNL     1     -17.224  10.264 -29.380  1.00  0.00     0.140 C 
ATOM     14  O   UNL     1     -17.618   9.877 -28.289  1.00  0.00    -0.299 OA
BRANCH  13  15
ATOM     15  C   UNL     1     -18.178  10.221 -30.556  1.00  0.00     0.106 CG0
ATOM     16  G   UNL     1     -19.011  11.489 -30.625  1.00  0.00     0.000 G0
ENDBRANCH  13  15
ENDBRANCH  12  13
BRANCH  12  17
ATOM     17  C   UNL     1     -15.517  12.037 -28.677  1.00  0.00    -0.006 C 
ATOM     18  C   UNL     1     -16.791  12.762 -28.208  1.00  0.00     0.008 C 
ATOM     19  C   UNL     1     -14.605  11.740 -27.477  1.00  0.00     0.008 C 
ENDBRANCH  12  17
ENDBRANCH  11  12
ENDBRANCH   1  11
TORSDOF 1
ENDMDL
MODEL 8
REMARK VINA RESULT:    -2.556      2.059      4.511
REMARK INTER + INTRA:          -4.239
REMARK INTER:                  -4.896
REMARK INTRA:                   0.657
REMARK UNBOUND:                -0.338
REMARK SMILES CC1=CCC[C@H](C)C(=O)C[C@@H](C(C)C)C(=O)C1
REMARK SMILES IDX 8 1 9 2 6 3 7 4 5 5 4 6 3 7 2 8 1 9 10 11 11 12 15 13 16 14
REMARK SMILES IDX 17 15 12 17 13 18 14 19
REMARK H PARENT
REMARK Flexibility Score: 70.00
ROOT
ATOM      1  C   UNL     1     -12.878  12.275 -31.670  1.00  0.00     0.136 C 
ATOM      2  O   UNL     1     -11.950  11.492 -31.525  1.00  0.00    -0.299 OA
ENDROOT
BRANCH   1   3
ATOM      3  C   UNL     1     -12.620  13.764 -31.606  1.00  0.00     0.053 C 
ATOM      4  C   UNL     1     -12.849  14.426 -32.970  1.00  0.00     0.016 C 
BRANCH   3   5
ATOM      5  C   UNL     1     -13.521  14.386 -30.513  1.00  0.00     0.015 C 
BRANCH   5   6
ATOM      6  C   UNL     1     -14.947  14.772 -30.953  1.00  0.00     0.028 C 
BRANCH   6   7
ATOM      7  C   UNL     1     -16.075  14.457 -29.994  1.00  0.00    -0.028 C 
ATOM      8  C   UNL     1     -17.020  13.496 -30.134  1.00  0.00    -0.070 CG0
ATOM      9  C   UNL     1     -18.120  13.442 -29.102  1.00  0.00     0.039 C 
ATOM     10  G   UNL     1     -16.996  12.425 -31.210  1.00  0.00     0.000 G0
ENDBRANCH   6   7
ENDBRANCH   5   6
ENDBRANCH   3   5
ENDBRANCH   1   3
BRANCH   1  11
ATOM     11  C   UNL     1     -14.255  11.736 -31.986  1.00  0.00     0.087 C 
BRANCH  11  12
ATOM     12  C   UNL     1     -14.849  10.896 -30.818  1.00  0.00     0.066 C 
BRANCH  12  13
ATOM     13  C   UNL     1     -16.341  11.158 -30.654  1.00  0.00     0.140 C 
ATOM     14  O   UNL     1     -17.033  10.325 -30.086  1.00  0.00    -0.299 OA
BRANCH  13  15
ATOM     15  C   UNL     1     -17.003  12.409 -31.195  1.00  0.00     0.106 CG0
ATOM     16  G   UNL     1     -17.029  13.504 -30.142  1.00  0.00     0.000 G0
ENDBRANCH  13  15
ENDBRANCH  12  13
BRANCH  12  17
ATOM     17  C   UNL     1     -14.063  11.110 -29.488  1.00  0.00    -0.006 C 
ATOM     18  C   UNL     1     -14.946  11.519 -28.295  1.00  0.00     0.008 C 
ATOM     19  C   UNL     1     -13.224   9.875 -29.126  1.00  0.00     0.008 C 
ENDBRANCH  12  17
ENDBRANCH  11  12
ENDBRANCH   1  11
TORSDOF 1
ENDMDL
MODEL 9
REMARK VINA RESULT:    -2.463      1.681      2.145
REMARK INTER + INTRA:          -4.098
REMARK INTER:                  -4.696
REMARK INTRA:                   0.598
REMARK UNBOUND:                -0.338
REMARK SMILES CC1=CCC[C@H](C)C(=O)C[C@@H](C(C)C)C(=O)C1
REMARK SMILES IDX 8 1 9 2 6 3 7 4 5 5 4 6 3 7 2 8 1 9 10 11 11 12 15 13 16 14
REMARK SMILES IDX 17 15 12 17 13 18 14 19
REMARK H PARENT
REMARK Flexibility Score: 70.00
ROOT
ATOM      1  C   UNL     1     -15.618  10.425 -30.308  1.00  0.00     0.136 C 
ATOM      2  O   UNL     1     -15.512   9.926 -31.420  1.00  0.00    -0.299 OA
ENDROOT
BRANCH   1   3
ATOM      3  C   UNL     1     -14.382  10.911 -29.584  1.00  0.00     0.053 C 
ATOM      4  C   UNL     1     -13.979   9.945 -28.464  1.00  0.00     0.016 C 
BRANCH   3   5
ATOM      5  C   UNL     1     -13.239  11.102 -30.610  1.00  0.00     0.015 C 
BRANCH   5   6
ATOM      6  C   UNL     1     -13.453  12.212 -31.659  1.00  0.00     0.028 C 
BRANCH   6   7
ATOM      7  C   UNL     1     -13.739  13.605 -31.141  1.00  0.00    -0.028 C 
ATOM      8  C   UNL     1     -14.924  14.261 -31.178  1.00  0.00    -0.070 CG0
ATOM      9  C   UNL     1     -14.944  15.695 -30.704  1.00  0.00     0.039 C 
ATOM     10  G   UNL     1     -16.241  13.624 -31.584  1.00  0.00     0.000 G0
ENDBRANCH   6   7
ENDBRANCH   5   6
ENDBRANCH   3   5
ENDBRANCH   1   3
BRANCH   1  11
ATOM     11  C   UNL     1     -16.995  10.615 -29.713  1.00  0.00     0.087 C 
BRANCH  11  12
ATOM     12  C   UNL     1     -17.774  11.789 -30.375  1.00  0.00     0.066 C 
BRANCH  12  13
ATOM     13  C   UNL     1     -16.964  13.079 -30.335  1.00  0.00     0.140 C 
ATOM     14  O   UNL     1     -16.906  13.715 -29.292  1.00  0.00    -0.299 OA
BRANCH  13  15
ATOM     15  C   UNL     1     -16.246  13.616 -31.557  1.00  0.00     0.106 CG0
ATOM     16  G   UNL     1     -14.939  14.282 -31.165  1.00  0.00     0.000 G0
ENDBRANCH  13  15
ENDBRANCH  12  13
BRANCH  12  17
ATOM     17  C   UNL     1     -19.196  11.966 -29.758  1.00  0.00    -0.006 C 
ATOM     18  C   UNL     1     -20.159  12.795 -30.626  1.00  0.00     0.008 C 
ATOM     19  C   UNL     1     -19.831  10.611 -29.411  1.00  0.00     0.008 C 
ENDBRANCH  12  17
ENDBRANCH  11  12
ENDBRANCH   1  11
TORSDOF 1
ENDMDL
