MODEL 1
REMARK VINA RESULT:    -4.452      0.000      0.000
REMARK INTER + INTRA:          -8.472
REMARK INTER:                  -7.054
REMARK INTRA:                  -1.418
REMARK UNBOUND:                -1.418
REMARK SMILES CCCCCCCCCCCC(=O)[O-]
REMARK SMILES IDX 7 1 8 2 9 3 10 4 11 5 12 6 13 7 14 8 6 9 5 10 4 11 3 12 2 13
REMARK SMILES IDX 1 14
REMARK H PARENT
REMARK Flexibility Score: inf
ROOT
ATOM      1  C   UNL     1      63.097  29.183  13.233  1.00  0.00     0.000 C 
ENDROOT
BRANCH   1   2
ATOM      2  C   UNL     1      63.976  30.382  13.610  1.00  0.00     0.000 C 
BRANCH   2   3
ATOM      3  C   UNL     1      63.769  31.546  12.627  1.00  0.00     0.000 C 
BRANCH   3   4
ATOM      4  C   UNL     1      63.268  32.828  13.317  1.00  0.00     0.006 C 
BRANCH   4   5
ATOM      5  C   UNL     1      61.767  33.101  13.133  1.00  0.00     0.053 C 
BRANCH   5   6
ATOM      6  C   UNL     1      61.029  33.090  14.436  1.00  0.00     0.041 C 
ATOM      7  O   UNL     1      60.049  32.317  14.602  1.00  0.00    -0.550 OA
ATOM      8  O   UNL     1      61.446  33.908  15.479  1.00  0.00    -0.550 OA
ENDBRANCH   5   6
ENDBRANCH   4   5
ENDBRANCH   3   4
ENDBRANCH   2   3
ENDBRANCH   1   2
BRANCH   1   9
ATOM      9  C   UNL     1      61.672  29.353  13.771  1.00  0.00     0.000 C 
BRANCH   9  10
ATOM     10  C   UNL     1      60.633  28.982  12.703  1.00  0.00    -0.000 C 
BRANCH  10  11
ATOM     11  C   UNL     1      60.638  29.944  11.501  1.00  0.00    -0.000 C 
BRANCH  11  12
ATOM     12  C   UNL     1      60.595  29.263  10.122  1.00  0.00    -0.000 C 
BRANCH  12  13
ATOM     13  C   UNL     1      61.864  28.457   9.812  1.00  0.00    -0.003 C 
ATOM     14  C   UNL     1      63.047  29.380   9.530  1.00  0.00     0.004 C 
ENDBRANCH  12  13
ENDBRANCH  11  12
ENDBRANCH  10  11
ENDBRANCH   9  10
ENDBRANCH   1   9
TORSDOF 10
ENDMDL
MODEL 2
REMARK VINA RESULT:    -4.445      2.723      5.062
REMARK INTER + INTRA:          -8.462
REMARK INTER:                  -7.027
REMARK INTRA:                  -1.435
REMARK UNBOUND:                -1.418
REMARK SMILES CCCCCCCCCCCC(=O)[O-]
REMARK SMILES IDX 7 1 8 2 9 3 10 4 11 5 12 6 13 7 14 8 6 9 5 10 4 11 3 12 2 13
REMARK SMILES IDX 1 14
REMARK H PARENT
REMARK Flexibility Score: inf
ROOT
ATOM      1  C   UNL     1      61.651  29.400  13.752  1.00  0.00     0.000 C 
ENDROOT
BRANCH   1   2
ATOM      2  C   UNL     1      60.952  29.024  12.440  1.00  0.00     0.000 C 
BRANCH   2   3
ATOM      3  C   UNL     1      60.771  30.257  11.541  1.00  0.00     0.000 C 
BRANCH   3   4
ATOM      4  C   UNL     1      61.438  30.094  10.163  1.00  0.00     0.006 C 
BRANCH   4   5
ATOM      5  C   UNL     1      62.523  29.007  10.110  1.00  0.00     0.053 C 
BRANCH   5   6
ATOM      6  C   UNL     1      63.898  29.589   9.998  1.00  0.00     0.041 C 
ATOM      7  O   UNL     1      64.767  29.029   9.278  1.00  0.00    -0.550 OA
ATOM      8  O   UNL     1      64.211  30.769  10.661  1.00  0.00    -0.550 OA
ENDBRANCH   5   6
ENDBRANCH   4   5
ENDBRANCH   3   4
ENDBRANCH   2   3
ENDBRANCH   1   2
BRANCH   1   9
ATOM      9  C   UNL     1      63.152  29.101  13.682  1.00  0.00     0.000 C 
BRANCH   9  10
ATOM     10  C   UNL     1      63.978  30.357  14.000  1.00  0.00    -0.000 C 
BRANCH  10  11
ATOM     11  C   UNL     1      63.116  31.532  14.497  1.00  0.00    -0.000 C 
BRANCH  11  12
ATOM     12  C   UNL     1      63.047  32.738  13.544  1.00  0.00    -0.000 C 
BRANCH  12  13
ATOM     13  C   UNL     1      61.637  33.335  13.436  1.00  0.00    -0.003 C 
ATOM     14  C   UNL     1      60.699  32.723  14.473  1.00  0.00     0.004 C 
ENDBRANCH  12  13
ENDBRANCH  11  12
ENDBRANCH  10  11
ENDBRANCH   9  10
ENDBRANCH   1   9
TORSDOF 10
ENDMDL
MODEL 3
REMARK VINA RESULT:    -4.409      2.640      5.002
REMARK INTER + INTRA:          -8.404
REMARK INTER:                  -6.951
REMARK INTRA:                  -1.453
REMARK UNBOUND:                -1.418
REMARK SMILES CCCCCCCCCCCC(=O)[O-]
REMARK SMILES IDX 7 1 8 2 9 3 10 4 11 5 12 6 13 7 14 8 6 9 5 10 4 11 3 12 2 13
REMARK SMILES IDX 1 14
REMARK H PARENT
REMARK Flexibility Score: inf
ROOT
ATOM      1  C   UNL     1      64.034  30.204  12.715  1.00  0.00     0.000 C 
ENDROOT
BRANCH   1   2
ATOM      2  C   UNL     1      63.313  29.020  13.370  1.00  0.00     0.000 C 
BRANCH   2   3
ATOM      3  C   UNL     1      61.865  29.389  13.730  1.00  0.00     0.000 C 
BRANCH   3   4
ATOM      4  C   UNL     1      60.857  28.979  12.641  1.00  0.00     0.006 C 
BRANCH   4   5
ATOM      5  C   UNL     1      60.621  30.049  11.563  1.00  0.00     0.053 C 
BRANCH   5   6
ATOM      6  C   UNL     1      61.200  29.652  10.240  1.00  0.00     0.041 C 
ATOM      7  O   UNL     1      61.850  28.579  10.129  1.00  0.00    -0.550 OA
ATOM      8  O   UNL     1      60.993  30.449   9.121  1.00  0.00    -0.550 OA
ENDBRANCH   5   6
ENDBRANCH   4   5
ENDBRANCH   3   4
ENDBRANCH   2   3
ENDBRANCH   1   2
BRANCH   1   9
ATOM      9  C   UNL     1      64.304  31.317  13.733  1.00  0.00     0.000 C 
BRANCH   9  10
ATOM     10  C   UNL     1      63.957  32.694  13.147  1.00  0.00    -0.000 C 
BRANCH  10  11
ATOM     11  C   UNL     1      62.891  33.443  13.967  1.00  0.00    -0.000 C 
BRANCH  11  12
ATOM     12  C   UNL     1      61.434  33.121  13.591  1.00  0.00    -0.000 C 
BRANCH  12  13
ATOM     13  C   UNL     1      60.617  32.581  14.773  1.00  0.00    -0.003 C 
ATOM     14  C   UNL     1      61.505  32.332  15.989  1.00  0.00     0.004 C 
ENDBRANCH  12  13
ENDBRANCH  11  12
ENDBRANCH  10  11
ENDBRANCH   9  10
ENDBRANCH   1   9
TORSDOF 10
ENDMDL
MODEL 4
REMARK VINA RESULT:    -4.286      0.845      2.465
REMARK INTER + INTRA:          -8.209
REMARK INTER:                  -6.651
REMARK INTRA:                  -1.558
REMARK UNBOUND:                -1.418
REMARK SMILES CCCCCCCCCCCC(=O)[O-]
REMARK SMILES IDX 7 1 8 2 9 3 10 4 11 5 12 6 13 7 14 8 6 9 5 10 4 11 3 12 2 13
REMARK SMILES IDX 1 14
REMARK H PARENT
REMARK Flexibility Score: inf
ROOT
ATOM      1  C   UNL     1      64.352  30.598  11.402  1.00  0.00     0.000 C 
ENDROOT
BRANCH   1   2
ATOM      2  C   UNL     1      64.242  30.116  12.853  1.00  0.00     0.000 C 
BRANCH   2   3
ATOM      3  C   UNL     1      63.519  31.155  13.725  1.00  0.00     0.000 C 
BRANCH   3   4
ATOM      4  C   UNL     1      63.285  32.489  12.993  1.00  0.00     0.006 C 
BRANCH   4   5
ATOM      5  C   UNL     1      61.822  32.960  12.986  1.00  0.00     0.053 C 
BRANCH   5   6
ATOM      6  C   UNL     1      61.308  33.220  14.368  1.00  0.00     0.041 C 
ATOM      7  O   UNL     1      61.687  34.240  15.003  1.00  0.00    -0.550 OA
ATOM      8  O   UNL     1      60.384  32.357  14.942  1.00  0.00    -0.550 OA
ENDBRANCH   5   6
ENDBRANCH   4   5
ENDBRANCH   3   4
ENDBRANCH   2   3
ENDBRANCH   1   2
BRANCH   1   9
ATOM      9  C   UNL     1      64.174  29.434  10.420  1.00  0.00     0.000 C 
BRANCH   9  10
ATOM     10  C   UNL     1      62.816  29.519   9.706  1.00  0.00    -0.000 C 
BRANCH  10  11
ATOM     11  C   UNL     1      61.680  28.841  10.493  1.00  0.00    -0.000 C 
BRANCH  11  12
ATOM     12  C   UNL     1      60.614  29.799  11.054  1.00  0.00    -0.000 C 
BRANCH  12  13
ATOM     13  C   UNL     1      60.439  29.676  12.574  1.00  0.00    -0.003 C 
ATOM     14  C   UNL     1      60.950  28.329  13.080  1.00  0.00     0.004 C 
ENDBRANCH  12  13
ENDBRANCH  11  12
ENDBRANCH  10  11
ENDBRANCH   9  10
ENDBRANCH   1   9
TORSDOF 10
ENDMDL
MODEL 5
REMARK VINA RESULT:    -4.281      2.041      4.722
REMARK INTER + INTRA:          -8.202
REMARK INTER:                  -6.904
REMARK INTRA:                  -1.298
REMARK UNBOUND:                -1.418
REMARK SMILES CCCCCCCCCCCC(=O)[O-]
REMARK SMILES IDX 7 1 8 2 9 3 10 4 11 5 12 6 13 7 14 8 6 9 5 10 4 11 3 12 2 13
REMARK SMILES IDX 1 14
REMARK H PARENT
REMARK Flexibility Score: inf
ROOT
ATOM      1  C   UNL     1      64.332  30.110  11.592  1.00  0.00     0.000 C 
ENDROOT
BRANCH   1   2
ATOM      2  C   UNL     1      63.713  29.304  10.443  1.00  0.00     0.000 C 
BRANCH   2   3
ATOM      3  C   UNL     1      62.420  29.965   9.941  1.00  0.00     0.000 C 
BRANCH   3   4
ATOM      4  C   UNL     1      61.151  29.273  10.471  1.00  0.00     0.006 C 
BRANCH   4   5
ATOM      5  C   UNL     1      60.539  29.940  11.713  1.00  0.00     0.053 C 
BRANCH   5   6
ATOM      6  C   UNL     1      60.482  29.006  12.883  1.00  0.00     0.041 C 
ATOM      7  O   UNL     1      61.452  28.932  13.683  1.00  0.00    -0.550 OA
ATOM      8  O   UNL     1      59.343  28.244  13.110  1.00  0.00    -0.550 OA
ENDBRANCH   5   6
ENDBRANCH   4   5
ENDBRANCH   3   4
ENDBRANCH   2   3
ENDBRANCH   1   2
BRANCH   1   9
ATOM      9  C   UNL     1      64.551  31.571  11.185  1.00  0.00     0.000 C 
BRANCH   9  10
ATOM     10  C   UNL     1      64.348  32.512  12.382  1.00  0.00    -0.000 C 
BRANCH  10  11
ATOM     11  C   UNL     1      63.172  32.093  13.282  1.00  0.00    -0.000 C 
BRANCH  11  12
ATOM     12  C   UNL     1      61.928  32.995  13.190  1.00  0.00    -0.000 C 
BRANCH  12  13
ATOM     13  C   UNL     1      60.869  32.663  14.250  1.00  0.00    -0.003 C 
ATOM     14  C   UNL     1      61.514  32.120  15.523  1.00  0.00     0.004 C 
ENDBRANCH  12  13
ENDBRANCH  11  12
ENDBRANCH  10  11
ENDBRANCH   9  10
ENDBRANCH   1   9
TORSDOF 10
ENDMDL
MODEL 6
REMARK VINA RESULT:    -4.251      2.649      4.509
REMARK INTER + INTRA:          -8.154
REMARK INTER:                  -6.830
REMARK INTRA:                  -1.324
REMARK UNBOUND:                -1.418
REMARK SMILES CCCCCCCCCCCC(=O)[O-]
REMARK SMILES IDX 7 1 8 2 9 3 10 4 11 5 12 6 13 7 14 8 6 9 5 10 4 11 3 12 2 13
REMARK SMILES IDX 1 14
REMARK H PARENT
REMARK Flexibility Score: inf
ROOT
ATOM      1  C   UNL     1      63.963  32.838  12.828  1.00  0.00     0.000 C 
ENDROOT
BRANCH   1   2
ATOM      2  C   UNL     1      64.547  31.422  12.775  1.00  0.00     0.000 C 
BRANCH   2   3
ATOM      3  C   UNL     1      64.751  30.964  11.322  1.00  0.00     0.000 C 
BRANCH   3   4
ATOM      4  C   UNL     1      63.763  29.861  10.900  1.00  0.00     0.006 C 
BRANCH   4   5
ATOM      5  C   UNL     1      62.819  30.261   9.756  1.00  0.00     0.053 C 
BRANCH   5   6
ATOM      6  C   UNL     1      61.651  29.331   9.639  1.00  0.00     0.041 C 
ATOM      7  O   UNL     1      61.835  28.085   9.589  1.00  0.00    -0.550 OA
ATOM      8  O   UNL     1      60.357  29.836   9.620  1.00  0.00    -0.550 OA
ENDBRANCH   5   6
ENDBRANCH   4   5
ENDBRANCH   3   4
ENDBRANCH   2   3
ENDBRANCH   1   2
BRANCH   1   9
ATOM      9  C   UNL     1      63.074  33.022  14.062  1.00  0.00     0.000 C 
BRANCH   9  10
ATOM     10  C   UNL     1      61.627  33.340  13.656  1.00  0.00    -0.000 C 
BRANCH  10  11
ATOM     11  C   UNL     1      60.665  32.162  13.891  1.00  0.00    -0.000 C 
BRANCH  11  12
ATOM     12  C   UNL     1      60.854  30.966  12.940  1.00  0.00    -0.000 C 
BRANCH  12  13
ATOM     13  C   UNL     1      61.387  29.715  13.651  1.00  0.00    -0.003 C 
ATOM     14  C   UNL     1      60.697  28.454  13.138  1.00  0.00     0.004 C 
ENDBRANCH  12  13
ENDBRANCH  11  12
ENDBRANCH  10  11
ENDBRANCH   9  10
ENDBRANCH   1   9
TORSDOF 10
ENDMDL
MODEL 7
REMARK VINA RESULT:    -4.238      2.617      5.406
REMARK INTER + INTRA:          -8.133
REMARK INTER:                  -6.867
REMARK INTRA:                  -1.266
REMARK UNBOUND:                -1.418
REMARK SMILES CCCCCCCCCCCC(=O)[O-]
REMARK SMILES IDX 7 1 8 2 9 3 10 4 11 5 12 6 13 7 14 8 6 9 5 10 4 11 3 12 2 13
REMARK SMILES IDX 1 14
REMARK H PARENT
REMARK Flexibility Score: inf
ROOT
ATOM      1  C   UNL     1      62.296  30.296  14.202  1.00  0.00     0.000 C 
ENDROOT
BRANCH   1   2
ATOM      2  C   UNL     1      62.018  28.988  13.452  1.00  0.00     0.000 C 
BRANCH   2   3
ATOM      3  C   UNL     1      60.562  28.933  12.963  1.00  0.00     0.000 C 
BRANCH   3   4
ATOM      4  C   UNL     1      60.404  29.400  11.504  1.00  0.00     0.006 C 
BRANCH   4   5
ATOM      5  C   UNL     1      61.575  29.014  10.586  1.00  0.00     0.053 C 
BRANCH   5   6
ATOM      6  C   UNL     1      61.997  30.149   9.705  1.00  0.00     0.041 C 
ATOM      7  O   UNL     1      63.200  30.519   9.680  1.00  0.00    -0.550 OA
ATOM      8  O   UNL     1      61.067  30.777   8.885  1.00  0.00    -0.550 OA
ENDBRANCH   5   6
ENDBRANCH   4   5
ENDBRANCH   3   4
ENDBRANCH   2   3
ENDBRANCH   1   2
BRANCH   1   9
ATOM      9  C   UNL     1      63.016  31.305  13.300  1.00  0.00     0.000 C 
BRANCH   9  10
ATOM     10  C   UNL     1      62.119  32.518  13.007  1.00  0.00    -0.000 C 
BRANCH  10  11
ATOM     11  C   UNL     1      61.071  32.769  14.105  1.00  0.00    -0.000 C 
BRANCH  11  12
ATOM     12  C   UNL     1      61.409  33.910  15.081  1.00  0.00    -0.000 C 
BRANCH  12  13
ATOM     13  C   UNL     1      62.219  33.438  16.296  1.00  0.00    -0.003 C 
ATOM     14  C   UNL     1      63.682  33.858  16.181  1.00  0.00     0.004 C 
ENDBRANCH  12  13
ENDBRANCH  11  12
ENDBRANCH  10  11
ENDBRANCH   9  10
ENDBRANCH   1   9
TORSDOF 10
ENDMDL
MODEL 8
REMARK VINA RESULT:    -4.238      1.120      2.513
REMARK INTER + INTRA:          -8.132
REMARK INTER:                  -6.748
REMARK INTRA:                  -1.384
REMARK UNBOUND:                -1.418
REMARK SMILES CCCCCCCCCCCC(=O)[O-]
REMARK SMILES IDX 7 1 8 2 9 3 10 4 11 5 12 6 13 7 14 8 6 9 5 10 4 11 3 12 2 13
REMARK SMILES IDX 1 14
REMARK H PARENT
REMARK Flexibility Score: inf
ROOT
ATOM      1  C   UNL     1      60.261  28.989  12.303  1.00  0.00     0.000 C 
ENDROOT
BRANCH   1   2
ATOM      2  C   UNL     1      61.316  28.962  13.416  1.00  0.00     0.000 C 
BRANCH   2   3
ATOM      3  C   UNL     1      62.700  29.350  12.872  1.00  0.00     0.000 C 
BRANCH   3   4
ATOM      4  C   UNL     1      63.338  30.520  13.642  1.00  0.00     0.006 C 
BRANCH   4   5
ATOM      5  C   UNL     1      63.317  31.860  12.890  1.00  0.00     0.053 C 
BRANCH   5   6
ATOM      6  C   UNL     1      62.242  32.772  13.396  1.00  0.00     0.041 C 
ATOM      7  O   UNL     1      61.048  32.610  13.029  1.00  0.00    -0.550 OA
ATOM      8  O   UNL     1      62.552  33.779  14.302  1.00  0.00    -0.550 OA
ENDBRANCH   5   6
ENDBRANCH   4   5
ENDBRANCH   3   4
ENDBRANCH   2   3
ENDBRANCH   1   2
BRANCH   1   9
ATOM      9  C   UNL     1      60.764  29.771  11.085  1.00  0.00     0.000 C 
BRANCH   9  10
ATOM     10  C   UNL     1      60.616  28.943   9.800  1.00  0.00    -0.000 C 
BRANCH  10  11
ATOM     11  C   UNL     1      61.969  28.564   9.170  1.00  0.00    -0.000 C 
BRANCH  11  12
ATOM     12  C   UNL     1      62.999  29.705   9.106  1.00  0.00    -0.000 C 
BRANCH  12  13
ATOM     13  C   UNL     1      64.379  29.296   9.637  1.00  0.00    -0.003 C 
ATOM     14  C   UNL     1      65.208  30.520  10.019  1.00  0.00     0.004 C 
ENDBRANCH  12  13
ENDBRANCH  11  12
ENDBRANCH  10  11
ENDBRANCH   9  10
ENDBRANCH   1   9
TORSDOF 10
ENDMDL
MODEL 9
REMARK VINA RESULT:    -4.187      2.720      4.903
REMARK INTER + INTRA:          -8.052
REMARK INTER:                  -6.817
REMARK INTRA:                  -1.235
REMARK UNBOUND:                -1.418
REMARK SMILES CCCCCCCCCCCC(=O)[O-]
REMARK SMILES IDX 7 1 8 2 9 3 10 4 11 5 12 6 13 7 14 8 6 9 5 10 4 11 3 12 2 13
REMARK SMILES IDX 1 14
REMARK H PARENT
REMARK Flexibility Score: inf
ROOT
ATOM      1  C   UNL     1      62.779  29.359  13.245  1.00  0.00     0.000 C 
ENDROOT
BRANCH   1   2
ATOM      2  C   UNL     1      63.542  30.336  12.343  1.00  0.00     0.000 C 
BRANCH   2   3
ATOM      3  C   UNL     1      64.074  29.626  11.088  1.00  0.00     0.000 C 
BRANCH   3   4
ATOM      4  C   UNL     1      63.334  30.047   9.805  1.00  0.00     0.006 C 
BRANCH   4   5
ATOM      5  C   UNL     1      62.361  28.989   9.259  1.00  0.00     0.053 C 
BRANCH   5   6
ATOM      6  C   UNL     1      60.953  29.495   9.201  1.00  0.00     0.041 C 
ATOM      7  O   UNL     1      59.992  28.730   9.478  1.00  0.00    -0.550 OA
ATOM      8  O   UNL     1      60.703  30.823   8.875  1.00  0.00    -0.550 OA
ENDBRANCH   5   6
ENDBRANCH   4   5
ENDBRANCH   3   4
ENDBRANCH   2   3
ENDBRANCH   1   2
BRANCH   1   9
ATOM      9  C   UNL     1      61.280  29.677  13.257  1.00  0.00     0.000 C 
BRANCH   9  10
ATOM     10  C   UNL     1      60.997  31.019  12.565  1.00  0.00    -0.000 C 
BRANCH  10  11
ATOM     11  C   UNL     1      60.701  32.156  13.559  1.00  0.00    -0.000 C 
BRANCH  11  12
ATOM     12  C   UNL     1      61.695  33.331  13.518  1.00  0.00    -0.000 C 
BRANCH  12  13
ATOM     13  C   UNL     1      62.557  33.429  14.784  1.00  0.00    -0.003 C 
ATOM     14  C   UNL     1      62.114  32.413  15.833  1.00  0.00     0.004 C 
ENDBRANCH  12  13
ENDBRANCH  11  12
ENDBRANCH  10  11
ENDBRANCH   9  10
ENDBRANCH   1   9
TORSDOF 10
ENDMDL
