MODEL 1
REMARK VINA RESULT:    -4.575      0.000      0.000
REMARK INTER + INTRA:          -7.877
REMARK INTER:                  -7.116
REMARK INTRA:                  -0.761
REMARK UNBOUND:                -0.761
REMARK SMILES COc1cc(CNC(=O)CCCCC=CC(C)C)ccc1O
REMARK SMILES IDX 11 1 12 2 13 3 14 4 15 5 16 6 17 7 18 8 10 9 8 10 9 11 7 12
REMARK SMILES IDX 6 14 5 15 4 16 19 17 3 18 20 19 21 20 2 21 1 22 22 23
REMARK H PARENT 7 13 22 24
REMARK Flexibility Score: inf
ROOT
ATOM      1  C   UNL     1      -8.251 -13.762   5.253  1.00  0.00     0.010 C 
ENDROOT
BRANCH   1   2
ATOM      2  C   UNL     1      -9.743 -13.971   4.948  1.00  0.00     0.005 C 
BRANCH   2   3
ATOM      3  C   UNL     1     -10.612 -13.929   6.215  1.00  0.00     0.027 C 
BRANCH   3   4
ATOM      4  C   UNL     1     -11.582 -12.782   6.165  1.00  0.00    -0.031 C 
ATOM      5  C   UNL     1     -11.312 -11.605   6.758  1.00  0.00    -0.028 C 
BRANCH   5   6
ATOM      6  C   UNL     1     -12.290 -10.454   6.704  1.00  0.00     0.005 C 
ATOM      7  C   UNL     1     -12.766 -10.216   5.266  1.00  0.00     0.012 C 
ATOM      8  C   UNL     1     -11.649  -9.181   7.267  1.00  0.00     0.012 C 
ENDBRANCH   5   6
ENDBRANCH   3   4
ENDBRANCH   2   3
ENDBRANCH   1   2
BRANCH   1   9
ATOM      9  C   UNL     1      -7.712 -14.781   6.266  1.00  0.00     0.100 C 
BRANCH   9  10
ATOM     10  C   UNL     1      -7.344 -16.065   5.581  1.00  0.00     0.220 C 
ATOM     11  O   UNL     1      -6.292 -16.115   4.887  1.00  0.00    -0.275 OA
ATOM     12  N   UNL     1      -8.170 -17.229   5.731  1.00  0.00    -0.352 N 
ATOM     13  H   UNL     1      -9.029 -17.171   6.321  1.00  0.00     0.163 HD
BRANCH  12  14
ATOM     14  C   UNL     1      -7.815 -18.527   5.159  1.00  0.00     0.151 C 
BRANCH  14  15
ATOM     15  C   UNL     1      -8.769 -19.595   5.626  1.00  0.00    -0.025 A 
ATOM     16  C   UNL     1      -9.588 -19.377   6.747  1.00  0.00     0.056 A 
ATOM     17  C   UNL     1      -8.833 -20.824   4.955  1.00  0.00     0.009 A 
ATOM     18  C   UNL     1     -10.465 -20.383   7.202  1.00  0.00     0.160 A 
ATOM     19  C   UNL     1      -9.701 -21.824   5.399  1.00  0.00     0.050 A 
ATOM     20  C   UNL     1     -10.514 -21.611   6.517  1.00  0.00     0.157 A 
BRANCH  18  21
ATOM     21  O   UNL     1     -11.291 -20.196   8.323  1.00  0.00    -0.493 OA
ATOM     22  C   UNL     1     -12.593 -19.621   8.278  1.00  0.00     0.278 C 
ENDBRANCH  18  21
BRANCH  20  23
ATOM     23  O   UNL     1     -11.366 -22.635   6.935  1.00  0.00    -0.504 OA
ATOM     24  H   UNL     1     -11.748 -23.316   6.289  1.00  0.00     0.293 HD
ENDBRANCH  20  23
ENDBRANCH  14  15
ENDBRANCH  12  14
ENDBRANCH   9  10
ENDBRANCH   1   9
TORSDOF 10
ENDMDL
MODEL 2
REMARK VINA RESULT:    -4.419      2.524      4.226
REMARK INTER + INTRA:          -7.634
REMARK INTER:                  -6.987
REMARK INTRA:                  -0.648
REMARK UNBOUND:                -0.761
REMARK SMILES COc1cc(CNC(=O)CCCCC=CC(C)C)ccc1O
REMARK SMILES IDX 11 1 12 2 13 3 14 4 15 5 16 6 17 7 18 8 10 9 8 10 9 11 7 12
REMARK SMILES IDX 6 14 5 15 4 16 19 17 3 18 20 19 21 20 2 21 1 22 22 23
REMARK H PARENT 7 13 22 24
REMARK Flexibility Score: inf
ROOT
ATOM      1  C   UNL     1     -11.635 -11.106   6.789  1.00  0.00     0.010 C 
ENDROOT
BRANCH   1   2
ATOM      2  C   UNL     1     -13.037 -10.672   6.335  1.00  0.00     0.005 C 
BRANCH   2   3
ATOM      3  C   UNL     1     -13.015  -9.947   4.980  1.00  0.00     0.027 C 
BRANCH   3   4
ATOM      4  C   UNL     1     -12.860  -8.463   5.166  1.00  0.00    -0.031 C 
ATOM      5  C   UNL     1     -11.660  -7.864   5.067  1.00  0.00    -0.028 C 
BRANCH   5   6
ATOM      6  C   UNL     1     -11.508  -6.372   5.253  1.00  0.00     0.005 C 
ATOM      7  C   UNL     1     -10.046  -5.949   5.068  1.00  0.00     0.012 C 
ATOM      8  C   UNL     1     -12.009  -5.952   6.639  1.00  0.00     0.012 C 
ENDBRANCH   5   6
ENDBRANCH   3   4
ENDBRANCH   2   3
ENDBRANCH   1   2
BRANCH   1   9
ATOM      9  C   UNL     1     -11.552 -12.613   7.074  1.00  0.00     0.100 C 
BRANCH   9  10
ATOM     10  C   UNL     1     -10.786 -13.314   5.991  1.00  0.00     0.220 C 
ATOM     11  O   UNL     1     -11.353 -13.558   4.890  1.00  0.00    -0.275 OA
ATOM     12  N   UNL     1      -9.414 -13.683   6.197  1.00  0.00    -0.352 N 
ATOM     13  H   UNL     1      -8.959 -13.460   7.109  1.00  0.00     0.163 HD
BRANCH  12  14
ATOM     14  C   UNL     1      -8.594 -14.289   5.148  1.00  0.00     0.151 C 
BRANCH  14  15
ATOM     15  C   UNL     1      -8.468 -15.775   5.360  1.00  0.00    -0.025 A 
ATOM     16  C   UNL     1      -9.616 -16.574   5.491  1.00  0.00     0.056 A 
ATOM     17  C   UNL     1      -7.202 -16.368   5.448  1.00  0.00     0.009 A 
ATOM     18  C   UNL     1      -9.503 -17.962   5.714  1.00  0.00     0.160 A 
ATOM     19  C   UNL     1      -7.083 -17.743   5.666  1.00  0.00     0.050 A 
ATOM     20  C   UNL     1      -8.224 -18.541   5.801  1.00  0.00     0.157 A 
BRANCH  18  21
ATOM     21  O   UNL     1     -10.632 -18.786   5.854  1.00  0.00    -0.493 OA
ATOM     22  C   UNL     1     -11.598 -18.662   6.894  1.00  0.00     0.278 C 
ENDBRANCH  18  21
BRANCH  20  23
ATOM     23  O   UNL     1      -8.066 -19.910   6.023  1.00  0.00    -0.504 OA
ATOM     24  H   UNL     1      -7.349 -20.277   6.638  1.00  0.00     0.293 HD
ENDBRANCH  20  23
ENDBRANCH  14  15
ENDBRANCH  12  14
ENDBRANCH   9  10
ENDBRANCH   1   9
TORSDOF 10
ENDMDL
MODEL 3
REMARK VINA RESULT:    -4.331      2.667      6.283
REMARK INTER + INTRA:          -7.497
REMARK INTER:                  -6.458
REMARK INTRA:                  -1.039
REMARK UNBOUND:                -0.761
REMARK SMILES COc1cc(CNC(=O)CCCCC=CC(C)C)ccc1O
REMARK SMILES IDX 11 1 12 2 13 3 14 4 15 5 16 6 17 7 18 8 10 9 8 10 9 11 7 12
REMARK SMILES IDX 6 14 5 15 4 16 19 17 3 18 20 19 21 20 2 21 1 22 22 23
REMARK H PARENT 7 13 22 24
REMARK Flexibility Score: inf
ROOT
ATOM      1  C   UNL     1      -8.210 -14.237   5.750  1.00  0.00     0.010 C 
ENDROOT
BRANCH   1   2
ATOM      2  C   UNL     1      -7.346 -15.256   4.989  1.00  0.00     0.005 C 
BRANCH   2   3
ATOM      3  C   UNL     1      -6.744 -16.322   5.918  1.00  0.00     0.027 C 
BRANCH   3   4
ATOM      4  C   UNL     1      -7.150 -17.704   5.487  1.00  0.00    -0.031 C 
ATOM      5  C   UNL     1      -8.376 -18.190   5.749  1.00  0.00    -0.028 C 
BRANCH   5   6
ATOM      6  C   UNL     1      -8.781 -19.580   5.313  1.00  0.00     0.005 C 
ATOM      7  C   UNL     1     -10.250 -19.603   4.875  1.00  0.00     0.012 C 
ATOM      8  C   UNL     1      -8.550 -20.584   6.446  1.00  0.00     0.012 C 
ENDBRANCH   5   6
ENDBRANCH   3   4
ENDBRANCH   2   3
ENDBRANCH   1   2
BRANCH   1   9
ATOM      9  C   UNL     1      -9.336 -13.660   4.880  1.00  0.00     0.100 C 
BRANCH   9  10
ATOM     10  C   UNL     1     -10.626 -13.613   5.645  1.00  0.00     0.220 C 
ATOM     11  O   UNL     1     -10.796 -12.714   6.515  1.00  0.00    -0.275 OA
ATOM     12  N   UNL     1     -11.663 -14.567   5.375  1.00  0.00    -0.352 N 
ATOM     13  H   UNL     1     -11.508 -15.294   4.642  1.00  0.00     0.163 HD
BRANCH  12  14
ATOM     14  C   UNL     1     -12.971 -14.516   6.027  1.00  0.00     0.151 C 
BRANCH  14  15
ATOM     15  C   UNL     1     -12.989 -15.384   7.258  1.00  0.00    -0.025 A 
ATOM     16  C   UNL     1     -12.926 -16.783   7.143  1.00  0.00     0.056 A 
ATOM     17  C   UNL     1     -13.087 -14.802   8.529  1.00  0.00     0.009 A 
ATOM     18  C   UNL     1     -12.966 -17.601   8.291  1.00  0.00     0.160 A 
ATOM     19  C   UNL     1     -13.125 -15.606   9.670  1.00  0.00     0.050 A 
ATOM     20  C   UNL     1     -13.067 -16.999   9.558  1.00  0.00     0.157 A 
BRANCH  18  21
ATOM     21  O   UNL     1     -12.910 -19.002   8.206  1.00  0.00    -0.493 OA
ATOM     22  C   UNL     1     -11.706 -19.762   8.191  1.00  0.00     0.278 C 
ENDBRANCH  18  21
BRANCH  20  23
ATOM     23  O   UNL     1     -13.112 -17.771  10.720  1.00  0.00    -0.504 OA
ATOM     24  H   UNL     1     -13.584 -17.454  11.560  1.00  0.00     0.293 HD
ENDBRANCH  20  23
ENDBRANCH  14  15
ENDBRANCH  12  14
ENDBRANCH   9  10
ENDBRANCH   1   9
TORSDOF 10
ENDMDL
MODEL 4
REMARK VINA RESULT:    -4.329      3.028      5.800
REMARK INTER + INTRA:          -7.494
REMARK INTER:                  -7.044
REMARK INTRA:                  -0.451
REMARK UNBOUND:                -0.761
REMARK SMILES COc1cc(CNC(=O)CCCCC=CC(C)C)ccc1O
REMARK SMILES IDX 11 1 12 2 13 3 14 4 15 5 16 6 17 7 18 8 10 9 8 10 9 11 7 12
REMARK SMILES IDX 6 14 5 15 4 16 19 17 3 18 20 19 21 20 2 21 1 22 22 23
REMARK H PARENT 7 13 22 24
REMARK Flexibility Score: inf
ROOT
ATOM      1  C   UNL     1     -11.883 -10.743   6.723  1.00  0.00     0.010 C 
ENDROOT
BRANCH   1   2
ATOM      2  C   UNL     1     -12.302  -9.317   6.331  1.00  0.00     0.005 C 
BRANCH   2   3
ATOM      3  C   UNL     1     -11.568  -8.245   7.150  1.00  0.00     0.027 C 
BRANCH   3   4
ATOM      4  C   UNL     1     -11.057  -7.144   6.263  1.00  0.00    -0.031 C 
ATOM      5  C   UNL     1     -11.519  -5.886   6.366  1.00  0.00    -0.028 C 
BRANCH   5   6
ATOM      6  C   UNL     1     -11.002  -4.782   5.473  1.00  0.00     0.005 C 
ATOM      7  C   UNL     1      -9.636  -5.156   4.886  1.00  0.00     0.012 C 
ATOM      8  C   UNL     1     -10.901  -3.466   6.252  1.00  0.00     0.012 C 
ENDBRANCH   5   6
ENDBRANCH   3   4
ENDBRANCH   2   3
ENDBRANCH   1   2
BRANCH   1   9
ATOM      9  C   UNL     1     -12.907 -11.797   6.278  1.00  0.00     0.100 C 
BRANCH   9  10
ATOM     10  C   UNL     1     -12.430 -13.177   6.625  1.00  0.00     0.220 C 
ATOM     11  O   UNL     1     -12.354 -13.518   7.838  1.00  0.00    -0.275 OA
ATOM     12  N   UNL     1     -12.086 -14.107   5.588  1.00  0.00    -0.352 N 
ATOM     13  H   UNL     1     -12.169 -13.811   4.591  1.00  0.00     0.163 HD
BRANCH  12  14
ATOM     14  C   UNL     1     -11.700 -15.491   5.864  1.00  0.00     0.151 C 
BRANCH  14  15
ATOM     15  C   UNL     1     -10.203 -15.648   5.813  1.00  0.00    -0.025 A 
ATOM     16  C   UNL     1      -9.627 -16.906   5.569  1.00  0.00     0.056 A 
ATOM     17  C   UNL     1      -9.372 -14.540   6.028  1.00  0.00     0.009 A 
ATOM     18  C   UNL     1      -8.226 -17.062   5.544  1.00  0.00     0.160 A 
ATOM     19  C   UNL     1      -7.983 -14.687   6.002  1.00  0.00     0.050 A 
ATOM     20  C   UNL     1      -7.407 -15.939   5.764  1.00  0.00     0.157 A 
BRANCH  18  21
ATOM     21  O   UNL     1      -7.622 -18.308   5.308  1.00  0.00    -0.493 OA
ATOM     22  C   UNL     1      -8.296 -19.560   5.391  1.00  0.00     0.278 C 
ENDBRANCH  18  21
BRANCH  20  23
ATOM     23  O   UNL     1      -6.016 -16.049   5.750  1.00  0.00    -0.504 OA
ATOM     24  H   UNL     1      -5.465 -15.826   4.928  1.00  0.00     0.293 HD
ENDBRANCH  20  23
ENDBRANCH  14  15
ENDBRANCH  12  14
ENDBRANCH   9  10
ENDBRANCH   1   9
TORSDOF 10
ENDMDL
MODEL 5
REMARK VINA RESULT:    -4.309     21.504     23.782
REMARK INTER + INTRA:          -7.463
REMARK INTER:                  -6.336
REMARK INTRA:                  -1.127
REMARK UNBOUND:                -0.761
REMARK SMILES COc1cc(CNC(=O)CCCCC=CC(C)C)ccc1O
REMARK SMILES IDX 11 1 12 2 13 3 14 4 15 5 16 6 17 7 18 8 10 9 8 10 9 11 7 12
REMARK SMILES IDX 6 14 5 15 4 16 19 17 3 18 20 19 21 20 2 21 1 22 22 23
REMARK H PARENT 7 13 22 24
REMARK Flexibility Score: inf
ROOT
ATOM      1  C   UNL     1       6.577 -13.384  19.539  1.00  0.00     0.010 C 
ENDROOT
BRANCH   1   2
ATOM      2  C   UNL     1       5.062 -13.457  19.289  1.00  0.00     0.005 C 
BRANCH   2   3
ATOM      3  C   UNL     1       4.253 -12.741  20.380  1.00  0.00     0.027 C 
BRANCH   3   4
ATOM      4  C   UNL     1       3.396 -13.714  21.142  1.00  0.00    -0.031 C 
ATOM      5  C   UNL     1       3.693 -14.073  22.404  1.00  0.00    -0.028 C 
BRANCH   5   6
ATOM      6  C   UNL     1       2.829 -15.051  23.167  1.00  0.00     0.005 C 
ATOM      7  C   UNL     1       3.374 -15.263  24.584  1.00  0.00     0.012 C 
ATOM      8  C   UNL     1       2.750 -16.388  22.423  1.00  0.00     0.012 C 
ENDBRANCH   5   6
ENDBRANCH   3   4
ENDBRANCH   2   3
ENDBRANCH   1   2
BRANCH   1   9
ATOM      9  C   UNL     1       7.089 -14.565  20.376  1.00  0.00     0.100 C 
BRANCH   9  10
ATOM     10  C   UNL     1       7.059 -14.230  21.838  1.00  0.00     0.220 C 
ATOM     11  O   UNL     1       7.047 -15.165  22.686  1.00  0.00    -0.275 OA
ATOM     12  N   UNL     1       7.066 -12.861  22.268  1.00  0.00    -0.352 N 
ATOM     13  H   UNL     1       7.090 -12.103  21.551  1.00  0.00     0.163 HD
BRANCH  12  14
ATOM     14  C   UNL     1       7.125 -12.477  23.678  1.00  0.00     0.151 C 
BRANCH  14  15
ATOM     15  C   UNL     1       6.044 -11.481  24.005  1.00  0.00    -0.025 A 
ATOM     16  C   UNL     1       6.326 -10.105  24.027  1.00  0.00     0.056 A 
ATOM     17  C   UNL     1       4.749 -11.923  24.310  1.00  0.00     0.009 A 
ATOM     18  C   UNL     1       5.323  -9.170  24.357  1.00  0.00     0.160 A 
ATOM     19  C   UNL     1       3.750 -11.003  24.635  1.00  0.00     0.050 A 
ATOM     20  C   UNL     1       4.029  -9.632  24.662  1.00  0.00     0.157 A 
BRANCH  18  21
ATOM     21  O   UNL     1       5.577  -7.789  24.392  1.00  0.00    -0.493 OA
ATOM     22  C   UNL     1       5.637  -6.950  23.243  1.00  0.00     0.278 C 
ENDBRANCH  18  21
BRANCH  20  23
ATOM     23  O   UNL     1       3.007  -8.742  24.996  1.00  0.00    -0.504 OA
ATOM     24  H   UNL     1       2.969  -8.279  25.896  1.00  0.00     0.293 HD
ENDBRANCH  20  23
ENDBRANCH  14  15
ENDBRANCH  12  14
ENDBRANCH   9  10
ENDBRANCH   1   9
TORSDOF 10
ENDMDL
MODEL 6
REMARK VINA RESULT:    -4.306      2.562      4.798
REMARK INTER + INTRA:          -7.459
REMARK INTER:                  -6.458
REMARK INTRA:                  -1.001
REMARK UNBOUND:                -0.761
REMARK SMILES COc1cc(CNC(=O)CCCCC=CC(C)C)ccc1O
REMARK SMILES IDX 11 1 12 2 13 3 14 4 15 5 16 6 17 7 18 8 10 9 8 10 9 11 7 12
REMARK SMILES IDX 6 14 5 15 4 16 19 17 3 18 20 19 21 20 2 21 1 22 22 23
REMARK H PARENT 7 13 22 24
REMARK Flexibility Score: inf
ROOT
ATOM      1  C   UNL     1     -11.316 -15.008   5.786  1.00  0.00     0.010 C 
ENDROOT
BRANCH   1   2
ATOM      2  C   UNL     1     -10.550 -13.780   6.303  1.00  0.00     0.005 C 
BRANCH   2   3
ATOM      3  C   UNL     1      -9.598 -13.196   5.247  1.00  0.00     0.027 C 
BRANCH   3   4
ATOM      4  C   UNL     1      -8.526 -14.185   4.883  1.00  0.00    -0.031 C 
ATOM      5  C   UNL     1      -7.873 -14.892   5.823  1.00  0.00    -0.028 C 
BRANCH   5   6
ATOM      6  C   UNL     1      -6.796 -15.886   5.454  1.00  0.00     0.005 C 
ATOM      7  C   UNL     1      -7.415 -17.165   4.877  1.00  0.00     0.012 C 
ATOM      8  C   UNL     1      -5.934 -16.219   6.676  1.00  0.00     0.012 C 
ENDBRANCH   5   6
ENDBRANCH   3   4
ENDBRANCH   2   3
ENDBRANCH   1   2
BRANCH   1   9
ATOM      9  C   UNL     1     -12.601 -15.274   6.583  1.00  0.00     0.100 C 
BRANCH   9  10
ATOM     10  C   UNL     1     -12.660 -16.705   7.030  1.00  0.00     0.220 C 
ATOM     11  O   UNL     1     -12.762 -16.965   8.260  1.00  0.00    -0.275 OA
ATOM     12  N   UNL     1     -12.623 -17.767   6.065  1.00  0.00    -0.352 N 
ATOM     13  H   UNL     1     -12.553 -17.531   5.051  1.00  0.00     0.163 HD
BRANCH  12  14
ATOM     14  C   UNL     1     -12.765 -19.175   6.435  1.00  0.00     0.151 C 
BRANCH  14  15
ATOM     15  C   UNL     1     -11.469 -19.914   6.226  1.00  0.00    -0.025 A 
ATOM     16  C   UNL     1     -10.275 -19.430   6.787  1.00  0.00     0.056 A 
ATOM     17  C   UNL     1     -11.443 -21.083   5.453  1.00  0.00     0.009 A 
ATOM     18  C   UNL     1      -9.056 -20.107   6.574  1.00  0.00     0.160 A 
ATOM     19  C   UNL     1     -10.239 -21.759   5.241  1.00  0.00     0.050 A 
ATOM     20  C   UNL     1      -9.048 -21.277   5.794  1.00  0.00     0.157 A 
BRANCH  18  21
ATOM     21  O   UNL     1      -7.846 -19.644   7.117  1.00  0.00    -0.493 OA
ATOM     22  C   UNL     1      -7.322 -20.045   8.379  1.00  0.00     0.278 C 
ENDBRANCH  18  21
BRANCH  20  23
ATOM     23  O   UNL     1      -7.864 -21.976   5.556  1.00  0.00    -0.504 OA
ATOM     24  H   UNL     1      -7.783 -22.664   4.816  1.00  0.00     0.293 HD
ENDBRANCH  20  23
ENDBRANCH  14  15
ENDBRANCH  12  14
ENDBRANCH   9  10
ENDBRANCH   1   9
TORSDOF 10
ENDMDL
MODEL 7
REMARK VINA RESULT:    -4.203      2.416      3.655
REMARK INTER + INTRA:          -7.298
REMARK INTER:                  -6.771
REMARK INTRA:                  -0.527
REMARK UNBOUND:                -0.761
REMARK SMILES COc1cc(CNC(=O)CCCCC=CC(C)C)ccc1O
REMARK SMILES IDX 11 1 12 2 13 3 14 4 15 5 16 6 17 7 18 8 10 9 8 10 9 11 7 12
REMARK SMILES IDX 6 14 5 15 4 16 19 17 3 18 20 19 21 20 2 21 1 22 22 23
REMARK H PARENT 7 13 22 24
REMARK Flexibility Score: inf
ROOT
ATOM      1  C   UNL     1     -11.684 -12.494   7.083  1.00  0.00     0.010 C 
ENDROOT
BRANCH   1   2
ATOM      2  C   UNL     1     -12.149 -11.217   6.364  1.00  0.00     0.005 C 
BRANCH   2   3
ATOM      3  C   UNL     1     -11.740  -9.940   7.114  1.00  0.00     0.027 C 
BRANCH   3   4
ATOM      4  C   UNL     1     -11.679  -8.763   6.180  1.00  0.00    -0.031 C 
ATOM      5  C   UNL     1     -11.598  -7.503   6.643  1.00  0.00    -0.028 C 
BRANCH   5   6
ATOM      6  C   UNL     1     -11.535  -6.322   5.701  1.00  0.00     0.005 C 
ATOM      7  C   UNL     1     -10.159  -6.237   5.031  1.00  0.00     0.012 C 
ATOM      8  C   UNL     1     -11.840  -5.022   6.453  1.00  0.00     0.012 C 
ENDBRANCH   5   6
ENDBRANCH   3   4
ENDBRANCH   2   3
ENDBRANCH   1   2
BRANCH   1   9
ATOM      9  C   UNL     1     -10.696 -13.313   6.240  1.00  0.00     0.100 C 
BRANCH   9  10
ATOM     10  C   UNL     1     -11.124 -14.751   6.174  1.00  0.00     0.220 C 
ATOM     11  O   UNL     1     -11.974 -15.181   7.001  1.00  0.00    -0.275 OA
ATOM     12  N   UNL     1     -10.587 -15.620   5.166  1.00  0.00    -0.352 N 
ATOM     13  H   UNL     1      -9.895 -15.241   4.483  1.00  0.00     0.163 HD
BRANCH  12  14
ATOM     14  C   UNL     1     -11.030 -17.003   4.999  1.00  0.00     0.151 C 
BRANCH  14  15
ATOM     15  C   UNL     1     -10.093 -17.953   5.698  1.00  0.00    -0.025 A 
ATOM     16  C   UNL     1     -10.582 -18.870   6.643  1.00  0.00     0.056 A 
ATOM     17  C   UNL     1      -8.719 -17.913   5.424  1.00  0.00     0.009 A 
ATOM     18  C   UNL     1      -9.704 -19.745   7.317  1.00  0.00     0.160 A 
ATOM     19  C   UNL     1      -7.844 -18.778   6.086  1.00  0.00     0.050 A 
ATOM     20  C   UNL     1      -8.328 -19.690   7.030  1.00  0.00     0.157 A 
BRANCH  18  21
ATOM     21  O   UNL     1     -10.164 -20.669   8.269  1.00  0.00    -0.493 OA
ATOM     22  C   UNL     1     -11.271 -21.544   8.076  1.00  0.00     0.278 C 
ENDBRANCH  18  21
BRANCH  20  23
ATOM     23  O   UNL     1      -7.424 -20.535   7.676  1.00  0.00    -0.504 OA
ATOM     24  H   UNL     1      -6.856 -21.204   7.169  1.00  0.00     0.293 HD
ENDBRANCH  20  23
ENDBRANCH  14  15
ENDBRANCH  12  14
ENDBRANCH   9  10
ENDBRANCH   1   9
TORSDOF 10
ENDMDL
MODEL 8
REMARK VINA RESULT:    -3.768      1.699      2.602
REMARK INTER + INTRA:          -6.622
REMARK INTER:                  -5.863
REMARK INTRA:                  -0.759
REMARK UNBOUND:                -0.761
REMARK SMILES COc1cc(CNC(=O)CCCCC=CC(C)C)ccc1O
REMARK SMILES IDX 11 1 12 2 13 3 14 4 15 5 16 6 17 7 18 8 10 9 8 10 9 11 7 12
REMARK SMILES IDX 6 14 5 15 4 16 19 17 3 18 20 19 21 20 2 21 1 22 22 23
REMARK H PARENT 7 13 22 24
REMARK Flexibility Score: inf
ROOT
ATOM      1  C   UNL     1      -6.810 -15.825   6.255  1.00  0.00     0.010 C 
ENDROOT
BRANCH   1   2
ATOM      2  C   UNL     1      -7.326 -15.388   4.875  1.00  0.00     0.005 C 
BRANCH   2   3
ATOM      3  C   UNL     1      -7.883 -13.956   4.885  1.00  0.00     0.027 C 
BRANCH   3   4
ATOM      4  C   UNL     1      -9.384 -13.963   4.969  1.00  0.00    -0.031 C 
ATOM      5  C   UNL     1     -10.024 -13.782   6.139  1.00  0.00    -0.028 C 
BRANCH   5   6
ATOM      6  C   UNL     1     -11.533 -13.788   6.219  1.00  0.00     0.005 C 
ATOM      7  C   UNL     1     -12.034 -12.626   7.085  1.00  0.00     0.012 C 
ATOM      8  C   UNL     1     -12.033 -15.122   6.783  1.00  0.00     0.012 C 
ENDBRANCH   5   6
ENDBRANCH   3   4
ENDBRANCH   2   3
ENDBRANCH   1   2
BRANCH   1   9
ATOM      9  C   UNL     1      -6.802 -17.352   6.420  1.00  0.00     0.100 C 
BRANCH   9  10
ATOM     10  C   UNL     1      -7.964 -17.967   5.696  1.00  0.00     0.220 C 
ATOM     11  O   UNL     1      -7.756 -18.903   4.876  1.00  0.00    -0.275 OA
ATOM     12  N   UNL     1      -9.301 -17.511   5.952  1.00  0.00    -0.352 N 
ATOM     13  H   UNL     1      -9.453 -16.745   6.644  1.00  0.00     0.163 HD
BRANCH  12  14
ATOM     14  C   UNL     1     -10.476 -18.132   5.342  1.00  0.00     0.151 C 
BRANCH  14  15
ATOM     15  C   UNL     1     -10.802 -19.437   6.020  1.00  0.00    -0.025 A 
ATOM     16  C   UNL     1     -11.130 -19.468   7.386  1.00  0.00     0.056 A 
ATOM     17  C   UNL     1     -10.761 -20.635   5.294  1.00  0.00     0.009 A 
ATOM     18  C   UNL     1     -11.413 -20.690   8.029  1.00  0.00     0.160 A 
ATOM     19  C   UNL     1     -11.042 -21.850   5.925  1.00  0.00     0.050 A 
ATOM     20  C   UNL     1     -11.365 -21.884   7.286  1.00  0.00     0.157 A 
BRANCH  18  21
ATOM     21  O   UNL     1     -11.738 -20.753   9.394  1.00  0.00    -0.493 OA
ATOM     22  C   UNL     1     -13.054 -20.599   9.918  1.00  0.00     0.278 C 
ENDBRANCH  18  21
BRANCH  20  23
ATOM     23  O   UNL     1     -11.635 -23.116   7.883  1.00  0.00    -0.504 OA
ATOM     24  H   UNL     1     -12.130 -23.191   8.764  1.00  0.00     0.293 HD
ENDBRANCH  20  23
ENDBRANCH  14  15
ENDBRANCH  12  14
ENDBRANCH   9  10
ENDBRANCH   1   9
TORSDOF 10
ENDMDL
MODEL 9
REMARK VINA RESULT:    -3.687      2.776      5.534
REMARK INTER + INTRA:          -6.496
REMARK INTER:                  -4.991
REMARK INTRA:                  -1.505
REMARK UNBOUND:                -0.761
REMARK SMILES COc1cc(CNC(=O)CCCCC=CC(C)C)ccc1O
REMARK SMILES IDX 11 1 12 2 13 3 14 4 15 5 16 6 17 7 18 8 10 9 8 10 9 11 7 12
REMARK SMILES IDX 6 14 5 15 4 16 19 17 3 18 20 19 21 20 2 21 1 22 22 23
REMARK H PARENT 7 13 22 24
REMARK Flexibility Score: inf
ROOT
ATOM      1  C   UNL     1      -7.970 -14.704   5.669  1.00  0.00     0.010 C 
ENDROOT
BRANCH   1   2
ATOM      2  C   UNL     1      -6.869 -15.428   4.878  1.00  0.00     0.005 C 
BRANCH   2   3
ATOM      3  C   UNL     1      -6.382 -16.703   5.584  1.00  0.00     0.027 C 
BRANCH   3   4
ATOM      4  C   UNL     1      -7.338 -17.841   5.360  1.00  0.00    -0.031 C 
ATOM      5  C   UNL     1      -7.953 -18.456   6.387  1.00  0.00    -0.028 C 
BRANCH   5   6
ATOM      6  C   UNL     1      -8.914 -19.599   6.158  1.00  0.00     0.005 C 
ATOM      7  C   UNL     1      -9.344 -20.220   7.492  1.00  0.00     0.012 C 
ATOM      8  C   UNL     1      -8.275 -20.663   5.259  1.00  0.00     0.012 C 
ENDBRANCH   5   6
ENDBRANCH   3   4
ENDBRANCH   2   3
ENDBRANCH   1   2
BRANCH   1   9
ATOM      9  C   UNL     1      -9.313 -14.690   4.924  1.00  0.00     0.100 C 
BRANCH   9  10
ATOM     10  C   UNL     1     -10.448 -14.931   5.876  1.00  0.00     0.220 C 
ATOM     11  O   UNL     1     -10.729 -14.053   6.737  1.00  0.00    -0.275 OA
ATOM     12  N   UNL     1     -11.220 -16.138   5.791  1.00  0.00    -0.352 N 
ATOM     13  H   UNL     1     -10.980 -16.846   5.062  1.00  0.00     0.163 HD
BRANCH  12  14
ATOM     14  C   UNL     1     -12.389 -16.387   6.633  1.00  0.00     0.151 C 
BRANCH  14  15
ATOM     15  C   UNL     1     -12.581 -17.865   6.857  1.00  0.00    -0.025 A 
ATOM     16  C   UNL     1     -12.777 -18.369   8.153  1.00  0.00     0.056 A 
ATOM     17  C   UNL     1     -12.546 -18.751   5.771  1.00  0.00     0.009 A 
ATOM     18  C   UNL     1     -12.933 -19.754   8.369  1.00  0.00     0.160 A 
ATOM     19  C   UNL     1     -12.702 -20.123   5.978  1.00  0.00     0.050 A 
ATOM     20  C   UNL     1     -12.893 -20.628   7.268  1.00  0.00     0.157 A 
BRANCH  18  21
ATOM     21  O   UNL     1     -13.125 -20.288   9.654  1.00  0.00    -0.493 OA
ATOM     22  C   UNL     1     -12.780 -19.621  10.865  1.00  0.00     0.278 C 
ENDBRANCH  18  21
BRANCH  20  23
ATOM     23  O   UNL     1     -13.041 -22.006   7.437  1.00  0.00    -0.504 OA
ATOM     24  H   UNL     1     -13.404 -22.408   8.293  1.00  0.00     0.293 HD
ENDBRANCH  20  23
ENDBRANCH  14  15
ENDBRANCH  12  14
ENDBRANCH   9  10
ENDBRANCH   1   9
TORSDOF 10
ENDMDL
