MODEL 1
REMARK VINA RESULT:    -6.387      0.000      0.000
REMARK INTER + INTRA:          -6.925
REMARK INTER:                  -6.760
REMARK INTRA:                  -0.165
REMARK UNBOUND:                -0.165
REMARK SMILES C=C(C)[C@H]1CC[C@]2(C)CCCC(=C)[C@H]2C1
REMARK SMILES IDX 4 1 5 2 6 3 7 4 9 5 10 6 11 7 12 8 13 9 14 10 15 11 8 12
REMARK SMILES IDX 2 13 3 14 1 15
REMARK H PARENT
REMARK Flexibility Score: inf
ROOT
ATOM      1  C   UNL     1     142.347 144.696 163.527  1.00  0.00     0.015 C 
ATOM      2  C   UNL     1     142.874 144.141 164.864  1.00  0.00     0.008 C 
ATOM      3  C   UNL     1     144.199 143.375 164.676  1.00  0.00     0.008 C 
ATOM      4  C   UNL     1     144.078 142.238 163.622  1.00  0.00    -0.026 C 
ATOM      5  C   UNL     1     145.483 141.627 163.372  1.00  0.00     0.008 C 
ATOM      6  C   UNL     1     145.531 140.595 162.212  1.00  0.00     0.005 C 
ATOM      7  C   UNL     1     144.257 140.516 161.344  1.00  0.00     0.031 C 
ATOM      8  C   UNL     1     143.643 141.877 161.123  1.00  0.00    -0.074 C 
ATOM      9  C   UNL     1     143.297 142.215 159.870  1.00  0.00     0.008 C 
ATOM     10  C   UNL     1     143.595 142.876 162.276  1.00  0.00     0.021 C 
ATOM     11  C   UNL     1     142.235 143.596 162.450  1.00  0.00     0.016 C 
ATOM     12  C   UNL     1     143.122 141.120 164.169  1.00  0.00     0.012 C 
ENDROOT
BRANCH   1  13
ATOM     13  C   UNL     1     141.017 145.413 163.719  1.00  0.00    -0.077 C 
ATOM     14  C   UNL     1     140.499 145.749 165.095  1.00  0.00     0.039 C 
ATOM     15  C   UNL     1     140.274 145.752 162.652  1.00  0.00     0.008 C 
ENDBRANCH   1  13
TORSDOF 1
ENDMDL
MODEL 2
REMARK VINA RESULT:    -6.386      6.072      8.001
REMARK INTER + INTRA:          -6.924
REMARK INTER:                  -6.759
REMARK INTRA:                  -0.165
REMARK UNBOUND:                -0.165
REMARK SMILES C=C(C)[C@H]1CC[C@]2(C)CCCC(=C)[C@H]2C1
REMARK SMILES IDX 4 1 5 2 6 3 7 4 9 5 10 6 11 7 12 8 13 9 14 10 15 11 8 12
REMARK SMILES IDX 2 13 3 14 1 15
REMARK H PARENT
REMARK Flexibility Score: inf
ROOT
ATOM      1  C   UNL     1     148.406 146.051 163.531  1.00  0.00     0.015 C 
ATOM      2  C   UNL     1     147.883 146.605 164.870  1.00  0.00     0.008 C 
ATOM      3  C   UNL     1     146.555 147.367 164.687  1.00  0.00     0.008 C 
ATOM      4  C   UNL     1     146.669 148.505 163.633  1.00  0.00    -0.026 C 
ATOM      5  C   UNL     1     145.261 149.113 163.388  1.00  0.00     0.008 C 
ATOM      6  C   UNL     1     145.207 150.144 162.229  1.00  0.00     0.005 C 
ATOM      7  C   UNL     1     146.476 150.226 161.356  1.00  0.00     0.031 C 
ATOM      8  C   UNL     1     147.093 148.866 161.132  1.00  0.00    -0.074 C 
ATOM      9  C   UNL     1     147.434 148.529 159.878  1.00  0.00     0.008 C 
ATOM     10  C   UNL     1     147.148 147.868 162.285  1.00  0.00     0.021 C 
ATOM     11  C   UNL     1     148.511 147.151 162.453  1.00  0.00     0.016 C 
ATOM     12  C   UNL     1     147.624 149.625 164.175  1.00  0.00     0.012 C 
ENDROOT
BRANCH   1  13
ATOM     13  C   UNL     1     149.739 145.337 163.717  1.00  0.00    -0.077 C 
ATOM     14  C   UNL     1     150.258 144.992 165.090  1.00  0.00     0.039 C 
ATOM     15  C   UNL     1     150.482 145.008 162.647  1.00  0.00     0.008 C 
ENDBRANCH   1  13
TORSDOF 1
ENDMDL
MODEL 3
REMARK VINA RESULT:    -6.383      3.856      5.651
REMARK INTER + INTRA:          -6.920
REMARK INTER:                  -6.755
REMARK INTRA:                  -0.165
REMARK UNBOUND:                -0.165
REMARK SMILES C=C(C)[C@H]1CC[C@]2(C)CCCC(=C)[C@H]2C1
REMARK SMILES IDX 4 1 5 2 6 3 7 4 9 5 10 6 11 7 12 8 13 9 14 10 15 11 8 12
REMARK SMILES IDX 2 13 3 14 1 15
REMARK H PARENT
REMARK Flexibility Score: inf
ROOT
ATOM      1  C   UNL     1     144.699 148.402 163.529  1.00  0.00     0.015 C 
ATOM      2  C   UNL     1     144.146 147.878 164.868  1.00  0.00     0.008 C 
ATOM      3  C   UNL     1     143.385 146.550 164.686  1.00  0.00     0.008 C 
ATOM      4  C   UNL     1     142.246 146.664 163.633  1.00  0.00    -0.026 C 
ATOM      5  C   UNL     1     141.639 145.256 163.388  1.00  0.00     0.008 C 
ATOM      6  C   UNL     1     140.606 145.201 162.230  1.00  0.00     0.005 C 
ATOM      7  C   UNL     1     140.523 146.471 161.357  1.00  0.00     0.031 C 
ATOM      8  C   UNL     1     141.882 147.087 161.132  1.00  0.00    -0.074 C 
ATOM      9  C   UNL     1     142.218 147.429 159.877  1.00  0.00     0.008 C 
ATOM     10  C   UNL     1     142.882 147.143 162.284  1.00  0.00     0.021 C 
ATOM     11  C   UNL     1     143.598 148.506 162.452  1.00  0.00     0.016 C 
ATOM     12  C   UNL     1     141.126 147.618 164.176  1.00  0.00     0.012 C 
ENDROOT
BRANCH   1  13
ATOM     13  C   UNL     1     145.412 149.735 163.714  1.00  0.00    -0.077 C 
ATOM     14  C   UNL     1     145.756 150.255 165.088  1.00  0.00     0.039 C 
ATOM     15  C   UNL     1     145.743 150.477 162.644  1.00  0.00     0.008 C 
ENDBRANCH   1  13
TORSDOF 1
ENDMDL
MODEL 4
REMARK VINA RESULT:    -6.382      3.853      5.659
REMARK INTER + INTRA:          -6.920
REMARK INTER:                  -6.755
REMARK INTRA:                  -0.165
REMARK UNBOUND:                -0.165
REMARK SMILES C=C(C)[C@H]1CC[C@]2(C)CCCC(=C)[C@H]2C1
REMARK SMILES IDX 4 1 5 2 6 3 7 4 9 5 10 6 11 7 12 8 13 9 14 10 15 11 8 12
REMARK SMILES IDX 2 13 3 14 1 15
REMARK H PARENT
REMARK Flexibility Score: inf
ROOT
ATOM      1  C   UNL     1     146.048 142.350 163.528  1.00  0.00     0.015 C 
ATOM      2  C   UNL     1     146.602 142.873 164.867  1.00  0.00     0.008 C 
ATOM      3  C   UNL     1     147.364 144.200 164.685  1.00  0.00     0.008 C 
ATOM      4  C   UNL     1     148.503 144.087 163.632  1.00  0.00    -0.026 C 
ATOM      5  C   UNL     1     149.111 145.494 163.388  1.00  0.00     0.008 C 
ATOM      6  C   UNL     1     150.144 145.548 162.229  1.00  0.00     0.005 C 
ATOM      7  C   UNL     1     150.226 144.279 161.356  1.00  0.00     0.031 C 
ATOM      8  C   UNL     1     148.867 143.663 161.131  1.00  0.00    -0.074 C 
ATOM      9  C   UNL     1     148.531 143.321 159.877  1.00  0.00     0.008 C 
ATOM     10  C   UNL     1     147.867 143.608 162.283  1.00  0.00     0.021 C 
ATOM     11  C   UNL     1     147.149 142.245 162.451  1.00  0.00     0.016 C 
ATOM     12  C   UNL     1     149.623 143.131 164.175  1.00  0.00     0.012 C 
ENDROOT
BRANCH   1  13
ATOM     13  C   UNL     1     145.334 141.018 163.713  1.00  0.00    -0.077 C 
ATOM     14  C   UNL     1     144.992 140.497 165.086  1.00  0.00     0.039 C 
ATOM     15  C   UNL     1     145.003 140.276 162.643  1.00  0.00     0.008 C 
ENDBRANCH   1  13
TORSDOF 1
ENDMDL
MODEL 5
REMARK VINA RESULT:    -6.309      1.140      2.684
REMARK INTER + INTRA:          -6.842
REMARK INTER:                  -6.655
REMARK INTRA:                  -0.187
REMARK UNBOUND:                -0.165
REMARK SMILES C=C(C)[C@H]1CC[C@]2(C)CCCC(=C)[C@H]2C1
REMARK SMILES IDX 4 1 5 2 6 3 7 4 9 5 10 6 11 7 12 8 13 9 14 10 15 11 8 12
REMARK SMILES IDX 2 13 3 14 1 15
REMARK H PARENT
REMARK Flexibility Score: inf
ROOT
ATOM      1  C   UNL     1     141.979 144.359 163.478  1.00  0.00     0.015 C 
ATOM      2  C   UNL     1     142.494 144.795 162.093  1.00  0.00     0.008 C 
ATOM      3  C   UNL     1     142.766 143.581 161.182  1.00  0.00     0.008 C 
ATOM      4  C   UNL     1     143.747 142.564 161.833  1.00  0.00    -0.026 C 
ATOM      5  C   UNL     1     143.842 141.303 160.933  1.00  0.00     0.008 C 
ATOM      6  C   UNL     1     144.657 140.137 161.556  1.00  0.00     0.005 C 
ATOM      7  C   UNL     1     145.034 140.313 163.042  1.00  0.00     0.031 C 
ATOM      8  C   UNL     1     143.925 140.967 163.829  1.00  0.00    -0.074 C 
ATOM      9  C   UNL     1     143.567 140.408 164.996  1.00  0.00     0.008 C 
ATOM     10  C   UNL     1     143.140 142.119 163.206  1.00  0.00     0.021 C 
ATOM     11  C   UNL     1     142.919 143.331 164.145  1.00  0.00     0.016 C 
ATOM     12  C   UNL     1     145.169 143.216 161.954  1.00  0.00     0.012 C 
ENDROOT
BRANCH   1  13
ATOM     13  C   UNL     1     141.755 145.563 164.383  1.00  0.00    -0.077 C 
ATOM     14  C   UNL     1     140.394 145.867 164.960  1.00  0.00     0.039 C 
ATOM     15  C   UNL     1     142.775 146.386 164.676  1.00  0.00     0.008 C 
ENDBRANCH   1  13
TORSDOF 1
ENDMDL
MODEL 6
REMARK VINA RESULT:    -6.287      3.858      6.047
REMARK INTER + INTRA:          -6.819
REMARK INTER:                  -6.632
REMARK INTRA:                  -0.187
REMARK UNBOUND:                -0.165
REMARK SMILES C=C(C)[C@H]1CC[C@]2(C)CCCC(=C)[C@H]2C1
REMARK SMILES IDX 4 1 5 2 6 3 7 4 9 5 10 6 11 7 12 8 13 9 14 10 15 11 8 12
REMARK SMILES IDX 2 13 3 14 1 15
REMARK H PARENT
REMARK Flexibility Score: inf
ROOT
ATOM      1  C   UNL     1     146.376 141.976 163.480  1.00  0.00     0.015 C 
ATOM      2  C   UNL     1     145.932 142.487 162.095  1.00  0.00     0.008 C 
ATOM      3  C   UNL     1     147.141 142.761 161.179  1.00  0.00     0.008 C 
ATOM      4  C   UNL     1     148.158 143.745 161.823  1.00  0.00    -0.026 C 
ATOM      5  C   UNL     1     149.415 143.842 160.917  1.00  0.00     0.008 C 
ATOM      6  C   UNL     1     150.582 144.661 161.533  1.00  0.00     0.005 C 
ATOM      7  C   UNL     1     150.412 145.040 163.019  1.00  0.00     0.031 C 
ATOM      8  C   UNL     1     149.764 143.931 163.811  1.00  0.00    -0.074 C 
ATOM      9  C   UNL     1     150.330 143.577 164.977  1.00  0.00     0.008 C 
ATOM     10  C   UNL     1     148.612 143.142 163.195  1.00  0.00     0.021 C 
ATOM     11  C   UNL     1     147.404 142.920 164.140  1.00  0.00     0.016 C 
ATOM     12  C   UNL     1     147.504 145.166 161.945  1.00  0.00     0.012 C 
ENDROOT
BRANCH   1  13
ATOM     13  C   UNL     1     145.176 141.750 164.390  1.00  0.00    -0.077 C 
ATOM     14  C   UNL     1     144.890 140.394 164.986  1.00  0.00     0.039 C 
ATOM     15  C   UNL     1     144.343 142.765 164.671  1.00  0.00     0.008 C 
ENDBRANCH   1  13
TORSDOF 1
ENDMDL
MODEL 7
REMARK VINA RESULT:    -6.271      6.089      8.213
REMARK INTER + INTRA:          -6.803
REMARK INTER:                  -6.616
REMARK INTRA:                  -0.187
REMARK UNBOUND:                -0.165
REMARK SMILES C=C(C)[C@H]1CC[C@]2(C)CCCC(=C)[C@H]2C1
REMARK SMILES IDX 4 1 5 2 6 3 7 4 9 5 10 6 11 7 12 8 13 9 14 10 15 11 8 12
REMARK SMILES IDX 2 13 3 14 1 15
REMARK H PARENT
REMARK Flexibility Score: inf
ROOT
ATOM      1  C   UNL     1     148.760 146.368 163.412  1.00  0.00     0.015 C 
ATOM      2  C   UNL     1     148.233 145.956 162.024  1.00  0.00     0.008 C 
ATOM      3  C   UNL     1     147.967 147.184 161.132  1.00  0.00     0.008 C 
ATOM      4  C   UNL     1     147.000 148.201 161.802  1.00  0.00    -0.026 C 
ATOM      5  C   UNL     1     146.912 149.475 160.920  1.00  0.00     0.008 C 
ATOM      6  C   UNL     1     146.112 150.641 161.563  1.00  0.00     0.005 C 
ATOM      7  C   UNL     1     145.743 150.448 163.049  1.00  0.00     0.031 C 
ATOM      8  C   UNL     1     146.851 149.773 163.820  1.00  0.00    -0.074 C 
ATOM      9  C   UNL     1     147.221 150.313 164.993  1.00  0.00     0.008 C 
ATOM     10  C   UNL     1     147.620 148.622 163.177  1.00  0.00     0.021 C 
ATOM     11  C   UNL     1     147.835 147.395 164.098  1.00  0.00     0.016 C 
ATOM     12  C   UNL     1     145.572 147.562 161.924  1.00  0.00     0.012 C 
ENDROOT
BRANCH   1  13
ATOM     13  C   UNL     1     148.979 145.149 164.299  1.00  0.00    -0.077 C 
ATOM     14  C   UNL     1     150.300 144.907 164.986  1.00  0.00     0.039 C 
ATOM     15  C   UNL     1     147.989 144.259 164.477  1.00  0.00     0.008 C 
ENDBRANCH   1  13
TORSDOF 1
ENDMDL
MODEL 8
REMARK VINA RESULT:    -6.255      3.498      6.049
REMARK INTER + INTRA:          -6.785
REMARK INTER:                  -6.609
REMARK INTRA:                  -0.176
REMARK UNBOUND:                -0.165
REMARK SMILES C=C(C)[C@H]1CC[C@]2(C)CCCC(=C)[C@H]2C1
REMARK SMILES IDX 4 1 5 2 6 3 7 4 9 5 10 6 11 7 12 8 13 9 14 10 15 11 8 12
REMARK SMILES IDX 2 13 3 14 1 15
REMARK H PARENT
REMARK Flexibility Score: inf
ROOT
ATOM      1  C   UNL     1     144.571 148.487 163.620  1.00  0.00     0.015 C 
ATOM      2  C   UNL     1     145.030 147.470 162.557  1.00  0.00     0.008 C 
ATOM      3  C   UNL     1     143.862 147.033 161.651  1.00  0.00     0.008 C 
ATOM      4  C   UNL     1     142.664 146.467 162.466  1.00  0.00    -0.026 C 
ATOM      5  C   UNL     1     141.474 146.204 161.503  1.00  0.00     0.008 C 
ATOM      6  C   UNL     1     140.156 145.800 162.217  1.00  0.00     0.005 C 
ATOM      7  C   UNL     1     140.160 145.955 163.752  1.00  0.00     0.031 C 
ATOM      8  C   UNL     1     140.910 147.190 164.189  1.00  0.00    -0.074 C 
ATOM      9  C   UNL     1     140.323 147.998 165.087  1.00  0.00     0.008 C 
ATOM     10  C   UNL     1     142.210 147.567 163.484  1.00  0.00     0.021 C 
ATOM     11  C   UNL     1     143.367 147.967 164.434  1.00  0.00     0.016 C 
ATOM     12  C   UNL     1     143.084 145.116 163.143  1.00  0.00     0.012 C 
ENDROOT
BRANCH   1  13
ATOM     13  C   UNL     1     145.724 148.879 164.535  1.00  0.00    -0.077 C 
ATOM     14  C   UNL     1     146.827 147.906 164.867  1.00  0.00     0.039 C 
ATOM     15  C   UNL     1     145.769 150.110 165.072  1.00  0.00     0.008 C 
ENDBRANCH   1  13
TORSDOF 1
ENDMDL
MODEL 9
REMARK VINA RESULT:    -6.252      4.848      7.045
REMARK INTER + INTRA:          -6.782
REMARK INTER:                  -6.614
REMARK INTRA:                  -0.168
REMARK UNBOUND:                -0.165
REMARK SMILES C=C(C)[C@H]1CC[C@]2(C)CCCC(=C)[C@H]2C1
REMARK SMILES IDX 4 1 5 2 6 3 7 4 9 5 10 6 11 7 12 8 13 9 14 10 15 11 8 12
REMARK SMILES IDX 2 13 3 14 1 15
REMARK H PARENT
REMARK Flexibility Score: inf
ROOT
ATOM      1  C   UNL     1     149.536 144.363 163.365  1.00  0.00     0.015 C 
ATOM      2  C   UNL     1     150.471 144.959 162.296  1.00  0.00     0.008 C 
ATOM      3  C   UNL     1     149.718 145.248 160.983  1.00  0.00     0.008 C 
ATOM      4  C   UNL     1     148.991 143.989 160.430  1.00  0.00    -0.026 C 
ATOM      5  C   UNL     1     148.128 144.397 159.206  1.00  0.00     0.008 C 
ATOM      6  C   UNL     1     147.215 143.264 158.665  1.00  0.00     0.005 C 
ATOM      7  C   UNL     1     147.123 142.006 159.556  1.00  0.00     0.031 C 
ATOM      8  C   UNL     1     147.106 142.358 161.023  1.00  0.00    -0.074 C 
ATOM      9  C   UNL     1     146.173 141.781 161.798  1.00  0.00     0.008 C 
ATOM     10  C   UNL     1     148.017 143.468 161.541  1.00  0.00     0.021 C 
ATOM     11  C   UNL     1     148.780 143.122 162.843  1.00  0.00     0.016 C 
ATOM     12  C   UNL     1     150.055 142.929 159.978  1.00  0.00     0.012 C 
ENDROOT
BRANCH   1  13
ATOM     13  C   UNL     1     150.300 144.042 164.644  1.00  0.00    -0.077 C 
ATOM     14  C   UNL     1     150.454 142.622 165.128  1.00  0.00     0.039 C 
ATOM     15  C   UNL     1     150.846 145.032 165.369  1.00  0.00     0.008 C 
ENDBRANCH   1  13
TORSDOF 1
ENDMDL
