MODEL 1
REMARK VINA RESULT:    -4.434      0.000      0.000
REMARK INTER + INTRA:          -6.564
REMARK INTER:                  -6.248
REMARK INTRA:                  -0.316
REMARK UNBOUND:                -0.316
REMARK SMILES CCCCCCCCC(=O)[O-]
REMARK SMILES IDX 6 1 7 2 8 3 9 4 10 5 11 6 5 7 4 8 3 9 2 10 1 11
REMARK H PARENT
REMARK Flexibility Score: inf
ROOT
ATOM      1  C   UNL     1       2.822 -37.511  19.494  1.00  0.00     0.000 C 
ENDROOT
BRANCH   1   2
ATOM      2  C   UNL     1       4.342 -37.518  19.261  1.00  0.00     0.006 C 
BRANCH   2   3
ATOM      3  C   UNL     1       5.140 -37.483  20.571  1.00  0.00     0.053 C 
BRANCH   3   4
ATOM      4  C   UNL     1       5.618 -36.094  20.854  1.00  0.00     0.041 C 
ATOM      5  O   UNL     1       5.988 -35.347  19.910  1.00  0.00    -0.550 OA
ATOM      6  O   UNL     1       5.608 -35.606  22.155  1.00  0.00    -0.550 OA
ENDBRANCH   3   4
ENDBRANCH   2   3
ENDBRANCH   1   2
BRANCH   1   7
ATOM      7  C   UNL     1       2.023 -37.508  18.183  1.00  0.00     0.000 C 
BRANCH   7   8
ATOM      8  C   UNL     1       2.868 -36.953  17.028  1.00  0.00    -0.000 C 
BRANCH   8   9
ATOM      9  C   UNL     1       1.993 -36.656  15.800  1.00  0.00    -0.000 C 
BRANCH   9  10
ATOM     10  C   UNL     1       2.770 -36.774  14.480  1.00  0.00    -0.003 C 
ATOM     11  C   UNL     1       3.819 -37.887  14.507  1.00  0.00     0.004 C 
ENDBRANCH   9  10
ENDBRANCH   8   9
ENDBRANCH   7   8
ENDBRANCH   1   7
TORSDOF 7
ENDMDL
MODEL 2
REMARK VINA RESULT:    -4.381      3.081      6.038
REMARK INTER + INTRA:          -6.489
REMARK INTER:                  -6.261
REMARK INTRA:                  -0.228
REMARK UNBOUND:                -0.316
REMARK SMILES CCCCCCCCC(=O)[O-]
REMARK SMILES IDX 6 1 7 2 8 3 9 4 10 5 11 6 5 7 4 8 3 9 2 10 1 11
REMARK H PARENT
REMARK Flexibility Score: inf
ROOT
ATOM      1  C   UNL     1       2.747 -37.502  19.563  1.00  0.00     0.000 C 
ENDROOT
BRANCH   1   2
ATOM      2  C   UNL     1       2.259 -37.541  18.106  1.00  0.00     0.006 C 
BRANCH   2   3
ATOM      3  C   UNL     1       3.196 -36.792  17.149  1.00  0.00     0.053 C 
BRANCH   3   4
ATOM      4  C   UNL     1       2.893 -37.155  15.731  1.00  0.00     0.041 C 
ATOM      5  O   UNL     1       1.920 -36.623  15.134  1.00  0.00    -0.550 OA
ATOM      6  O   UNL     1       3.715 -38.043  15.049  1.00  0.00    -0.550 OA
ENDBRANCH   3   4
ENDBRANCH   2   3
ENDBRANCH   1   2
BRANCH   1   7
ATOM      7  C   UNL     1       4.215 -37.068  19.683  1.00  0.00     0.000 C 
BRANCH   7   8
ATOM      8  C   UNL     1       4.368 -35.920  20.689  1.00  0.00    -0.000 C 
BRANCH   8   9
ATOM      9  C   UNL     1       5.792 -35.878  21.263  1.00  0.00    -0.000 C 
BRANCH   9  10
ATOM     10  C   UNL     1       5.814 -36.000  22.795  1.00  0.00    -0.003 C 
ATOM     11  C   UNL     1       5.909 -34.643  23.495  1.00  0.00     0.004 C 
ENDBRANCH   9  10
ENDBRANCH   8   9
ENDBRANCH   7   8
ENDBRANCH   1   7
TORSDOF 7
ENDMDL
MODEL 3
REMARK VINA RESULT:    -4.265      1.444      1.952
REMARK INTER + INTRA:          -6.327
REMARK INTER:                  -6.088
REMARK INTRA:                  -0.239
REMARK UNBOUND:                -0.316
REMARK SMILES CCCCCCCCC(=O)[O-]
REMARK SMILES IDX 6 1 7 2 8 3 9 4 10 5 11 6 5 7 4 8 3 9 2 10 1 11
REMARK H PARENT
REMARK Flexibility Score: inf
ROOT
ATOM      1  C   UNL     1       4.349 -36.300  19.529  1.00  0.00     0.000 C 
ENDROOT
BRANCH   1   2
ATOM      2  C   UNL     1       5.326 -36.773  20.618  1.00  0.00     0.006 C 
BRANCH   2   3
ATOM      3  C   UNL     1       6.022 -35.607  21.332  1.00  0.00     0.053 C 
BRANCH   3   4
ATOM      4  C   UNL     1       5.810 -35.699  22.810  1.00  0.00     0.041 C 
ATOM      5  O   UNL     1       6.086 -36.762  23.426  1.00  0.00    -0.550 OA
ATOM      6  O   UNL     1       5.356 -34.592  23.517  1.00  0.00    -0.550 OA
ENDBRANCH   3   4
ENDBRANCH   2   3
ENDBRANCH   1   2
BRANCH   1   7
ATOM      7  C   UNL     1       3.100 -37.188  19.431  1.00  0.00     0.000 C 
BRANCH   7   8
ATOM      8  C   UNL     1       2.822 -37.584  17.975  1.00  0.00    -0.000 C 
BRANCH   8   9
ATOM      9  C   UNL     1       3.241 -36.465  17.010  1.00  0.00    -0.000 C 
BRANCH   9  10
ATOM     10  C   UNL     1       2.789 -36.730  15.566  1.00  0.00    -0.003 C 
ATOM     11  C   UNL     1       3.607 -37.827  14.882  1.00  0.00     0.004 C 
ENDBRANCH   9  10
ENDBRANCH   8   9
ENDBRANCH   7   8
ENDBRANCH   1   7
TORSDOF 7
ENDMDL
MODEL 4
REMARK VINA RESULT:    -3.426      3.116      6.644
REMARK INTER + INTRA:          -5.144
REMARK INTER:                  -4.852
REMARK INTRA:                  -0.293
REMARK UNBOUND:                -0.316
REMARK SMILES CCCCCCCCC(=O)[O-]
REMARK SMILES IDX 6 1 7 2 8 3 9 4 10 5 11 6 5 7 4 8 3 9 2 10 1 11
REMARK H PARENT
REMARK Flexibility Score: inf
ROOT
ATOM      1  C   UNL     1       5.795 -35.655  20.252  1.00  0.00     0.000 C 
ENDROOT
BRANCH   1   2
ATOM      2  C   UNL     1       5.071 -36.561  19.242  1.00  0.00     0.006 C 
BRANCH   2   3
ATOM      3  C   UNL     1       3.917 -37.347  19.877  1.00  0.00     0.053 C 
BRANCH   3   4
ATOM      4  C   UNL     1       2.789 -37.494  18.905  1.00  0.00     0.041 C 
ATOM      5  O   UNL     1       1.636 -37.792  19.313  1.00  0.00    -0.550 OA
ATOM      6  O   UNL     1       3.000 -37.251  17.554  1.00  0.00    -0.550 OA
ENDBRANCH   3   4
ENDBRANCH   2   3
ENDBRANCH   1   2
BRANCH   1   7
ATOM      7  C   UNL     1       5.136 -35.672  21.639  1.00  0.00     0.000 C 
BRANCH   7   8
ATOM      8  C   UNL     1       6.125 -36.146  22.711  1.00  0.00    -0.000 C 
BRANCH   8   9
ATOM      9  C   UNL     1       6.125 -35.196  23.918  1.00  0.00    -0.000 C 
BRANCH   9  10
ATOM     10  C   UNL     1       6.092 -35.945  25.259  1.00  0.00    -0.003 C 
ATOM     11  C   UNL     1       5.100 -37.108  25.263  1.00  0.00     0.004 C 
ENDBRANCH   9  10
ENDBRANCH   8   9
ENDBRANCH   7   8
ENDBRANCH   1   7
TORSDOF 7
ENDMDL
MODEL 5
REMARK VINA RESULT:    -2.870      1.649      2.993
REMARK INTER + INTRA:          -4.360
REMARK INTER:                  -3.759
REMARK INTRA:                  -0.601
REMARK UNBOUND:                -0.316
REMARK SMILES CCCCCCCCC(=O)[O-]
REMARK SMILES IDX 6 1 7 2 8 3 9 4 10 5 11 6 5 7 4 8 3 9 2 10 1 11
REMARK H PARENT
REMARK Flexibility Score: inf
ROOT
ATOM      1  C   UNL     1       4.124 -36.542  18.053  1.00  0.00     0.000 C 
ENDROOT
BRANCH   1   2
ATOM      2  C   UNL     1       4.533 -35.439  19.042  1.00  0.00     0.006 C 
BRANCH   2   3
ATOM      3  C   UNL     1       4.136 -35.766  20.488  1.00  0.00     0.053 C 
BRANCH   3   4
ATOM      4  C   UNL     1       5.254 -36.469  21.190  1.00  0.00     0.041 C 
ATOM      5  O   UNL     1       5.440 -37.701  21.011  1.00  0.00    -0.550 OA
ATOM      6  O   UNL     1       6.124 -35.753  22.004  1.00  0.00    -0.550 OA
ENDBRANCH   3   4
ENDBRANCH   2   3
ENDBRANCH   1   2
BRANCH   1   7
ATOM      7  C   UNL     1       3.215 -36.020  16.930  1.00  0.00     0.000 C 
BRANCH   7   8
ATOM      8  C   UNL     1       1.986 -36.922  16.756  1.00  0.00    -0.000 C 
BRANCH   8   9
ATOM      9  C   UNL     1       1.851 -37.901  17.931  1.00  0.00    -0.000 C 
BRANCH   9  10
ATOM     10  C   UNL     1       0.551 -37.696  18.724  1.00  0.00    -0.003 C 
ATOM     11  C   UNL     1       0.801 -37.380  20.199  1.00  0.00     0.004 C 
ENDBRANCH   9  10
ENDBRANCH   8   9
ENDBRANCH   7   8
ENDBRANCH   1   7
TORSDOF 7
ENDMDL
MODEL 6
REMARK VINA RESULT:    -2.830      3.099      5.659
REMARK INTER + INTRA:          -4.304
REMARK INTER:                  -4.115
REMARK INTRA:                  -0.189
REMARK UNBOUND:                -0.316
REMARK SMILES CCCCCCCCC(=O)[O-]
REMARK SMILES IDX 6 1 7 2 8 3 9 4 10 5 11 6 5 7 4 8 3 9 2 10 1 11
REMARK H PARENT
REMARK Flexibility Score: inf
ROOT
ATOM      1  C   UNL     1       3.074 -36.864  19.042  1.00  0.00     0.000 C 
ENDROOT
BRANCH   1   2
ATOM      2  C   UNL     1       3.086 -37.583  17.684  1.00  0.00     0.006 C 
BRANCH   2   3
ATOM      3  C   UNL     1       2.323 -36.810  16.600  1.00  0.00     0.053 C 
BRANCH   3   4
ATOM      4  C   UNL     1       2.888 -37.111  15.248  1.00  0.00     0.041 C 
ATOM      5  O   UNL     1       2.612 -36.374  14.266  1.00  0.00    -0.550 OA
ATOM      6  O   UNL     1       3.762 -38.179  15.082  1.00  0.00    -0.550 OA
ENDBRANCH   3   4
ENDBRANCH   2   3
ENDBRANCH   1   2
BRANCH   1   7
ATOM      7  C   UNL     1       4.394 -36.138  19.338  1.00  0.00     0.000 C 
BRANCH   7   8
ATOM      8  C   UNL     1       5.139 -36.806  20.501  1.00  0.00    -0.000 C 
BRANCH   8   9
ATOM      9  C   UNL     1       5.396 -38.292  20.209  1.00  0.00    -0.000 C 
BRANCH   9  10
ATOM     10  C   UNL     1       5.666 -39.106  21.484  1.00  0.00    -0.003 C 
ATOM     11  C   UNL     1       5.935 -40.583  21.196  1.00  0.00     0.004 C 
ENDBRANCH   9  10
ENDBRANCH   8   9
ENDBRANCH   7   8
ENDBRANCH   1   7
TORSDOF 7
ENDMDL
MODEL 7
REMARK VINA RESULT:    -2.801      2.516      2.929
REMARK INTER + INTRA:          -4.263
REMARK INTER:                  -4.090
REMARK INTRA:                  -0.173
REMARK UNBOUND:                -0.316
REMARK SMILES CCCCCCCCC(=O)[O-]
REMARK SMILES IDX 6 1 7 2 8 3 9 4 10 5 11 6 5 7 4 8 3 9 2 10 1 11
REMARK H PARENT
REMARK Flexibility Score: inf
ROOT
ATOM      1  C   UNL     1       4.345 -36.997  19.838  1.00  0.00     0.000 C 
ENDROOT
BRANCH   1   2
ATOM      2  C   UNL     1       5.294 -38.186  20.068  1.00  0.00     0.006 C 
BRANCH   2   3
ATOM      3  C   UNL     1       5.383 -38.593  21.545  1.00  0.00     0.053 C 
BRANCH   3   4
ATOM      4  C   UNL     1       5.635 -40.062  21.666  1.00  0.00     0.041 C 
ATOM      5  O   UNL     1       5.362 -40.666  22.737  1.00  0.00    -0.550 OA
ATOM      6  O   UNL     1       6.125 -40.776  20.580  1.00  0.00    -0.550 OA
ENDBRANCH   3   4
ENDBRANCH   2   3
ENDBRANCH   1   2
BRANCH   1   7
ATOM      7  C   UNL     1       3.179 -37.345  18.902  1.00  0.00     0.000 C 
BRANCH   7   8
ATOM      8  C   UNL     1       3.315 -36.612  17.561  1.00  0.00    -0.000 C 
BRANCH   8   9
ATOM      9  C   UNL     1       2.831 -37.493  16.400  1.00  0.00    -0.000 C 
BRANCH   9  10
ATOM     10  C   UNL     1       3.173 -36.899  15.025  1.00  0.00    -0.003 C 
ATOM     11  C   UNL     1       3.928 -37.880  14.127  1.00  0.00     0.004 C 
ENDBRANCH   9  10
ENDBRANCH   8   9
ENDBRANCH   7   8
ENDBRANCH   1   7
TORSDOF 7
ENDMDL
MODEL 8
REMARK VINA RESULT:    -2.620      3.301      4.534
REMARK INTER + INTRA:          -4.009
REMARK INTER:                  -3.607
REMARK INTRA:                  -0.402
REMARK UNBOUND:                -0.316
REMARK SMILES CCCCCCCCC(=O)[O-]
REMARK SMILES IDX 6 1 7 2 8 3 9 4 10 5 11 6 5 7 4 8 3 9 2 10 1 11
REMARK H PARENT
REMARK Flexibility Score: inf
ROOT
ATOM      1  C   UNL     1       5.290 -38.322  20.273  1.00  0.00     0.000 C 
ENDROOT
BRANCH   1   2
ATOM      2  C   UNL     1       5.502 -39.079  21.594  1.00  0.00     0.006 C 
BRANCH   2   3
ATOM      3  C   UNL     1       5.966 -40.526  21.377  1.00  0.00     0.053 C 
BRANCH   3   4
ATOM      4  C   UNL     1       5.779 -41.326  22.626  1.00  0.00     0.041 C 
ATOM      5  O   UNL     1       5.271 -40.796  23.650  1.00  0.00    -0.550 OA
ATOM      6  O   UNL     1       6.117 -42.674  22.646  1.00  0.00    -0.550 OA
ENDBRANCH   3   4
ENDBRANCH   2   3
ENDBRANCH   1   2
BRANCH   1   7
ATOM      7  C   UNL     1       5.126 -36.809  20.479  1.00  0.00     0.000 C 
BRANCH   7   8
ATOM      8  C   UNL     1       3.884 -36.287  19.745  1.00  0.00    -0.000 C 
BRANCH   8   9
ATOM      9  C   UNL     1       3.815 -36.845  18.315  1.00  0.00    -0.000 C 
BRANCH   9  10
ATOM     10  C   UNL     1       2.439 -37.440  17.979  1.00  0.00    -0.003 C 
ATOM     11  C   UNL     1       1.643 -37.831  19.225  1.00  0.00     0.004 C 
ENDBRANCH   9  10
ENDBRANCH   8   9
ENDBRANCH   7   8
ENDBRANCH   1   7
TORSDOF 7
ENDMDL
