MODEL 1
REMARK VINA RESULT:    -4.048      0.000      0.000
REMARK INTER + INTRA:          -8.225
REMARK INTER:                  -7.124
REMARK INTRA:                  -1.101
REMARK UNBOUND:                -1.101
REMARK SMILES CCCCCCCCCCCCCCC(=O)[O-]
REMARK SMILES IDX 9 1 10 2 11 3 12 4 13 5 14 6 15 7 16 8 17 9 8 10 7 11 6 12
REMARK SMILES IDX 5 13 4 14 3 15 2 16 1 17
REMARK H PARENT
REMARK Flexibility Score: inf
ROOT
ATOM      1  C   UNL     1      -5.365  24.992 -10.797  1.00  0.00     0.000 C 
ENDROOT
BRANCH   1   2
ATOM      2  C   UNL     1      -4.325  24.719 -11.896  1.00  0.00     0.000 C 
BRANCH   2   3
ATOM      3  C   UNL     1      -4.437  25.704 -13.071  1.00  0.00     0.000 C 
BRANCH   3   4
ATOM      4  C   UNL     1      -5.493  26.799 -12.836  1.00  0.00     0.000 C 
BRANCH   4   5
ATOM      5  C   UNL     1      -6.786  26.648 -13.659  1.00  0.00     0.006 C 
BRANCH   5   6
ATOM      6  C   UNL     1      -6.851  25.327 -14.435  1.00  0.00     0.053 C 
BRANCH   6   7
ATOM      7  C   UNL     1      -8.063  24.544 -14.036  1.00  0.00     0.041 C 
ATOM      8  O   UNL     1      -8.637  24.781 -12.942  1.00  0.00    -0.550 OA
ATOM      9  O   UNL     1      -8.586  23.588 -14.896  1.00  0.00    -0.550 OA
ENDBRANCH   6   7
ENDBRANCH   5   6
ENDBRANCH   4   5
ENDBRANCH   3   4
ENDBRANCH   2   3
ENDBRANCH   1   2
BRANCH   1  10
ATOM     10  C   UNL     1      -6.060  23.709 -10.306  1.00  0.00     0.000 C 
BRANCH  10  11
ATOM     11  C   UNL     1      -6.215  22.655 -11.416  1.00  0.00    -0.000 C 
BRANCH  11  12
ATOM     12  C   UNL     1      -5.321  21.407 -11.259  1.00  0.00    -0.000 C 
BRANCH  12  13
ATOM     13  C   UNL     1      -6.078  20.072 -11.144  1.00  0.00    -0.000 C 
BRANCH  13  14
ATOM     14  C   UNL     1      -6.787  19.902  -9.792  1.00  0.00    -0.000 C 
BRANCH  14  15
ATOM     15  C   UNL     1      -6.008  18.942  -8.882  1.00  0.00    -0.000 C 
BRANCH  15  16
ATOM     16  C   UNL     1      -6.879  18.352  -7.762  1.00  0.00    -0.003 C 
ATOM     17  C   UNL     1      -7.846  19.373  -7.165  1.00  0.00     0.004 C 
ENDBRANCH  15  16
ENDBRANCH  14  15
ENDBRANCH  13  14
ENDBRANCH  12  13
ENDBRANCH  11  12
ENDBRANCH  10  11
ENDBRANCH   1  10
TORSDOF 13
ENDMDL
MODEL 2
REMARK VINA RESULT:    -4.042      1.899      2.344
REMARK INTER + INTRA:          -8.216
REMARK INTER:                  -7.114
REMARK INTRA:                  -1.101
REMARK UNBOUND:                -1.101
REMARK SMILES CCCCCCCCCCCCCCC(=O)[O-]
REMARK SMILES IDX 9 1 10 2 11 3 12 4 13 5 14 6 15 7 16 8 17 9 8 10 7 11 6 12
REMARK SMILES IDX 5 13 4 14 3 15 2 16 1 17
REMARK H PARENT
REMARK Flexibility Score: inf
ROOT
ATOM      1  C   UNL     1      -4.164  23.185 -12.477  1.00  0.00     0.000 C 
ENDROOT
BRANCH   1   2
ATOM      2  C   UNL     1      -4.178  24.650 -12.009  1.00  0.00     0.000 C 
BRANCH   2   3
ATOM      3  C   UNL     1      -4.291  25.641 -13.179  1.00  0.00     0.000 C 
BRANCH   3   4
ATOM      4  C   UNL     1      -5.585  26.473 -13.138  1.00  0.00     0.000 C 
BRANCH   4   5
ATOM      5  C   UNL     1      -6.124  26.775 -11.727  1.00  0.00     0.006 C 
BRANCH   5   6
ATOM      6  C   UNL     1      -7.526  26.203 -11.486  1.00  0.00     0.053 C 
BRANCH   6   7
ATOM      7  C   UNL     1      -7.530  25.322 -10.276  1.00  0.00     0.041 C 
ATOM      8  O   UNL     1      -7.798  25.801  -9.144  1.00  0.00    -0.550 OA
ATOM      9  O   UNL     1      -7.288  23.961 -10.407  1.00  0.00    -0.550 OA
ENDBRANCH   6   7
ENDBRANCH   5   6
ENDBRANCH   4   5
ENDBRANCH   3   4
ENDBRANCH   2   3
ENDBRANCH   1   2
BRANCH   1  10
ATOM     10  C   UNL     1      -5.485  22.764 -13.144  1.00  0.00     0.000 C 
BRANCH  10  11
ATOM     11  C   UNL     1      -5.652  21.236 -13.220  1.00  0.00    -0.000 C 
BRANCH  11  12
ATOM     12  C   UNL     1      -5.740  20.522 -11.856  1.00  0.00    -0.000 C 
BRANCH  12  13
ATOM     13  C   UNL     1      -7.143  20.494 -11.222  1.00  0.00    -0.000 C 
BRANCH  13  14
ATOM     14  C   UNL     1      -7.104  20.422  -9.688  1.00  0.00    -0.000 C 
BRANCH  14  15
ATOM     15  C   UNL     1      -6.231  19.250  -9.216  1.00  0.00    -0.000 C 
BRANCH  15  16
ATOM     16  C   UNL     1      -6.905  18.418  -8.115  1.00  0.00    -0.003 C 
ATOM     17  C   UNL     1      -7.755  19.266  -7.170  1.00  0.00     0.004 C 
ENDBRANCH  15  16
ENDBRANCH  14  15
ENDBRANCH  13  14
ENDBRANCH  12  13
ENDBRANCH  11  12
ENDBRANCH  10  11
ENDBRANCH   1  10
TORSDOF 13
ENDMDL
MODEL 3
REMARK VINA RESULT:    -4.034      1.637      2.418
REMARK INTER + INTRA:          -8.201
REMARK INTER:                  -6.640
REMARK INTRA:                  -1.561
REMARK UNBOUND:                -1.101
REMARK SMILES CCCCCCCCCCCCCCC(=O)[O-]
REMARK SMILES IDX 9 1 10 2 11 3 12 4 13 5 14 6 15 7 16 8 17 9 8 10 7 11 6 12
REMARK SMILES IDX 5 13 4 14 3 15 2 16 1 17
REMARK H PARENT
REMARK Flexibility Score: inf
ROOT
ATOM      1  C   UNL     1      -4.202  24.438 -12.549  1.00  0.00     0.000 C 
ENDROOT
BRANCH   1   2
ATOM      2  C   UNL     1      -4.270  25.741 -13.362  1.00  0.00     0.000 C 
BRANCH   2   3
ATOM      3  C   UNL     1      -5.396  26.675 -12.886  1.00  0.00     0.000 C 
BRANCH   3   4
ATOM      4  C   UNL     1      -6.703  26.490 -13.679  1.00  0.00     0.000 C 
BRANCH   4   5
ATOM      5  C   UNL     1      -7.984  26.441 -12.825  1.00  0.00     0.006 C 
BRANCH   5   6
ATOM      6  C   UNL     1      -7.754  26.879 -11.374  1.00  0.00     0.053 C 
BRANCH   6   7
ATOM      7  C   UNL     1      -8.512  25.996 -10.434  1.00  0.00     0.041 C 
ATOM      8  O   UNL     1      -8.057  25.754  -9.285  1.00  0.00    -0.550 OA
ATOM      9  O   UNL     1      -9.746  25.479 -10.808  1.00  0.00    -0.550 OA
ENDBRANCH   6   7
ENDBRANCH   5   6
ENDBRANCH   4   5
ENDBRANCH   3   4
ENDBRANCH   2   3
ENDBRANCH   1   2
BRANCH   1  10
ATOM     10  C   UNL     1      -4.752  24.602 -11.121  1.00  0.00     0.000 C 
BRANCH  10  11
ATOM     11  C   UNL     1      -5.762  23.504 -10.742  1.00  0.00    -0.000 C 
BRANCH  11  12
ATOM     12  C   UNL     1      -6.556  22.915 -11.925  1.00  0.00    -0.000 C 
BRANCH  12  13
ATOM     13  C   UNL     1      -6.748  21.388 -11.888  1.00  0.00    -0.000 C 
BRANCH  13  14
ATOM     14  C   UNL     1      -5.972  20.717 -10.744  1.00  0.00    -0.000 C 
BRANCH  14  15
ATOM     15  C   UNL     1      -6.933  20.138  -9.696  1.00  0.00    -0.000 C 
BRANCH  15  16
ATOM     16  C   UNL     1      -6.477  18.769  -9.168  1.00  0.00    -0.003 C 
ATOM     17  C   UNL     1      -6.932  18.508  -7.732  1.00  0.00     0.004 C 
ENDBRANCH  15  16
ENDBRANCH  14  15
ENDBRANCH  13  14
ENDBRANCH  12  13
ENDBRANCH  11  12
ENDBRANCH  10  11
ENDBRANCH   1  10
TORSDOF 13
ENDMDL
MODEL 4
REMARK VINA RESULT:    -3.979      2.975      6.513
REMARK INTER + INTRA:          -8.104
REMARK INTER:                  -6.289
REMARK INTRA:                  -1.814
REMARK UNBOUND:                -1.101
REMARK SMILES CCCCCCCCCCCCCCC(=O)[O-]
REMARK SMILES IDX 9 1 10 2 11 3 12 4 13 5 14 6 15 7 16 8 17 9 8 10 7 11 6 12
REMARK SMILES IDX 5 13 4 14 3 15 2 16 1 17
REMARK H PARENT
REMARK Flexibility Score: inf
ROOT
ATOM      1  C   UNL     1      -8.158  23.075 -13.309  1.00  0.00     0.000 C 
ENDROOT
BRANCH   1   2
ATOM      2  C   UNL     1      -7.785  22.191 -12.107  1.00  0.00     0.000 C 
BRANCH   2   3
ATOM      3  C   UNL     1      -6.775  21.091 -12.476  1.00  0.00     0.000 C 
BRANCH   3   4
ATOM      4  C   UNL     1      -5.727  20.846 -11.375  1.00  0.00     0.000 C 
BRANCH   4   5
ATOM      5  C   UNL     1      -6.086  19.740 -10.366  1.00  0.00     0.006 C 
BRANCH   5   6
ATOM      6  C   UNL     1      -6.526  20.292  -9.004  1.00  0.00     0.053 C 
BRANCH   6   7
ATOM      7  C   UNL     1      -7.258  19.243  -8.226  1.00  0.00     0.041 C 
ATOM      8  O   UNL     1      -7.368  18.076  -8.684  1.00  0.00    -0.550 OA
ATOM      9  O   UNL     1      -7.776  19.543  -6.973  1.00  0.00    -0.550 OA
ENDBRANCH   6   7
ENDBRANCH   5   6
ENDBRANCH   4   5
ENDBRANCH   3   4
ENDBRANCH   2   3
ENDBRANCH   1   2
BRANCH   1  10
ATOM     10  C   UNL     1      -9.013  24.290 -12.908  1.00  0.00     0.000 C 
BRANCH  10  11
ATOM     11  C   UNL     1      -8.205  25.599 -12.869  1.00  0.00    -0.000 C 
BRANCH  11  12
ATOM     12  C   UNL     1      -6.987  25.641 -13.815  1.00  0.00    -0.000 C 
BRANCH  12  13
ATOM     13  C   UNL     1      -5.855  26.590 -13.381  1.00  0.00    -0.000 C 
BRANCH  13  14
ATOM     14  C   UNL     1      -4.508  25.872 -13.206  1.00  0.00    -0.000 C 
BRANCH  14  15
ATOM     15  C   UNL     1      -4.712  24.448 -12.667  1.00  0.00    -0.000 C 
BRANCH  15  16
ATOM     16  C   UNL     1      -4.390  24.331 -11.170  1.00  0.00    -0.003 C 
ATOM     17  C   UNL     1      -5.617  24.542 -10.283  1.00  0.00     0.004 C 
ENDBRANCH  15  16
ENDBRANCH  14  15
ENDBRANCH  13  14
ENDBRANCH  12  13
ENDBRANCH  11  12
ENDBRANCH  10  11
ENDBRANCH   1  10
TORSDOF 13
ENDMDL
MODEL 5
REMARK VINA RESULT:    -3.976      2.902      5.970
REMARK INTER + INTRA:          -8.099
REMARK INTER:                  -6.042
REMARK INTRA:                  -2.057
REMARK UNBOUND:                -1.101
REMARK SMILES CCCCCCCCCCCCCCC(=O)[O-]
REMARK SMILES IDX 9 1 10 2 11 3 12 4 13 5 14 6 15 7 16 8 17 9 8 10 7 11 6 12
REMARK SMILES IDX 5 13 4 14 3 15 2 16 1 17
REMARK H PARENT
REMARK Flexibility Score: inf
ROOT
ATOM      1  C   UNL     1      -5.325  24.196 -14.264  1.00  0.00     0.000 C 
ENDROOT
BRANCH   1   2
ATOM      2  C   UNL     1      -5.078  22.913 -13.454  1.00  0.00     0.000 C 
BRANCH   2   3
ATOM      3  C   UNL     1      -6.383  22.178 -13.102  1.00  0.00     0.000 C 
BRANCH   3   4
ATOM      4  C   UNL     1      -6.141  20.807 -12.444  1.00  0.00     0.000 C 
BRANCH   4   5
ATOM      5  C   UNL     1      -5.753  20.856 -10.955  1.00  0.00     0.006 C 
BRANCH   5   6
ATOM      6  C   UNL     1      -6.965  20.803 -10.018  1.00  0.00     0.053 C 
BRANCH   6   7
ATOM      7  C   UNL     1      -6.806  19.701  -9.018  1.00  0.00     0.041 C 
ATOM      8  O   UNL     1      -7.635  19.572  -8.079  1.00  0.00    -0.550 OA
ATOM      9  O   UNL     1      -5.771  18.785  -9.152  1.00  0.00    -0.550 OA
ENDBRANCH   6   7
ENDBRANCH   5   6
ENDBRANCH   4   5
ENDBRANCH   3   4
ENDBRANCH   2   3
ENDBRANCH   1   2
BRANCH   1  10
ATOM     10  C   UNL     1      -4.443  25.368 -13.801  1.00  0.00     0.000 C 
BRANCH  10  11
ATOM     11  C   UNL     1      -5.254  26.504 -13.152  1.00  0.00    -0.000 C 
BRANCH  11  12
ATOM     12  C   UNL     1      -6.718  26.609 -13.624  1.00  0.00    -0.000 C 
BRANCH  12  13
ATOM     13  C   UNL     1      -7.774  26.514 -12.508  1.00  0.00    -0.000 C 
BRANCH  13  14
ATOM     14  C   UNL     1      -8.332  25.094 -12.334  1.00  0.00    -0.000 C 
BRANCH  14  15
ATOM     15  C   UNL     1      -8.213  24.633 -10.874  1.00  0.00    -0.000 C 
BRANCH  15  16
ATOM     16  C   UNL     1      -7.039  25.298 -10.139  1.00  0.00    -0.003 C 
ATOM     17  C   UNL     1      -5.789  24.419 -10.105  1.00  0.00     0.004 C 
ENDBRANCH  15  16
ENDBRANCH  14  15
ENDBRANCH  13  14
ENDBRANCH  12  13
ENDBRANCH  11  12
ENDBRANCH  10  11
ENDBRANCH   1  10
TORSDOF 13
ENDMDL
MODEL 6
REMARK VINA RESULT:    -3.913      3.420      6.975
REMARK INTER + INTRA:          -7.988
REMARK INTER:                  -6.849
REMARK INTRA:                  -1.139
REMARK UNBOUND:                -1.101
REMARK SMILES CCCCCCCCCCCCCCC(=O)[O-]
REMARK SMILES IDX 9 1 10 2 11 3 12 4 13 5 14 6 15 7 16 8 17 9 8 10 7 11 6 12
REMARK SMILES IDX 5 13 4 14 3 15 2 16 1 17
REMARK H PARENT
REMARK Flexibility Score: inf
ROOT
ATOM      1  C   UNL     1      -4.659  23.167 -11.740  1.00  0.00     0.000 C 
ENDROOT
BRANCH   1   2
ATOM      2  C   UNL     1      -5.988  22.709 -12.364  1.00  0.00     0.000 C 
BRANCH   2   3
ATOM      3  C   UNL     1      -7.058  22.396 -11.305  1.00  0.00     0.000 C 
BRANCH   3   4
ATOM      4  C   UNL     1      -7.399  20.897 -11.223  1.00  0.00     0.000 C 
BRANCH   4   5
ATOM      5  C   UNL     1      -6.429  20.051 -10.378  1.00  0.00     0.006 C 
BRANCH   5   6
ATOM      6  C   UNL     1      -6.558  20.316  -8.873  1.00  0.00     0.053 C 
BRANCH   6   7
ATOM      7  C   UNL     1      -7.328  19.215  -8.212  1.00  0.00     0.041 C 
ATOM      8  O   UNL     1      -7.357  18.066  -8.724  1.00  0.00    -0.550 OA
ATOM      9  O   UNL     1      -7.972  19.447  -7.004  1.00  0.00    -0.550 OA
ENDBRANCH   6   7
ENDBRANCH   5   6
ENDBRANCH   4   5
ENDBRANCH   3   4
ENDBRANCH   2   3
ENDBRANCH   1   2
BRANCH   1  10
ATOM     10  C   UNL     1      -4.654  24.665 -11.388  1.00  0.00     0.000 C 
BRANCH  10  11
ATOM     11  C   UNL     1      -4.556  25.568 -12.630  1.00  0.00    -0.000 C 
BRANCH  11  12
ATOM     12  C   UNL     1      -5.703  26.588 -12.785  1.00  0.00    -0.000 C 
BRANCH  12  13
ATOM     13  C   UNL     1      -7.028  26.188 -12.113  1.00  0.00    -0.000 C 
BRANCH  13  14
ATOM     14  C   UNL     1      -7.612  27.303 -11.232  1.00  0.00    -0.000 C 
BRANCH  14  15
ATOM     15  C   UNL     1      -6.968  27.294  -9.838  1.00  0.00    -0.000 C 
BRANCH  15  16
ATOM     16  C   UNL     1      -6.465  28.681  -9.411  1.00  0.00    -0.003 C 
ATOM     17  C   UNL     1      -7.590  29.710  -9.303  1.00  0.00     0.004 C 
ENDBRANCH  15  16
ENDBRANCH  14  15
ENDBRANCH  13  14
ENDBRANCH  12  13
ENDBRANCH  11  12
ENDBRANCH  10  11
ENDBRANCH   1  10
TORSDOF 13
ENDMDL
MODEL 7
REMARK VINA RESULT:    -3.896      8.536     10.663
REMARK INTER + INTRA:          -7.958
REMARK INTER:                  -6.065
REMARK INTRA:                  -1.893
REMARK UNBOUND:                -1.101
REMARK SMILES CCCCCCCCCCCCCCC(=O)[O-]
REMARK SMILES IDX 9 1 10 2 11 3 12 4 13 5 14 6 15 7 16 8 17 9 8 10 7 11 6 12
REMARK SMILES IDX 5 13 4 14 3 15 2 16 1 17
REMARK H PARENT
REMARK Flexibility Score: inf
ROOT
ATOM      1  C   UNL     1      -8.872  29.059  -8.594  1.00  0.00     0.000 C 
ENDROOT
BRANCH   1   2
ATOM      2  C   UNL     1      -7.813  29.755  -9.465  1.00  0.00     0.000 C 
BRANCH   2   3
ATOM      3  C   UNL     1      -6.377  29.385  -9.053  1.00  0.00     0.000 C 
BRANCH   3   4
ATOM      4  C   UNL     1      -5.522  30.613  -8.693  1.00  0.00     0.000 C 
BRANCH   4   5
ATOM      5  C   UNL     1      -5.238  30.794  -7.191  1.00  0.00     0.006 C 
BRANCH   5   6
ATOM      6  C   UNL     1      -5.887  32.054  -6.605  1.00  0.00     0.053 C 
BRANCH   6   7
ATOM      7  C   UNL     1      -4.919  32.782  -5.726  1.00  0.00     0.041 C 
ATOM      8  O   UNL     1      -4.445  33.890  -6.088  1.00  0.00    -0.550 OA
ATOM      9  O   UNL     1      -4.580  32.260  -4.485  1.00  0.00    -0.550 OA
ENDBRANCH   6   7
ENDBRANCH   5   6
ENDBRANCH   4   5
ENDBRANCH   3   4
ENDBRANCH   2   3
ENDBRANCH   1   2
BRANCH   1  10
ATOM     10  C   UNL     1      -8.676  29.330  -7.092  1.00  0.00     0.000 C 
BRANCH  10  11
ATOM     11  C   UNL     1      -9.739  30.281  -6.515  1.00  0.00    -0.000 C 
BRANCH  11  12
ATOM     12  C   UNL     1      -9.520  31.774  -6.835  1.00  0.00    -0.000 C 
BRANCH  12  13
ATOM     13  C   UNL     1     -10.752  32.511  -7.388  1.00  0.00    -0.000 C 
BRANCH  13  14
ATOM     14  C   UNL     1     -11.124  32.067  -8.811  1.00  0.00    -0.000 C 
BRANCH  14  15
ATOM     15  C   UNL     1     -12.498  31.382  -8.830  1.00  0.00    -0.000 C 
BRANCH  15  16
ATOM     16  C   UNL     1     -12.408  29.886  -9.170  1.00  0.00    -0.003 C 
ATOM     17  C   UNL     1     -12.903  28.991  -8.035  1.00  0.00     0.004 C 
ENDBRANCH  15  16
ENDBRANCH  14  15
ENDBRANCH  13  14
ENDBRANCH  12  13
ENDBRANCH  11  12
ENDBRANCH  10  11
ENDBRANCH   1  10
TORSDOF 13
ENDMDL
MODEL 8
REMARK VINA RESULT:    -3.874      3.128      6.375
REMARK INTER + INTRA:          -7.919
REMARK INTER:                  -6.108
REMARK INTRA:                  -1.811
REMARK UNBOUND:                -1.101
REMARK SMILES CCCCCCCCCCCCCCC(=O)[O-]
REMARK SMILES IDX 9 1 10 2 11 3 12 4 13 5 14 6 15 7 16 8 17 9 8 10 7 11 6 12
REMARK SMILES IDX 5 13 4 14 3 15 2 16 1 17
REMARK H PARENT
REMARK Flexibility Score: inf
ROOT
ATOM      1  C   UNL     1      -4.301  22.548 -14.138  1.00  0.00     0.000 C 
ENDROOT
BRANCH   1   2
ATOM      2  C   UNL     1      -5.033  21.325 -13.562  1.00  0.00     0.000 C 
BRANCH   2   3
ATOM      3  C   UNL     1      -5.451  21.525 -12.096  1.00  0.00     0.000 C 
BRANCH   3   4
ATOM      4  C   UNL     1      -6.656  20.657 -11.692  1.00  0.00     0.000 C 
BRANCH   4   5
ATOM      5  C   UNL     1      -7.153  20.857 -10.249  1.00  0.00     0.006 C 
BRANCH   5   6
ATOM      6  C   UNL     1      -6.265  20.164  -9.208  1.00  0.00     0.053 C 
BRANCH   6   7
ATOM      7  C   UNL     1      -7.069  19.201  -8.392  1.00  0.00     0.041 C 
ATOM      8  O   UNL     1      -7.280  18.034  -8.815  1.00  0.00    -0.550 OA
ATOM      9  O   UNL     1      -7.544  19.576  -7.142  1.00  0.00    -0.550 OA
ENDBRANCH   6   7
ENDBRANCH   5   6
ENDBRANCH   4   5
ENDBRANCH   3   4
ENDBRANCH   2   3
ENDBRANCH   1   2
BRANCH   1  10
ATOM     10  C   UNL     1      -5.256  23.537 -14.831  1.00  0.00     0.000 C 
BRANCH  10  11
ATOM     11  C   UNL     1      -4.855  25.006 -14.609  1.00  0.00    -0.000 C 
BRANCH  11  12
ATOM     12  C   UNL     1      -4.539  25.380 -13.146  1.00  0.00    -0.000 C 
BRANCH  12  13
ATOM     13  C   UNL     1      -5.204  26.674 -12.644  1.00  0.00    -0.000 C 
BRANCH  13  14
ATOM     14  C   UNL     1      -6.143  26.438 -11.451  1.00  0.00    -0.000 C 
BRANCH  14  15
ATOM     15  C   UNL     1      -6.370  24.937 -11.220  1.00  0.00    -0.000 C 
BRANCH  15  16
ATOM     16  C   UNL     1      -7.854  24.547 -11.289  1.00  0.00    -0.003 C 
ATOM     17  C   UNL     1      -8.242  23.928 -12.632  1.00  0.00     0.004 C 
ENDBRANCH  15  16
ENDBRANCH  14  15
ENDBRANCH  13  14
ENDBRANCH  12  13
ENDBRANCH  11  12
ENDBRANCH  10  11
ENDBRANCH   1  10
TORSDOF 13
ENDMDL
MODEL 9
REMARK VINA RESULT:    -3.838      2.346      5.700
REMARK INTER + INTRA:          -7.856
REMARK INTER:                  -5.574
REMARK INTRA:                  -2.282
REMARK UNBOUND:                -1.101
REMARK SMILES CCCCCCCCCCCCCCC(=O)[O-]
REMARK SMILES IDX 9 1 10 2 11 3 12 4 13 5 14 6 15 7 16 8 17 9 8 10 7 11 6 12
REMARK SMILES IDX 5 13 4 14 3 15 2 16 1 17
REMARK H PARENT
REMARK Flexibility Score: inf
ROOT
ATOM      1  C   UNL     1      -5.416  26.623 -13.017  1.00  0.00     0.000 C 
ENDROOT
BRANCH   1   2
ATOM      2  C   UNL     1      -6.130  26.582 -11.656  1.00  0.00     0.000 C 
BRANCH   2   3
ATOM      3  C   UNL     1      -5.766  25.332 -10.837  1.00  0.00     0.000 C 
BRANCH   3   4
ATOM      4  C   UNL     1      -7.001  24.544 -10.365  1.00  0.00     0.000 C 
BRANCH   4   5
ATOM      5  C   UNL     1      -7.241  23.208 -11.092  1.00  0.00     0.006 C 
BRANCH   5   6
ATOM      6  C   UNL     1      -6.512  22.029 -10.435  1.00  0.00     0.053 C 
BRANCH   6   7
ATOM      7  C   UNL     1      -7.395  20.821 -10.400  1.00  0.00     0.041 C 
ATOM      8  O   UNL     1      -8.121  20.538 -11.388  1.00  0.00    -0.550 OA
ATOM      9  O   UNL     1      -7.378  19.979  -9.296  1.00  0.00    -0.550 OA
ENDBRANCH   6   7
ENDBRANCH   5   6
ENDBRANCH   4   5
ENDBRANCH   3   4
ENDBRANCH   2   3
ENDBRANCH   1   2
BRANCH   1  10
ATOM     10  C   UNL     1      -4.154  25.742 -13.050  1.00  0.00     0.000 C 
BRANCH  10  11
ATOM     11  C   UNL     1      -4.087  24.846 -14.300  1.00  0.00    -0.000 C 
BRANCH  11  12
ATOM     12  C   UNL     1      -4.725  23.451 -14.135  1.00  0.00    -0.000 C 
BRANCH  12  13
ATOM     13  C   UNL     1      -6.168  23.327 -14.656  1.00  0.00    -0.000 C 
BRANCH  13  14
ATOM     14  C   UNL     1      -6.471  24.295 -15.810  1.00  0.00    -0.000 C 
BRANCH  14  15
ATOM     15  C   UNL     1      -7.732  25.120 -15.516  1.00  0.00    -0.000 C 
BRANCH  15  16
ATOM     16  C   UNL     1      -8.427  24.694 -14.214  1.00  0.00    -0.003 C 
ATOM     17  C   UNL     1      -9.167  25.846 -13.535  1.00  0.00     0.004 C 
ENDBRANCH  15  16
ENDBRANCH  14  15
ENDBRANCH  13  14
ENDBRANCH  12  13
ENDBRANCH  11  12
ENDBRANCH  10  11
ENDBRANCH   1  10
TORSDOF 13
ENDMDL
