MODEL 1
REMARK VINA RESULT:    -3.454      0.000      0.000
REMARK INTER + INTRA:          -5.770
REMARK INTER:                  -5.271
REMARK INTRA:                  -0.499
REMARK UNBOUND:                -0.499
REMARK SMILES O=C([O-])CCCCCCCCC(=O)[O-]
REMARK SMILES IDX 7 1 6 2 5 3 4 4 2 5 1 6 3 7 8 8 9 9 10 10 11 11 12 12 13 13
REMARK SMILES IDX 14 14
REMARK H PARENT
REMARK Flexibility Score: inf
ROOT
ATOM      1  C   UNL     1       4.433  -6.308  -9.126  1.00  0.00     0.000 C 
ENDROOT
BRANCH   1   2
ATOM      2  C   UNL     1       5.574  -5.473  -9.719  1.00  0.00     0.000 C 
BRANCH   2   3
ATOM      3  C   UNL     1       5.081  -4.077 -10.125  1.00  0.00     0.006 C 
BRANCH   3   4
ATOM      4  C   UNL     1       3.558  -3.941 -10.006  1.00  0.00     0.053 C 
BRANCH   4   5
ATOM      5  C   UNL     1       3.127  -2.506  -9.999  1.00  0.00     0.041 C 
ATOM      6  O   UNL     1       1.903  -2.211 -10.027  1.00  0.00    -0.550 OA
ATOM      7  O   UNL     1       4.077  -1.495  -9.929  1.00  0.00    -0.550 OA
ENDBRANCH   4   5
ENDBRANCH   3   4
ENDBRANCH   2   3
ENDBRANCH   1   2
BRANCH   1   8
ATOM      8  C   UNL     1       4.467  -7.746  -9.657  1.00  0.00     0.000 C 
BRANCH   8   9
ATOM      9  C   UNL     1       5.881  -8.128 -10.120  1.00  0.00     0.000 C 
BRANCH   9  10
ATOM     10  C   UNL     1       6.525  -9.204  -9.232  1.00  0.00     0.006 C 
BRANCH  10  11
ATOM     11  C   UNL     1       8.041  -9.311  -9.439  1.00  0.00     0.053 C 
BRANCH  11  12
ATOM     12  C   UNL     1       8.741  -8.174  -8.764  1.00  0.00     0.041 C 
ATOM     13  O   UNL     1       9.852  -7.769  -9.194  1.00  0.00    -0.550 OA
ATOM     14  O   UNL     1       8.189  -7.593  -7.629  1.00  0.00    -0.550 OA
ENDBRANCH  11  12
ENDBRANCH  10  11
ENDBRANCH   9  10
ENDBRANCH   8   9
ENDBRANCH   1   8
TORSDOF 9
ENDMDL
MODEL 2
REMARK VINA RESULT:    -3.446     21.210     22.131
REMARK INTER + INTRA:          -5.758
REMARK INTER:                  -5.411
REMARK INTRA:                  -0.347
REMARK UNBOUND:                -0.499
REMARK SMILES O=C([O-])CCCCCCCCC(=O)[O-]
REMARK SMILES IDX 7 1 6 2 5 3 4 4 2 5 1 6 3 7 8 8 9 9 10 10 11 11 12 12 13 13
REMARK SMILES IDX 14 14
REMARK H PARENT
REMARK Flexibility Score: inf
ROOT
ATOM      1  C   UNL     1       3.786   3.837   9.817  1.00  0.00     0.000 C 
ENDROOT
BRANCH   1   2
ATOM      2  C   UNL     1       4.242   2.391  10.047  1.00  0.00     0.000 C 
BRANCH   2   3
ATOM      3  C   UNL     1       3.039   1.440  10.125  1.00  0.00     0.006 C 
BRANCH   3   4
ATOM      4  C   UNL     1       1.818   1.986   9.373  1.00  0.00     0.053 C 
BRANCH   4   5
ATOM      5  C   UNL     1       0.551   1.320   9.816  1.00  0.00     0.041 C 
ATOM      6  O   UNL     1      -0.521   1.978   9.883  1.00  0.00    -0.550 OA
ATOM      7  O   UNL     1       0.548  -0.034  10.123  1.00  0.00    -0.550 OA
ENDBRANCH   4   5
ENDBRANCH   3   4
ENDBRANCH   2   3
ENDBRANCH   1   2
BRANCH   1   8
ATOM      8  C   UNL     1       4.933   4.823  10.066  1.00  0.00     0.000 C 
BRANCH   8   9
ATOM      9  C   UNL     1       6.257   4.281   9.507  1.00  0.00     0.000 C 
BRANCH   9  10
ATOM     10  C   UNL     1       7.000   5.310   8.640  1.00  0.00     0.006 C 
BRANCH  10  11
ATOM     11  C   UNL     1       7.380   6.574   9.419  1.00  0.00     0.053 C 
BRANCH  11  12
ATOM     12  C   UNL     1       7.685   7.696   8.476  1.00  0.00     0.041 C 
ATOM     13  O   UNL     1       8.280   7.468   7.391  1.00  0.00    -0.550 OA
ATOM     14  O   UNL     1       7.356   9.001   8.820  1.00  0.00    -0.550 OA
ENDBRANCH  11  12
ENDBRANCH  10  11
ENDBRANCH   9  10
ENDBRANCH   8   9
ENDBRANCH   1   8
TORSDOF 9
ENDMDL
MODEL 3
REMARK VINA RESULT:    -3.249     21.438     22.659
REMARK INTER + INTRA:          -5.458
REMARK INTER:                  -4.823
REMARK INTRA:                  -0.635
REMARK UNBOUND:                -0.499
REMARK SMILES O=C([O-])CCCCCCCCC(=O)[O-]
REMARK SMILES IDX 7 1 6 2 5 3 4 4 2 5 1 6 3 7 8 8 9 9 10 10 11 11 12 12 13 13
REMARK SMILES IDX 14 14
REMARK H PARENT
REMARK Flexibility Score: inf
ROOT
ATOM      1  C   UNL     1       6.528   6.075   8.194  1.00  0.00     0.000 C 
ENDROOT
BRANCH   1   2
ATOM      2  C   UNL     1       5.963   6.919   9.343  1.00  0.00     0.000 C 
BRANCH   2   3
ATOM      3  C   UNL     1       6.798   8.189   9.557  1.00  0.00     0.006 C 
BRANCH   3   4
ATOM      4  C   UNL     1       7.896   8.347   8.497  1.00  0.00     0.053 C 
BRANCH   4   5
ATOM      5  C   UNL     1       9.263   8.180   9.085  1.00  0.00     0.041 C 
ATOM      6  O   UNL     1      10.125   9.089   8.955  1.00  0.00    -0.550 OA
ATOM      7  O   UNL     1       9.575   7.034   9.805  1.00  0.00    -0.550 OA
ENDBRANCH   4   5
ENDBRANCH   3   4
ENDBRANCH   2   3
ENDBRANCH   1   2
BRANCH   1   8
ATOM      8  C   UNL     1       7.146   4.773   8.716  1.00  0.00     0.000 C 
BRANCH   8   9
ATOM      9  C   UNL     1       6.620   4.439  10.120  1.00  0.00     0.000 C 
BRANCH   9  10
ATOM     10  C   UNL     1       5.672   3.229  10.125  1.00  0.00     0.006 C 
BRANCH  10  11
ATOM     11  C   UNL     1       4.199   3.633   9.988  1.00  0.00     0.053 C 
BRANCH  11  12
ATOM     12  C   UNL     1       3.320   2.424  10.033  1.00  0.00     0.041 C 
ATOM     13  O   UNL     1       3.823   1.272   9.975  1.00  0.00    -0.550 OA
ATOM     14  O   UNL     1       1.939   2.569  10.087  1.00  0.00    -0.550 OA
ENDBRANCH  11  12
ENDBRANCH  10  11
ENDBRANCH   9  10
ENDBRANCH   8   9
ENDBRANCH   1   8
TORSDOF 9
ENDMDL
MODEL 4
REMARK VINA RESULT:    -3.060      1.548      6.794
REMARK INTER + INTRA:          -5.170
REMARK INTER:                  -4.626
REMARK INTRA:                  -0.543
REMARK UNBOUND:                -0.499
REMARK SMILES O=C([O-])CCCCCCCCC(=O)[O-]
REMARK SMILES IDX 7 1 6 2 5 3 4 4 2 5 1 6 3 7 8 8 9 9 10 10 11 11 12 12 13 13
REMARK SMILES IDX 14 14
REMARK H PARENT
REMARK Flexibility Score: inf
ROOT
ATOM      1  C   UNL     1       6.730  -5.724  -8.521  1.00  0.00     0.000 C 
ENDROOT
BRANCH   1   2
ATOM      2  C   UNL     1       7.968  -5.040  -9.115  1.00  0.00     0.000 C 
BRANCH   2   3
ATOM      3  C   UNL     1       8.698  -5.975 -10.090  1.00  0.00     0.006 C 
BRANCH   3   4
ATOM      4  C   UNL     1       9.631  -6.954  -9.366  1.00  0.00     0.053 C 
BRANCH   4   5
ATOM      5  C   UNL     1       9.170  -8.372  -9.513  1.00  0.00     0.041 C 
ATOM      6  O   UNL     1       8.019  -8.621  -9.960  1.00  0.00    -0.550 OA
ATOM      7  O   UNL     1      10.023  -9.418  -9.187  1.00  0.00    -0.550 OA
ENDBRANCH   4   5
ENDBRANCH   3   4
ENDBRANCH   2   3
ENDBRANCH   1   2
BRANCH   1   8
ATOM      8  C   UNL     1       5.662  -5.963  -9.594  1.00  0.00     0.000 C 
BRANCH   8   9
ATOM      9  C   UNL     1       4.285  -5.475  -9.119  1.00  0.00     0.000 C 
BRANCH   9  10
ATOM     10  C   UNL     1       3.639  -4.482 -10.098  1.00  0.00     0.006 C 
BRANCH  10  11
ATOM     11  C   UNL     1       4.358  -3.128 -10.125  1.00  0.00     0.053 C 
BRANCH  11  12
ATOM     12  C   UNL     1       3.378  -2.013  -9.937  1.00  0.00     0.041 C 
ATOM     13  O   UNL     1       3.733  -0.819 -10.118  1.00  0.00    -0.550 OA
ATOM     14  O   UNL     1       2.084  -2.289  -9.513  1.00  0.00    -0.550 OA
ENDBRANCH  11  12
ENDBRANCH  10  11
ENDBRANCH   9  10
ENDBRANCH   8   9
ENDBRANCH   1   8
TORSDOF 9
ENDMDL
MODEL 5
REMARK VINA RESULT:    -2.985     21.421     22.489
REMARK INTER + INTRA:          -5.055
REMARK INTER:                  -4.698
REMARK INTRA:                  -0.356
REMARK UNBOUND:                -0.499
REMARK SMILES O=C([O-])CCCCCCCCC(=O)[O-]
REMARK SMILES IDX 7 1 6 2 5 3 4 4 2 5 1 6 3 7 8 8 9 9 10 10 11 11 12 12 13 13
REMARK SMILES IDX 14 14
REMARK H PARENT
REMARK Flexibility Score: inf
ROOT
ATOM      1  C   UNL     1       5.012   4.552   9.193  1.00  0.00     0.000 C 
ENDROOT
BRANCH   1   2
ATOM      2  C   UNL     1       6.179   4.899  10.125  1.00  0.00     0.000 C 
BRANCH   2   3
ATOM      3  C   UNL     1       6.481   6.404  10.092  1.00  0.00     0.006 C 
BRANCH   3   4
ATOM      4  C   UNL     1       5.486   7.177   9.217  1.00  0.00     0.053 C 
BRANCH   4   5
ATOM      5  C   UNL     1       5.664   8.658   9.350  1.00  0.00     0.041 C 
ATOM      6  O   UNL     1       4.730   9.371   9.802  1.00  0.00    -0.550 OA
ATOM      7  O   UNL     1       6.874   9.247   9.006  1.00  0.00    -0.550 OA
ENDBRANCH   4   5
ENDBRANCH   3   4
ENDBRANCH   2   3
ENDBRANCH   1   2
BRANCH   1   8
ATOM      8  C   UNL     1       3.903   3.812   9.950  1.00  0.00     0.000 C 
BRANCH   8   9
ATOM      9  C   UNL     1       4.246   2.324  10.114  1.00  0.00     0.000 C 
BRANCH   9  10
ATOM     10  C   UNL     1       3.000   1.424  10.119  1.00  0.00     0.006 C 
BRANCH  10  11
ATOM     11  C   UNL     1       1.711   2.201   9.823  1.00  0.00     0.053 C 
BRANCH  11  12
ATOM     12  C   UNL     1       0.521   1.301   9.944  1.00  0.00     0.041 C 
ATOM     13  O   UNL     1      -0.637   1.788  10.012  1.00  0.00    -0.550 OA
ATOM     14  O   UNL     1       0.696  -0.075  10.032  1.00  0.00    -0.550 OA
ENDBRANCH  11  12
ENDBRANCH  10  11
ENDBRANCH   9  10
ENDBRANCH   8   9
ENDBRANCH   1   8
TORSDOF 9
ENDMDL
MODEL 6
REMARK VINA RESULT:    -2.977     21.893     23.320
REMARK INTER + INTRA:          -5.042
REMARK INTER:                  -4.257
REMARK INTRA:                  -0.785
REMARK UNBOUND:                -0.499
REMARK SMILES O=C([O-])CCCCCCCCC(=O)[O-]
REMARK SMILES IDX 7 1 6 2 5 3 4 4 2 5 1 6 3 7 8 8 9 9 10 10 11 11 12 12 13 13
REMARK SMILES IDX 14 14
REMARK H PARENT
REMARK Flexibility Score: inf
ROOT
ATOM      1  C   UNL     1      -5.599  -5.208   9.984  1.00  0.00     0.000 C 
ENDROOT
BRANCH   1   2
ATOM      2  C   UNL     1      -4.532  -5.645   8.974  1.00  0.00     0.000 C 
BRANCH   2   3
ATOM      3  C   UNL     1      -4.138  -7.113   9.188  1.00  0.00     0.006 C 
BRANCH   3   4
ATOM      4  C   UNL     1      -5.109  -7.844  10.124  1.00  0.00     0.053 C 
BRANCH   4   5
ATOM      5  C   UNL     1      -5.232  -9.295   9.773  1.00  0.00     0.041 C 
ATOM      6  O   UNL     1      -6.354  -9.865   9.818  1.00  0.00    -0.550 OA
ATOM      7  O   UNL     1      -4.113 -10.009   9.363  1.00  0.00    -0.550 OA
ENDBRANCH   4   5
ENDBRANCH   3   4
ENDBRANCH   2   3
ENDBRANCH   1   2
BRANCH   1   8
ATOM      8  C   UNL     1      -6.619  -4.263   9.337  1.00  0.00     0.000 C 
BRANCH   8   9
ATOM      9  C   UNL     1      -8.044  -4.583   9.812  1.00  0.00     0.000 C 
BRANCH   9  10
ATOM     10  C   UNL     1      -8.244  -6.075  10.125  1.00  0.00     0.006 C 
BRANCH  10  11
ATOM     11  C   UNL     1      -9.458  -6.671   9.403  1.00  0.00     0.053 C 
BRANCH  11  12
ATOM     12  C   UNL     1      -9.055  -7.878   8.615  1.00  0.00     0.041 C 
ATOM     13  O   UNL     1      -8.027  -7.848   7.891  1.00  0.00    -0.550 OA
ATOM     14  O   UNL     1      -9.845  -9.021   8.641  1.00  0.00    -0.550 OA
ENDBRANCH  11  12
ENDBRANCH  10  11
ENDBRANCH   9  10
ENDBRANCH   8   9
ENDBRANCH   1   8
TORSDOF 9
ENDMDL
MODEL 7
REMARK VINA RESULT:    -2.956     16.542     18.494
REMARK INTER + INTRA:          -5.011
REMARK INTER:                  -4.585
REMARK INTRA:                  -0.425
REMARK UNBOUND:                -0.499
REMARK SMILES O=C([O-])CCCCCCCCC(=O)[O-]
REMARK SMILES IDX 7 1 6 2 5 3 4 4 2 5 1 6 3 7 8 8 9 9 10 10 11 11 12 12 13 13
REMARK SMILES IDX 14 14
REMARK H PARENT
REMARK Flexibility Score: inf
ROOT
ATOM      1  C   UNL     1      -6.694   5.338  -8.867  1.00  0.00     0.000 C 
ENDROOT
BRANCH   1   2
ATOM      2  C   UNL     1      -8.006   4.682  -9.315  1.00  0.00     0.000 C 
BRANCH   2   3
ATOM      3  C   UNL     1      -9.024   5.739  -9.765  1.00  0.00     0.006 C 
BRANCH   3   4
ATOM      4  C   UNL     1      -8.395   7.132  -9.900  1.00  0.00     0.053 C 
BRANCH   4   5
ATOM      5  C   UNL     1      -8.885   8.068  -8.838  1.00  0.00     0.041 C 
ATOM      6  O   UNL     1      -9.863   8.829  -9.066  1.00  0.00    -0.550 OA
ATOM      7  O   UNL     1      -8.283   8.076  -7.586  1.00  0.00    -0.550 OA
ENDBRANCH   4   5
ENDBRANCH   3   4
ENDBRANCH   2   3
ENDBRANCH   1   2
BRANCH   1   8
ATOM      8  C   UNL     1      -5.613   5.206  -9.947  1.00  0.00     0.000 C 
BRANCH   8   9
ATOM      9  C   UNL     1      -4.232   5.583  -9.392  1.00  0.00     0.000 C 
BRANCH   9  10
ATOM     10  C   UNL     1      -4.123   7.075  -9.037  1.00  0.00     0.006 C 
BRANCH  10  11
ATOM     11  C   UNL     1      -4.716   7.984 -10.120  1.00  0.00     0.053 C 
BRANCH  11  12
ATOM     12  C   UNL     1      -4.781   9.398  -9.636  1.00  0.00     0.041 C 
ATOM     13  O   UNL     1      -5.895   9.955  -9.454  1.00  0.00    -0.550 OA
ATOM     14  O   UNL     1      -3.611  10.119  -9.433  1.00  0.00    -0.550 OA
ENDBRANCH  11  12
ENDBRANCH  10  11
ENDBRANCH   9  10
ENDBRANCH   8   9
ENDBRANCH   1   8
TORSDOF 9
ENDMDL
MODEL 8
REMARK VINA RESULT:    -2.937     10.242     15.708
REMARK INTER + INTRA:          -4.981
REMARK INTER:                  -4.831
REMARK INTRA:                  -0.151
REMARK UNBOUND:                -0.499
REMARK SMILES O=C([O-])CCCCCCCCC(=O)[O-]
REMARK SMILES IDX 7 1 6 2 5 3 4 4 2 5 1 6 3 7 8 8 9 9 10 10 11 11 12 12 13 13
REMARK SMILES IDX 14 14
REMARK H PARENT
REMARK Flexibility Score: inf
ROOT
ATOM      1  C   UNL     1      -3.787   3.334  -9.284  1.00  0.00     0.000 C 
ENDROOT
BRANCH   1   2
ATOM      2  C   UNL     1      -4.041   1.982  -9.962  1.00  0.00     0.000 C 
BRANCH   2   3
ATOM      3  C   UNL     1      -2.737   1.185 -10.109  1.00  0.00     0.006 C 
BRANCH   3   4
ATOM      4  C   UNL     1      -1.495   2.076  -9.976  1.00  0.00     0.053 C 
BRANCH   4   5
ATOM      5  C   UNL     1      -0.236   1.266  -9.917  1.00  0.00     0.041 C 
ATOM      6  O   UNL     1      -0.290   0.008  -9.940  1.00  0.00    -0.550 OA
ATOM      7  O   UNL     1       0.998   1.901  -9.871  1.00  0.00    -0.550 OA
ENDBRANCH   4   5
ENDBRANCH   3   4
ENDBRANCH   2   3
ENDBRANCH   1   2
BRANCH   1   8
ATOM      8  C   UNL     1      -4.350   4.487 -10.123  1.00  0.00     0.000 C 
BRANCH   8   9
ATOM      9  C   UNL     1      -4.875   5.616  -9.225  1.00  0.00     0.000 C 
BRANCH   9  10
ATOM     10  C   UNL     1      -5.598   6.717 -10.017  1.00  0.00     0.006 C 
BRANCH  10  11
ATOM     11  C   UNL     1      -6.293   7.739  -9.109  1.00  0.00     0.053 C 
BRANCH  11  12
ATOM     12  C   UNL     1      -7.516   7.139  -8.491  1.00  0.00     0.041 C 
ATOM     13  O   UNL     1      -8.658   7.434  -8.930  1.00  0.00    -0.550 OA
ATOM     14  O   UNL     1      -7.398   6.293  -7.395  1.00  0.00    -0.550 OA
ENDBRANCH  11  12
ENDBRANCH  10  11
ENDBRANCH   9  10
ENDBRANCH   8   9
ENDBRANCH   1   8
TORSDOF 9
ENDMDL
