MODEL 1
REMARK VINA RESULT:    -4.302      0.000      0.000
REMARK INTER + INTRA:          -4.807
REMARK INTER:                  -4.679
REMARK INTRA:                  -0.128
REMARK UNBOUND:                -0.128
REMARK SMILES C=C(C)[C@@H]1CC[C@H](C)C[C@@H]1O
REMARK SMILES IDX 8 1 7 2 6 3 5 4 4 5 10 6 9 7 11 8 2 10 1 11 3 12
REMARK H PARENT 11 9
REMARK Flexibility Score: inf
ROOT
ATOM      1  C   UNL     1     128.907 137.007 139.476  1.00  0.00     0.008 C 
ATOM      2  C   UNL     1     128.896 137.975 138.286  1.00  0.00    -0.012 C 
ATOM      3  C   UNL     1     129.394 139.384 138.704  1.00  0.00     0.004 C 
ATOM      4  C   UNL     1     130.850 139.627 138.293  1.00  0.00     0.011 C 
ATOM      5  C   UNL     1     131.003 139.571 136.755  1.00  0.00     0.043 C 
ATOM      6  C   UNL     1     130.126 138.457 136.094  1.00  0.00     0.121 C 
ATOM      7  C   UNL     1     129.695 137.374 137.103  1.00  0.00     0.035 C 
ENDROOT
BRANCH   6   8
ATOM      8  O   UNL     1     130.792 137.864 135.007  1.00  0.00    -0.392 OA
ATOM      9  H   UNL     1     131.730 137.702 135.292  1.00  0.00     0.210 HD
ENDBRANCH   6   8
BRANCH   5  10
ATOM     10  C   UNL     1     132.480 139.503 136.369  1.00  0.00    -0.075 C 
ATOM     11  C   UNL     1     133.322 138.714 137.057  1.00  0.00     0.008 C 
ATOM     12  C   UNL     1     133.030 140.306 135.217  1.00  0.00     0.039 C 
ENDBRANCH   5  10
TORSDOF 2
ENDMDL
MODEL 2
REMARK VINA RESULT:    -3.935     14.111     15.098
REMARK INTER + INTRA:          -4.408
REMARK INTER:                  -4.315
REMARK INTRA:                  -0.093
REMARK UNBOUND:                -0.128
REMARK SMILES C=C(C)[C@@H]1CC[C@H](C)C[C@@H]1O
REMARK SMILES IDX 8 1 7 2 6 3 5 4 4 5 10 6 9 7 11 8 2 10 1 11 3 12
REMARK H PARENT 11 9
REMARK Flexibility Score: inf
ROOT
ATOM      1  C   UNL     1     136.456 132.016 149.201  1.00  0.00     0.008 C 
ATOM      2  C   UNL     1     137.229 132.912 148.225  1.00  0.00    -0.012 C 
ATOM      3  C   UNL     1     136.918 134.412 148.473  1.00  0.00     0.004 C 
ATOM      4  C   UNL     1     138.029 135.109 149.266  1.00  0.00     0.011 C 
ATOM      5  C   UNL     1     139.362 135.084 148.481  1.00  0.00     0.043 C 
ATOM      6  C   UNL     1     139.600 133.737 147.723  1.00  0.00     0.121 C 
ATOM      7  C   UNL     1     138.743 132.587 148.288  1.00  0.00     0.035 C 
ENDROOT
BRANCH   6   8
ATOM      8  O   UNL     1     140.959 133.377 147.740  1.00  0.00    -0.392 OA
ATOM      9  H   UNL     1     141.026 132.470 147.343  1.00  0.00     0.210 HD
ENDBRANCH   6   8
BRANCH   5  10
ATOM     10  C   UNL     1     140.520 135.494 149.389  1.00  0.00    -0.075 C 
ATOM     11  C   UNL     1     140.522 135.140 150.685  1.00  0.00     0.008 C 
ATOM     12  C   UNL     1     141.685 136.296 148.864  1.00  0.00     0.039 C 
ENDBRANCH   5  10
TORSDOF 2
ENDMDL
MODEL 3
REMARK VINA RESULT:    -3.907      1.280      4.107
REMARK INTER + INTRA:          -4.378
REMARK INTER:                  -4.248
REMARK INTRA:                  -0.130
REMARK UNBOUND:                -0.128
REMARK SMILES C=C(C)[C@@H]1CC[C@H](C)C[C@@H]1O
REMARK SMILES IDX 8 1 7 2 6 3 5 4 4 5 10 6 9 7 11 8 2 10 1 11 3 12
REMARK H PARENT 11 9
REMARK Flexibility Score: inf
ROOT
ATOM      1  C   UNL     1     133.597 141.909 136.029  1.00  0.00     0.008 C 
ATOM      2  C   UNL     1     133.433 140.434 136.416  1.00  0.00    -0.012 C 
ATOM      3  C   UNL     1     132.933 140.292 137.879  1.00  0.00     0.004 C 
ATOM      4  C   UNL     1     131.431 139.997 137.950  1.00  0.00     0.011 C 
ATOM      5  C   UNL     1     131.103 138.650 137.264  1.00  0.00     0.043 C 
ATOM      6  C   UNL     1     131.938 138.407 135.965  1.00  0.00     0.121 C 
ATOM      7  C   UNL     1     132.524 139.711 135.391  1.00  0.00     0.035 C 
ENDROOT
BRANCH   6   8
ATOM      8  O   UNL     1     131.173 137.751 134.984  1.00  0.00    -0.392 OA
ATOM      9  H   UNL     1     130.518 137.176 135.461  1.00  0.00     0.210 HD
ENDBRANCH   6   8
BRANCH   5  10
ATOM     10  C   UNL     1     129.595 138.510 137.063  1.00  0.00    -0.075 C 
ATOM     11  C   UNL     1     128.877 139.542 136.590  1.00  0.00     0.008 C 
ATOM     12  C   UNL     1     128.875 137.223 137.383  1.00  0.00     0.039 C 
ENDBRANCH   5  10
TORSDOF 2
ENDMDL
MODEL 4
REMARK VINA RESULT:    -3.858     14.025     15.476
REMARK INTER + INTRA:          -4.324
REMARK INTER:                  -4.241
REMARK INTRA:                  -0.083
REMARK UNBOUND:                -0.128
REMARK SMILES C=C(C)[C@@H]1CC[C@H](C)C[C@@H]1O
REMARK SMILES IDX 8 1 7 2 6 3 5 4 4 5 10 6 9 7 11 8 2 10 1 11 3 12
REMARK H PARENT 11 9
REMARK Flexibility Score: inf
ROOT
ATOM      1  C   UNL     1     142.472 134.673 148.882  1.00  0.00     0.008 C 
ATOM      2  C   UNL     1     141.129 135.409 148.804  1.00  0.00    -0.012 C 
ATOM      3  C   UNL     1     140.522 135.319 147.378  1.00  0.00     0.004 C 
ATOM      4  C   UNL     1     139.419 134.259 147.285  1.00  0.00     0.011 C 
ATOM      5  C   UNL     1     138.238 134.613 148.219  1.00  0.00     0.043 C 
ATOM      6  C   UNL     1     138.700 135.216 149.586  1.00  0.00     0.121 C 
ATOM      7  C   UNL     1     140.171 134.889 149.905  1.00  0.00     0.035 C 
ENDROOT
BRANCH   6   8
ATOM      8  O   UNL     1     137.872 134.785 150.638  1.00  0.00    -0.392 OA
ATOM      9  H   UNL     1     136.942 134.767 150.289  1.00  0.00     0.210 HD
ENDBRANCH   6   8
BRANCH   5  10
ATOM     10  C   UNL     1     137.296 133.418 148.360  1.00  0.00    -0.075 C 
ATOM     11  C   UNL     1     135.966 133.604 148.376  1.00  0.00     0.008 C 
ATOM     12  C   UNL     1     137.824 132.010 148.479  1.00  0.00     0.039 C 
ENDBRANCH   5  10
TORSDOF 2
ENDMDL
MODEL 5
REMARK VINA RESULT:    -3.801      1.840      3.054
REMARK INTER + INTRA:          -4.262
REMARK INTER:                  -4.233
REMARK INTRA:                  -0.030
REMARK UNBOUND:                -0.128
REMARK SMILES C=C(C)[C@@H]1CC[C@H](C)C[C@@H]1O
REMARK SMILES IDX 8 1 7 2 6 3 5 4 4 5 10 6 9 7 11 8 2 10 1 11 3 12
REMARK H PARENT 11 9
REMARK Flexibility Score: inf
ROOT
ATOM      1  C   UNL     1     131.038 140.969 139.372  1.00  0.00     0.008 C 
ATOM      2  C   UNL     1     131.248 140.795 137.862  1.00  0.00    -0.012 C 
ATOM      3  C   UNL     1     132.752 140.607 137.524  1.00  0.00     0.004 C 
ATOM      4  C   UNL     1     133.109 139.138 137.275  1.00  0.00     0.011 C 
ATOM      5  C   UNL     1     132.335 138.584 136.055  1.00  0.00     0.043 C 
ATOM      6  C   UNL     1     130.863 139.108 135.976  1.00  0.00     0.121 C 
ATOM      7  C   UNL     1     130.358 139.644 137.330  1.00  0.00     0.035 C 
ENDROOT
BRANCH   6   8
ATOM      8  O   UNL     1     129.994 138.112 135.498  1.00  0.00    -0.392 OA
ATOM      9  H   UNL     1     130.242 137.265 135.954  1.00  0.00     0.210 HD
ENDBRANCH   6   8
BRANCH   5  10
ATOM     10  C   UNL     1     132.451 137.062 135.999  1.00  0.00    -0.075 C 
ATOM     11  C   UNL     1     133.082 136.469 134.971  1.00  0.00     0.008 C 
ATOM     12  C   UNL     1     131.872 136.189 137.084  1.00  0.00     0.039 C 
ENDBRANCH   5  10
TORSDOF 2
ENDMDL
MODEL 6
REMARK VINA RESULT:    -3.757     13.645     15.171
REMARK INTER + INTRA:          -4.214
REMARK INTER:                  -4.121
REMARK INTRA:                  -0.094
REMARK UNBOUND:                -0.128
REMARK SMILES C=C(C)[C@@H]1CC[C@H](C)C[C@@H]1O
REMARK SMILES IDX 8 1 7 2 6 3 5 4 4 5 10 6 9 7 11 8 2 10 1 11 3 12
REMARK H PARENT 11 9
REMARK Flexibility Score: inf
ROOT
ATOM      1  C   UNL     1     140.349 135.039 147.673  1.00  0.00     0.008 C 
ATOM      2  C   UNL     1     138.880 135.152 148.100  1.00  0.00    -0.012 C 
ATOM      3  C   UNL     1     137.935 134.557 147.022  1.00  0.00     0.004 C 
ATOM      4  C   UNL     1     137.451 133.151 147.391  1.00  0.00     0.011 C 
ATOM      5  C   UNL     1     136.626 133.180 148.699  1.00  0.00     0.043 C 
ATOM      6  C   UNL     1     137.204 134.168 149.765  1.00  0.00     0.121 C 
ATOM      7  C   UNL     1     138.682 134.518 149.499  1.00  0.00     0.035 C 
ENDROOT
BRANCH   6   8
ATOM      8  O   UNL     1     137.058 133.655 151.066  1.00  0.00    -0.392 OA
ATOM      9  H   UNL     1     137.548 134.266 151.677  1.00  0.00     0.210 HD
ENDBRANCH   6   8
BRANCH   5  10
ATOM     10  C   UNL     1     136.413 131.761 149.225  1.00  0.00    -0.075 C 
ATOM     11  C   UNL     1     137.376 130.836 149.084  1.00  0.00     0.008 C 
ATOM     12  C   UNL     1     135.131 131.362 149.913  1.00  0.00     0.039 C 
ENDBRANCH   5  10
TORSDOF 2
ENDMDL
MODEL 7
REMARK VINA RESULT:    -3.694      9.937     11.305
REMARK INTER + INTRA:          -4.146
REMARK INTER:                  -4.018
REMARK INTRA:                  -0.128
REMARK UNBOUND:                -0.128
REMARK SMILES C=C(C)[C@@H]1CC[C@H](C)C[C@@H]1O
REMARK SMILES IDX 8 1 7 2 6 3 5 4 4 5 10 6 9 7 11 8 2 10 1 11 3 12
REMARK H PARENT 11 9
REMARK Flexibility Score: inf
ROOT
ATOM      1  C   UNL     1     137.610 140.177 143.247  1.00  0.00     0.008 C 
ATOM      2  C   UNL     1     138.095 141.151 142.165  1.00  0.00    -0.012 C 
ATOM      3  C   UNL     1     137.486 142.564 142.369  1.00  0.00     0.004 C 
ATOM      4  C   UNL     1     138.476 143.530 143.027  1.00  0.00     0.011 C 
ATOM      5  C   UNL     1     139.719 143.738 142.131  1.00  0.00     0.043 C 
ATOM      6  C   UNL     1     140.185 142.425 141.419  1.00  0.00     0.121 C 
ATOM      7  C   UNL     1     139.643 141.159 142.111  1.00  0.00     0.035 C 
ENDROOT
BRANCH   6   8
ATOM      8  O   UNL     1     141.587 142.363 141.334  1.00  0.00    -0.392 OA
ATOM      9  H   UNL     1     141.807 141.850 140.512  1.00  0.00     0.210 HD
ENDBRANCH   6   8
BRANCH   5  10
ATOM     10  C   UNL     1     140.827 144.441 142.913  1.00  0.00    -0.075 C 
ATOM     11  C   UNL     1     141.088 144.088 144.183  1.00  0.00     0.008 C 
ATOM     12  C   UNL     1     141.654 145.539 142.290  1.00  0.00     0.039 C 
ENDBRANCH   5  10
TORSDOF 2
ENDMDL
MODEL 8
REMARK VINA RESULT:    -3.683      2.026      4.386
REMARK INTER + INTRA:          -4.134
REMARK INTER:                  -4.006
REMARK INTRA:                  -0.128
REMARK UNBOUND:                -0.128
REMARK SMILES C=C(C)[C@@H]1CC[C@H](C)C[C@@H]1O
REMARK SMILES IDX 8 1 7 2 6 3 5 4 4 5 10 6 9 7 11 8 2 10 1 11 3 12
REMARK H PARENT 11 9
REMARK Flexibility Score: inf
ROOT
ATOM      1  C   UNL     1     135.418 138.846 138.372  1.00  0.00     0.008 C 
ATOM      2  C   UNL     1     134.521 139.594 137.377  1.00  0.00    -0.012 C 
ATOM      3  C   UNL     1     133.923 138.624 136.323  1.00  0.00     0.004 C 
ATOM      4  C   UNL     1     132.471 138.252 136.639  1.00  0.00     0.011 C 
ATOM      5  C   UNL     1     131.565 139.505 136.614  1.00  0.00     0.043 C 
ATOM      6  C   UNL     1     132.253 140.769 137.228  1.00  0.00     0.121 C 
ATOM      7  C   UNL     1     133.443 140.405 138.137  1.00  0.00     0.035 C 
ENDROOT
BRANCH   6   8
ATOM      8  O   UNL     1     131.329 141.557 137.937  1.00  0.00    -0.392 OA
ATOM      9  H   UNL     1     130.458 141.080 137.911  1.00  0.00     0.210 HD
ENDBRANCH   6   8
BRANCH   5  10
ATOM     10  C   UNL     1     130.201 139.188 137.226  1.00  0.00    -0.075 C 
ATOM     11  C   UNL     1     130.120 138.521 138.389  1.00  0.00     0.008 C 
ATOM     12  C   UNL     1     128.919 139.610 136.551  1.00  0.00     0.039 C 
ENDBRANCH   5  10
TORSDOF 2
ENDMDL
MODEL 9
REMARK VINA RESULT:    -3.670      2.040      2.732
REMARK INTER + INTRA:          -4.119
REMARK INTER:                  -3.991
REMARK INTRA:                  -0.128
REMARK UNBOUND:                -0.128
REMARK SMILES C=C(C)[C@@H]1CC[C@H](C)C[C@@H]1O
REMARK SMILES IDX 8 1 7 2 6 3 5 4 4 5 10 6 9 7 11 8 2 10 1 11 3 12
REMARK H PARENT 11 9
REMARK Flexibility Score: inf
ROOT
ATOM      1  C   UNL     1     128.875 138.050 136.239  1.00  0.00     0.008 C 
ATOM      2  C   UNL     1     129.795 138.485 137.387  1.00  0.00    -0.012 C 
ATOM      3  C   UNL     1     131.093 137.634 137.418  1.00  0.00     0.004 C 
ATOM      4  C   UNL     1     132.284 138.374 136.800  1.00  0.00     0.011 C 
ATOM      5  C   UNL     1     132.608 139.657 137.601  1.00  0.00     0.043 C 
ATOM      6  C   UNL     1     131.328 140.407 138.097  1.00  0.00     0.121 C 
ATOM      7  C   UNL     1     130.069 140.007 137.303  1.00  0.00     0.035 C 
ENDROOT
BRANCH   6   8
ATOM      8  O   UNL     1     131.505 141.801 138.048  1.00  0.00    -0.392 OA
ATOM      9  H   UNL     1     131.225 142.099 137.143  1.00  0.00     0.210 HD
ENDBRANCH   6   8
BRANCH   5  10
ATOM     10  C   UNL     1     133.576 140.542 136.817  1.00  0.00    -0.075 C 
ATOM     11  C   UNL     1     134.676 141.033 137.412  1.00  0.00     0.008 C 
ATOM     12  C   UNL     1     133.332 140.883 135.368  1.00  0.00     0.039 C 
ENDBRANCH   5  10
TORSDOF 2
ENDMDL
