MODEL 1
REMARK VINA RESULT:    -3.007      0.000      0.000
REMARK INTER + INTRA:          -4.166
REMARK INTER:                  -3.886
REMARK INTRA:                  -0.280
REMARK UNBOUND:                -0.280
REMARK SMILES CCO[C@H]1O[C@H](CO)[C@@H](O)[C@@H](O)[C@H]1O
REMARK SMILES IDX 4 1 13 2 11 3 9 4 6 5 5 6 3 7 2 8 1 9 14 10 12 12 7 14 8 15
REMARK SMILES IDX 10 17
REMARK H PARENT 14 11 12 13 8 16 10 18
REMARK Flexibility Score: inf
ROOT
ATOM      1  C   UNL     1      34.326  36.932   0.497  1.00  0.00     0.281 C 
ATOM      2  C   UNL     1      34.361  38.473   0.534  1.00  0.00     0.202 C 
ATOM      3  C   UNL     1      33.163  39.100  -0.212  1.00  0.00     0.179 C 
ATOM      4  C   UNL     1      32.935  38.412  -1.576  1.00  0.00     0.177 C 
ATOM      5  C   UNL     1      32.985  36.872  -1.434  1.00  0.00     0.178 C 
ATOM      6  O   UNL     1      34.205  36.459  -0.838  1.00  0.00    -0.341 OA
ENDROOT
BRANCH   1   7
ATOM      7  O   UNL     1      33.292  36.432   1.329  1.00  0.00    -0.350 OA
BRANCH   7   8
ATOM      8  C   UNL     1      33.773  35.365   2.121  1.00  0.00     0.160 C 
ATOM      9  C   UNL     1      35.074  35.786   2.784  1.00  0.00     0.035 C 
ENDBRANCH   7   8
ENDBRANCH   1   7
BRANCH   2  10
ATOM     10  O   UNL     1      34.402  38.914   1.867  1.00  0.00    -0.385 OA
ATOM     11  H   UNL     1      33.462  38.971   2.179  1.00  0.00     0.211 HD
ENDBRANCH   2  10
BRANCH   3  12
ATOM     12  O   UNL     1      32.000  39.114   0.584  1.00  0.00    -0.387 OA
ATOM     13  H   UNL     1      32.246  38.857   1.508  1.00  0.00     0.211 HD
ENDBRANCH   3  12
BRANCH   5  14
ATOM     14  C   UNL     1      32.857  36.182  -2.799  1.00  0.00     0.191 C 
BRANCH  14  15
ATOM     15  O   UNL     1      31.551  35.710  -2.990  1.00  0.00    -0.394 OA
ATOM     16  H   UNL     1      31.291  35.269  -2.140  1.00  0.00     0.210 HD
ENDBRANCH  14  15
ENDBRANCH   5  14
BRANCH   4  17
ATOM     17  O   UNL     1      31.698  38.804  -2.114  1.00  0.00    -0.387 OA
ATOM     18  H   UNL     1      31.583  38.299  -2.962  1.00  0.00     0.211 HD
ENDBRANCH   4  17
TORSDOF 7
ENDMDL
MODEL 2
REMARK VINA RESULT:    -2.829      2.093      4.436
REMARK INTER + INTRA:          -3.936
REMARK INTER:                  -3.711
REMARK INTRA:                  -0.226
REMARK UNBOUND:                -0.280
REMARK SMILES CCO[C@H]1O[C@H](CO)[C@@H](O)[C@@H](O)[C@H]1O
REMARK SMILES IDX 4 1 13 2 11 3 9 4 6 5 5 6 3 7 2 8 1 9 14 10 12 12 7 14 8 15
REMARK SMILES IDX 10 17
REMARK H PARENT 14 11 12 13 8 16 10 18
REMARK Flexibility Score: inf
ROOT
ATOM      1  C   UNL     1      33.641  38.594   0.628  1.00  0.00     0.281 C 
ATOM      2  C   UNL     1      34.173  37.229   1.110  1.00  0.00     0.202 C 
ATOM      3  C   UNL     1      33.032  36.239   1.428  1.00  0.00     0.179 C 
ATOM      4  C   UNL     1      31.921  36.918   2.259  1.00  0.00     0.177 C 
ATOM      5  C   UNL     1      31.549  38.298   1.662  1.00  0.00     0.178 C 
ATOM      6  O   UNL     1      32.697  39.125   1.550  1.00  0.00    -0.341 OA
ENDROOT
BRANCH   1   7
ATOM      7  O   UNL     1      33.100  38.490  -0.678  1.00  0.00    -0.350 OA
BRANCH   7   8
ATOM      8  C   UNL     1      33.956  39.114  -1.615  1.00  0.00     0.160 C 
ATOM      9  C   UNL     1      33.565  38.670  -3.015  1.00  0.00     0.035 C 
ENDBRANCH   7   8
ENDBRANCH   1   7
BRANCH   2  10
ATOM     10  O   UNL     1      35.042  36.693   0.146  1.00  0.00    -0.385 OA
ATOM     11  H   UNL     1      35.261  35.770   0.440  1.00  0.00     0.211 HD
ENDBRANCH   2  10
BRANCH   3  12
ATOM     12  O   UNL     1      32.531  35.625   0.263  1.00  0.00    -0.387 OA
ATOM     13  H   UNL     1      33.033  34.785   0.107  1.00  0.00     0.211 HD
ENDBRANCH   3  12
BRANCH   5  14
ATOM     14  C   UNL     1      30.517  39.022   2.537  1.00  0.00     0.191 C 
BRANCH  14  15
ATOM     15  O   UNL     1      29.244  38.461   2.361  1.00  0.00    -0.394 OA
ATOM     16  H   UNL     1      29.389  37.490   2.223  1.00  0.00     0.210 HD
ENDBRANCH  14  15
ENDBRANCH   5  14
BRANCH   4  17
ATOM     17  O   UNL     1      30.783  36.096   2.309  1.00  0.00    -0.387 OA
ATOM     18  H   UNL     1      30.406  36.186   3.224  1.00  0.00     0.211 HD
ENDBRANCH   4  17
TORSDOF 7
ENDMDL
MODEL 3
REMARK VINA RESULT:    -2.331      1.795      4.741
REMARK INTER + INTRA:          -3.292
REMARK INTER:                  -3.230
REMARK INTRA:                  -0.062
REMARK UNBOUND:                -0.280
REMARK SMILES CCO[C@H]1O[C@H](CO)[C@@H](O)[C@@H](O)[C@H]1O
REMARK SMILES IDX 4 1 13 2 11 3 9 4 6 5 5 6 3 7 2 8 1 9 14 10 12 12 7 14 8 15
REMARK SMILES IDX 10 17
REMARK H PARENT 14 11 12 13 8 16 10 18
REMARK Flexibility Score: inf
ROOT
ATOM      1  C   UNL     1      33.757  37.214  -0.308  1.00  0.00     0.281 C 
ATOM      2  C   UNL     1      33.202  35.936   0.352  1.00  0.00     0.202 C 
ATOM      3  C   UNL     1      32.635  36.207   1.762  1.00  0.00     0.179 C 
ATOM      4  C   UNL     1      33.596  37.091   2.587  1.00  0.00     0.177 C 
ATOM      5  C   UNL     1      34.094  38.296   1.752  1.00  0.00     0.178 C 
ATOM      6  O   UNL     1      34.695  37.859   0.543  1.00  0.00    -0.341 OA
ENDROOT
BRANCH   1   7
ATOM      7  O   UNL     1      32.702  38.084  -0.684  1.00  0.00    -0.350 OA
BRANCH   7   8
ATOM      8  C   UNL     1      33.078  38.856  -1.807  1.00  0.00     0.160 C 
ATOM      9  C   UNL     1      33.262  37.935  -3.002  1.00  0.00     0.035 C 
ENDBRANCH   7   8
ENDBRANCH   1   7
BRANCH   2  10
ATOM     10  O   UNL     1      32.222  35.362  -0.476  1.00  0.00    -0.385 OA
ATOM     11  H   UNL     1      32.561  35.426  -1.407  1.00  0.00     0.211 HD
ENDBRANCH   2  10
BRANCH   3  12
ATOM     12  O   UNL     1      31.330  36.738   1.708  1.00  0.00    -0.387 OA
ATOM     13  H   UNL     1      31.318  37.482   1.055  1.00  0.00     0.211 HD
ENDBRANCH   3  12
BRANCH   5  14
ATOM     14  C   UNL     1      35.125  39.125   2.531  1.00  0.00     0.191 C 
BRANCH  14  15
ATOM     15  O   UNL     1      34.970  38.930   3.911  1.00  0.00    -0.394 OA
ATOM     16  H   UNL     1      33.996  38.992   4.089  1.00  0.00     0.210 HD
ENDBRANCH  14  15
ENDBRANCH   5  14
BRANCH   4  17
ATOM     17  O   UNL     1      32.955  37.547   3.751  1.00  0.00    -0.387 OA
ATOM     18  H   UNL     1      31.998  37.293   3.667  1.00  0.00     0.211 HD
ENDBRANCH   4  17
TORSDOF 7
ENDMDL
MODEL 4
REMARK VINA RESULT:    -2.079      1.852      3.095
REMARK INTER + INTRA:          -2.968
REMARK INTER:                  -2.596
REMARK INTRA:                  -0.372
REMARK UNBOUND:                -0.280
REMARK SMILES CCO[C@H]1O[C@H](CO)[C@@H](O)[C@@H](O)[C@H]1O
REMARK SMILES IDX 4 1 13 2 11 3 9 4 6 5 5 6 3 7 2 8 1 9 14 10 12 12 7 14 8 15
REMARK SMILES IDX 10 17
REMARK H PARENT 14 11 12 13 8 16 10 18
REMARK Flexibility Score: inf
ROOT
ATOM      1  C   UNL     1      33.562  38.569   1.908  1.00  0.00     0.281 C 
ATOM      2  C   UNL     1      32.494  37.459   1.856  1.00  0.00     0.202 C 
ATOM      3  C   UNL     1      32.819  36.386   0.794  1.00  0.00     0.179 C 
ATOM      4  C   UNL     1      33.255  37.036  -0.537  1.00  0.00     0.177 C 
ATOM      5  C   UNL     1      34.289  38.162  -0.292  1.00  0.00     0.178 C 
ATOM      6  O   UNL     1      33.779  39.125   0.617  1.00  0.00    -0.341 OA
ENDROOT
BRANCH   1   7
ATOM      7  O   UNL     1      34.765  38.083   2.481  1.00  0.00    -0.350 OA
BRANCH   7   8
ATOM      8  C   UNL     1      35.125  38.865   3.602  1.00  0.00     0.160 C 
ATOM      9  C   UNL     1      35.018  38.012   4.856  1.00  0.00     0.035 C 
ENDBRANCH   7   8
ENDBRANCH   1   7
BRANCH   2  10
ATOM     10  O   UNL     1      32.355  36.874   3.126  1.00  0.00    -0.385 OA
ATOM     11  H   UNL     1      33.206  37.038   3.611  1.00  0.00     0.211 HD
ENDBRANCH   2  10
BRANCH   3  12
ATOM     12  O   UNL     1      33.760  35.449   1.268  1.00  0.00    -0.387 OA
ATOM     13  H   UNL     1      33.410  35.042   2.100  1.00  0.00     0.211 HD
ENDBRANCH   3  12
BRANCH   5  14
ATOM     14  C   UNL     1      34.653  38.878  -1.599  1.00  0.00     0.191 C 
BRANCH  14  15
ATOM     15  O   UNL     1      33.601  38.783  -2.521  1.00  0.00    -0.394 OA
ATOM     16  H   UNL     1      34.011  38.885  -3.418  1.00  0.00     0.210 HD
ENDBRANCH  14  15
ENDBRANCH   5  14
BRANCH   4  17
ATOM     17  O   UNL     1      33.799  36.065  -1.394  1.00  0.00    -0.387 OA
ATOM     18  H   UNL     1      33.891  36.491  -2.287  1.00  0.00     0.211 HD
ENDBRANCH   4  17
TORSDOF 7
ENDMDL
MODEL 5
REMARK VINA RESULT:    -1.163      2.004      2.815
REMARK INTER + INTRA:          -1.783
REMARK INTER:                  -1.575
REMARK INTRA:                  -0.208
REMARK UNBOUND:                -0.280
REMARK SMILES CCO[C@H]1O[C@H](CO)[C@@H](O)[C@@H](O)[C@H]1O
REMARK SMILES IDX 4 1 13 2 11 3 9 4 6 5 5 6 3 7 2 8 1 9 14 10 12 12 7 14 8 15
REMARK SMILES IDX 10 17
REMARK H PARENT 14 11 12 13 8 16 10 18
REMARK Flexibility Score: inf
ROOT
ATOM      1  C   UNL     1      32.938  36.456   1.715  1.00  0.00     0.281 C 
ATOM      2  C   UNL     1      34.396  36.730   2.137  1.00  0.00     0.202 C 
ATOM      3  C   UNL     1      35.051  37.837   1.282  1.00  0.00     0.179 C 
ATOM      4  C   UNL     1      34.757  37.627  -0.220  1.00  0.00     0.177 C 
ATOM      5  C   UNL     1      33.260  37.311  -0.452  1.00  0.00     0.178 C 
ATOM      6  O   UNL     1      32.854  36.192   0.320  1.00  0.00    -0.341 OA
ENDROOT
BRANCH   1   7
ATOM      7  O   UNL     1      32.093  37.528   2.100  1.00  0.00    -0.350 OA
BRANCH   7   8
ATOM      8  C   UNL     1      30.785  37.057   2.349  1.00  0.00     0.160 C 
ATOM      9  C   UNL     1      29.825  38.236   2.353  1.00  0.00     0.035 C 
ENDBRANCH   7   8
ENDBRANCH   1   7
BRANCH   2  10
ATOM     10  O   UNL     1      34.440  37.064   3.500  1.00  0.00    -0.385 OA
ATOM     11  H   UNL     1      34.982  37.892   3.575  1.00  0.00     0.211 HD
ENDBRANCH   2  10
BRANCH   3  12
ATOM     12  O   UNL     1      34.687  39.125   1.725  1.00  0.00    -0.387 OA
ATOM     13  H   UNL     1      33.730  39.113   1.979  1.00  0.00     0.211 HD
ENDBRANCH   3  12
BRANCH   5  14
ATOM     14  C   UNL     1      32.979  37.004  -1.930  1.00  0.00     0.191 C 
BRANCH  14  15
ATOM     15  O   UNL     1      32.229  38.037  -2.511  1.00  0.00    -0.394 OA
ATOM     16  H   UNL     1      32.590  38.155  -3.427  1.00  0.00     0.210 HD
ENDBRANCH  14  15
ENDBRANCH   5  14
BRANCH   4  17
ATOM     17  O   UNL     1      35.125  38.771  -0.949  1.00  0.00    -0.387 OA
ATOM     18  H   UNL     1      36.103  38.891  -0.817  1.00  0.00     0.211 HD
ENDBRANCH   4  17
TORSDOF 7
ENDMDL
MODEL 6
REMARK VINA RESULT:    -0.361      2.623      3.941
REMARK INTER + INTRA:          -0.746
REMARK INTER:                  -0.630
REMARK INTRA:                  -0.116
REMARK UNBOUND:                -0.280
REMARK SMILES CCO[C@H]1O[C@H](CO)[C@@H](O)[C@@H](O)[C@H]1O
REMARK SMILES IDX 4 1 13 2 11 3 9 4 6 5 5 6 3 7 2 8 1 9 14 10 12 12 7 14 8 15
REMARK SMILES IDX 10 17
REMARK H PARENT 14 11 12 13 8 16 10 18
REMARK Flexibility Score: inf
ROOT
ATOM      1  C   UNL     1      31.844  37.562   2.956  1.00  0.00     0.281 C 
ATOM      2  C   UNL     1      33.233  37.867   3.552  1.00  0.00     0.202 C 
ATOM      3  C   UNL     1      34.350  37.803   2.489  1.00  0.00     0.179 C 
ATOM      4  C   UNL     1      34.201  36.547   1.601  1.00  0.00     0.177 C 
ATOM      5  C   UNL     1      32.736  36.369   1.137  1.00  0.00     0.178 C 
ATOM      6  O   UNL     1      31.855  36.329   2.249  1.00  0.00    -0.341 OA
ENDROOT
BRANCH   1   7
ATOM      7  O   UNL     1      31.401  38.634   2.140  1.00  0.00    -0.350 OA
BRANCH   7   8
ATOM      8  C   UNL     1      30.158  39.122   2.603  1.00  0.00     0.160 C 
ATOM      9  C   UNL     1      29.078  38.097   2.296  1.00  0.00     0.035 C 
ENDBRANCH   7   8
ENDBRANCH   1   7
BRANCH   2  10
ATOM     10  O   UNL     1      33.215  39.125   4.178  1.00  0.00    -0.385 OA
ATOM     11  H   UNL     1      33.379  38.966   5.144  1.00  0.00     0.211 HD
ENDBRANCH   2  10
BRANCH   3  12
ATOM     12  O   UNL     1      34.422  38.990   1.732  1.00  0.00    -0.387 OA
ATOM     13  H   UNL     1      34.320  38.760   0.774  1.00  0.00     0.211 HD
ENDBRANCH   3  12
BRANCH   5  14
ATOM     14  C   UNL     1      32.560  35.071   0.337  1.00  0.00     0.191 C 
BRANCH  14  15
ATOM     15  O   UNL     1      32.180  34.020   1.183  1.00  0.00    -0.394 OA
ATOM     16  H   UNL     1      31.324  34.298   1.600  1.00  0.00     0.210 HD
ENDBRANCH  14  15
ENDBRANCH   5  14
BRANCH   4  17
ATOM     17  O   UNL     1      35.050  36.641   0.485  1.00  0.00    -0.387 OA
ATOM     18  H   UNL     1      35.034  37.591   0.194  1.00  0.00     0.211 HD
ENDBRANCH   4  17
TORSDOF 7
ENDMDL
