MODEL 1
REMARK VINA RESULT:    -3.941      0.000      0.000
REMARK INTER + INTRA:          -7.498
REMARK INTER:                  -6.245
REMARK INTRA:                  -1.253
REMARK UNBOUND:                -1.253
REMARK SMILES CCCCCCCCCCCC(=O)[O-]
REMARK SMILES IDX 7 1 8 2 9 3 10 4 11 5 12 6 13 7 14 8 6 9 5 10 4 11 3 12 2 13
REMARK SMILES IDX 1 14
REMARK H PARENT
REMARK Flexibility Score: inf
ROOT
ATOM      1  C   UNL     1      13.891  25.864  51.710  1.00  0.00     0.000 C 
ENDROOT
BRANCH   1   2
ATOM      2  C   UNL     1      14.314  26.489  50.371  1.00  0.00     0.000 C 
BRANCH   2   3
ATOM      3  C   UNL     1      15.272  27.678  50.549  1.00  0.00     0.000 C 
BRANCH   3   4
ATOM      4  C   UNL     1      14.791  28.670  51.623  1.00  0.00     0.006 C 
BRANCH   4   5
ATOM      5  C   UNL     1      15.279  30.099  51.349  1.00  0.00     0.053 C 
BRANCH   5   6
ATOM      6  C   UNL     1      14.336  30.847  50.457  1.00  0.00     0.041 C 
ATOM      7  O   UNL     1      13.381  31.501  50.951  1.00  0.00    -0.550 OA
ATOM      8  O   UNL     1      14.533  30.849  49.082  1.00  0.00    -0.550 OA
ENDBRANCH   5   6
ENDBRANCH   4   5
ENDBRANCH   3   4
ENDBRANCH   2   3
ENDBRANCH   1   2
BRANCH   1   9
ATOM      9  C   UNL     1      14.106  24.343  51.695  1.00  0.00     0.000 C 
BRANCH   9  10
ATOM     10  C   UNL     1      15.392  23.916  52.422  1.00  0.00    -0.000 C 
BRANCH  10  11
ATOM     11  C   UNL     1      15.727  24.827  53.616  1.00  0.00    -0.000 C 
BRANCH  11  12
ATOM     12  C   UNL     1      17.119  25.467  53.497  1.00  0.00    -0.000 C 
BRANCH  12  13
ATOM     13  C   UNL     1      17.114  26.965  53.834  1.00  0.00    -0.003 C 
ATOM     14  C   UNL     1      16.135  27.270  54.965  1.00  0.00     0.004 C 
ENDBRANCH  12  13
ENDBRANCH  11  12
ENDBRANCH  10  11
ENDBRANCH   9  10
ENDBRANCH   1   9
TORSDOF 10
ENDMDL
MODEL 2
REMARK VINA RESULT:    -3.874      2.837      3.947
REMARK INTER + INTRA:          -7.392
REMARK INTER:                  -5.725
REMARK INTRA:                  -1.667
REMARK UNBOUND:                -1.253
REMARK SMILES CCCCCCCCCCCC(=O)[O-]
REMARK SMILES IDX 7 1 8 2 9 3 10 4 11 5 12 6 13 7 14 8 6 9 5 10 4 11 3 12 2 13
REMARK SMILES IDX 1 14
REMARK H PARENT
REMARK Flexibility Score: inf
ROOT
ATOM      1  C   UNL     1      18.100  26.376  52.012  1.00  0.00     0.000 C 
ENDROOT
BRANCH   1   2
ATOM      2  C   UNL     1      18.045  27.900  51.825  1.00  0.00     0.000 C 
BRANCH   2   3
ATOM      3  C   UNL     1      16.656  28.393  51.389  1.00  0.00     0.000 C 
BRANCH   3   4
ATOM      4  C   UNL     1      15.995  27.462  50.356  1.00  0.00     0.006 C 
BRANCH   4   5
ATOM      5  C   UNL     1      14.574  27.058  50.769  1.00  0.00     0.053 C 
BRANCH   5   6
ATOM      6  C   UNL     1      14.347  25.585  50.613  1.00  0.00     0.041 C 
ATOM      7  O   UNL     1      15.059  24.915  49.819  1.00  0.00    -0.550 OA
ATOM      8  O   UNL     1      13.374  24.947  51.370  1.00  0.00    -0.550 OA
ENDBRANCH   5   6
ENDBRANCH   4   5
ENDBRANCH   3   4
ENDBRANCH   2   3
ENDBRANCH   1   2
BRANCH   1   9
ATOM      9  C   UNL     1      17.796  25.992  53.469  1.00  0.00     0.000 C 
BRANCH   9  10
ATOM     10  C   UNL     1      16.396  25.381  53.643  1.00  0.00    -0.000 C 
BRANCH  10  11
ATOM     11  C   UNL     1      15.406  26.350  54.312  1.00  0.00    -0.000 C 
BRANCH  11  12
ATOM     12  C   UNL     1      16.083  27.261  55.350  1.00  0.00    -0.000 C 
BRANCH  12  13
ATOM     13  C   UNL     1      15.712  28.741  55.170  1.00  0.00    -0.003 C 
ATOM     14  C   UNL     1      16.954  29.589  54.906  1.00  0.00     0.004 C 
ENDBRANCH  12  13
ENDBRANCH  11  12
ENDBRANCH  10  11
ENDBRANCH   9  10
ENDBRANCH   1   9
TORSDOF 10
ENDMDL
MODEL 3
REMARK VINA RESULT:    -3.827      1.732      3.076
REMARK INTER + INTRA:          -7.317
REMARK INTER:                  -5.722
REMARK INTRA:                  -1.595
REMARK UNBOUND:                -1.253
REMARK SMILES CCCCCCCCCCCC(=O)[O-]
REMARK SMILES IDX 7 1 8 2 9 3 10 4 11 5 12 6 13 7 14 8 6 9 5 10 4 11 3 12 2 13
REMARK SMILES IDX 1 14
REMARK H PARENT
REMARK Flexibility Score: inf
ROOT
ATOM      1  C   UNL     1      16.223  25.555  53.316  1.00  0.00     0.000 C 
ENDROOT
BRANCH   1   2
ATOM      2  C   UNL     1      15.957  26.143  51.922  1.00  0.00     0.000 C 
BRANCH   2   3
ATOM      3  C   UNL     1      14.628  26.910  51.847  1.00  0.00     0.000 C 
BRANCH   3   4
ATOM      4  C   UNL     1      14.803  28.349  51.330  1.00  0.00     0.006 C 
BRANCH   4   5
ATOM      5  C   UNL     1      15.702  28.412  50.088  1.00  0.00     0.053 C 
BRANCH   5   6
ATOM      6  C   UNL     1      14.993  29.024  48.919  1.00  0.00     0.041 C 
ATOM      7  O   UNL     1      14.725  28.328  47.905  1.00  0.00    -0.550 OA
ATOM      8  O   UNL     1      14.597  30.355  48.964  1.00  0.00    -0.550 OA
ENDBRANCH   5   6
ENDBRANCH   4   5
ENDBRANCH   3   4
ENDBRANCH   2   3
ENDBRANCH   1   2
BRANCH   1   9
ATOM      9  C   UNL     1      15.349  26.243  54.376  1.00  0.00     0.000 C 
BRANCH   9  10
ATOM     10  C   UNL     1      16.144  27.211  55.268  1.00  0.00    -0.000 C 
BRANCH  10  11
ATOM     11  C   UNL     1      15.691  28.672  55.105  1.00  0.00    -0.000 C 
BRANCH  11  12
ATOM     12  C   UNL     1      16.707  29.521  54.323  1.00  0.00    -0.000 C 
BRANCH  12  13
ATOM     13  C   UNL     1      17.992  28.748  53.990  1.00  0.00    -0.003 C 
ATOM     14  C   UNL     1      18.414  28.983  52.541  1.00  0.00     0.004 C 
ENDBRANCH  12  13
ENDBRANCH  11  12
ENDBRANCH  10  11
ENDBRANCH   9  10
ENDBRANCH   1   9
TORSDOF 10
ENDMDL
MODEL 4
REMARK VINA RESULT:    -3.819      1.876      2.937
REMARK INTER + INTRA:          -7.305
REMARK INTER:                  -6.264
REMARK INTRA:                  -1.041
REMARK UNBOUND:                -1.253
REMARK SMILES CCCCCCCCCCCC(=O)[O-]
REMARK SMILES IDX 7 1 8 2 9 3 10 4 11 5 12 6 13 7 14 8 6 9 5 10 4 11 3 12 2 13
REMARK SMILES IDX 1 14
REMARK H PARENT
REMARK Flexibility Score: inf
ROOT
ATOM      1  C   UNL     1      16.333  25.779  53.056  1.00  0.00     0.000 C 
ENDROOT
BRANCH   1   2
ATOM      2  C   UNL     1      15.631  25.770  51.690  1.00  0.00     0.000 C 
BRANCH   2   3
ATOM      3  C   UNL     1      14.615  26.914  51.540  1.00  0.00     0.000 C 
BRANCH   3   4
ATOM      4  C   UNL     1      15.204  28.137  50.814  1.00  0.00     0.006 C 
BRANCH   4   5
ATOM      5  C   UNL     1      14.684  29.459  51.395  1.00  0.00     0.053 C 
BRANCH   5   6
ATOM      6  C   UNL     1      14.961  30.614  50.482  1.00  0.00     0.041 C 
ATOM      7  O   UNL     1      15.517  31.653  50.926  1.00  0.00    -0.550 OA
ATOM      8  O   UNL     1      14.638  30.529  49.134  1.00  0.00    -0.550 OA
ENDBRANCH   5   6
ENDBRANCH   4   5
ENDBRANCH   3   4
ENDBRANCH   2   3
ENDBRANCH   1   2
BRANCH   1   9
ATOM      9  C   UNL     1      15.395  26.310  54.151  1.00  0.00     0.000 C 
BRANCH   9  10
ATOM     10  C   UNL     1      16.081  27.320  55.085  1.00  0.00    -0.000 C 
BRANCH  10  11
ATOM     11  C   UNL     1      16.853  28.407  54.317  1.00  0.00    -0.000 C 
BRANCH  11  12
ATOM     12  C   UNL     1      16.527  29.824  54.814  1.00  0.00    -0.000 C 
BRANCH  12  13
ATOM     13  C   UNL     1      15.980  29.837  56.250  1.00  0.00    -0.003 C 
ATOM     14  C   UNL     1      16.628  30.948  57.073  1.00  0.00     0.004 C 
ENDBRANCH  12  13
ENDBRANCH  11  12
ENDBRANCH  10  11
ENDBRANCH   9  10
ENDBRANCH   1   9
TORSDOF 10
ENDMDL
MODEL 5
REMARK VINA RESULT:    -3.816      2.446      4.199
REMARK INTER + INTRA:          -7.300
REMARK INTER:                  -5.855
REMARK INTRA:                  -1.445
REMARK UNBOUND:                -1.253
REMARK SMILES CCCCCCCCCCCC(=O)[O-]
REMARK SMILES IDX 7 1 8 2 9 3 10 4 11 5 12 6 13 7 14 8 6 9 5 10 4 11 3 12 2 13
REMARK SMILES IDX 1 14
REMARK H PARENT
REMARK Flexibility Score: inf
ROOT
ATOM      1  C   UNL     1      17.095  29.625  52.880  1.00  0.00     0.000 C 
ENDROOT
BRANCH   1   2
ATOM      2  C   UNL     1      15.889  30.434  52.381  1.00  0.00     0.000 C 
BRANCH   2   3
ATOM      3  C   UNL     1      15.182  29.770  51.189  1.00  0.00     0.000 C 
BRANCH   3   4
ATOM      4  C   UNL     1      14.636  28.372  51.528  1.00  0.00     0.006 C 
BRANCH   4   5
ATOM      5  C   UNL     1      15.179  27.294  50.581  1.00  0.00     0.053 C 
BRANCH   5   6
ATOM      6  C   UNL     1      14.289  26.088  50.543  1.00  0.00     0.041 C 
ATOM      7  O   UNL     1      13.252  26.045  51.254  1.00  0.00    -0.550 OA
ATOM      8  O   UNL     1      14.588  25.030  49.695  1.00  0.00    -0.550 OA
ENDBRANCH   5   6
ENDBRANCH   4   5
ENDBRANCH   3   4
ENDBRANCH   2   3
ENDBRANCH   1   2
BRANCH   1   9
ATOM      9  C   UNL     1      17.110  29.554  54.415  1.00  0.00     0.000 C 
BRANCH   9  10
ATOM     10  C   UNL     1      15.863  28.861  54.990  1.00  0.00    -0.000 C 
BRANCH  10  11
ATOM     11  C   UNL     1      16.105  27.375  55.306  1.00  0.00    -0.000 C 
BRANCH  11  12
ATOM     12  C   UNL     1      15.351  26.439  54.348  1.00  0.00    -0.000 C 
BRANCH  12  13
ATOM     13  C   UNL     1      16.263  25.377  53.716  1.00  0.00    -0.003 C 
ATOM     14  C   UNL     1      17.642  25.954  53.406  1.00  0.00     0.004 C 
ENDBRANCH  12  13
ENDBRANCH  11  12
ENDBRANCH  10  11
ENDBRANCH   9  10
ENDBRANCH   1   9
TORSDOF 10
ENDMDL
MODEL 6
REMARK VINA RESULT:    -3.801      2.399      4.718
REMARK INTER + INTRA:          -7.276
REMARK INTER:                  -6.067
REMARK INTRA:                  -1.209
REMARK UNBOUND:                -1.253
REMARK SMILES CCCCCCCCCCCC(=O)[O-]
REMARK SMILES IDX 7 1 8 2 9 3 10 4 11 5 12 6 13 7 14 8 6 9 5 10 4 11 3 12 2 13
REMARK SMILES IDX 1 14
REMARK H PARENT
REMARK Flexibility Score: inf
ROOT
ATOM      1  C   UNL     1      14.083  25.655  51.904  1.00  0.00     0.000 C 
ENDROOT
BRANCH   1   2
ATOM      2  C   UNL     1      15.396  24.911  52.189  1.00  0.00     0.000 C 
BRANCH   2   3
ATOM      3  C   UNL     1      15.753  24.891  53.683  1.00  0.00     0.000 C 
BRANCH   3   4
ATOM      4  C   UNL     1      16.472  26.173  54.138  1.00  0.00     0.006 C 
BRANCH   4   5
ATOM      5  C   UNL     1      15.547  27.104  54.932  1.00  0.00     0.053 C 
BRANCH   5   6
ATOM      6  C   UNL     1      16.123  28.481  55.063  1.00  0.00     0.041 C 
ATOM      7  O   UNL     1      17.165  28.795  54.429  1.00  0.00    -0.550 OA
ATOM      8  O   UNL     1      15.490  29.428  55.858  1.00  0.00    -0.550 OA
ENDBRANCH   5   6
ENDBRANCH   4   5
ENDBRANCH   3   4
ENDBRANCH   2   3
ENDBRANCH   1   2
BRANCH   1   9
ATOM      9  C   UNL     1      14.238  26.597  50.700  1.00  0.00     0.000 C 
BRANCH   9  10
ATOM     10  C   UNL     1      15.691  27.050  50.481  1.00  0.00    -0.000 C 
BRANCH  10  11
ATOM     11  C   UNL     1      15.991  28.411  51.134  1.00  0.00    -0.000 C 
BRANCH  11  12
ATOM     12  C   UNL     1      14.716  29.218  51.426  1.00  0.00    -0.000 C 
BRANCH  12  13
ATOM     13  C   UNL     1      14.732  30.608  50.773  1.00  0.00    -0.003 C 
ATOM     14  C   UNL     1      14.543  30.506  49.262  1.00  0.00     0.004 C 
ENDBRANCH  12  13
ENDBRANCH  11  12
ENDBRANCH  10  11
ENDBRANCH   9  10
ENDBRANCH   1   9
TORSDOF 10
ENDMDL
MODEL 7
REMARK VINA RESULT:    -3.797      2.211      3.988
REMARK INTER + INTRA:          -7.269
REMARK INTER:                  -6.210
REMARK INTRA:                  -1.059
REMARK UNBOUND:                -1.253
REMARK SMILES CCCCCCCCCCCC(=O)[O-]
REMARK SMILES IDX 7 1 8 2 9 3 10 4 11 5 12 6 13 7 14 8 6 9 5 10 4 11 3 12 2 13
REMARK SMILES IDX 1 14
REMARK H PARENT
REMARK Flexibility Score: inf
ROOT
ATOM      1  C   UNL     1      17.120  25.495  53.600  1.00  0.00     0.000 C 
ENDROOT
BRANCH   1   2
ATOM      2  C   UNL     1      15.751  24.798  53.629  1.00  0.00     0.000 C 
BRANCH   2   3
ATOM      3  C   UNL     1      15.228  24.461  52.223  1.00  0.00     0.000 C 
BRANCH   3   4
ATOM      4  C   UNL     1      13.982  25.279  51.843  1.00  0.00     0.006 C 
BRANCH   4   5
ATOM      5  C   UNL     1      14.226  26.167  50.615  1.00  0.00     0.053 C 
BRANCH   5   6
ATOM      6  C   UNL     1      15.059  27.366  50.953  1.00  0.00     0.041 C 
ATOM      7  O   UNL     1      14.607  28.254  51.722  1.00  0.00    -0.550 OA
ATOM      8  O   UNL     1      16.346  27.484  50.447  1.00  0.00    -0.550 OA
ENDBRANCH   5   6
ENDBRANCH   4   5
ENDBRANCH   3   4
ENDBRANCH   2   3
ENDBRANCH   1   2
BRANCH   1   9
ATOM      9  C   UNL     1      16.998  26.960  54.046  1.00  0.00     0.000 C 
BRANCH   9  10
ATOM     10  C   UNL     1      15.779  27.207  54.950  1.00  0.00    -0.000 C 
BRANCH  10  11
ATOM     11  C   UNL     1      15.731  28.644  55.499  1.00  0.00    -0.000 C 
BRANCH  11  12
ATOM     12  C   UNL     1      16.677  29.594  54.746  1.00  0.00    -0.000 C 
BRANCH  12  13
ATOM     13  C   UNL     1      17.336  30.630  55.670  1.00  0.00    -0.003 C 
ATOM     14  C   UNL     1      16.531  30.808  56.955  1.00  0.00     0.004 C 
ENDBRANCH  12  13
ENDBRANCH  11  12
ENDBRANCH  10  11
ENDBRANCH   9  10
ENDBRANCH   1   9
TORSDOF 10
ENDMDL
MODEL 8
REMARK VINA RESULT:    -3.783      3.500      5.116
REMARK INTER + INTRA:          -7.247
REMARK INTER:                  -6.460
REMARK INTRA:                  -0.787
REMARK UNBOUND:                -1.253
REMARK SMILES CCCCCCCCCCCC(=O)[O-]
REMARK SMILES IDX 7 1 8 2 9 3 10 4 11 5 12 6 13 7 14 8 6 9 5 10 4 11 3 12 2 13
REMARK SMILES IDX 1 14
REMARK H PARENT
REMARK Flexibility Score: inf
ROOT
ATOM      1  C   UNL     1      16.085  26.826  54.915  1.00  0.00     0.000 C 
ENDROOT
BRANCH   1   2
ATOM      2  C   UNL     1      16.554  28.282  54.771  1.00  0.00     0.000 C 
BRANCH   2   3
ATOM      3  C   UNL     1      15.911  29.217  55.807  1.00  0.00     0.000 C 
BRANCH   3   4
ATOM      4  C   UNL     1      16.346  30.683  55.632  1.00  0.00     0.006 C 
BRANCH   4   5
ATOM      5  C   UNL     1      16.584  31.380  56.978  1.00  0.00     0.053 C 
BRANCH   5   6
ATOM      6  C   UNL     1      15.620  32.507  57.198  1.00  0.00     0.041 C 
ATOM      7  O   UNL     1      16.040  33.637  57.560  1.00  0.00    -0.550 OA
ATOM      8  O   UNL     1      14.264  32.317  56.968  1.00  0.00    -0.550 OA
ENDBRANCH   5   6
ENDBRANCH   4   5
ENDBRANCH   3   4
ENDBRANCH   2   3
ENDBRANCH   1   2
BRANCH   1   9
ATOM      9  C   UNL     1      16.809  25.916  53.912  1.00  0.00     0.000 C 
BRANCH   9  10
ATOM     10  C   UNL     1      15.841  25.139  53.005  1.00  0.00    -0.000 C 
BRANCH  10  11
ATOM     11  C   UNL     1      15.764  25.725  51.584  1.00  0.00    -0.000 C 
BRANCH  11  12
ATOM     12  C   UNL     1      14.693  26.821  51.455  1.00  0.00    -0.000 C 
BRANCH  12  13
ATOM     13  C   UNL     1      15.228  28.096  50.786  1.00  0.00    -0.003 C 
ATOM     14  C   UNL     1      14.819  29.340  51.570  1.00  0.00     0.004 C 
ENDBRANCH  12  13
ENDBRANCH  11  12
ENDBRANCH  10  11
ENDBRANCH   9  10
ENDBRANCH   1   9
TORSDOF 10
ENDMDL
MODEL 9
REMARK VINA RESULT:    -3.772      3.026      4.694
REMARK INTER + INTRA:          -7.230
REMARK INTER:                  -6.063
REMARK INTRA:                  -1.167
REMARK UNBOUND:                -1.253
REMARK SMILES CCCCCCCCCCCC(=O)[O-]
REMARK SMILES IDX 7 1 8 2 9 3 10 4 11 5 12 6 13 7 14 8 6 9 5 10 4 11 3 12 2 13
REMARK SMILES IDX 1 14
REMARK H PARENT
REMARK Flexibility Score: inf
ROOT
ATOM      1  C   UNL     1      15.747  25.277  53.990  1.00  0.00     0.000 C 
ENDROOT
BRANCH   1   2
ATOM      2  C   UNL     1      16.541  26.564  54.262  1.00  0.00     0.000 C 
BRANCH   2   3
ATOM      3  C   UNL     1      15.754  27.577  55.108  1.00  0.00     0.000 C 
BRANCH   3   4
ATOM      4  C   UNL     1      16.367  28.988  55.065  1.00  0.00     0.006 C 
BRANCH   4   5
ATOM      5  C   UNL     1      15.756  29.916  56.124  1.00  0.00     0.053 C 
BRANCH   5   6
ATOM      6  C   UNL     1      16.683  31.039  56.479  1.00  0.00     0.041 C 
ATOM      7  O   UNL     1      17.867  31.042  56.052  1.00  0.00    -0.550 OA
ATOM      8  O   UNL     1      16.227  32.098  57.253  1.00  0.00    -0.550 OA
ENDBRANCH   5   6
ENDBRANCH   4   5
ENDBRANCH   3   4
ENDBRANCH   2   3
ENDBRANCH   1   2
BRANCH   1   9
ATOM      9  C   UNL     1      15.734  24.950  52.488  1.00  0.00     0.000 C 
BRANCH   9  10
ATOM     10  C   UNL     1      14.311  24.797  51.925  1.00  0.00    -0.000 C 
BRANCH  10  11
ATOM     11  C   UNL     1      13.656  26.151  51.598  1.00  0.00    -0.000 C 
BRANCH  11  12
ATOM     12  C   UNL     1      14.612  27.107  50.867  1.00  0.00    -0.000 C 
BRANCH  12  13
ATOM     13  C   UNL     1      14.731  28.472  51.561  1.00  0.00    -0.003 C 
ATOM     14  C   UNL     1      16.110  29.085  51.332  1.00  0.00     0.004 C 
ENDBRANCH  12  13
ENDBRANCH  11  12
ENDBRANCH  10  11
ENDBRANCH   9  10
ENDBRANCH   1   9
TORSDOF 10
ENDMDL
