MODEL 1
REMARK VINA RESULT:    -4.126      0.000      0.000
REMARK INTER + INTRA:          -6.384
REMARK INTER:                  -5.814
REMARK INTRA:                  -0.570
REMARK UNBOUND:                -0.570
REMARK SMILES CCCCCCCCC(=O)[O-]
REMARK SMILES IDX 6 1 7 2 8 3 9 4 10 5 11 6 5 7 4 8 3 9 2 10 1 11
REMARK H PARENT
REMARK Flexibility Score: inf
ROOT
ATOM      1  C   UNL     1      47.082   6.540 128.540  1.00  0.00     0.000 C 
ENDROOT
BRANCH   1   2
ATOM      2  C   UNL     1      46.992   5.103 129.084  1.00  0.00     0.006 C 
BRANCH   2   3
ATOM      3  C   UNL     1      47.270   4.979 130.591  1.00  0.00     0.053 C 
BRANCH   3   4
ATOM      4  C   UNL     1      46.143   4.313 131.319  1.00  0.00     0.041 C 
ATOM      5  O   UNL     1      44.952   4.516 130.964  1.00  0.00    -0.550 OA
ATOM      6  O   UNL     1      46.411   3.440 132.367  1.00  0.00    -0.550 OA
ENDBRANCH   3   4
ENDBRANCH   2   3
ENDBRANCH   1   2
BRANCH   1   7
ATOM      7  C   UNL     1      45.986   7.458 129.102  1.00  0.00     0.000 C 
BRANCH   7   8
ATOM      8  C   UNL     1      44.757   7.471 128.185  1.00  0.00    -0.000 C 
BRANCH   8   9
ATOM      9  C   UNL     1      43.501   7.024 128.941  1.00  0.00    -0.000 C 
BRANCH   9  10
ATOM     10  C   UNL     1      42.517   6.318 128.001  1.00  0.00    -0.003 C 
ATOM     11  C   UNL     1      43.254   5.526 126.925  1.00  0.00     0.004 C 
ENDBRANCH   9  10
ENDBRANCH   8   9
ENDBRANCH   7   8
ENDBRANCH   1   7
TORSDOF 7
ENDMDL
MODEL 2
REMARK VINA RESULT:    -4.104      1.335      1.822
REMARK INTER + INTRA:          -6.353
REMARK INTER:                  -5.951
REMARK INTRA:                  -0.403
REMARK UNBOUND:                -0.570
REMARK SMILES CCCCCCCCC(=O)[O-]
REMARK SMILES IDX 6 1 7 2 8 3 9 4 10 5 11 6 5 7 4 8 3 9 2 10 1 11
REMARK H PARENT
REMARK Flexibility Score: inf
ROOT
ATOM      1  C   UNL     1      47.002   5.237 128.907  1.00  0.00     0.000 C 
ENDROOT
BRANCH   1   2
ATOM      2  C   UNL     1      46.173   5.015 130.186  1.00  0.00     0.006 C 
BRANCH   2   3
ATOM      3  C   UNL     1      46.985   4.492 131.382  1.00  0.00     0.053 C 
BRANCH   3   4
ATOM      4  C   UNL     1      46.132   3.733 132.352  1.00  0.00     0.041 C 
ATOM      5  O   UNL     1      44.939   4.080 132.554  1.00  0.00    -0.550 OA
ATOM      6  O   UNL     1      46.646   2.620 133.006  1.00  0.00    -0.550 OA
ENDBRANCH   3   4
ENDBRANCH   2   3
ENDBRANCH   1   2
BRANCH   1   7
ATOM      7  C   UNL     1      46.133   5.330 127.644  1.00  0.00     0.000 C 
BRANCH   7   8
ATOM      8  C   UNL     1      44.708   4.836 127.921  1.00  0.00    -0.000 C 
BRANCH   8   9
ATOM      9  C   UNL     1      43.752   5.252 126.797  1.00  0.00    -0.000 C 
BRANCH   9  10
ATOM     10  C   UNL     1      42.502   5.934 127.363  1.00  0.00    -0.003 C 
ATOM     11  C   UNL     1      42.819   6.681 128.656  1.00  0.00     0.004 C 
ENDBRANCH   9  10
ENDBRANCH   8   9
ENDBRANCH   7   8
ENDBRANCH   1   7
TORSDOF 7
ENDMDL
MODEL 3
REMARK VINA RESULT:    -4.073      0.902      1.106
REMARK INTER + INTRA:          -6.310
REMARK INTER:                  -5.756
REMARK INTRA:                  -0.554
REMARK UNBOUND:                -0.570
REMARK SMILES CCCCCCCCC(=O)[O-]
REMARK SMILES IDX 6 1 7 2 8 3 9 4 10 5 11 6 5 7 4 8 3 9 2 10 1 11
REMARK H PARENT
REMARK Flexibility Score: inf
ROOT
ATOM      1  C   UNL     1      46.632   5.731 128.925  1.00  0.00     0.000 C 
ENDROOT
BRANCH   1   2
ATOM      2  C   UNL     1      46.893   5.087 130.299  1.00  0.00     0.006 C 
BRANCH   2   3
ATOM      3  C   UNL     1      45.639   4.507 130.974  1.00  0.00     0.053 C 
BRANCH   3   4
ATOM      4  C   UNL     1      45.951   3.881 132.298  1.00  0.00     0.041 C 
ATOM      5  O   UNL     1      45.248   4.150 133.308  1.00  0.00    -0.550 OA
ATOM      6  O   UNL     1      46.998   2.974 132.409  1.00  0.00    -0.550 OA
ENDBRANCH   3   4
ENDBRANCH   2   3
ENDBRANCH   1   2
BRANCH   1   7
ATOM      7  C   UNL     1      46.204   7.203 129.030  1.00  0.00     0.000 C 
BRANCH   7   8
ATOM      8  C   UNL     1      44.902   7.452 128.259  1.00  0.00    -0.000 C 
BRANCH   8   9
ATOM      9  C   UNL     1      43.678   7.173 129.138  1.00  0.00    -0.000 C 
BRANCH   9  10
ATOM     10  C   UNL     1      42.571   6.480 128.336  1.00  0.00    -0.003 C 
ATOM     11  C   UNL     1      43.150   5.699 127.159  1.00  0.00     0.004 C 
ENDBRANCH   9  10
ENDBRANCH   8   9
ENDBRANCH   7   8
ENDBRANCH   1   7
TORSDOF 7
ENDMDL
MODEL 4
REMARK VINA RESULT:    -3.989      2.240      4.775
REMARK INTER + INTRA:          -6.192
REMARK INTER:                  -5.829
REMARK INTRA:                  -0.363
REMARK UNBOUND:                -0.570
REMARK SMILES CCCCCCCCC(=O)[O-]
REMARK SMILES IDX 6 1 7 2 8 3 9 4 10 5 11 6 5 7 4 8 3 9 2 10 1 11
REMARK H PARENT
REMARK Flexibility Score: inf
ROOT
ATOM      1  C   UNL     1      46.606   5.426 127.959  1.00  0.00     0.000 C 
ENDROOT
BRANCH   1   2
ATOM      2  C   UNL     1      45.272   4.657 127.924  1.00  0.00     0.006 C 
BRANCH   2   3
ATOM      3  C   UNL     1      44.196   5.298 127.033  1.00  0.00     0.053 C 
BRANCH   3   4
ATOM      4  C   UNL     1      43.169   6.038 127.835  1.00  0.00     0.041 C 
ATOM      5  O   UNL     1      42.019   6.238 127.362  1.00  0.00    -0.550 OA
ATOM      6  O   UNL     1      43.472   6.477 129.118  1.00  0.00    -0.550 OA
ENDBRANCH   3   4
ENDBRANCH   2   3
ENDBRANCH   1   2
BRANCH   1   7
ATOM      7  C   UNL     1      47.144   5.618 129.385  1.00  0.00     0.000 C 
BRANCH   7   8
ATOM      8  C   UNL     1      46.307   4.828 130.399  1.00  0.00    -0.000 C 
BRANCH   8   9
ATOM      9  C   UNL     1      47.123   4.506 131.656  1.00  0.00    -0.000 C 
BRANCH   9  10
ATOM     10  C   UNL     1      46.416   3.450 132.513  1.00  0.00    -0.003 C 
ATOM     11  C   UNL     1      45.829   4.070 133.778  1.00  0.00     0.004 C 
ENDBRANCH   9  10
ENDBRANCH   8   9
ENDBRANCH   7   8
ENDBRANCH   1   7
TORSDOF 7
ENDMDL
MODEL 5
REMARK VINA RESULT:    -3.976      2.071      4.645
REMARK INTER + INTRA:          -6.173
REMARK INTER:                  -5.657
REMARK INTRA:                  -0.517
REMARK UNBOUND:                -0.570
REMARK SMILES CCCCCCCCC(=O)[O-]
REMARK SMILES IDX 6 1 7 2 8 3 9 4 10 5 11 6 5 7 4 8 3 9 2 10 1 11
REMARK H PARENT
REMARK Flexibility Score: inf
ROOT
ATOM      1  C   UNL     1      46.260   7.288 129.215  1.00  0.00     0.000 C 
ENDROOT
BRANCH   1   2
ATOM      2  C   UNL     1      45.082   7.541 128.255  1.00  0.00     0.006 C 
BRANCH   2   3
ATOM      3  C   UNL     1      43.829   6.703 128.557  1.00  0.00     0.053 C 
BRANCH   3   4
ATOM      4  C   UNL     1      43.635   5.602 127.560  1.00  0.00     0.041 C 
ATOM      5  O   UNL     1      44.467   4.660 127.485  1.00  0.00    -0.550 OA
ATOM      6  O   UNL     1      42.515   5.599 126.736  1.00  0.00    -0.550 OA
ENDBRANCH   3   4
ENDBRANCH   2   3
ENDBRANCH   1   2
BRANCH   1   7
ATOM      7  C   UNL     1      47.351   6.401 128.596  1.00  0.00     0.000 C 
BRANCH   7   8
ATOM      8  C   UNL     1      47.782   5.300 129.572  1.00  0.00    -0.000 C 
BRANCH   8   9
ATOM      9  C   UNL     1      46.623   4.888 130.486  1.00  0.00    -0.000 C 
BRANCH   9  10
ATOM     10  C   UNL     1      47.133   4.112 131.705  1.00  0.00    -0.003 C 
ATOM     11  C   UNL     1      46.087   4.081 132.816  1.00  0.00     0.004 C 
ENDBRANCH   9  10
ENDBRANCH   8   9
ENDBRANCH   7   8
ENDBRANCH   1   7
TORSDOF 7
ENDMDL
MODEL 6
REMARK VINA RESULT:    -3.924      2.542      5.217
REMARK INTER + INTRA:          -6.100
REMARK INTER:                  -5.837
REMARK INTRA:                  -0.263
REMARK UNBOUND:                -0.570
REMARK SMILES CCCCCCCCC(=O)[O-]
REMARK SMILES IDX 6 1 7 2 8 3 9 4 10 5 11 6 5 7 4 8 3 9 2 10 1 11
REMARK H PARENT
REMARK Flexibility Score: inf
ROOT
ATOM      1  C   UNL     1      47.061   5.183 129.282  1.00  0.00     0.000 C 
ENDROOT
BRANCH   1   2
ATOM      2  C   UNL     1      46.283   5.262 127.955  1.00  0.00     0.006 C 
BRANCH   2   3
ATOM      3  C   UNL     1      44.795   4.893 128.073  1.00  0.00     0.053 C 
BRANCH   3   4
ATOM      4  C   UNL     1      43.903   6.080 127.876  1.00  0.00     0.041 C 
ATOM      5  O   UNL     1      44.299   7.231 128.197  1.00  0.00    -0.550 OA
ATOM      6  O   UNL     1      42.646   5.919 127.305  1.00  0.00    -0.550 OA
ENDBRANCH   3   4
ENDBRANCH   2   3
ENDBRANCH   1   2
BRANCH   1   7
ATOM      7  C   UNL     1      46.165   4.820 130.476  1.00  0.00     0.000 C 
BRANCH   7   8
ATOM      8  C   UNL     1      47.009   4.486 131.713  1.00  0.00    -0.000 C 
BRANCH   8   9
ATOM      9  C   UNL     1      46.330   3.412 132.569  1.00  0.00    -0.000 C 
BRANCH   9  10
ATOM     10  C   UNL     1      45.845   3.996 133.901  1.00  0.00    -0.003 C 
ATOM     11  C   UNL     1      46.115   3.035 135.055  1.00  0.00     0.004 C 
ENDBRANCH   9  10
ENDBRANCH   8   9
ENDBRANCH   7   8
ENDBRANCH   1   7
TORSDOF 7
ENDMDL
MODEL 7
REMARK VINA RESULT:    -3.904      2.420      5.240
REMARK INTER + INTRA:          -6.071
REMARK INTER:                  -5.779
REMARK INTRA:                  -0.292
REMARK UNBOUND:                -0.570
REMARK SMILES CCCCCCCCC(=O)[O-]
REMARK SMILES IDX 6 1 7 2 8 3 9 4 10 5 11 6 5 7 4 8 3 9 2 10 1 11
REMARK H PARENT
REMARK Flexibility Score: inf
ROOT
ATOM      1  C   UNL     1      47.691   5.053 130.101  1.00  0.00     0.000 C 
ENDROOT
BRANCH   1   2
ATOM      2  C   UNL     1      46.975   5.759 128.935  1.00  0.00     0.006 C 
BRANCH   2   3
ATOM      3  C   UNL     1      46.267   4.806 127.959  1.00  0.00     0.053 C 
BRANCH   3   4
ATOM      4  C   UNL     1      44.793   5.066 127.887  1.00  0.00     0.041 C 
ATOM      5  O   UNL     1      44.135   4.709 126.876  1.00  0.00    -0.550 OA
ATOM      6  O   UNL     1      44.142   5.674 128.954  1.00  0.00    -0.550 OA
ENDBRANCH   3   4
ENDBRANCH   2   3
ENDBRANCH   1   2
BRANCH   1   7
ATOM      7  C   UNL     1      46.720   4.561 131.184  1.00  0.00     0.000 C 
BRANCH   7   8
ATOM      8  C   UNL     1      47.356   3.447 132.026  1.00  0.00    -0.000 C 
BRANCH   8   9
ATOM      9  C   UNL     1      46.307   2.747 132.897  1.00  0.00    -0.000 C 
BRANCH   9  10
ATOM     10  C   UNL     1      45.882   3.640 134.069  1.00  0.00    -0.003 C 
ATOM     11  C   UNL     1      46.203   2.982 135.408  1.00  0.00     0.004 C 
ENDBRANCH   9  10
ENDBRANCH   8   9
ENDBRANCH   7   8
ENDBRANCH   1   7
TORSDOF 7
ENDMDL
MODEL 8
REMARK VINA RESULT:    -3.899      2.817      5.046
REMARK INTER + INTRA:          -6.064
REMARK INTER:                  -5.607
REMARK INTRA:                  -0.457
REMARK UNBOUND:                -0.570
REMARK SMILES CCCCCCCCC(=O)[O-]
REMARK SMILES IDX 6 1 7 2 8 3 9 4 10 5 11 6 5 7 4 8 3 9 2 10 1 11
REMARK H PARENT
REMARK Flexibility Score: inf
ROOT
ATOM      1  C   UNL     1      46.945   4.125 131.851  1.00  0.00     0.000 C 
ENDROOT
BRANCH   1   2
ATOM      2  C   UNL     1      46.652   4.884 130.543  1.00  0.00     0.006 C 
BRANCH   2   3
ATOM      3  C   UNL     1      45.179   4.846 130.106  1.00  0.00     0.053 C 
BRANCH   3   4
ATOM      4  C   UNL     1      45.028   4.996 128.624  1.00  0.00     0.041 C 
ATOM      5  O   UNL     1      44.004   5.551 128.144  1.00  0.00    -0.550 OA
ATOM      6  O   UNL     1      46.034   4.554 127.774  1.00  0.00    -0.550 OA
ENDBRANCH   3   4
ENDBRANCH   2   3
ENDBRANCH   1   2
BRANCH   1   7
ATOM      7  C   UNL     1      45.732   4.073 132.792  1.00  0.00     0.000 C 
BRANCH   7   8
ATOM      8  C   UNL     1      45.706   2.759 133.583  1.00  0.00    -0.000 C 
BRANCH   8   9
ATOM      9  C   UNL     1      45.205   1.602 132.712  1.00  0.00    -0.000 C 
BRANCH   9  10
ATOM     10  C   UNL     1      43.725   1.783 132.356  1.00  0.00    -0.003 C 
ATOM     11  C   UNL     1      43.110   0.473 131.872  1.00  0.00     0.004 C 
ENDBRANCH   9  10
ENDBRANCH   8   9
ENDBRANCH   7   8
ENDBRANCH   1   7
TORSDOF 7
ENDMDL
MODEL 9
REMARK VINA RESULT:    -3.896      2.408      5.162
REMARK INTER + INTRA:          -6.060
REMARK INTER:                  -5.728
REMARK INTRA:                  -0.332
REMARK UNBOUND:                -0.570
REMARK SMILES CCCCCCCCC(=O)[O-]
REMARK SMILES IDX 6 1 7 2 8 3 9 4 10 5 11 6 5 7 4 8 3 9 2 10 1 11
REMARK H PARENT
REMARK Flexibility Score: inf
ROOT
ATOM      1  C   UNL     1      46.624   5.048 130.261  1.00  0.00     0.000 C 
ENDROOT
BRANCH   1   2
ATOM      2  C   UNL     1      47.153   6.093 129.261  1.00  0.00     0.006 C 
BRANCH   2   3
ATOM      3  C   UNL     1      46.264   7.339 129.119  1.00  0.00     0.053 C 
BRANCH   3   4
ATOM      4  C   UNL     1      44.882   6.994 128.654  1.00  0.00     0.041 C 
ATOM      5  O   UNL     1      43.880   7.348 129.329  1.00  0.00    -0.550 OA
ATOM      6  O   UNL     1      44.702   6.310 127.458  1.00  0.00    -0.550 OA
ENDBRANCH   3   4
ENDBRANCH   2   3
ENDBRANCH   1   2
BRANCH   1   7
ATOM      7  C   UNL     1      47.728   4.477 131.164  1.00  0.00     0.000 C 
BRANCH   7   8
ATOM      8  C   UNL     1      47.183   3.351 132.052  1.00  0.00    -0.000 C 
BRANCH   8   9
ATOM      9  C   UNL     1      45.788   3.695 132.584  1.00  0.00    -0.000 C 
BRANCH   9  10
ATOM     10  C   UNL     1      45.861   4.206 134.027  1.00  0.00    -0.003 C 
ATOM     11  C   UNL     1      46.075   3.058 135.009  1.00  0.00     0.004 C 
ENDBRANCH   9  10
ENDBRANCH   8   9
ENDBRANCH   7   8
ENDBRANCH   1   7
TORSDOF 7
ENDMDL
