MODEL 1
REMARK VINA RESULT:    -3.598      0.000      0.000
REMARK INTER + INTRA:          -8.944
REMARK INTER:                  -6.542
REMARK INTRA:                  -2.402
REMARK UNBOUND:                -2.402
REMARK SMILES CCCCCCCCCCCCCCCC(=O)[O-]
REMARK SMILES IDX 9 1 10 2 11 3 12 4 13 5 14 6 15 7 16 8 17 9 18 10 8 11 7 12
REMARK SMILES IDX 6 13 5 14 4 15 3 16 2 17 1 18
REMARK H PARENT
REMARK Flexibility Score: inf
ROOT
ATOM      1  C   UNL     1      22.851  15.181 -17.304  1.00  0.00     0.000 C 
ENDROOT
BRANCH   1   2
ATOM      2  C   UNL     1      21.667  15.085 -16.325  1.00  0.00     0.000 C 
BRANCH   2   3
ATOM      3  C   UNL     1      20.683  16.272 -16.369  1.00  0.00     0.000 C 
BRANCH   3   4
ATOM      4  C   UNL     1      20.801  17.177 -17.612  1.00  0.00     0.000 C 
BRANCH   4   5
ATOM      5  C   UNL     1      19.836  16.833 -18.760  1.00  0.00     0.000 C 
BRANCH   5   6
ATOM      6  C   UNL     1      20.489  16.950 -20.144  1.00  0.00     0.006 C 
BRANCH   6   7
ATOM      7  C   UNL     1      19.443  16.814 -21.256  1.00  0.00     0.053 C 
BRANCH   7   8
ATOM      8  C   UNL     1      18.945  18.162 -21.674  1.00  0.00     0.041 C 
ATOM      9  O   UNL     1      17.914  18.649 -21.141  1.00  0.00    -0.550 OA
ATOM     10  O   UNL     1      19.593  18.860 -22.685  1.00  0.00    -0.550 OA
ENDBRANCH   7   8
ENDBRANCH   6   7
ENDBRANCH   5   6
ENDBRANCH   4   5
ENDBRANCH   3   4
ENDBRANCH   2   3
ENDBRANCH   1   2
BRANCH   1  11
ATOM     11  C   UNL     1      22.836  14.072 -18.370  1.00  0.00     0.000 C 
BRANCH  11  12
ATOM     12  C   UNL     1      21.532  13.254 -18.361  1.00  0.00    -0.000 C 
BRANCH  12  13
ATOM     13  C   UNL     1      20.832  13.140 -19.730  1.00  0.00    -0.000 C 
BRANCH  13  14
ATOM     14  C   UNL     1      19.315  13.377 -19.643  1.00  0.00    -0.000 C 
BRANCH  14  15
ATOM     15  C   UNL     1      18.805  13.452 -18.194  1.00  0.00    -0.000 C 
BRANCH  15  16
ATOM     16  C   UNL     1      17.809  12.332 -17.827  1.00  0.00    -0.000 C 
BRANCH  16  17
ATOM     17  C   UNL     1      18.059  11.771 -16.420  1.00  0.00    -0.003 C 
ATOM     18  C   UNL     1      19.120  12.582 -15.683  1.00  0.00     0.004 C 
ENDBRANCH  16  17
ENDBRANCH  15  16
ENDBRANCH  14  15
ENDBRANCH  13  14
ENDBRANCH  12  13
ENDBRANCH  11  12
ENDBRANCH   1  11
TORSDOF 14
ENDMDL
MODEL 2
REMARK VINA RESULT:    -3.593      3.641      6.143
REMARK INTER + INTRA:          -8.936
REMARK INTER:                  -6.471
REMARK INTRA:                  -2.466
REMARK UNBOUND:                -2.402
REMARK SMILES CCCCCCCCCCCCCCCC(=O)[O-]
REMARK SMILES IDX 9 1 10 2 11 3 12 4 13 5 14 6 15 7 16 8 17 9 18 10 8 11 7 12
REMARK SMILES IDX 6 13 5 14 4 15 3 16 2 17 1 18
REMARK H PARENT
REMARK Flexibility Score: inf
ROOT
ATOM      1  C   UNL     1      20.162  16.309 -19.593  1.00  0.00     0.000 C 
ENDROOT
BRANCH   1   2
ATOM      2  C   UNL     1      19.577  15.061 -20.279  1.00  0.00     0.000 C 
BRANCH   2   3
ATOM      3  C   UNL     1      19.797  13.735 -19.524  1.00  0.00     0.000 C 
BRANCH   3   4
ATOM      4  C   UNL     1      18.511  13.029 -19.050  1.00  0.00     0.000 C 
BRANCH   4   5
ATOM      5  C   UNL     1      18.154  13.253 -17.570  1.00  0.00     0.000 C 
BRANCH   5   6
ATOM      6  C   UNL     1      18.029  11.942 -16.781  1.00  0.00     0.006 C 
BRANCH   6   7
ATOM      7  C   UNL     1      19.410  11.382 -16.426  1.00  0.00     0.053 C 
BRANCH   7   8
ATOM      8  C   UNL     1      19.582  10.010 -16.996  1.00  0.00     0.041 C 
ATOM      9  O   UNL     1      20.081   9.858 -18.142  1.00  0.00    -0.550 OA
ATOM     10  O   UNL     1      19.148   8.900 -16.281  1.00  0.00    -0.550 OA
ENDBRANCH   7   8
ENDBRANCH   6   7
ENDBRANCH   5   6
ENDBRANCH   4   5
ENDBRANCH   3   4
ENDBRANCH   2   3
ENDBRANCH   1   2
BRANCH   1  11
ATOM     11  C   UNL     1      19.541  16.577 -18.211  1.00  0.00     0.000 C 
BRANCH  11  12
ATOM     12  C   UNL     1      20.599  16.756 -17.107  1.00  0.00    -0.000 C 
BRANCH  12  13
ATOM     13  C   UNL     1      20.592  15.662 -16.022  1.00  0.00    -0.000 C 
BRANCH  13  14
ATOM     14  C   UNL     1      21.508  14.475 -16.369  1.00  0.00    -0.000 C 
BRANCH  14  15
ATOM     15  C   UNL     1      22.728  14.890 -17.210  1.00  0.00    -0.000 C 
BRANCH  15  16
ATOM     16  C   UNL     1      23.263  13.767 -18.124  1.00  0.00    -0.000 C 
BRANCH  16  17
ATOM     17  C   UNL     1      22.714  12.388 -17.730  1.00  0.00    -0.003 C 
ATOM     18  C   UNL     1      23.637  11.270 -18.207  1.00  0.00     0.004 C 
ENDBRANCH  16  17
ENDBRANCH  15  16
ENDBRANCH  14  15
ENDBRANCH  13  14
ENDBRANCH  12  13
ENDBRANCH  11  12
ENDBRANCH   1  11
TORSDOF 14
ENDMDL
MODEL 3
REMARK VINA RESULT:    -3.542      3.924      6.125
REMARK INTER + INTRA:          -8.844
REMARK INTER:                  -6.392
REMARK INTRA:                  -2.452
REMARK UNBOUND:                -2.402
REMARK SMILES CCCCCCCCCCCCCCCC(=O)[O-]
REMARK SMILES IDX 9 1 10 2 11 3 12 4 13 5 14 6 15 7 16 8 17 9 18 10 8 11 7 12
REMARK SMILES IDX 6 13 5 14 4 15 3 16 2 17 1 18
REMARK H PARENT
REMARK Flexibility Score: inf
ROOT
ATOM      1  C   UNL     1      21.841  12.998 -17.112  1.00  0.00     0.000 C 
ENDROOT
BRANCH   1   2
ATOM      2  C   UNL     1      21.319  14.160 -16.248  1.00  0.00     0.000 C 
BRANCH   2   3
ATOM      3  C   UNL     1      19.877  13.993 -15.727  1.00  0.00     0.000 C 
BRANCH   3   4
ATOM      4  C   UNL     1      19.363  12.540 -15.674  1.00  0.00     0.000 C 
BRANCH   4   5
ATOM      5  C   UNL     1      18.186  12.233 -16.617  1.00  0.00     0.000 C 
BRANCH   5   6
ATOM      6  C   UNL     1      18.397  10.952 -17.437  1.00  0.00     0.006 C 
BRANCH   6   7
ATOM      7  C   UNL     1      19.294   9.962 -16.685  1.00  0.00     0.053 C 
BRANCH   7   8
ATOM      8  C   UNL     1      19.647   8.803 -17.563  1.00  0.00     0.041 C 
ATOM      9  O   UNL     1      20.759   8.229 -17.436  1.00  0.00    -0.550 OA
ATOM     10  O   UNL     1      18.765   8.386 -18.552  1.00  0.00    -0.550 OA
ENDBRANCH   7   8
ENDBRANCH   6   7
ENDBRANCH   5   6
ENDBRANCH   4   5
ENDBRANCH   3   4
ENDBRANCH   2   3
ENDBRANCH   1   2
BRANCH   1  11
ATOM     11  C   UNL     1      21.984  13.375 -18.597  1.00  0.00     0.000 C 
BRANCH  11  12
ATOM     12  C   UNL     1      20.761  12.963 -19.437  1.00  0.00    -0.000 C 
BRANCH  12  13
ATOM     13  C   UNL     1      19.621  14.000 -19.470  1.00  0.00    -0.000 C 
BRANCH  13  14
ATOM     14  C   UNL     1      19.785  15.027 -20.603  1.00  0.00    -0.000 C 
BRANCH  14  15
ATOM     15  C   UNL     1      20.059  16.449 -20.083  1.00  0.00    -0.000 C 
BRANCH  15  16
ATOM     16  C   UNL     1      19.934  16.585 -18.551  1.00  0.00    -0.000 C 
BRANCH  16  17
ATOM     17  C   UNL     1      21.118  17.348 -17.938  1.00  0.00    -0.003 C 
ATOM     18  C   UNL     1      22.432  16.958 -18.607  1.00  0.00     0.004 C 
ENDBRANCH  16  17
ENDBRANCH  15  16
ENDBRANCH  14  15
ENDBRANCH  13  14
ENDBRANCH  12  13
ENDBRANCH  11  12
ENDBRANCH   1  11
TORSDOF 14
ENDMDL
MODEL 4
REMARK VINA RESULT:    -3.490      4.206      6.256
REMARK INTER + INTRA:          -8.749
REMARK INTER:                  -6.218
REMARK INTRA:                  -2.531
REMARK UNBOUND:                -2.402
REMARK SMILES CCCCCCCCCCCCCCCC(=O)[O-]
REMARK SMILES IDX 9 1 10 2 11 3 12 4 13 5 14 6 15 7 16 8 17 9 18 10 8 11 7 12
REMARK SMILES IDX 6 13 5 14 4 15 3 16 2 17 1 18
REMARK H PARENT
REMARK Flexibility Score: inf
ROOT
ATOM      1  C   UNL     1      21.299  14.763 -16.139  1.00  0.00     0.000 C 
ENDROOT
BRANCH   1   2
ATOM      2  C   UNL     1      19.915  14.424 -15.555  1.00  0.00     0.000 C 
BRANCH   2   3
ATOM      3  C   UNL     1      19.352  13.047 -15.963  1.00  0.00     0.000 C 
BRANCH   3   4
ATOM      4  C   UNL     1      18.343  13.071 -17.129  1.00  0.00     0.000 C 
BRANCH   4   5
ATOM      5  C   UNL     1      18.048  11.699 -17.761  1.00  0.00     0.000 C 
BRANCH   5   6
ATOM      6  C   UNL     1      18.752  10.544 -17.035  1.00  0.00     0.006 C 
BRANCH   6   7
ATOM      7  C   UNL     1      19.201   9.466 -18.027  1.00  0.00     0.053 C 
BRANCH   7   8
ATOM      8  C   UNL     1      20.259   8.601 -17.418  1.00  0.00     0.041 C 
ATOM      9  O   UNL     1      21.381   8.487 -17.976  1.00  0.00    -0.550 OA
ATOM     10  O   UNL     1      19.990   7.885 -16.258  1.00  0.00    -0.550 OA
ENDBRANCH   7   8
ENDBRANCH   6   7
ENDBRANCH   5   6
ENDBRANCH   4   5
ENDBRANCH   3   4
ENDBRANCH   2   3
ENDBRANCH   1   2
BRANCH   1  11
ATOM     11  C   UNL     1      21.323  16.115 -16.872  1.00  0.00     0.000 C 
BRANCH  11  12
ATOM     12  C   UNL     1      19.966  16.474 -17.505  1.00  0.00    -0.000 C 
BRANCH  12  13
ATOM     13  C   UNL     1      19.964  16.520 -19.045  1.00  0.00    -0.000 C 
BRANCH  13  14
ATOM     14  C   UNL     1      20.071  15.124 -19.682  1.00  0.00    -0.000 C 
BRANCH  14  15
ATOM     15  C   UNL     1      21.402  14.907 -20.422  1.00  0.00    -0.000 C 
BRANCH  15  16
ATOM     16  C   UNL     1      22.253  13.756 -19.844  1.00  0.00    -0.000 C 
BRANCH  16  17
ATOM     17  C   UNL     1      21.387  12.646 -19.232  1.00  0.00    -0.003 C 
ATOM     18  C   UNL     1      22.152  11.879 -18.157  1.00  0.00     0.004 C 
ENDBRANCH  16  17
ENDBRANCH  15  16
ENDBRANCH  14  15
ENDBRANCH  13  14
ENDBRANCH  12  13
ENDBRANCH  11  12
ENDBRANCH   1  11
TORSDOF 14
ENDMDL
MODEL 5
REMARK VINA RESULT:    -3.473      3.327      6.073
REMARK INTER + INTRA:          -8.718
REMARK INTER:                  -6.573
REMARK INTRA:                  -2.145
REMARK UNBOUND:                -2.402
REMARK SMILES CCCCCCCCCCCCCCCC(=O)[O-]
REMARK SMILES IDX 9 1 10 2 11 3 12 4 13 5 14 6 15 7 16 8 17 9 18 10 8 11 7 12
REMARK SMILES IDX 6 13 5 14 4 15 3 16 2 17 1 18
REMARK H PARENT
REMARK Flexibility Score: inf
ROOT
ATOM      1  C   UNL     1      22.836  13.681 -17.886  1.00  0.00     0.000 C 
ENDROOT
BRANCH   1   2
ATOM      2  C   UNL     1      21.476  12.963 -17.830  1.00  0.00     0.000 C 
BRANCH   2   3
ATOM      3  C   UNL     1      20.557  13.204 -19.045  1.00  0.00     0.000 C 
BRANCH   3   4
ATOM      4  C   UNL     1      19.082  13.498 -18.705  1.00  0.00     0.000 C 
BRANCH   4   5
ATOM      5  C   UNL     1      18.692  13.250 -17.237  1.00  0.00     0.000 C 
BRANCH   5   6
ATOM      6  C   UNL     1      17.873  11.966 -17.046  1.00  0.00     0.006 C 
BRANCH   6   7
ATOM      7  C   UNL     1      18.770  10.807 -16.598  1.00  0.00     0.053 C 
BRANCH   7   8
ATOM      8  C   UNL     1      19.132   9.943 -17.764  1.00  0.00     0.041 C 
ATOM      9  O   UNL     1      20.195   9.269 -17.747  1.00  0.00    -0.550 OA
ATOM     10  O   UNL     1      18.319   9.918 -18.891  1.00  0.00    -0.550 OA
ENDBRANCH   7   8
ENDBRANCH   6   7
ENDBRANCH   5   6
ENDBRANCH   4   5
ENDBRANCH   3   4
ENDBRANCH   2   3
ENDBRANCH   1   2
BRANCH   1  11
ATOM     11  C   UNL     1      22.772  15.125 -17.358  1.00  0.00     0.000 C 
BRANCH  11  12
ATOM     12  C   UNL     1      21.666  15.326 -16.306  1.00  0.00    -0.000 C 
BRANCH  12  13
ATOM     13  C   UNL     1      20.650  16.435 -16.641  1.00  0.00    -0.000 C 
BRANCH  13  14
ATOM     14  C   UNL     1      20.963  17.146 -17.969  1.00  0.00    -0.000 C 
BRANCH  14  15
ATOM     15  C   UNL     1      19.885  16.910 -19.040  1.00  0.00    -0.000 C 
BRANCH  15  16
ATOM     16  C   UNL     1      20.447  16.793 -20.472  1.00  0.00    -0.000 C 
BRANCH  16  17
ATOM     17  C   UNL     1      19.741  17.741 -21.452  1.00  0.00    -0.003 C 
ATOM     18  C   UNL     1      18.268  17.910 -21.092  1.00  0.00     0.004 C 
ENDBRANCH  16  17
ENDBRANCH  15  16
ENDBRANCH  14  15
ENDBRANCH  13  14
ENDBRANCH  12  13
ENDBRANCH  11  12
ENDBRANCH   1  11
TORSDOF 14
ENDMDL
MODEL 6
REMARK VINA RESULT:    -3.462      3.606      6.154
REMARK INTER + INTRA:          -8.698
REMARK INTER:                  -6.133
REMARK INTRA:                  -2.566
REMARK UNBOUND:                -2.402
REMARK SMILES CCCCCCCCCCCCCCCC(=O)[O-]
REMARK SMILES IDX 9 1 10 2 11 3 12 4 13 5 14 6 15 7 16 8 17 9 18 10 8 11 7 12
REMARK SMILES IDX 6 13 5 14 4 15 3 16 2 17 1 18
REMARK H PARENT
REMARK Flexibility Score: inf
ROOT
ATOM      1  C   UNL     1      19.877  12.598 -19.747  1.00  0.00     0.000 C 
ENDROOT
BRANCH   1   2
ATOM      2  C   UNL     1      18.376  12.647 -20.083  1.00  0.00     0.000 C 
BRANCH   2   3
ATOM      3  C   UNL     1      17.429  12.496 -18.876  1.00  0.00     0.000 C 
BRANCH   3   4
ATOM      4  C   UNL     1      18.010  12.958 -17.524  1.00  0.00     0.000 C 
BRANCH   4   5
ATOM      5  C   UNL     1      18.056  11.874 -16.433  1.00  0.00     0.000 C 
BRANCH   5   6
ATOM      6  C   UNL     1      19.376  11.091 -16.426  1.00  0.00     0.006 C 
BRANCH   6   7
ATOM      7  C   UNL     1      19.135   9.610 -16.736  1.00  0.00     0.053 C 
BRANCH   7   8
ATOM      8  C   UNL     1      19.615   9.278 -18.114  1.00  0.00     0.041 C 
ATOM      9  O   UNL     1      20.848   9.175 -18.347  1.00  0.00    -0.550 OA
ATOM     10  O   UNL     1      18.703   9.128 -19.151  1.00  0.00    -0.550 OA
ENDBRANCH   7   8
ENDBRANCH   6   7
ENDBRANCH   5   6
ENDBRANCH   4   5
ENDBRANCH   3   4
ENDBRANCH   2   3
ENDBRANCH   1   2
BRANCH   1  11
ATOM     11  C   UNL     1      20.602  13.920 -20.055  1.00  0.00     0.000 C 
BRANCH  11  12
ATOM     12  C   UNL     1      19.641  15.119 -20.150  1.00  0.00    -0.000 C 
BRANCH  12  13
ATOM     13  C   UNL     1      20.133  16.398 -19.444  1.00  0.00    -0.000 C 
BRANCH  13  14
ATOM     14  C   UNL     1      19.601  16.526 -18.006  1.00  0.00    -0.000 C 
BRANCH  14  15
ATOM     15  C   UNL     1      20.702  16.351 -16.946  1.00  0.00    -0.000 C 
BRANCH  15  16
ATOM     16  C   UNL     1      20.566  15.055 -16.118  1.00  0.00    -0.000 C 
BRANCH  16  17
ATOM     17  C   UNL     1      21.633  14.015 -16.490  1.00  0.00    -0.003 C 
ATOM     18  C   UNL     1      22.777  14.653 -17.271  1.00  0.00     0.004 C 
ENDBRANCH  16  17
ENDBRANCH  15  16
ENDBRANCH  14  15
ENDBRANCH  13  14
ENDBRANCH  12  13
ENDBRANCH  11  12
ENDBRANCH   1  11
TORSDOF 14
ENDMDL
MODEL 7
REMARK VINA RESULT:    -3.421      4.933      7.616
REMARK INTER + INTRA:          -8.622
REMARK INTER:                  -6.653
REMARK INTRA:                  -1.969
REMARK UNBOUND:                -2.402
REMARK SMILES CCCCCCCCCCCCCCCC(=O)[O-]
REMARK SMILES IDX 9 1 10 2 11 3 12 4 13 5 14 6 15 7 16 8 17 9 18 10 8 11 7 12
REMARK SMILES IDX 6 13 5 14 4 15 3 16 2 17 1 18
REMARK H PARENT
REMARK Flexibility Score: inf
ROOT
ATOM      1  C   UNL     1      18.499  12.472 -19.664  1.00  0.00     0.000 C 
ENDROOT
BRANCH   1   2
ATOM      2  C   UNL     1      17.736  11.523 -18.724  1.00  0.00     0.000 C 
BRANCH   2   3
ATOM      3  C   UNL     1      17.689  11.962 -17.246  1.00  0.00     0.000 C 
BRANCH   3   4
ATOM      4  C   UNL     1      18.549  11.118 -16.283  1.00  0.00     0.000 C 
BRANCH   4   5
ATOM      5  C   UNL     1      19.401  10.029 -16.958  1.00  0.00     0.000 C 
BRANCH   5   6
ATOM      6  C   UNL     1      19.201   8.642 -16.332  1.00  0.00     0.006 C 
BRANCH   6   7
ATOM      7  C   UNL     1      18.881   7.597 -17.406  1.00  0.00     0.053 C 
BRANCH   7   8
ATOM      8  C   UNL     1      19.937   6.539 -17.439  1.00  0.00     0.041 C 
ATOM      9  O   UNL     1      21.084   6.802 -17.888  1.00  0.00    -0.550 OA
ATOM     10  O   UNL     1      19.643   5.248 -17.016  1.00  0.00    -0.550 OA
ENDBRANCH   7   8
ENDBRANCH   6   7
ENDBRANCH   5   6
ENDBRANCH   4   5
ENDBRANCH   3   4
ENDBRANCH   2   3
ENDBRANCH   1   2
BRANCH   1  11
ATOM     11  C   UNL     1      19.325  13.527 -18.907  1.00  0.00     0.000 C 
BRANCH  11  12
ATOM     12  C   UNL     1      20.843  13.321 -19.063  1.00  0.00    -0.000 C 
BRANCH  12  13
ATOM     13  C   UNL     1      21.578  12.937 -17.764  1.00  0.00    -0.000 C 
BRANCH  13  14
ATOM     14  C   UNL     1      21.054  13.699 -16.536  1.00  0.00    -0.000 C 
BRANCH  14  15
ATOM     15  C   UNL     1      21.687  15.093 -16.384  1.00  0.00    -0.000 C 
BRANCH  15  16
ATOM     16  C   UNL     1      20.661  16.245 -16.393  1.00  0.00    -0.000 C 
BRANCH  16  17
ATOM     17  C   UNL     1      20.499  16.868 -17.787  1.00  0.00    -0.003 C 
ATOM     18  C   UNL     1      21.832  16.916 -18.528  1.00  0.00     0.004 C 
ENDBRANCH  16  17
ENDBRANCH  15  16
ENDBRANCH  14  15
ENDBRANCH  13  14
ENDBRANCH  12  13
ENDBRANCH  11  12
ENDBRANCH   1  11
TORSDOF 14
ENDMDL
MODEL 8
REMARK VINA RESULT:    -3.404      5.530      8.320
REMARK INTER + INTRA:          -8.592
REMARK INTER:                  -7.045
REMARK INTRA:                  -1.547
REMARK UNBOUND:                -2.402
REMARK SMILES CCCCCCCCCCCCCCCC(=O)[O-]
REMARK SMILES IDX 9 1 10 2 11 3 12 4 13 5 14 6 15 7 16 8 17 9 18 10 8 11 7 12
REMARK SMILES IDX 6 13 5 14 4 15 3 16 2 17 1 18
REMARK H PARENT
REMARK Flexibility Score: inf
ROOT
ATOM      1  C   UNL     1      18.857  12.550 -19.289  1.00  0.00     0.000 C 
ENDROOT
BRANCH   1   2
ATOM      2  C   UNL     1      17.953  11.648 -18.430  1.00  0.00     0.000 C 
BRANCH   2   3
ATOM      3  C   UNL     1      18.521  10.245 -18.132  1.00  0.00     0.000 C 
BRANCH   3   4
ATOM      4  C   UNL     1      19.178  10.084 -16.747  1.00  0.00     0.000 C 
BRANCH   4   5
ATOM      5  C   UNL     1      19.420   8.629 -16.307  1.00  0.00     0.000 C 
BRANCH   5   6
ATOM      6  C   UNL     1      19.531   7.659 -17.492  1.00  0.00     0.006 C 
BRANCH   6   7
ATOM      7  C   UNL     1      18.376   6.652 -17.484  1.00  0.00     0.053 C 
BRANCH   7   8
ATOM      8  C   UNL     1      18.902   5.252 -17.426  1.00  0.00     0.041 C 
ATOM      9  O   UNL     1      20.141   5.044 -17.345  1.00  0.00    -0.550 OA
ATOM     10  O   UNL     1      18.027   4.176 -17.508  1.00  0.00    -0.550 OA
ENDBRANCH   7   8
ENDBRANCH   6   7
ENDBRANCH   5   6
ENDBRANCH   4   5
ENDBRANCH   3   4
ENDBRANCH   2   3
ENDBRANCH   1   2
BRANCH   1  11
ATOM     11  C   UNL     1      19.357  13.791 -18.529  1.00  0.00     0.000 C 
BRANCH  11  12
ATOM     12  C   UNL     1      18.795  13.881 -17.099  1.00  0.00    -0.000 C 
BRANCH  12  13
ATOM     13  C   UNL     1      19.844  13.718 -15.982  1.00  0.00    -0.000 C 
BRANCH  13  14
ATOM     14  C   UNL     1      21.285  13.684 -16.520  1.00  0.00    -0.000 C 
BRANCH  14  15
ATOM     15  C   UNL     1      22.010  15.031 -16.365  1.00  0.00    -0.000 C 
BRANCH  15  16
ATOM     16  C   UNL     1      22.752  15.488 -17.639  1.00  0.00    -0.000 C 
BRANCH  16  17
ATOM     17  C   UNL     1      21.936  16.502 -18.453  1.00  0.00    -0.003 C 
ATOM     18  C   UNL     1      20.905  17.210 -17.579  1.00  0.00     0.004 C 
ENDBRANCH  16  17
ENDBRANCH  15  16
ENDBRANCH  14  15
ENDBRANCH  13  14
ENDBRANCH  12  13
ENDBRANCH  11  12
ENDBRANCH   1  11
TORSDOF 14
ENDMDL
MODEL 9
REMARK VINA RESULT:    -3.388      4.037      6.160
REMARK INTER + INTRA:          -8.563
REMARK INTER:                  -6.193
REMARK INTRA:                  -2.370
REMARK UNBOUND:                -2.402
REMARK SMILES CCCCCCCCCCCCCCCC(=O)[O-]
REMARK SMILES IDX 9 1 10 2 11 3 12 4 13 5 14 6 15 7 16 8 17 9 18 10 8 11 7 12
REMARK SMILES IDX 6 13 5 14 4 15 3 16 2 17 1 18
REMARK H PARENT
REMARK Flexibility Score: inf
ROOT
ATOM      1  C   UNL     1      19.945  15.422 -16.858  1.00  0.00     0.000 C 
ENDROOT
BRANCH   1   2
ATOM      2  C   UNL     1      19.968  14.554 -15.587  1.00  0.00     0.000 C 
BRANCH   2   3
ATOM      3  C   UNL     1      19.693  13.054 -15.813  1.00  0.00     0.000 C 
BRANCH   3   4
ATOM      4  C   UNL     1      18.455  12.736 -16.676  1.00  0.00     0.000 C 
BRANCH   4   5
ATOM      5  C   UNL     1      18.133  11.239 -16.824  1.00  0.00     0.000 C 
BRANCH   5   6
ATOM      6  C   UNL     1      19.357  10.340 -16.599  1.00  0.00     0.006 C 
BRANCH   6   7
ATOM      7  C   UNL     1      19.049   8.889 -16.983  1.00  0.00     0.053 C 
BRANCH   7   8
ATOM      8  C   UNL     1      19.226   8.687 -18.455  1.00  0.00     0.041 C 
ATOM      9  O   UNL     1      18.221   8.591 -19.206  1.00  0.00    -0.550 OA
ATOM     10  O   UNL     1      20.502   8.559 -18.991  1.00  0.00    -0.550 OA
ENDBRANCH   7   8
ENDBRANCH   6   7
ENDBRANCH   5   6
ENDBRANCH   4   5
ENDBRANCH   3   4
ENDBRANCH   2   3
ENDBRANCH   1   2
BRANCH   1  11
ATOM     11  C   UNL     1      21.264  16.181 -17.087  1.00  0.00     0.000 C 
BRANCH  11  12
ATOM     12  C   UNL     1      22.503  15.351 -16.707  1.00  0.00    -0.000 C 
BRANCH  12  13
ATOM     13  C   UNL     1      23.604  15.305 -17.784  1.00  0.00    -0.000 C 
BRANCH  13  14
ATOM     14  C   UNL     1      23.681  13.944 -18.498  1.00  0.00    -0.000 C 
BRANCH  14  15
ATOM     15  C   UNL     1      22.859  12.853 -17.791  1.00  0.00    -0.000 C 
BRANCH  15  16
ATOM     16  C   UNL     1      21.739  12.254 -18.667  1.00  0.00    -0.000 C 
BRANCH  16  17
ATOM     17  C   UNL     1      21.365  13.173 -19.840  1.00  0.00    -0.003 C 
ATOM     18  C   UNL     1      19.854  13.349 -19.943  1.00  0.00     0.004 C 
ENDBRANCH  16  17
ENDBRANCH  15  16
ENDBRANCH  14  15
ENDBRANCH  13  14
ENDBRANCH  12  13
ENDBRANCH  11  12
ENDBRANCH   1  11
TORSDOF 14
ENDMDL
