MODEL 1
REMARK VINA RESULT:    -5.029      0.000      0.000
REMARK INTER + INTRA:          -4.865
REMARK INTER:                  -5.470
REMARK INTRA:                   0.604
REMARK UNBOUND:                 0.604
REMARK SMILES CC(=O)[C@@H]1CC[C@@H]2[C@@H]3CC=C4C[C@@H](O)CC[C@@]4(C)[C@H]3CC[C@]21C
REMARK SMILES IDX 4 1 5 2 6 3 7 4 22 5 21 6 20 7 19 8 8 9 9 10 10 11 11 12
REMARK SMILES IDX 17 13 16 14 15 15 13 16 12 17 18 18 23 19 2 20 1 21 3 22
REMARK SMILES IDX 14 23
REMARK H PARENT 14 24
REMARK Flexibility Score: inf
ROOT
ATOM      1  C   UNL     1      86.197  -5.568  30.898  1.00  0.00     0.062 C 
ATOM      2  C   UNL     1      85.256  -5.410  32.125  1.00  0.00     0.012 C 
ATOM      3  C   UNL     1      83.949  -6.148  31.778  1.00  0.00     0.005 C 
ATOM      4  C   UNL     1      84.126  -6.547  30.319  1.00  0.00    -0.001 C 
ATOM      5  C   UNL     1      85.632  -6.794  30.132  1.00  0.00    -0.020 C 
ATOM      6  C   UNL     1      85.966  -6.808  28.601  1.00  0.00     0.008 C 
ATOM      7  C   UNL     1      84.775  -7.235  27.689  1.00  0.00     0.005 C 
ATOM      8  C   UNL     1      83.824  -8.236  28.402  1.00  0.00     0.003 C 
ATOM      9  C   UNL     1      83.174  -7.580  29.649  1.00  0.00     0.000 C 
ATOM     10  C   UNL     1      82.624  -8.704  30.531  1.00  0.00     0.031 C 
ATOM     11  C   UNL     1      81.627  -9.511  29.734  1.00  0.00    -0.027 C 
ATOM     12  C   UNL     1      81.626  -9.580  28.376  1.00  0.00    -0.065 C 
ATOM     13  C   UNL     1      82.746  -8.960  27.505  1.00  0.00    -0.008 C 
ATOM     14  C   UNL     1      82.087  -7.967  26.506  1.00  0.00     0.014 C 
ATOM     15  C   UNL     1      80.756  -8.431  25.849  1.00  0.00     0.033 C 
ATOM     16  C   UNL     1      80.268  -9.847  26.220  1.00  0.00     0.118 C 
ATOM     17  C   UNL     1      80.369 -10.125  27.728  1.00  0.00     0.063 C 
ATOM     18  C   UNL     1      83.484 -10.091  26.729  1.00  0.00     0.016 C 
ATOM     19  C   UNL     1      86.137  -8.101  30.827  1.00  0.00     0.012 C 
ENDROOT
BRANCH   1  20
ATOM     20  C   UNL     1      87.690  -5.636  31.190  1.00  0.00     0.133 C 
ATOM     21  C   UNL     1      88.390  -4.669  32.101  1.00  0.00     0.088 C 
ATOM     22  O   UNL     1      88.350  -6.511  30.650  1.00  0.00    -0.300 OA
ENDBRANCH   1  20
BRANCH  16  23
ATOM     23  O   UNL     1      78.928  -9.995  25.823  1.00  0.00    -0.393 OA
ATOM     24  H   UNL     1      78.835  -9.541  24.943  1.00  0.00     0.210 HD
ENDBRANCH  16  23
TORSDOF 2
ENDMDL
MODEL 2
REMARK VINA RESULT:    -4.567      1.724      7.195
REMARK INTER + INTRA:          -4.363
REMARK INTER:                  -4.697
REMARK INTRA:                   0.334
REMARK UNBOUND:                 0.604
REMARK SMILES CC(=O)[C@@H]1CC[C@@H]2[C@@H]3CC=C4C[C@@H](O)CC[C@@]4(C)[C@H]3CC[C@]21C
REMARK SMILES IDX 4 1 5 2 6 3 7 4 22 5 21 6 20 7 19 8 8 9 9 10 10 11 11 12
REMARK SMILES IDX 17 13 16 14 15 15 13 16 12 17 18 18 23 19 2 20 1 21 3 22
REMARK SMILES IDX 14 23
REMARK H PARENT 14 24
REMARK Flexibility Score: inf
ROOT
ATOM      1  C   UNL     1      82.322  -9.049  24.388  1.00  0.00     0.062 C 
ATOM      2  C   UNL     1      83.389 -10.087  23.941  1.00  0.00     0.012 C 
ATOM      3  C   UNL     1      84.471 -10.108  25.038  1.00  0.00     0.005 C 
ATOM      4  C   UNL     1      84.072  -8.974  25.973  1.00  0.00    -0.001 C 
ATOM      5  C   UNL     1      82.537  -8.905  25.917  1.00  0.00    -0.020 C 
ATOM      6  C   UNL     1      82.061  -7.535  26.511  1.00  0.00     0.008 C 
ATOM      7  C   UNL     1      83.040  -6.913  27.553  1.00  0.00     0.005 C 
ATOM      8  C   UNL     1      83.823  -8.000  28.341  1.00  0.00     0.003 C 
ATOM      9  C   UNL     1      84.715  -8.835  27.384  1.00  0.00     0.000 C 
ATOM     10  C   UNL     1      85.097 -10.125  28.113  1.00  0.00     0.031 C 
ATOM     11  C   UNL     1      85.818  -9.772  29.391  1.00  0.00    -0.027 C 
ATOM     12  C   UNL     1      85.672  -8.583  30.036  1.00  0.00    -0.065 C 
ATOM     13  C   UNL     1      84.630  -7.521  29.609  1.00  0.00    -0.008 C 
ATOM     14  C   UNL     1      85.384  -6.191  29.327  1.00  0.00     0.014 C 
ATOM     15  C   UNL     1      86.516  -5.815  30.324  1.00  0.00     0.033 C 
ATOM     16  C   UNL     1      86.727  -6.775  31.513  1.00  0.00     0.118 C 
ATOM     17  C   UNL     1      86.716  -8.250  31.083  1.00  0.00     0.063 C 
ATOM     18  C   UNL     1      83.597  -7.318  30.758  1.00  0.00     0.016 C 
ATOM     19  C   UNL     1      81.837 -10.102  26.641  1.00  0.00     0.012 C 
ENDROOT
BRANCH   1  20
ATOM     20  C   UNL     1      80.885  -9.331  23.973  1.00  0.00     0.133 C 
ATOM     21  C   UNL     1      80.526 -10.124  22.749  1.00  0.00     0.088 C 
ATOM     22  O   UNL     1      79.980  -8.882  24.662  1.00  0.00    -0.300 OA
ENDBRANCH   1  20
BRANCH  16  23
ATOM     23  O   UNL     1      87.960  -6.493  32.125  1.00  0.00    -0.393 OA
ATOM     24  H   UNL     1      88.197  -7.284  32.679  1.00  0.00     0.210 HD
ENDBRANCH  16  23
TORSDOF 2
ENDMDL
MODEL 3
REMARK VINA RESULT:    -4.351      1.956      3.078
REMARK INTER + INTRA:          -4.128
REMARK INTER:                  -4.047
REMARK INTRA:                  -0.082
REMARK UNBOUND:                 0.604
REMARK SMILES CC(=O)[C@@H]1CC[C@@H]2[C@@H]3CC=C4C[C@@H](O)CC[C@@]4(C)[C@H]3CC[C@]21C
REMARK SMILES IDX 4 1 5 2 6 3 7 4 22 5 21 6 20 7 19 8 8 9 9 10 10 11 11 12
REMARK SMILES IDX 17 13 16 14 15 15 13 16 12 17 18 18 23 19 2 20 1 21 3 22
REMARK SMILES IDX 14 23
REMARK H PARENT 14 24
REMARK Flexibility Score: inf
ROOT
ATOM      1  C   UNL     1      87.706  -6.860  32.040  1.00  0.00     0.062 C 
ATOM      2  C   UNL     1      88.241  -8.319  32.027  1.00  0.00     0.012 C 
ATOM      3  C   UNL     1      87.070  -9.215  31.580  1.00  0.00     0.005 C 
ATOM      4  C   UNL     1      85.880  -8.266  31.520  1.00  0.00    -0.001 C 
ATOM      5  C   UNL     1      86.456  -6.897  31.121  1.00  0.00    -0.020 C 
ATOM      6  C   UNL     1      85.397  -5.784  31.428  1.00  0.00     0.008 C 
ATOM      7  C   UNL     1      83.918  -6.280  31.397  1.00  0.00     0.005 C 
ATOM      8  C   UNL     1      83.716  -7.450  30.395  1.00  0.00     0.003 C 
ATOM      9  C   UNL     1      84.556  -8.684  30.817  1.00  0.00     0.000 C 
ATOM     10  C   UNL     1      84.666  -9.608  29.601  1.00  0.00     0.031 C 
ATOM     11  C   UNL     1      83.279  -9.998  29.152  1.00  0.00    -0.027 C 
ATOM     12  C   UNL     1      82.167  -9.258  29.410  1.00  0.00    -0.065 C 
ATOM     13  C   UNL     1      82.227  -7.854  30.060  1.00  0.00    -0.008 C 
ATOM     14  C   UNL     1      81.349  -7.879  31.343  1.00  0.00     0.014 C 
ATOM     15  C   UNL     1      79.992  -8.630  31.236  1.00  0.00     0.033 C 
ATOM     16  C   UNL     1      79.645  -9.220  29.853  1.00  0.00     0.118 C 
ATOM     17  C   UNL     1      80.834  -9.951  29.213  1.00  0.00     0.063 C 
ATOM     18  C   UNL     1      81.681  -6.795  29.057  1.00  0.00     0.016 C 
ATOM     19  C   UNL     1      86.922  -6.832  29.630  1.00  0.00     0.012 C 
ENDROOT
BRANCH   1  20
ATOM     20  C   UNL     1      88.710  -5.766  31.701  1.00  0.00     0.133 C 
ATOM     21  C   UNL     1      88.501  -4.324  32.063  1.00  0.00     0.088 C 
ATOM     22  O   UNL     1      89.727  -6.075  31.097  1.00  0.00    -0.300 OA
ENDBRANCH   1  20
BRANCH  16  23
ATOM     23  O   UNL     1      78.579 -10.125  29.989  1.00  0.00    -0.393 OA
ATOM     24  H   UNL     1      77.769  -9.676  29.625  1.00  0.00     0.210 HD
ENDBRANCH  16  23
TORSDOF 2
ENDMDL
MODEL 4
REMARK VINA RESULT:    -4.198      3.219      7.379
REMARK INTER + INTRA:          -3.962
REMARK INTER:                  -4.059
REMARK INTRA:                   0.097
REMARK UNBOUND:                 0.604
REMARK SMILES CC(=O)[C@@H]1CC[C@@H]2[C@@H]3CC=C4C[C@@H](O)CC[C@@]4(C)[C@H]3CC[C@]21C
REMARK SMILES IDX 4 1 5 2 6 3 7 4 22 5 21 6 20 7 19 8 8 9 9 10 10 11 11 12
REMARK SMILES IDX 17 13 16 14 15 15 13 16 12 17 18 18 23 19 2 20 1 21 3 22
REMARK SMILES IDX 14 23
REMARK H PARENT 14 24
REMARK Flexibility Score: inf
ROOT
ATOM      1  C   UNL     1      82.162 -10.099  22.355  1.00  0.00     0.062 C 
ATOM      2  C   UNL     1      80.622 -10.125  22.557  1.00  0.00     0.012 C 
ATOM      3  C   UNL     1      80.367  -9.844  24.050  1.00  0.00     0.005 C 
ATOM      4  C   UNL     1      81.759  -9.837  24.668  1.00  0.00    -0.001 C 
ATOM      5  C   UNL     1      82.700  -9.305  23.575  1.00  0.00    -0.020 C 
ATOM      6  C   UNL     1      84.181  -9.640  23.962  1.00  0.00     0.008 C 
ATOM      7  C   UNL     1      84.427  -9.778  25.496  1.00  0.00     0.005 C 
ATOM      8  C   UNL     1      83.474  -8.871  26.324  1.00  0.00     0.003 C 
ATOM      9  C   UNL     1      81.995  -9.287  26.105  1.00  0.00     0.000 C 
ATOM     10  C   UNL     1      81.113  -8.124  26.567  1.00  0.00     0.031 C 
ATOM     11  C   UNL     1      81.407  -7.831  28.018  1.00  0.00    -0.027 C 
ATOM     12  C   UNL     1      82.581  -8.146  28.628  1.00  0.00    -0.065 C 
ATOM     13  C   UNL     1      83.803  -8.701  27.858  1.00  0.00    -0.008 C 
ATOM     14  C   UNL     1      84.202 -10.060  28.502  1.00  0.00     0.014 C 
ATOM     15  C   UNL     1      84.165 -10.125  30.054  1.00  0.00     0.033 C 
ATOM     16  C   UNL     1      83.790  -8.818  30.784  1.00  0.00     0.118 C 
ATOM     17  C   UNL     1      82.584  -8.115  30.144  1.00  0.00     0.063 C 
ATOM     18  C   UNL     1      84.984  -7.691  27.962  1.00  0.00     0.016 C 
ATOM     19  C   UNL     1      82.526  -7.775  23.299  1.00  0.00     0.012 C 
ENDROOT
BRANCH   1  20
ATOM     20  C   UNL     1      82.663  -9.602  21.005  1.00  0.00     0.133 C 
ATOM     21  C   UNL     1      81.759  -9.391  19.825  1.00  0.00     0.088 C 
ATOM     22  O   UNL     1      83.857  -9.376  20.874  1.00  0.00    -0.300 OA
ENDBRANCH   1  20
BRANCH  16  23
ATOM     23  O   UNL     1      83.484  -9.107  32.125  1.00  0.00    -0.393 OA
ATOM     24  H   UNL     1      83.402  -8.236  32.598  1.00  0.00     0.210 HD
ENDBRANCH  16  23
TORSDOF 2
ENDMDL
MODEL 5
REMARK VINA RESULT:    -4.120      1.546      1.948
REMARK INTER + INTRA:          -3.877
REMARK INTER:                  -4.440
REMARK INTRA:                   0.563
REMARK UNBOUND:                 0.604
REMARK SMILES CC(=O)[C@@H]1CC[C@@H]2[C@@H]3CC=C4C[C@@H](O)CC[C@@]4(C)[C@H]3CC[C@]21C
REMARK SMILES IDX 4 1 5 2 6 3 7 4 22 5 21 6 20 7 19 8 8 9 9 10 10 11 11 12
REMARK SMILES IDX 17 13 16 14 15 15 13 16 12 17 18 18 23 19 2 20 1 21 3 22
REMARK SMILES IDX 14 23
REMARK H PARENT 14 24
REMARK Flexibility Score: inf
ROOT
ATOM      1  C   UNL     1      84.857  -6.332  30.894  1.00  0.00     0.062 C 
ATOM      2  C   UNL     1      83.541  -6.445  31.712  1.00  0.00     0.012 C 
ATOM      3  C   UNL     1      82.498  -7.096  30.784  1.00  0.00     0.005 C 
ATOM      4  C   UNL     1      83.200  -7.172  29.435  1.00  0.00    -0.001 C 
ATOM      5  C   UNL     1      84.693  -7.367  29.750  1.00  0.00    -0.020 C 
ATOM      6  C   UNL     1      85.535  -7.050  28.466  1.00  0.00     0.008 C 
ATOM      7  C   UNL     1      84.771  -7.276  27.126  1.00  0.00     0.005 C 
ATOM      8  C   UNL     1      83.715  -8.411  27.240  1.00  0.00     0.003 C 
ATOM      9  C   UNL     1      82.624  -8.041  28.279  1.00  0.00     0.000 C 
ATOM     10  C   UNL     1      81.895  -9.331  28.665  1.00  0.00     0.031 C 
ATOM     11  C   UNL     1      81.302  -9.951  27.423  1.00  0.00    -0.027 C 
ATOM     12  C   UNL     1      81.778  -9.727  26.168  1.00  0.00    -0.065 C 
ATOM     13  C   UNL     1      83.076  -8.930  25.893  1.00  0.00    -0.008 C 
ATOM     14  C   UNL     1      82.726  -7.748  24.945  1.00  0.00     0.014 C 
ATOM     15  C   UNL     1      81.746  -8.066  23.781  1.00  0.00     0.033 C 
ATOM     16  C   UNL     1      81.274  -9.530  23.664  1.00  0.00     0.118 C 
ATOM     17  C   UNL     1      80.870 -10.125  25.021  1.00  0.00     0.063 C 
ATOM     18  C   UNL     1      84.125  -9.865  25.221  1.00  0.00     0.016 C 
ATOM     19  C   UNL     1      85.029  -8.790  30.303  1.00  0.00     0.012 C 
ENDROOT
BRANCH   1  20
ATOM     20  C   UNL     1      86.158  -6.455  31.677  1.00  0.00     0.133 C 
ATOM     21  C   UNL     1      87.083  -5.296  31.914  1.00  0.00     0.088 C 
ATOM     22  O   UNL     1      86.467  -7.549  32.124  1.00  0.00    -0.300 OA
ENDBRANCH   1  20
BRANCH  16  23
ATOM     23  O   UNL     1      80.171  -9.595  22.796  1.00  0.00    -0.393 OA
ATOM     24  H   UNL     1      79.452 -10.086  23.277  1.00  0.00     0.210 HD
ENDBRANCH  16  23
TORSDOF 2
ENDMDL
MODEL 6
REMARK VINA RESULT:    -3.380      2.685      4.095
REMARK INTER + INTRA:          -3.072
REMARK INTER:                  -3.211
REMARK INTRA:                   0.139
REMARK UNBOUND:                 0.604
REMARK SMILES CC(=O)[C@@H]1CC[C@@H]2[C@@H]3CC=C4C[C@@H](O)CC[C@@]4(C)[C@H]3CC[C@]21C
REMARK SMILES IDX 4 1 5 2 6 3 7 4 22 5 21 6 20 7 19 8 8 9 9 10 10 11 11 12
REMARK SMILES IDX 17 13 16 14 15 15 13 16 12 17 18 18 23 19 2 20 1 21 3 22
REMARK SMILES IDX 14 23
REMARK H PARENT 14 24
REMARK Flexibility Score: inf
ROOT
ATOM      1  C   UNL     1      82.927  -7.808  30.301  1.00  0.00     0.062 C 
ATOM      2  C   UNL     1      81.394  -7.842  30.550  1.00  0.00     0.012 C 
ATOM      3  C   UNL     1      80.731  -8.139  29.192  1.00  0.00     0.005 C 
ATOM      4  C   UNL     1      81.885  -8.094  28.199  1.00  0.00    -0.001 C 
ATOM      5  C   UNL     1      83.121  -8.585  28.972  1.00  0.00    -0.020 C 
ATOM      6  C   UNL     1      84.414  -8.193  28.178  1.00  0.00     0.008 C 
ATOM      7  C   UNL     1      84.203  -8.052  26.639  1.00  0.00     0.005 C 
ATOM      8  C   UNL     1      83.087  -8.998  26.113  1.00  0.00     0.003 C 
ATOM      9  C   UNL     1      81.719  -8.640  26.752  1.00  0.00     0.000 C 
ATOM     10  C   UNL     1      80.787  -9.838  26.554  1.00  0.00     0.031 C 
ATOM     11  C   UNL     1      80.662 -10.125  25.077  1.00  0.00    -0.027 C 
ATOM     12  C   UNL     1      81.598  -9.767  24.157  1.00  0.00    -0.065 C 
ATOM     13  C   UNL     1      82.968  -9.161  24.548  1.00  0.00    -0.008 C 
ATOM     14  C   UNL     1      83.112  -7.791  23.827  1.00  0.00     0.014 C 
ATOM     15  C   UNL     1      82.628  -7.733  22.351  1.00  0.00     0.033 C 
ATOM     16  C   UNL     1      82.109  -9.056  21.750  1.00  0.00     0.118 C 
ATOM     17  C   UNL     1      81.166  -9.803  22.705  1.00  0.00     0.063 C 
ATOM     18  C   UNL     1      84.107 -10.125  24.101  1.00  0.00     0.016 C 
ATOM     19  C   UNL     1      83.093 -10.119  29.275  1.00  0.00     0.012 C 
ENDROOT
BRANCH   1  20
ATOM     20  C   UNL     1      83.813  -8.279  31.446  1.00  0.00     0.133 C 
ATOM     21  C   UNL     1      85.073  -7.569  31.851  1.00  0.00     0.088 C 
ATOM     22  O   UNL     1      83.489  -9.287  32.057  1.00  0.00    -0.300 OA
ENDBRANCH   1  20
BRANCH  16  23
ATOM     23  O   UNL     1      81.419  -8.784  20.556  1.00  0.00    -0.393 OA
ATOM     24  H   UNL     1      80.448  -8.812  20.769  1.00  0.00     0.210 HD
ENDBRANCH  16  23
TORSDOF 2
ENDMDL
MODEL 7
REMARK VINA RESULT:    -2.249      1.474      2.384
REMARK INTER + INTRA:          -1.842
REMARK INTER:                  -1.738
REMARK INTRA:                  -0.104
REMARK UNBOUND:                 0.604
REMARK SMILES CC(=O)[C@@H]1CC[C@@H]2[C@@H]3CC=C4C[C@@H](O)CC[C@@]4(C)[C@H]3CC[C@]21C
REMARK SMILES IDX 4 1 5 2 6 3 7 4 22 5 21 6 20 7 19 8 8 9 9 10 10 11 11 12
REMARK SMILES IDX 17 13 16 14 15 15 13 16 12 17 18 18 23 19 2 20 1 21 3 22
REMARK SMILES IDX 14 23
REMARK H PARENT 14 24
REMARK Flexibility Score: inf
ROOT
ATOM      1  C   UNL     1      86.806  -7.200  31.658  1.00  0.00     0.062 C 
ATOM      2  C   UNL     1      87.248  -8.676  31.857  1.00  0.00     0.012 C 
ATOM      3  C   UNL     1      86.422  -9.522  30.869  1.00  0.00     0.005 C 
ATOM      4  C   UNL     1      85.431  -8.531  30.273  1.00  0.00    -0.001 C 
ATOM      5  C   UNL     1      86.157  -7.176  30.249  1.00  0.00    -0.020 C 
ATOM      6  C   UNL     1      85.106  -6.031  30.042  1.00  0.00     0.008 C 
ATOM      7  C   UNL     1      83.817  -6.474  29.284  1.00  0.00     0.005 C 
ATOM      8  C   UNL     1      84.101  -7.618  28.270  1.00  0.00     0.003 C 
ATOM      9  C   UNL     1      84.604  -8.889  29.004  1.00  0.00     0.000 C 
ATOM     10  C   UNL     1      85.270  -9.792  27.963  1.00  0.00     0.031 C 
ATOM     11  C   UNL     1      84.266 -10.125  26.886  1.00  0.00    -0.027 C 
ATOM     12  C   UNL     1      83.185  -9.351  26.598  1.00  0.00    -0.065 C 
ATOM     13  C   UNL     1      82.952  -7.963  27.243  1.00  0.00    -0.008 C 
ATOM     14  C   UNL     1      81.562  -7.981  27.940  1.00  0.00     0.014 C 
ATOM     15  C   UNL     1      80.411  -8.682  27.165  1.00  0.00     0.033 C 
ATOM     16  C   UNL     1      80.765  -9.232  25.767  1.00  0.00     0.118 C 
ATOM     17  C   UNL     1      82.099  -9.992  25.758  1.00  0.00     0.063 C 
ATOM     18  C   UNL     1      82.984  -6.866  26.138  1.00  0.00     0.016 C 
ATOM     19  C   UNL     1      87.289  -7.098  29.173  1.00  0.00     0.012 C 
ENDROOT
BRANCH   1  20
ATOM     20  C   UNL     1      87.871  -6.135  31.884  1.00  0.00     0.133 C 
ATOM     21  C   UNL     1      89.343  -6.432  31.862  1.00  0.00     0.088 C 
ATOM     22  O   UNL     1      87.511  -4.988  32.104  1.00  0.00    -0.300 OA
ENDBRANCH   1  20
BRANCH  16  23
ATOM     23  O   UNL     1      79.747 -10.102  25.340  1.00  0.00    -0.393 OA
ATOM     24  H   UNL     1      78.931  -9.550  25.204  1.00  0.00     0.210 HD
ENDBRANCH  16  23
TORSDOF 2
ENDMDL
MODEL 8
REMARK VINA RESULT:    -2.233      1.806      2.981
REMARK INTER + INTRA:          -1.825
REMARK INTER:                  -1.850
REMARK INTRA:                   0.026
REMARK UNBOUND:                 0.604
REMARK SMILES CC(=O)[C@@H]1CC[C@@H]2[C@@H]3CC=C4C[C@@H](O)CC[C@@]4(C)[C@H]3CC[C@]21C
REMARK SMILES IDX 4 1 5 2 6 3 7 4 22 5 21 6 20 7 19 8 8 9 9 10 10 11 11 12
REMARK SMILES IDX 17 13 16 14 15 15 13 16 12 17 18 18 23 19 2 20 1 21 3 22
REMARK SMILES IDX 14 23
REMARK H PARENT 14 24
REMARK Flexibility Score: inf
ROOT
ATOM      1  C   UNL     1      86.674  -7.663  29.947  1.00  0.00     0.062 C 
ATOM      2  C   UNL     1      86.884  -6.207  29.446  1.00  0.00     0.012 C 
ATOM      3  C   UNL     1      85.887  -5.988  28.293  1.00  0.00     0.005 C 
ATOM      4  C   UNL     1      85.273  -7.365  28.069  1.00  0.00    -0.001 C 
ATOM      5  C   UNL     1      85.256  -8.045  29.447  1.00  0.00    -0.020 C 
ATOM      6  C   UNL     1      85.030  -9.584  29.260  1.00  0.00     0.008 C 
ATOM      7  C   UNL     1      84.254  -9.965  27.961  1.00  0.00     0.005 C 
ATOM      8  C   UNL     1      83.248  -8.858  27.538  1.00  0.00     0.003 C 
ATOM      9  C   UNL     1      83.993  -7.539  27.201  1.00  0.00     0.000 C 
ATOM     10  C   UNL     1      82.964  -6.406  27.229  1.00  0.00     0.031 C 
ATOM     11  C   UNL     1      81.873  -6.707  26.230  1.00  0.00    -0.027 C 
ATOM     12  C   UNL     1      81.568  -7.962  25.803  1.00  0.00    -0.065 C 
ATOM     13  C   UNL     1      82.205  -9.234  26.414  1.00  0.00    -0.008 C 
ATOM     14  C   UNL     1      82.881 -10.034  25.264  1.00  0.00     0.014 C 
ATOM     15  C   UNL     1      82.091 -10.124  23.929  1.00  0.00     0.033 C 
ATOM     16  C   UNL     1      80.700  -9.456  23.911  1.00  0.00     0.118 C 
ATOM     17  C   UNL     1      80.713  -8.062  24.555  1.00  0.00     0.063 C 
ATOM     18  C   UNL     1      81.097 -10.096  27.088  1.00  0.00     0.016 C 
ATOM     19  C   UNL     1      84.196  -7.438  30.425  1.00  0.00     0.012 C 
ENDROOT
BRANCH   1  20
ATOM     20  C   UNL     1      86.913  -7.913  31.430  1.00  0.00     0.133 C 
ATOM     21  C   UNL     1      86.693  -9.248  32.081  1.00  0.00     0.088 C 
ATOM     22  O   UNL     1      87.292  -6.981  32.124  1.00  0.00    -0.300 OA
ENDBRANCH   1  20
BRANCH  16  23
ATOM     23  O   UNL     1      80.260  -9.335  22.582  1.00  0.00    -0.393 OA
ATOM     24  H   UNL     1      79.984 -10.242  22.284  1.00  0.00     0.210 HD
ENDBRANCH  16  23
TORSDOF 2
ENDMDL
