MODEL 1
REMARK VINA RESULT:    -4.087      0.000      0.000
REMARK INTER + INTRA:          -4.275
REMARK INTER:                  -5.042
REMARK INTRA:                   0.768
REMARK UNBOUND:                 0.768
REMARK SMILES CC1=CC=CC(C)(C)CC1=O
REMARK SMILES IDX 1 1 2 2 3 3 10 4 11 5 9 6 4 8 5 9 6 10 7 11 8 12
REMARK H PARENT
REMARK Flexibility Score: 80.00
ROOT
ATOM      1  C   UNL     1      -1.543 -15.520  -5.380  1.00  0.00     0.048 C 
ATOM      2  C   UNL     1      -2.401 -15.070  -6.539  1.00  0.00    -0.008 C 
ATOM      3  C   UNL     1      -1.906 -14.109  -7.348  1.00  0.00     0.007 C 
ENDROOT
BRANCH   2   4
ATOM      4  C   UNL     1      -3.755 -15.669  -6.650  1.00  0.00     0.159 C 
ATOM      5  O   UNL     1      -4.194 -16.362  -5.691  1.00  0.00    -0.295 OA
BRANCH   4   6
ATOM      6  C   UNL     1      -4.632 -15.510  -7.853  1.00  0.00     0.091 CG0
ATOM      7  G   UNL     1      -4.972 -14.036  -8.169  1.00  0.00     0.000 G0
ENDBRANCH   4   6
ENDBRANCH   2   4
BRANCH   3   8
ATOM      8  C   UNL     1      -2.514 -13.455  -8.530  1.00  0.00    -0.003 C 
ATOM      9  C   UNL     1      -3.802 -13.396  -8.893  1.00  0.00    -0.020 C 
BRANCH   9  10
ATOM     10  C   UNL     1      -4.968 -14.028  -8.172  1.00  0.00    -0.010 CG0
ATOM     11  C   UNL     1      -6.195 -13.998  -9.112  1.00  0.00     0.016 C 
ATOM     12  C   UNL     1      -5.316 -13.207  -6.909  1.00  0.00     0.016 C 
ATOM     13  G   UNL     1      -4.643 -15.504  -7.851  1.00  0.00     0.000 G0
ENDBRANCH   9  10
ENDBRANCH   3   8
TORSDOF 0
ENDMDL
MODEL 2
REMARK VINA RESULT:    -3.900      1.715      2.867
REMARK INTER + INTRA:          -4.044
REMARK INTER:                  -4.794
REMARK INTRA:                   0.750
REMARK UNBOUND:                 0.768
REMARK SMILES CC1=CC=CC(C)(C)CC1=O
REMARK SMILES IDX 1 1 2 2 3 3 10 4 11 5 9 6 4 8 5 9 6 10 7 11 8 12
REMARK H PARENT
REMARK Flexibility Score: 80.00
ROOT
ATOM      1  C   UNL     1      -3.610 -16.939  -5.794  1.00  0.00     0.048 C 
ATOM      2  C   UNL     1      -3.813 -15.505  -6.223  1.00  0.00    -0.008 C 
ATOM      3  C   UNL     1      -5.065 -15.122  -6.556  1.00  0.00     0.007 C 
ENDROOT
BRANCH   2   4
ATOM      4  C   UNL     1      -2.603 -14.650  -6.317  1.00  0.00     0.159 C 
ATOM      5  O   UNL     1      -1.467 -15.191  -6.227  1.00  0.00    -0.295 OA
BRANCH   4   6
ATOM      6  C   UNL     1      -2.654 -13.164  -6.499  1.00  0.00     0.091 CG0
ATOM      7  G   UNL     1      -3.397 -12.732  -7.783  1.00  0.00     0.000 G0
ENDBRANCH   4   6
ENDBRANCH   2   4
BRANCH   3   8
ATOM      8  C   UNL     1      -5.563 -13.811  -7.033  1.00  0.00    -0.003 C 
ATOM      9  C   UNL     1      -4.878 -12.790  -7.564  1.00  0.00    -0.020 C 
BRANCH   9  10
ATOM     10  C   UNL     1      -3.386 -12.726  -7.782  1.00  0.00    -0.010 CG0
ATOM     11  C   UNL     1      -2.998 -11.257  -8.064  1.00  0.00     0.016 C 
ATOM     12  C   UNL     1      -2.995 -13.568  -9.018  1.00  0.00     0.016 C 
ATOM     13  G   UNL     1      -2.653 -13.179  -6.498  1.00  0.00     0.000 G0
ENDBRANCH   9  10
ENDBRANCH   3   8
TORSDOF 0
ENDMDL
MODEL 3
REMARK VINA RESULT:    -3.806      1.713      2.414
REMARK INTER + INTRA:          -3.929
REMARK INTER:                  -4.958
REMARK INTRA:                   1.030
REMARK UNBOUND:                 0.768
REMARK SMILES CC1=CC=CC(C)(C)CC1=O
REMARK SMILES IDX 1 1 2 2 3 3 10 4 11 5 9 6 4 8 5 9 6 10 7 11 8 12
REMARK H PARENT
REMARK Flexibility Score: 80.00
ROOT
ATOM      1  C   UNL     1      -4.258 -16.598  -5.338  1.00  0.00     0.048 C 
ATOM      2  C   UNL     1      -4.010 -15.550  -6.396  1.00  0.00    -0.008 C 
ATOM      3  C   UNL     1      -4.287 -15.876  -7.677  1.00  0.00     0.007 C 
ENDROOT
BRANCH   2   4
ATOM      4  C   UNL     1      -3.408 -14.269  -5.951  1.00  0.00     0.159 C 
ATOM      5  O   UNL     1      -3.392 -14.000  -4.717  1.00  0.00    -0.295 OA
BRANCH   4   6
ATOM      6  C   UNL     1      -2.827 -13.257  -6.891  1.00  0.00     0.091 CG0
ATOM      7  G   UNL     1      -3.838 -12.756  -7.947  1.00  0.00     0.000 G0
ENDBRANCH   4   6
ENDBRANCH   2   4
BRANCH   3   8
ATOM      8  C   UNL     1      -4.126 -15.082  -8.918  1.00  0.00    -0.003 C 
ATOM      9  C   UNL     1      -3.921 -13.766  -9.056  1.00  0.00    -0.020 C 
BRANCH   9  10
ATOM     10  C   UNL     1      -3.834 -12.748  -7.944  1.00  0.00    -0.010 CG0
ATOM     11  C   UNL     1      -5.230 -12.618  -7.293  1.00  0.00     0.016 C 
ATOM     12  C   UNL     1      -3.445 -11.367  -8.520  1.00  0.00     0.016 C 
ATOM     13  G   UNL     1      -2.844 -13.242  -6.864  1.00  0.00     0.000 G0
ENDBRANCH   9  10
ENDBRANCH   3   8
TORSDOF 0
ENDMDL
MODEL 4
REMARK VINA RESULT:    -3.775      1.538      2.113
REMARK INTER + INTRA:          -3.890
REMARK INTER:                  -4.640
REMARK INTRA:                   0.750
REMARK UNBOUND:                 0.768
REMARK SMILES CC1=CC=CC(C)(C)CC1=O
REMARK SMILES IDX 1 1 2 2 3 3 10 4 11 5 9 6 4 8 5 9 6 10 7 11 8 12
REMARK H PARENT
REMARK Flexibility Score: 80.00
ROOT
ATOM      1  C   UNL     1      -3.809 -17.113  -6.177  1.00  0.00     0.048 C 
ATOM      2  C   UNL     1      -3.567 -15.714  -6.692  1.00  0.00    -0.008 C 
ATOM      3  C   UNL     1      -3.001 -14.826  -5.847  1.00  0.00     0.007 C 
ENDROOT
BRANCH   2   4
ATOM      4  C   UNL     1      -4.043 -15.408  -8.064  1.00  0.00     0.159 C 
ATOM      5  O   UNL     1      -4.799 -16.235  -8.645  1.00  0.00    -0.295 OA
BRANCH   4   6
ATOM      6  C   UNL     1      -3.660 -14.169  -8.814  1.00  0.00     0.091 CG0
ATOM      7  G   UNL     1      -4.101 -12.868  -8.106  1.00  0.00     0.000 G0
ENDBRANCH   4   6
ENDBRANCH   2   4
BRANCH   3   8
ATOM      8  C   UNL     1      -2.669 -13.396  -6.053  1.00  0.00    -0.003 C 
ATOM      9  C   UNL     1      -3.128 -12.549  -6.983  1.00  0.00    -0.020 C 
BRANCH   9  10
ATOM     10  C   UNL     1      -4.101 -12.872  -8.091  1.00  0.00    -0.010 CG0
ATOM     11  C   UNL     1      -4.061 -11.723  -9.124  1.00  0.00     0.016 C 
ATOM     12  C   UNL     1      -5.538 -12.955  -7.526  1.00  0.00     0.016 C 
ATOM     13  G   UNL     1      -3.665 -14.173  -8.802  1.00  0.00     0.000 G0
ENDBRANCH   9  10
ENDBRANCH   3   8
TORSDOF 0
ENDMDL
MODEL 5
REMARK VINA RESULT:    -3.678      2.048      3.895
REMARK INTER + INTRA:          -3.771
REMARK INTER:                  -4.522
REMARK INTRA:                   0.751
REMARK UNBOUND:                 0.768
REMARK SMILES CC1=CC=CC(C)(C)CC1=O
REMARK SMILES IDX 1 1 2 2 3 3 10 4 11 5 9 6 4 8 5 9 6 10 7 11 8 12
REMARK H PARENT
REMARK Flexibility Score: 80.00
ROOT
ATOM      1  C   UNL     1      -5.248 -11.750  -8.563  1.00  0.00     0.048 C 
ATOM      2  C   UNL     1      -4.512 -12.985  -8.101  1.00  0.00    -0.008 C 
ATOM      3  C   UNL     1      -5.162 -14.166  -8.176  1.00  0.00     0.007 C 
ENDROOT
BRANCH   2   4
ATOM      4  C   UNL     1      -3.156 -12.789  -7.530  1.00  0.00     0.159 C 
ATOM      5  O   UNL     1      -2.773 -11.617  -7.259  1.00  0.00    -0.295 OA
BRANCH   4   6
ATOM      6  C   UNL     1      -2.200 -13.911  -7.266  1.00  0.00     0.091 CG0
ATOM      7  G   UNL     1      -2.747 -14.956  -6.267  1.00  0.00     0.000 G0
ENDBRANCH   4   6
ENDBRANCH   2   4
BRANCH   3   8
ATOM      8  C   UNL     1      -4.718 -15.523  -7.780  1.00  0.00    -0.003 C 
ATOM      9  C   UNL     1      -3.714 -15.879  -6.967  1.00  0.00    -0.020 C 
BRANCH   9  10
ATOM     10  C   UNL     1      -2.754 -14.949  -6.266  1.00  0.00    -0.010 CG0
ATOM     11  C   UNL     1      -1.560 -15.784  -5.748  1.00  0.00     0.016 C 
ATOM     12  C   UNL     1      -3.444 -14.297  -5.046  1.00  0.00     0.016 C 
ATOM     13  G   UNL     1      -2.212 -13.907  -7.271  1.00  0.00     0.000 G0
ENDBRANCH   9  10
ENDBRANCH   3   8
TORSDOF 0
ENDMDL
MODEL 6
REMARK VINA RESULT:    -3.588      1.723      3.315
REMARK INTER + INTRA:          -3.659
REMARK INTER:                  -4.431
REMARK INTRA:                   0.772
REMARK UNBOUND:                 0.768
REMARK SMILES CC1=CC=CC(C)(C)CC1=O
REMARK SMILES IDX 1 1 2 2 3 3 10 4 11 5 9 6 4 8 5 9 6 10 7 11 8 12
REMARK H PARENT
REMARK Flexibility Score: 80.00
ROOT
ATOM      1  C   UNL     1      -4.323 -11.356  -9.041  1.00  0.00     0.048 C 
ATOM      2  C   UNL     1      -3.895 -12.497  -8.149  1.00  0.00    -0.008 C 
ATOM      3  C   UNL     1      -2.613 -12.912  -8.236  1.00  0.00     0.007 C 
ENDROOT
BRANCH   2   4
ATOM      4  C   UNL     1      -4.941 -13.122  -7.302  1.00  0.00     0.159 C 
ATOM      5  O   UNL     1      -6.149 -12.816  -7.501  1.00  0.00    -0.295 OA
BRANCH   4   6
ATOM      6  C   UNL     1      -4.642 -14.093  -6.201  1.00  0.00     0.091 CG0
ATOM      7  G   UNL     1      -3.901 -15.358  -6.689  1.00  0.00     0.000 G0
ENDBRANCH   4   6
ENDBRANCH   2   4
BRANCH   3   8
ATOM      8  C   UNL     1      -1.917 -14.007  -7.520  1.00  0.00    -0.003 C 
ATOM      9  C   UNL     1      -2.438 -15.056  -6.871  1.00  0.00    -0.020 C 
BRANCH   9  10
ATOM     10  C   UNL     1      -3.905 -15.361  -6.689  1.00  0.00    -0.010 CG0
ATOM     11  C   UNL     1      -4.044 -16.453  -5.604  1.00  0.00     0.016 C 
ATOM     12  C   UNL     1      -4.498 -15.917  -8.004  1.00  0.00     0.016 C 
ATOM     13  G   UNL     1      -4.641 -14.095  -6.193  1.00  0.00     0.000 G0
ENDBRANCH   9  10
ENDBRANCH   3   8
TORSDOF 0
ENDMDL
MODEL 7
REMARK VINA RESULT:    -3.509      1.936      3.448
REMARK INTER + INTRA:          -3.562
REMARK INTER:                  -4.319
REMARK INTRA:                   0.757
REMARK UNBOUND:                 0.768
REMARK SMILES CC1=CC=CC(C)(C)CC1=O
REMARK SMILES IDX 1 1 2 2 3 3 10 4 11 5 9 6 4 8 5 9 6 10 7 11 8 12
REMARK H PARENT
REMARK Flexibility Score: 80.00
ROOT
ATOM      1  C   UNL     1      -3.082 -11.074  -9.024  1.00  0.00     0.048 C 
ATOM      2  C   UNL     1      -3.694 -12.298  -8.385  1.00  0.00    -0.008 C 
ATOM      3  C   UNL     1      -4.810 -12.125  -7.644  1.00  0.00     0.007 C 
ENDROOT
BRANCH   2   4
ATOM      4  C   UNL     1      -2.974 -13.584  -8.561  1.00  0.00     0.159 C 
ATOM      5  O   UNL     1      -1.821 -13.570  -9.074  1.00  0.00    -0.295 OA
BRANCH   4   6
ATOM      6  C   UNL     1      -3.548 -14.912  -8.175  1.00  0.00     0.091 CG0
ATOM      7  G   UNL     1      -3.924 -15.002  -6.678  1.00  0.00     0.000 G0
ENDBRANCH   4   6
ENDBRANCH   2   4
BRANCH   3   8
ATOM      8  C   UNL     1      -5.610 -13.115  -6.885  1.00  0.00    -0.003 C 
ATOM      9  C   UNL     1      -5.260 -14.336  -6.460  1.00  0.00    -0.020 C 
BRANCH   9  10
ATOM     10  C   UNL     1      -3.933 -15.020  -6.688  1.00  0.00    -0.010 CG0
ATOM     11  C   UNL     1      -4.094 -16.518  -6.343  1.00  0.00     0.016 C 
ATOM     12  C   UNL     1      -2.862 -14.426  -5.745  1.00  0.00     0.016 C 
ATOM     13  G   UNL     1      -3.541 -14.909  -8.179  1.00  0.00     0.000 G0
ENDBRANCH   9  10
ENDBRANCH   3   8
TORSDOF 0
ENDMDL
MODEL 8
REMARK VINA RESULT:    -3.340      1.454      3.643
REMARK INTER + INTRA:          -3.354
REMARK INTER:                  -4.088
REMARK INTRA:                   0.734
REMARK UNBOUND:                 0.768
REMARK SMILES CC1=CC=CC(C)(C)CC1=O
REMARK SMILES IDX 1 1 2 2 3 3 10 4 11 5 9 6 4 8 5 9 6 10 7 11 8 12
REMARK H PARENT
REMARK Flexibility Score: 80.00
ROOT
ATOM      1  C   UNL     1      -6.377 -13.988  -9.101  1.00  0.00     0.048 C 
ATOM      2  C   UNL     1      -5.407 -14.241  -7.971  1.00  0.00    -0.008 C 
ATOM      3  C   UNL     1      -5.310 -13.301  -7.007  1.00  0.00     0.007 C 
ENDROOT
BRANCH   2   4
ATOM      4  C   UNL     1      -4.582 -15.472  -8.052  1.00  0.00     0.159 C 
ATOM      5  O   UNL     1      -4.584 -16.137  -9.125  1.00  0.00    -0.295 OA
BRANCH   4   6
ATOM      6  C   UNL     1      -3.751 -15.986  -6.917  1.00  0.00     0.091 CG0
ATOM      7  G   UNL     1      -2.701 -14.967  -6.421  1.00  0.00     0.000 G0
ENDBRANCH   4   6
ENDBRANCH   2   4
BRANCH   3   8
ATOM      8  C   UNL     1      -4.442 -13.255  -5.806  1.00  0.00    -0.003 C 
ATOM      9  C   UNL     1      -3.325 -13.946  -5.546  1.00  0.00    -0.020 C 
BRANCH   9  10
ATOM     10  C   UNL     1      -2.684 -14.986  -6.434  1.00  0.00    -0.010 CG0
ATOM     11  C   UNL     1      -1.666 -15.785  -5.589  1.00  0.00     0.016 C 
ATOM     12  C   UNL     1      -1.914 -14.297  -7.584  1.00  0.00     0.016 C 
ATOM     13  G   UNL     1      -3.762 -15.969  -6.944  1.00  0.00     0.000 G0
ENDBRANCH   9  10
ENDBRANCH   3   8
TORSDOF 0
ENDMDL
MODEL 9
REMARK VINA RESULT:    -3.054      1.306      3.288
REMARK INTER + INTRA:          -3.000
REMARK INTER:                  -4.044
REMARK INTRA:                   1.044
REMARK UNBOUND:                 0.768
REMARK SMILES CC1=CC=CC(C)(C)CC1=O
REMARK SMILES IDX 1 1 2 2 3 3 10 4 11 5 9 6 4 8 5 9 6 10 7 11 8 12
REMARK H PARENT
REMARK Flexibility Score: 80.00
ROOT
ATOM      1  C   UNL     1      -6.218 -12.939  -8.552  1.00  0.00     0.048 C 
ATOM      2  C   UNL     1      -4.914 -13.574  -8.133  1.00  0.00    -0.008 C 
ATOM      3  C   UNL     1      -3.793 -13.185  -8.779  1.00  0.00     0.007 C 
ENDROOT
BRANCH   2   4
ATOM      4  C   UNL     1      -4.980 -14.631  -7.095  1.00  0.00     0.159 C 
ATOM      5  O   UNL     1      -6.033 -14.745  -6.408  1.00  0.00    -0.295 OA
BRANCH   4   6
ATOM      6  C   UNL     1      -3.853 -15.573  -6.801  1.00  0.00     0.091 CG0
ATOM      7  G   UNL     1      -2.551 -14.853  -6.381  1.00  0.00     0.000 G0
ENDBRANCH   4   6
ENDBRANCH   2   4
BRANCH   3   8
ATOM      8  C   UNL     1      -2.392 -13.640  -8.611  1.00  0.00    -0.003 C 
ATOM      9  C   UNL     1      -1.851 -14.358  -7.618  1.00  0.00    -0.020 C 
BRANCH   9  10
ATOM     10  C   UNL     1      -2.561 -14.863  -6.385  1.00  0.00    -0.010 CG0
ATOM     11  C   UNL     1      -2.932 -13.647  -5.505  1.00  0.00     0.016 C 
ATOM     12  C   UNL     1      -1.616 -15.774  -5.567  1.00  0.00     0.016 C 
ATOM     13  G   UNL     1      -3.869 -15.577  -6.794  1.00  0.00     0.000 G0
ENDBRANCH   9  10
ENDBRANCH   3   8
TORSDOF 0
ENDMDL
