MODEL 1
REMARK VINA RESULT:    -4.083      0.000      0.000
REMARK INTER + INTRA:         -12.946
REMARK INTER:                  -9.334
REMARK INTRA:                  -3.612
REMARK UNBOUND:                -3.612
REMARK SMILES CCCCCCCCCCCCCCCCCCCCCCCC(=O)[O-]
REMARK SMILES IDX 13 1 14 2 15 3 16 4 17 5 18 6 19 7 20 8 21 9 22 10 23 11
REMARK SMILES IDX 24 12 25 13 26 14 12 15 11 16 10 17 9 18 8 19 7 20 6 21 5 22
REMARK SMILES IDX 4 23 3 24 2 25 1 26
REMARK H PARENT
REMARK Flexibility Score: inf
ROOT
ATOM      1  C   UNL     1     -47.235 -51.293  37.154  1.00  0.00     0.000 C 
ENDROOT
BRANCH   1   2
ATOM      2  C   UNL     1     -46.092 -50.282  37.014  1.00  0.00     0.000 C 
BRANCH   2   3
ATOM      3  C   UNL     1     -46.530 -48.887  37.489  1.00  0.00     0.000 C 
BRANCH   3   4
ATOM      4  C   UNL     1     -45.342 -47.997  37.914  1.00  0.00     0.000 C 
BRANCH   4   5
ATOM      5  C   UNL     1     -44.478 -48.599  39.040  1.00  0.00     0.000 C 
BRANCH   5   6
ATOM      6  C   UNL     1     -42.970 -48.675  38.737  1.00  0.00     0.000 C 
BRANCH   6   7
ATOM      7  C   UNL     1     -42.111 -47.567  39.382  1.00  0.00     0.000 C 
BRANCH   7   8
ATOM      8  C   UNL     1     -41.486 -47.928  40.743  1.00  0.00     0.000 C 
BRANCH   8   9
ATOM      9  C   UNL     1     -42.360 -47.496  41.934  1.00  0.00     0.000 C 
BRANCH   9  10
ATOM     10  C   UNL     1     -42.347 -45.976  42.160  1.00  0.00     0.006 C 
BRANCH  10  11
ATOM     11  C   UNL     1     -40.933 -45.383  42.164  1.00  0.00     0.053 C 
BRANCH  11  12
ATOM     12  C   UNL     1     -40.981 -43.918  41.862  1.00  0.00     0.041 C 
ATOM     13  O   UNL     1     -41.099 -43.082  42.795  1.00  0.00    -0.550 OA
ATOM     14  O   UNL     1     -40.943 -43.479  40.544  1.00  0.00    -0.550 OA
ENDBRANCH  11  12
ENDBRANCH  10  11
ENDBRANCH   9  10
ENDBRANCH   8   9
ENDBRANCH   7   8
ENDBRANCH   6   7
ENDBRANCH   5   6
ENDBRANCH   4   5
ENDBRANCH   3   4
ENDBRANCH   2   3
ENDBRANCH   1   2
BRANCH   1  15
ATOM     15  C   UNL     1     -46.717 -52.651  37.649  1.00  0.00     0.000 C 
BRANCH  15  16
ATOM     16  C   UNL     1     -47.794 -53.480  38.371  1.00  0.00     0.000 C 
BRANCH  16  17
ATOM     17  C   UNL     1     -47.220 -54.546  39.327  1.00  0.00     0.000 C 
BRANCH  17  18
ATOM     18  C   UNL     1     -47.933 -54.546  40.691  1.00  0.00    -0.000 C 
BRANCH  18  19
ATOM     19  C   UNL     1     -48.912 -53.367  40.861  1.00  0.00    -0.000 C 
BRANCH  19  20
ATOM     20  C   UNL     1     -48.538 -52.397  42.001  1.00  0.00    -0.000 C 
BRANCH  20  21
ATOM     21  C   UNL     1     -48.290 -50.944  41.560  1.00  0.00    -0.000 C 
BRANCH  21  22
ATOM     22  C   UNL     1     -46.924 -50.738  40.866  1.00  0.00    -0.000 C 
BRANCH  22  23
ATOM     23  C   UNL     1     -45.796 -51.524  41.557  1.00  0.00    -0.000 C 
BRANCH  23  24
ATOM     24  C   UNL     1     -44.701 -51.981  40.579  1.00  0.00    -0.000 C 
BRANCH  24  25
ATOM     25  C   UNL     1     -43.291 -51.560  41.020  1.00  0.00    -0.003 C 
ATOM     26  C   UNL     1     -43.315 -50.918  42.405  1.00  0.00     0.004 C 
ENDBRANCH  24  25
ENDBRANCH  23  24
ENDBRANCH  22  23
ENDBRANCH  21  22
ENDBRANCH  20  21
ENDBRANCH  19  20
ENDBRANCH  18  19
ENDBRANCH  17  18
ENDBRANCH  16  17
ENDBRANCH  15  16
ENDBRANCH   1  15
TORSDOF 22
ENDMDL
MODEL 2
REMARK VINA RESULT:    -4.062      1.997      4.462
REMARK INTER + INTRA:         -12.898
REMARK INTER:                  -8.570
REMARK INTRA:                  -4.328
REMARK UNBOUND:                -3.612
REMARK SMILES CCCCCCCCCCCCCCCCCCCCCCCC(=O)[O-]
REMARK SMILES IDX 13 1 14 2 15 3 16 4 17 5 18 6 19 7 20 8 21 9 22 10 23 11
REMARK SMILES IDX 24 12 25 13 26 14 12 15 11 16 10 17 9 18 8 19 7 20 6 21 5 22
REMARK SMILES IDX 4 23 3 24 2 25 1 26
REMARK H PARENT
REMARK Flexibility Score: inf
ROOT
ATOM      1  C   UNL     1     -47.951 -54.983  40.208  1.00  0.00     0.000 C 
ENDROOT
BRANCH   1   2
ATOM      2  C   UNL     1     -47.158 -54.396  39.035  1.00  0.00     0.000 C 
BRANCH   2   3
ATOM      3  C   UNL     1     -48.055 -53.515  38.151  1.00  0.00     0.000 C 
BRANCH   3   4
ATOM      4  C   UNL     1     -47.257 -52.701  37.109  1.00  0.00     0.000 C 
BRANCH   4   5
ATOM      5  C   UNL     1     -46.987 -51.242  37.526  1.00  0.00     0.000 C 
BRANCH   5   6
ATOM      6  C   UNL     1     -45.873 -50.532  36.734  1.00  0.00     0.000 C 
BRANCH   6   7
ATOM      7  C   UNL     1     -45.273 -49.283  37.416  1.00  0.00     0.000 C 
BRANCH   7   8
ATOM      8  C   UNL     1     -43.825 -48.946  37.013  1.00  0.00     0.000 C 
BRANCH   8   9
ATOM      9  C   UNL     1     -43.010 -48.340  38.169  1.00  0.00     0.000 C 
BRANCH   9  10
ATOM     10  C   UNL     1     -43.881 -47.977  39.382  1.00  0.00     0.006 C 
BRANCH  10  11
ATOM     11  C   UNL     1     -43.095 -47.267  40.492  1.00  0.00     0.053 C 
BRANCH  11  12
ATOM     12  C   UNL     1     -43.376 -45.797  40.470  1.00  0.00     0.041 C 
ATOM     13  O   UNL     1     -42.428 -44.970  40.482  1.00  0.00    -0.550 OA
ATOM     14  O   UNL     1     -44.689 -45.340  40.482  1.00  0.00    -0.550 OA
ENDBRANCH  11  12
ENDBRANCH  10  11
ENDBRANCH   9  10
ENDBRANCH   8   9
ENDBRANCH   7   8
ENDBRANCH   6   7
ENDBRANCH   5   6
ENDBRANCH   4   5
ENDBRANCH   3   4
ENDBRANCH   2   3
ENDBRANCH   1   2
BRANCH   1  15
ATOM     15  C   UNL     1     -47.737 -54.162  41.488  1.00  0.00     0.000 C 
BRANCH  15  16
ATOM     16  C   UNL     1     -48.758 -53.022  41.649  1.00  0.00     0.000 C 
BRANCH  16  17
ATOM     17  C   UNL     1     -48.195 -51.630  41.290  1.00  0.00     0.000 C 
BRANCH  17  18
ATOM     18  C   UNL     1     -46.822 -51.376  41.936  1.00  0.00    -0.000 C 
BRANCH  18  19
ATOM     19  C   UNL     1     -45.750 -50.927  40.921  1.00  0.00    -0.000 C 
BRANCH  19  20
ATOM     20  C   UNL     1     -44.901 -52.081  40.350  1.00  0.00    -0.000 C 
BRANCH  20  21
ATOM     21  C   UNL     1     -43.541 -51.657  39.769  1.00  0.00    -0.000 C 
BRANCH  21  22
ATOM     22  C   UNL     1     -43.174 -52.399  38.463  1.00  0.00    -0.000 C 
BRANCH  22  23
ATOM     23  C   UNL     1     -43.368 -53.920  38.583  1.00  0.00    -0.000 C 
BRANCH  23  24
ATOM     24  C   UNL     1     -43.958 -54.549  37.310  1.00  0.00    -0.000 C 
BRANCH  24  25
ATOM     25  C   UNL     1     -43.867 -53.623  36.088  1.00  0.00    -0.003 C 
ATOM     26  C   UNL     1     -43.346 -54.373  34.865  1.00  0.00     0.004 C 
ENDBRANCH  24  25
ENDBRANCH  23  24
ENDBRANCH  22  23
ENDBRANCH  21  22
ENDBRANCH  20  21
ENDBRANCH  19  20
ENDBRANCH  18  19
ENDBRANCH  17  18
ENDBRANCH  16  17
ENDBRANCH  15  16
ENDBRANCH   1  15
TORSDOF 22
ENDMDL
MODEL 3
REMARK VINA RESULT:    -4.056      4.476      7.875
REMARK INTER + INTRA:         -12.885
REMARK INTER:                  -8.829
REMARK INTRA:                  -4.056
REMARK UNBOUND:                -3.612
REMARK SMILES CCCCCCCCCCCCCCCCCCCCCCCC(=O)[O-]
REMARK SMILES IDX 13 1 14 2 15 3 16 4 17 5 18 6 19 7 20 8 21 9 22 10 23 11
REMARK SMILES IDX 24 12 25 13 26 14 12 15 11 16 10 17 9 18 8 19 7 20 6 21 5 22
REMARK SMILES IDX 4 23 3 24 2 25 1 26
REMARK H PARENT
REMARK Flexibility Score: inf
ROOT
ATOM      1  C   UNL     1     -44.183 -48.229  38.508  1.00  0.00     0.000 C 
ENDROOT
BRANCH   1   2
ATOM      2  C   UNL     1     -44.527 -48.664  39.938  1.00  0.00     0.000 C 
BRANCH   2   3
ATOM      3  C   UNL     1     -43.335 -49.376  40.598  1.00  0.00     0.000 C 
BRANCH   3   4
ATOM      4  C   UNL     1     -43.768 -50.438  41.632  1.00  0.00     0.000 C 
BRANCH   4   5
ATOM      5  C   UNL     1     -44.593 -51.595  41.034  1.00  0.00     0.000 C 
BRANCH   5   6
ATOM      6  C   UNL     1     -45.894 -51.927  41.787  1.00  0.00     0.000 C 
BRANCH   6   7
ATOM      7  C   UNL     1     -47.187 -51.382  41.141  1.00  0.00     0.000 C 
BRANCH   7   8
ATOM      8  C   UNL     1     -48.499 -51.928  41.736  1.00  0.00     0.000 C 
BRANCH   8   9
ATOM      9  C   UNL     1     -49.170 -52.978  40.834  1.00  0.00     0.000 C 
BRANCH   9  10
ATOM     10  C   UNL     1     -48.307 -54.236  40.643  1.00  0.00     0.006 C 
BRANCH  10  11
ATOM     11  C   UNL     1     -48.007 -54.539  39.170  1.00  0.00     0.053 C 
BRANCH  11  12
ATOM     12  C   UNL     1     -47.459 -55.924  39.024  1.00  0.00     0.041 C 
ATOM     13  O   UNL     1     -48.164 -56.920  39.332  1.00  0.00    -0.550 OA
ATOM     14  O   UNL     1     -46.152 -56.112  38.591  1.00  0.00    -0.550 OA
ENDBRANCH  11  12
ENDBRANCH  10  11
ENDBRANCH   9  10
ENDBRANCH   8   9
ENDBRANCH   7   8
ENDBRANCH   6   7
ENDBRANCH   5   6
ENDBRANCH   4   5
ENDBRANCH   3   4
ENDBRANCH   2   3
ENDBRANCH   1   2
BRANCH   1  15
ATOM     15  C   UNL     1     -45.380 -48.426  37.567  1.00  0.00     0.000 C 
BRANCH  15  16
ATOM     16  C   UNL     1     -46.397 -49.455  38.093  1.00  0.00     0.000 C 
BRANCH  16  17
ATOM     17  C   UNL     1     -47.154 -50.206  36.977  1.00  0.00     0.000 C 
BRANCH  17  18
ATOM     18  C   UNL     1     -47.105 -51.733  37.170  1.00  0.00    -0.000 C 
BRANCH  18  19
ATOM     19  C   UNL     1     -45.774 -52.223  37.776  1.00  0.00    -0.000 C 
BRANCH  19  20
ATOM     20  C   UNL     1     -45.032 -53.261  36.908  1.00  0.00    -0.000 C 
BRANCH  20  21
ATOM     21  C   UNL     1     -43.613 -52.850  36.479  1.00  0.00    -0.000 C 
BRANCH  21  22
ATOM     22  C   UNL     1     -43.113 -51.560  37.167  1.00  0.00    -0.000 C 
BRANCH  22  23
ATOM     23  C   UNL     1     -42.592 -50.524  36.155  1.00  0.00    -0.000 C 
BRANCH  23  24
ATOM     24  C   UNL     1     -43.589 -50.245  35.020  1.00  0.00    -0.000 C 
BRANCH  24  25
ATOM     25  C   UNL     1     -43.233 -48.992  34.206  1.00  0.00    -0.003 C 
ATOM     26  C   UNL     1     -41.889 -48.414  34.642  1.00  0.00     0.004 C 
ENDBRANCH  24  25
ENDBRANCH  23  24
ENDBRANCH  22  23
ENDBRANCH  21  22
ENDBRANCH  20  21
ENDBRANCH  19  20
ENDBRANCH  18  19
ENDBRANCH  17  18
ENDBRANCH  16  17
ENDBRANCH  15  16
ENDBRANCH   1  15
TORSDOF 22
ENDMDL
MODEL 4
REMARK VINA RESULT:    -4.052      2.438      5.605
REMARK INTER + INTRA:         -12.875
REMARK INTER:                  -8.535
REMARK INTRA:                  -4.340
REMARK UNBOUND:                -3.612
REMARK SMILES CCCCCCCCCCCCCCCCCCCCCCCC(=O)[O-]
REMARK SMILES IDX 13 1 14 2 15 3 16 4 17 5 18 6 19 7 20 8 21 9 22 10 23 11
REMARK SMILES IDX 24 12 25 13 26 14 12 15 11 16 10 17 9 18 8 19 7 20 6 21 5 22
REMARK SMILES IDX 4 23 3 24 2 25 1 26
REMARK H PARENT
REMARK Flexibility Score: inf
ROOT
ATOM      1  C   UNL     1     -45.047 -51.572  41.079  1.00  0.00     0.000 C 
ENDROOT
BRANCH   1   2
ATOM      2  C   UNL     1     -46.364 -50.815  40.877  1.00  0.00     0.000 C 
BRANCH   2   3
ATOM      3  C   UNL     1     -47.239 -51.507  39.819  1.00  0.00     0.000 C 
BRANCH   3   4
ATOM      4  C   UNL     1     -46.416 -52.102  38.655  1.00  0.00     0.000 C 
BRANCH   4   5
ATOM      5  C   UNL     1     -46.829 -51.580  37.264  1.00  0.00     0.000 C 
BRANCH   5   6
ATOM      6  C   UNL     1     -47.098 -50.065  37.189  1.00  0.00     0.000 C 
BRANCH   6   7
ATOM      7  C   UNL     1     -45.841 -49.178  37.066  1.00  0.00     0.000 C 
BRANCH   7   8
ATOM      8  C   UNL     1     -45.531 -48.302  38.295  1.00  0.00     0.000 C 
BRANCH   8   9
ATOM      9  C   UNL     1     -44.025 -48.198  38.589  1.00  0.00     0.000 C 
BRANCH   9  10
ATOM     10  C   UNL     1     -43.716 -47.296  39.794  1.00  0.00     0.006 C 
BRANCH  10  11
ATOM     11  C   UNL     1     -42.222 -46.979  39.938  1.00  0.00     0.053 C 
BRANCH  11  12
ATOM     12  C   UNL     1     -42.017 -45.868  40.920  1.00  0.00     0.041 C 
ATOM     13  O   UNL     1     -40.994 -45.139  40.848  1.00  0.00    -0.550 OA
ATOM     14  O   UNL     1     -42.936 -45.667  41.943  1.00  0.00    -0.550 OA
ENDBRANCH  11  12
ENDBRANCH  10  11
ENDBRANCH   9  10
ENDBRANCH   8   9
ENDBRANCH   7   8
ENDBRANCH   6   7
ENDBRANCH   5   6
ENDBRANCH   4   5
ENDBRANCH   3   4
ENDBRANCH   2   3
ENDBRANCH   1   2
BRANCH   1  15
ATOM     15  C   UNL     1     -43.897 -50.606  41.399  1.00  0.00     0.000 C 
BRANCH  15  16
ATOM     16  C   UNL     1     -42.641 -50.863  40.547  1.00  0.00     0.000 C 
BRANCH  16  17
ATOM     17  C   UNL     1     -42.870 -51.855  39.387  1.00  0.00     0.000 C 
BRANCH  17  18
ATOM     18  C   UNL     1     -41.779 -51.747  38.307  1.00  0.00    -0.000 C 
BRANCH  18  19
ATOM     19  C   UNL     1     -42.300 -52.055  36.889  1.00  0.00    -0.000 C 
BRANCH  19  20
ATOM     20  C   UNL     1     -43.282 -51.000  36.336  1.00  0.00    -0.000 C 
BRANCH  20  21
ATOM     21  C   UNL     1     -43.556 -51.100  34.825  1.00  0.00    -0.000 C 
BRANCH  21  22
ATOM     22  C   UNL     1     -43.335 -49.767  34.073  1.00  0.00    -0.000 C 
BRANCH  22  23
ATOM     23  C   UNL     1     -42.859 -48.642  35.008  1.00  0.00    -0.000 C 
BRANCH  23  24
ATOM     24  C   UNL     1     -41.560 -47.976  34.528  1.00  0.00    -0.000 C 
BRANCH  24  25
ATOM     25  C   UNL     1     -40.341 -48.360  35.380  1.00  0.00    -0.003 C 
ATOM     26  C   UNL     1     -40.710 -48.459  36.858  1.00  0.00     0.004 C 
ENDBRANCH  24  25
ENDBRANCH  23  24
ENDBRANCH  22  23
ENDBRANCH  21  22
ENDBRANCH  20  21
ENDBRANCH  19  20
ENDBRANCH  18  19
ENDBRANCH  17  18
ENDBRANCH  16  17
ENDBRANCH  15  16
ENDBRANCH   1  15
TORSDOF 22
ENDMDL
MODEL 5
REMARK VINA RESULT:    -4.042      2.528      4.771
REMARK INTER + INTRA:         -12.853
REMARK INTER:                  -8.843
REMARK INTRA:                  -4.010
REMARK UNBOUND:                -3.612
REMARK SMILES CCCCCCCCCCCCCCCCCCCCCCCC(=O)[O-]
REMARK SMILES IDX 13 1 14 2 15 3 16 4 17 5 18 6 19 7 20 8 21 9 22 10 23 11
REMARK SMILES IDX 24 12 25 13 26 14 12 15 11 16 10 17 9 18 8 19 7 20 6 21 5 22
REMARK SMILES IDX 4 23 3 24 2 25 1 26
REMARK H PARENT
REMARK Flexibility Score: inf
ROOT
ATOM      1  C   UNL     1     -40.192 -49.589  37.356  1.00  0.00     0.000 C 
ENDROOT
BRANCH   1   2
ATOM      2  C   UNL     1     -40.643 -48.381  36.528  1.00  0.00     0.000 C 
BRANCH   2   3
ATOM      3  C   UNL     1     -40.848 -48.768  35.054  1.00  0.00     0.000 C 
BRANCH   3   4
ATOM      4  C   UNL     1     -42.240 -48.372  34.517  1.00  0.00     0.000 C 
BRANCH   4   5
ATOM      5  C   UNL     1     -43.188 -49.567  34.290  1.00  0.00     0.000 C 
BRANCH   5   6
ATOM      6  C   UNL     1     -44.220 -49.803  35.408  1.00  0.00     0.000 C 
BRANCH   6   7
ATOM      7  C   UNL     1     -44.243 -48.733  36.521  1.00  0.00     0.000 C 
BRANCH   7   8
ATOM      8  C   UNL     1     -45.301 -48.951  37.620  1.00  0.00     0.000 C 
BRANCH   8   9
ATOM      9  C   UNL     1     -44.784 -48.591  39.024  1.00  0.00     0.000 C 
BRANCH   9  10
ATOM     10  C   UNL     1     -43.455 -47.818  38.987  1.00  0.00     0.006 C 
BRANCH  10  11
ATOM     11  C   UNL     1     -43.029 -47.294  40.364  1.00  0.00     0.053 C 
BRANCH  11  12
ATOM     12  C   UNL     1     -43.266 -45.819  40.456  1.00  0.00     0.041 C 
ATOM     13  O   UNL     1     -42.294 -45.025  40.545  1.00  0.00    -0.550 OA
ATOM     14  O   UNL     1     -44.565 -45.325  40.490  1.00  0.00    -0.550 OA
ENDBRANCH  11  12
ENDBRANCH  10  11
ENDBRANCH   9  10
ENDBRANCH   8   9
ENDBRANCH   7   8
ENDBRANCH   6   7
ENDBRANCH   5   6
ENDBRANCH   4   5
ENDBRANCH   3   4
ENDBRANCH   2   3
ENDBRANCH   1   2
BRANCH   1  15
ATOM     15  C   UNL     1     -41.158 -50.770  37.184  1.00  0.00     0.000 C 
BRANCH  15  16
ATOM     16  C   UNL     1     -41.879 -51.152  38.489  1.00  0.00     0.000 C 
BRANCH  16  17
ATOM     17  C   UNL     1     -43.204 -51.913  38.266  1.00  0.00     0.000 C 
BRANCH  17  18
ATOM     18  C   UNL     1     -43.117 -52.893  37.082  1.00  0.00    -0.000 C 
BRANCH  18  19
ATOM     19  C   UNL     1     -44.487 -53.477  36.680  1.00  0.00    -0.000 C 
BRANCH  19  20
ATOM     20  C   UNL     1     -45.693 -52.728  37.285  1.00  0.00    -0.000 C 
BRANCH  20  21
ATOM     21  C   UNL     1     -46.572 -53.571  38.226  1.00  0.00    -0.000 C 
BRANCH  21  22
ATOM     22  C   UNL     1     -47.554 -52.725  39.069  1.00  0.00    -0.000 C 
BRANCH  22  23
ATOM     23  C   UNL     1     -46.884 -51.471  39.657  1.00  0.00    -0.000 C 
BRANCH  23  24
ATOM     24  C   UNL     1     -47.391 -51.130  41.068  1.00  0.00    -0.000 C 
BRANCH  24  25
ATOM     25  C   UNL     1     -46.909 -52.124  42.134  1.00  0.00    -0.003 C 
ATOM     26  C   UNL     1     -48.086 -52.832  42.801  1.00  0.00     0.004 C 
ENDBRANCH  24  25
ENDBRANCH  23  24
ENDBRANCH  22  23
ENDBRANCH  21  22
ENDBRANCH  20  21
ENDBRANCH  19  20
ENDBRANCH  18  19
ENDBRANCH  17  18
ENDBRANCH  16  17
ENDBRANCH  15  16
ENDBRANCH   1  15
TORSDOF 22
ENDMDL
MODEL 6
REMARK VINA RESULT:    -4.028      5.831      9.412
REMARK INTER + INTRA:         -12.821
REMARK INTER:                  -9.506
REMARK INTRA:                  -3.315
REMARK UNBOUND:                -3.612
REMARK SMILES CCCCCCCCCCCCCCCCCCCCCCCC(=O)[O-]
REMARK SMILES IDX 13 1 14 2 15 3 16 4 17 5 18 6 19 7 20 8 21 9 22 10 23 11
REMARK SMILES IDX 24 12 25 13 26 14 12 15 11 16 10 17 9 18 8 19 7 20 6 21 5 22
REMARK SMILES IDX 4 23 3 24 2 25 1 26
REMARK H PARENT
REMARK Flexibility Score: inf
ROOT
ATOM      1  C   UNL     1     -47.145 -54.519  42.685  1.00  0.00     0.000 C 
ENDROOT
BRANCH   1   2
ATOM      2  C   UNL     1     -47.730 -53.166  43.105  1.00  0.00     0.000 C 
BRANCH   2   3
ATOM      3  C   UNL     1     -48.687 -52.624  42.031  1.00  0.00     0.000 C 
BRANCH   3   4
ATOM      4  C   UNL     1     -48.788 -53.546  40.796  1.00  0.00     0.000 C 
BRANCH   4   5
ATOM      5  C   UNL     1     -48.204 -52.934  39.507  1.00  0.00     0.000 C 
BRANCH   5   6
ATOM      6  C   UNL     1     -47.793 -53.953  38.428  1.00  0.00     0.000 C 
BRANCH   6   7
ATOM      7  C   UNL     1     -46.391 -54.574  38.607  1.00  0.00     0.000 C 
BRANCH   7   8
ATOM      8  C   UNL     1     -46.360 -56.111  38.699  1.00  0.00     0.000 C 
BRANCH   8   9
ATOM      9  C   UNL     1     -47.657 -56.700  39.281  1.00  0.00     0.000 C 
BRANCH   9  10
ATOM     10  C   UNL     1     -48.246 -57.818  38.405  1.00  0.00     0.006 C 
BRANCH  10  11
ATOM     11  C   UNL     1     -47.199 -58.845  37.960  1.00  0.00     0.053 C 
BRANCH  11  12
ATOM     12  C   UNL     1     -46.969 -59.857  39.039  1.00  0.00     0.041 C 
ATOM     13  O   UNL     1     -47.894 -60.149  39.841  1.00  0.00    -0.550 OA
ATOM     14  O   UNL     1     -45.718 -60.443  39.187  1.00  0.00    -0.550 OA
ENDBRANCH  11  12
ENDBRANCH  10  11
ENDBRANCH   9  10
ENDBRANCH   8   9
ENDBRANCH   7   8
ENDBRANCH   6   7
ENDBRANCH   5   6
ENDBRANCH   4   5
ENDBRANCH   3   4
ENDBRANCH   2   3
ENDBRANCH   1   2
BRANCH   1  15
ATOM     15  C   UNL     1     -45.643 -54.404  42.386  1.00  0.00     0.000 C 
BRANCH  15  16
ATOM     16  C   UNL     1     -45.100 -52.977  42.577  1.00  0.00     0.000 C 
BRANCH  16  17
ATOM     17  C   UNL     1     -44.810 -52.241  41.251  1.00  0.00     0.000 C 
BRANCH  17  18
ATOM     18  C   UNL     1     -45.487 -50.860  41.195  1.00  0.00    -0.000 C 
BRANCH  18  19
ATOM     19  C   UNL     1     -45.309 -50.155  39.834  1.00  0.00    -0.000 C 
BRANCH  19  20
ATOM     20  C   UNL     1     -45.284 -51.115  38.626  1.00  0.00    -0.000 C 
BRANCH  20  21
ATOM     21  C   UNL     1     -45.764 -50.500  37.300  1.00  0.00    -0.000 C 
BRANCH  21  22
ATOM     22  C   UNL     1     -45.375 -49.013  37.138  1.00  0.00    -0.000 C 
BRANCH  22  23
ATOM     23  C   UNL     1     -44.131 -48.830  36.252  1.00  0.00    -0.000 C 
BRANCH  23  24
ATOM     24  C   UNL     1     -43.931 -49.985  35.257  1.00  0.00    -0.000 C 
BRANCH  24  25
ATOM     25  C   UNL     1     -42.926 -49.650  34.145  1.00  0.00    -0.003 C 
ATOM     26  C   UNL     1     -42.321 -48.263  34.348  1.00  0.00     0.004 C 
ENDBRANCH  24  25
ENDBRANCH  23  24
ENDBRANCH  22  23
ENDBRANCH  21  22
ENDBRANCH  20  21
ENDBRANCH  19  20
ENDBRANCH  18  19
ENDBRANCH  17  18
ENDBRANCH  16  17
ENDBRANCH  15  16
ENDBRANCH   1  15
TORSDOF 22
ENDMDL
MODEL 7
REMARK VINA RESULT:    -3.997      1.239      3.572
REMARK INTER + INTRA:         -12.749
REMARK INTER:                  -8.270
REMARK INTRA:                  -4.479
REMARK UNBOUND:                -3.612
REMARK SMILES CCCCCCCCCCCCCCCCCCCCCCCC(=O)[O-]
REMARK SMILES IDX 13 1 14 2 15 3 16 4 17 5 18 6 19 7 20 8 21 9 22 10 23 11
REMARK SMILES IDX 24 12 25 13 26 14 12 15 11 16 10 17 9 18 8 19 7 20 6 21 5 22
REMARK SMILES IDX 4 23 3 24 2 25 1 26
REMARK H PARENT
REMARK Flexibility Score: inf
ROOT
ATOM      1  C   UNL     1     -46.845 -50.646  41.132  1.00  0.00     0.000 C 
ENDROOT
BRANCH   1   2
ATOM      2  C   UNL     1     -45.332 -50.786  40.935  1.00  0.00     0.000 C 
BRANCH   2   3
ATOM      3  C   UNL     1     -44.884 -52.244  41.132  1.00  0.00     0.000 C 
BRANCH   3   4
ATOM      4  C   UNL     1     -43.490 -52.530  40.533  1.00  0.00     0.000 C 
BRANCH   4   5
ATOM      5  C   UNL     1     -43.238 -51.844  39.175  1.00  0.00     0.000 C 
BRANCH   5   6
ATOM      6  C   UNL     1     -41.876 -51.138  39.044  1.00  0.00     0.000 C 
BRANCH   6   7
ATOM      7  C   UNL     1     -41.895 -49.616  39.307  1.00  0.00     0.000 C 
BRANCH   7   8
ATOM      8  C   UNL     1     -41.280 -49.174  40.648  1.00  0.00     0.000 C 
BRANCH   8   9
ATOM      9  C   UNL     1     -42.334 -48.981  41.753  1.00  0.00     0.000 C 
BRANCH   9  10
ATOM     10  C   UNL     1     -42.379 -47.540  42.286  1.00  0.00     0.006 C 
BRANCH  10  11
ATOM     11  C   UNL     1     -41.380 -46.611  41.585  1.00  0.00     0.053 C 
BRANCH  11  12
ATOM     12  C   UNL     1     -42.049 -45.331  41.189  1.00  0.00     0.041 C 
ATOM     13  O   UNL     1     -43.304 -45.265  41.123  1.00  0.00    -0.550 OA
ATOM     14  O   UNL     1     -41.281 -44.223  40.850  1.00  0.00    -0.550 OA
ENDBRANCH  11  12
ENDBRANCH  10  11
ENDBRANCH   9  10
ENDBRANCH   8   9
ENDBRANCH   7   8
ENDBRANCH   6   7
ENDBRANCH   5   6
ENDBRANCH   4   5
ENDBRANCH   3   4
ENDBRANCH   2   3
ENDBRANCH   1   2
BRANCH   1  15
ATOM     15  C   UNL     1     -47.402 -51.794  41.985  1.00  0.00     0.000 C 
BRANCH  15  16
ATOM     16  C   UNL     1     -48.899 -52.053  41.743  1.00  0.00     0.000 C 
BRANCH  16  17
ATOM     17  C   UNL     1     -49.178 -53.218  40.769  1.00  0.00     0.000 C 
BRANCH  17  18
ATOM     18  C   UNL     1     -47.976 -54.172  40.648  1.00  0.00    -0.000 C 
BRANCH  18  19
ATOM     19  C   UNL     1     -47.403 -54.244  39.218  1.00  0.00    -0.000 C 
BRANCH  19  20
ATOM     20  C   UNL     1     -47.744 -53.021  38.341  1.00  0.00    -0.000 C 
BRANCH  20  21
ATOM     21  C   UNL     1     -46.590 -52.518  37.456  1.00  0.00    -0.000 C 
BRANCH  21  22
ATOM     22  C   UNL     1     -46.536 -50.978  37.335  1.00  0.00    -0.000 C 
BRANCH  22  23
ATOM     23  C   UNL     1     -45.341 -50.502  36.490  1.00  0.00    -0.000 C 
BRANCH  23  24
ATOM     24  C   UNL     1     -44.719 -49.199  37.017  1.00  0.00    -0.000 C 
BRANCH  24  25
ATOM     25  C   UNL     1     -45.567 -48.530  38.109  1.00  0.00    -0.003 C 
ATOM     26  C   UNL     1     -44.714 -47.621  38.991  1.00  0.00     0.004 C 
ENDBRANCH  24  25
ENDBRANCH  23  24
ENDBRANCH  22  23
ENDBRANCH  21  22
ENDBRANCH  20  21
ENDBRANCH  19  20
ENDBRANCH  18  19
ENDBRANCH  17  18
ENDBRANCH  16  17
ENDBRANCH  15  16
ENDBRANCH   1  15
TORSDOF 22
ENDMDL
MODEL 8
REMARK VINA RESULT:    -3.966      1.793      3.172
REMARK INTER + INTRA:         -12.678
REMARK INTER:                  -8.560
REMARK INTRA:                  -4.118
REMARK UNBOUND:                -3.612
REMARK SMILES CCCCCCCCCCCCCCCCCCCCCCCC(=O)[O-]
REMARK SMILES IDX 13 1 14 2 15 3 16 4 17 5 18 6 19 7 20 8 21 9 22 10 23 11
REMARK SMILES IDX 24 12 25 13 26 14 12 15 11 16 10 17 9 18 8 19 7 20 6 21 5 22
REMARK SMILES IDX 4 23 3 24 2 25 1 26
REMARK H PARENT
REMARK Flexibility Score: inf
ROOT
ATOM      1  C   UNL     1     -45.381 -48.866  37.615  1.00  0.00     0.000 C 
ENDROOT
BRANCH   1   2
ATOM      2  C   UNL     1     -44.487 -49.047  36.383  1.00  0.00     0.000 C 
BRANCH   2   3
ATOM      3  C   UNL     1     -44.340 -50.534  36.024  1.00  0.00     0.000 C 
BRANCH   3   4
ATOM      4  C   UNL     1     -42.867 -50.994  35.962  1.00  0.00     0.000 C 
BRANCH   4   5
ATOM      5  C   UNL     1     -41.910 -50.151  36.828  1.00  0.00     0.000 C 
BRANCH   5   6
ATOM      6  C   UNL     1     -41.747 -50.633  38.281  1.00  0.00     0.000 C 
BRANCH   6   7
ATOM      7  C   UNL     1     -41.084 -49.623  39.241  1.00  0.00     0.000 C 
BRANCH   7   8
ATOM      8  C   UNL     1     -42.058 -48.797  40.102  1.00  0.00     0.000 C 
BRANCH   8   9
ATOM      9  C   UNL     1     -42.584 -47.547  39.374  1.00  0.00     0.000 C 
BRANCH   9  10
ATOM     10  C   UNL     1     -43.701 -46.833  40.152  1.00  0.00     0.006 C 
BRANCH  10  11
ATOM     11  C   UNL     1     -43.332 -45.398  40.549  1.00  0.00     0.053 C 
BRANCH  11  12
ATOM     12  C   UNL     1     -42.428 -45.404  41.742  1.00  0.00     0.041 C 
ATOM     13  O   UNL     1     -42.527 -46.311  42.608  1.00  0.00    -0.550 OA
ATOM     14  O   UNL     1     -41.506 -44.379  41.919  1.00  0.00    -0.550 OA
ENDBRANCH  11  12
ENDBRANCH  10  11
ENDBRANCH   9  10
ENDBRANCH   8   9
ENDBRANCH   7   8
ENDBRANCH   6   7
ENDBRANCH   5   6
ENDBRANCH   4   5
ENDBRANCH   3   4
ENDBRANCH   2   3
ENDBRANCH   1   2
BRANCH   1  15
ATOM     15  C   UNL     1     -45.847 -50.222  38.165  1.00  0.00     0.000 C 
BRANCH  15  16
ATOM     16  C   UNL     1     -45.192 -50.583  39.509  1.00  0.00     0.000 C 
BRANCH  16  17
ATOM     17  C   UNL     1     -46.178 -50.594  40.697  1.00  0.00     0.000 C 
BRANCH  17  18
ATOM     18  C   UNL     1     -45.804 -51.652  41.751  1.00  0.00    -0.000 C 
BRANCH  18  19
ATOM     19  C   UNL     1     -47.032 -52.356  42.362  1.00  0.00    -0.000 C 
BRANCH  19  20
ATOM     20  C   UNL     1     -48.378 -51.922  41.746  1.00  0.00    -0.000 C 
BRANCH  20  21
ATOM     21  C   UNL     1     -49.174 -53.050  41.066  1.00  0.00    -0.000 C 
BRANCH  21  22
ATOM     22  C   UNL     1     -48.309 -53.943  40.147  1.00  0.00    -0.000 C 
BRANCH  22  23
ATOM     23  C   UNL     1     -48.037 -53.283  38.784  1.00  0.00    -0.000 C 
BRANCH  23  24
ATOM     24  C   UNL     1     -46.733 -53.773  38.133  1.00  0.00    -0.000 C 
BRANCH  24  25
ATOM     25  C   UNL     1     -45.744 -54.366  39.147  1.00  0.00    -0.003 C 
ATOM     26  C   UNL     1     -44.304 -54.002  38.791  1.00  0.00     0.004 C 
ENDBRANCH  24  25
ENDBRANCH  23  24
ENDBRANCH  22  23
ENDBRANCH  21  22
ENDBRANCH  20  21
ENDBRANCH  19  20
ENDBRANCH  18  19
ENDBRANCH  17  18
ENDBRANCH  16  17
ENDBRANCH  15  16
ENDBRANCH   1  15
TORSDOF 22
ENDMDL
MODEL 9
REMARK VINA RESULT:    -3.933      3.864      7.012
REMARK INTER + INTRA:         -12.603
REMARK INTER:                  -7.665
REMARK INTRA:                  -4.938
REMARK UNBOUND:                -3.612
REMARK SMILES CCCCCCCCCCCCCCCCCCCCCCCC(=O)[O-]
REMARK SMILES IDX 13 1 14 2 15 3 16 4 17 5 18 6 19 7 20 8 21 9 22 10 23 11
REMARK SMILES IDX 24 12 25 13 26 14 12 15 11 16 10 17 9 18 8 19 7 20 6 21 5 22
REMARK SMILES IDX 4 23 3 24 2 25 1 26
REMARK H PARENT
REMARK Flexibility Score: inf
ROOT
ATOM      1  C   UNL     1     -44.017 -55.435  39.897  1.00  0.00     0.000 C 
ENDROOT
BRANCH   1   2
ATOM      2  C   UNL     1     -45.332 -56.121  39.512  1.00  0.00     0.000 C 
BRANCH   2   3
ATOM      3  C   UNL     1     -46.426 -55.837  40.554  1.00  0.00     0.000 C 
BRANCH   3   4
ATOM      4  C   UNL     1     -47.646 -55.101  39.958  1.00  0.00     0.000 C 
BRANCH   4   5
ATOM      5  C   UNL     1     -47.449 -54.640  38.500  1.00  0.00     0.000 C 
BRANCH   5   6
ATOM      6  C   UNL     1     -48.140 -53.312  38.137  1.00  0.00     0.000 C 
BRANCH   6   7
ATOM      7  C   UNL     1     -47.223 -52.246  37.498  1.00  0.00     0.000 C 
BRANCH   7   8
ATOM      8  C   UNL     1     -46.705 -51.163  38.463  1.00  0.00     0.000 C 
BRANCH   8   9
ATOM      9  C   UNL     1     -45.476 -51.619  39.267  1.00  0.00     0.000 C 
BRANCH   9  10
ATOM     10  C   UNL     1     -45.806 -51.915  40.739  1.00  0.00     0.006 C 
BRANCH  10  11
ATOM     11  C   UNL     1     -46.989 -51.093  41.265  1.00  0.00     0.053 C 
BRANCH  11  12
ATOM     12  C   UNL     1     -47.998 -51.988  41.915  1.00  0.00     0.041 C 
ATOM     13  O   UNL     1     -49.213 -51.907  41.600  1.00  0.00    -0.550 OA
ATOM     14  O   UNL     1     -47.600 -52.881  42.903  1.00  0.00    -0.550 OA
ENDBRANCH  11  12
ENDBRANCH  10  11
ENDBRANCH   9  10
ENDBRANCH   8   9
ENDBRANCH   7   8
ENDBRANCH   6   7
ENDBRANCH   5   6
ENDBRANCH   4   5
ENDBRANCH   3   4
ENDBRANCH   2   3
ENDBRANCH   1   2
BRANCH   1  15
ATOM     15  C   UNL     1     -43.519 -54.519  38.769  1.00  0.00     0.000 C 
BRANCH  15  16
ATOM     16  C   UNL     1     -43.948 -55.000  37.371  1.00  0.00     0.000 C 
BRANCH  16  17
ATOM     17  C   UNL     1     -44.248 -53.850  36.385  1.00  0.00     0.000 C 
BRANCH  17  18
ATOM     18  C   UNL     1     -43.005 -52.985  36.108  1.00  0.00    -0.000 C 
BRANCH  18  19
ATOM     19  C   UNL     1     -43.192 -51.510  36.519  1.00  0.00    -0.000 C 
BRANCH  19  20
ATOM     20  C   UNL     1     -44.185 -50.731  35.633  1.00  0.00    -0.000 C 
BRANCH  20  21
ATOM     21  C   UNL     1     -44.295 -49.229  35.949  1.00  0.00    -0.000 C 
BRANCH  21  22
ATOM     22  C   UNL     1     -43.752 -48.855  37.348  1.00  0.00    -0.000 C 
BRANCH  22  23
ATOM     23  C   UNL     1     -44.796 -48.110  38.197  1.00  0.00    -0.000 C 
BRANCH  23  24
ATOM     24  C   UNL     1     -44.420 -48.047  39.686  1.00  0.00    -0.000 C 
BRANCH  24  25
ATOM     25  C   UNL     1     -43.073 -48.720  39.992  1.00  0.00    -0.003 C 
ATOM     26  C   UNL     1     -43.114 -49.451  41.332  1.00  0.00     0.004 C 
ENDBRANCH  24  25
ENDBRANCH  23  24
ENDBRANCH  22  23
ENDBRANCH  21  22
ENDBRANCH  20  21
ENDBRANCH  19  20
ENDBRANCH  18  19
ENDBRANCH  17  18
ENDBRANCH  16  17
ENDBRANCH  15  16
ENDBRANCH   1  15
TORSDOF 22
ENDMDL
