MODEL 1
REMARK VINA RESULT:    -5.936      0.000      0.000
REMARK INTER + INTRA:          -7.513
REMARK INTER:                  -7.150
REMARK INTRA:                  -0.363
REMARK UNBOUND:                -0.363
REMARK SMILES O=c1c(O)c(-c2ccc(O)cc2O)oc2cc(O)cc(O)c12
REMARK SMILES IDX 5 1 3 2 2 3 1 4 22 5 20 6 19 7 17 8 16 9 15 10 14 11 6 12
REMARK SMILES IDX 8 13 7 14 9 15 11 16 12 17 10 18 13 20 4 22 21 24 18 26
REMARK H PARENT 10 19 13 21 4 23 21 25 18 27
REMARK Flexibility Score: inf
ROOT
ATOM      1  C   UNL     1     158.249   7.085  29.845  1.00  0.00     0.184 A 
ATOM      2  C   UNL     1     157.579   5.865  29.670  1.00  0.00     0.208 A 
ATOM      3  C   UNL     1     157.716   4.867  30.648  1.00  0.00     0.238 A 
ATOM      4  O   UNL     1     157.064   3.798  30.515  1.00  0.00    -0.285 OA
ATOM      5  C   UNL     1     158.545   5.094  31.774  1.00  0.00     0.111 A 
ATOM      6  C   UNL     1     158.789   4.139  32.806  1.00  0.00     0.134 A 
ATOM      7  C   UNL     1     159.528   4.515  33.935  1.00  0.00     0.093 A 
ATOM      8  C   UNL     1     160.087   5.791  34.037  1.00  0.00     0.123 A 
ATOM      9  C   UNL     1     159.904   6.711  33.008  1.00  0.00     0.094 A 
ATOM     10  C   UNL     1     159.140   6.378  31.887  1.00  0.00     0.146 A 
ATOM     11  O   UNL     1     158.978   7.290  30.936  1.00  0.00    -0.451 OA
ENDROOT
BRANCH   1  12
ATOM     12  C   UNL     1     158.160   8.164  28.838  1.00  0.00     0.063 A 
ATOM     13  C   UNL     1     159.196   9.408  27.021  1.00  0.00     0.047 A 
ATOM     14  C   UNL     1     159.229   8.361  27.946  1.00  0.00     0.020 A 
ATOM     15  C   UNL     1     158.099  10.275  26.979  1.00  0.00     0.119 A 
ATOM     16  C   UNL     1     157.033  10.088  27.863  1.00  0.00     0.093 A 
ATOM     17  C   UNL     1     157.048   9.037  28.789  1.00  0.00     0.130 A 
BRANCH  15  18
ATOM     18  O   UNL     1     158.058  11.325  26.065  1.00  0.00    -0.508 OA
ATOM     19  H   UNL     1     157.532  11.256  25.201  1.00  0.00     0.293 HD
ENDBRANCH  15  18
BRANCH  17  20
ATOM     20  O   UNL     1     155.940   8.876  29.622  1.00  0.00    -0.507 OA
ATOM     21  H   UNL     1     155.533   9.634  30.154  1.00  0.00     0.293 HD
ENDBRANCH  17  20
ENDBRANCH   1  12
BRANCH   2  22
ATOM     22  O   UNL     1     156.770   5.667  28.547  1.00  0.00    -0.502 OA
ATOM     23  H   UNL     1     156.912   4.897  27.906  1.00  0.00     0.293 HD
ENDBRANCH   2  22
BRANCH   6  24
ATOM     24  O   UNL     1     158.353   2.810  32.761  1.00  0.00    -0.507 OA
ATOM     25  H   UNL     1     157.401   2.522  32.594  1.00  0.00     0.293 HD
ENDBRANCH   6  24
BRANCH   8  26
ATOM     26  O   UNL     1     160.835   6.152  35.156  1.00  0.00    -0.508 OA
ATOM     27  H   UNL     1     161.106   7.113  35.325  1.00  0.00     0.293 HD
ENDBRANCH   8  26
TORSDOF 6
ENDMDL
MODEL 2
REMARK VINA RESULT:    -5.878      2.287      6.672
REMARK INTER + INTRA:          -7.445
REMARK INTER:                  -7.039
REMARK INTRA:                  -0.406
REMARK UNBOUND:                -0.363
REMARK SMILES O=c1c(O)c(-c2ccc(O)cc2O)oc2cc(O)cc(O)c12
REMARK SMILES IDX 5 1 3 2 2 3 1 4 22 5 20 6 19 7 17 8 16 9 15 10 14 11 6 12
REMARK SMILES IDX 8 13 7 14 9 15 11 16 12 17 10 18 13 20 4 22 21 24 18 26
REMARK H PARENT 10 19 13 21 4 23 21 25 18 27
REMARK Flexibility Score: inf
ROOT
ATOM      1  C   UNL     1     159.721   6.773  32.446  1.00  0.00     0.184 A 
ATOM      2  C   UNL     1     158.659   7.054  33.318  1.00  0.00     0.208 A 
ATOM      3  C   UNL     1     157.479   7.610  32.798  1.00  0.00     0.238 A 
ATOM      4  O   UNL     1     156.509   7.802  33.575  1.00  0.00    -0.285 OA
ATOM      5  C   UNL     1     157.391   7.905  31.415  1.00  0.00     0.111 A 
ATOM      6  C   UNL     1     156.260   8.507  30.786  1.00  0.00     0.134 A 
ATOM      7  C   UNL     1     156.234   8.640  29.392  1.00  0.00     0.093 A 
ATOM      8  C   UNL     1     157.326   8.254  28.611  1.00  0.00     0.123 A 
ATOM      9  C   UNL     1     158.458   7.719  29.222  1.00  0.00     0.094 A 
ATOM     10  C   UNL     1     158.499   7.538  30.607  1.00  0.00     0.146 A 
ATOM     11  O   UNL     1     159.591   7.012  31.146  1.00  0.00    -0.451 OA
ENDROOT
BRANCH   1  12
ATOM     12  C   UNL     1     160.995   6.208  32.940  1.00  0.00     0.063 A 
ATOM     13  C   UNL     1     163.139   6.551  34.038  1.00  0.00     0.047 A 
ATOM     14  C   UNL     1     161.905   7.045  33.610  1.00  0.00     0.020 A 
ATOM     15  C   UNL     1     163.485   5.218  33.797  1.00  0.00     0.119 A 
ATOM     16  C   UNL     1     162.589   4.379  33.130  1.00  0.00     0.093 A 
ATOM     17  C   UNL     1     161.344   4.858  32.703  1.00  0.00     0.130 A 
BRANCH  15  18
ATOM     18  O   UNL     1     164.715   4.716  34.214  1.00  0.00    -0.508 OA
ATOM     19  H   UNL     1     165.496   5.330  34.420  1.00  0.00     0.293 HD
ENDBRANCH  15  18
BRANCH  17  20
ATOM     20  O   UNL     1     160.473   3.965  32.074  1.00  0.00    -0.507 OA
ATOM     21  H   UNL     1     159.467   4.014  32.171  1.00  0.00     0.293 HD
ENDBRANCH  17  20
ENDBRANCH   1  12
BRANCH   2  22
ATOM     22  O   UNL     1     158.776   6.755  34.678  1.00  0.00    -0.502 OA
ATOM     23  H   UNL     1     159.584   6.284  35.063  1.00  0.00     0.293 HD
ENDBRANCH   2  22
BRANCH   6  24
ATOM     24  O   UNL     1     155.155   9.010  31.480  1.00  0.00    -0.507 OA
ATOM     25  H   UNL     1     154.244   8.579  31.503  1.00  0.00     0.293 HD
ENDBRANCH   6  24
BRANCH   8  26
ATOM     26  O   UNL     1     157.299   8.404  27.227  1.00  0.00    -0.508 OA
ATOM     27  H   UNL     1     157.968   7.934  26.629  1.00  0.00     0.293 HD
ENDBRANCH   8  26
TORSDOF 6
ENDMDL
MODEL 3
REMARK VINA RESULT:    -5.834      3.060      3.179
REMARK INTER + INTRA:          -7.391
REMARK INTER:                  -6.996
REMARK INTRA:                  -0.395
REMARK UNBOUND:                -0.363
REMARK SMILES O=c1c(O)c(-c2ccc(O)cc2O)oc2cc(O)cc(O)c12
REMARK SMILES IDX 5 1 3 2 2 3 1 4 22 5 20 6 19 7 17 8 16 9 15 10 14 11 6 12
REMARK SMILES IDX 8 13 7 14 9 15 11 16 12 17 10 18 13 20 4 22 21 24 18 26
REMARK H PARENT 10 19 13 21 4 23 21 25 18 27
REMARK Flexibility Score: inf
ROOT
ATOM      1  C   UNL     1     156.652   7.834  30.058  1.00  0.00     0.184 A 
ATOM      2  C   UNL     1     155.893   6.668  29.881  1.00  0.00     0.208 A 
ATOM      3  C   UNL     1     155.216   6.122  30.983  1.00  0.00     0.238 A 
ATOM      4  O   UNL     1     154.488   5.111  30.805  1.00  0.00    -0.285 OA
ATOM      5  C   UNL     1     155.334   6.735  32.255  1.00  0.00     0.111 A 
ATOM      6  C   UNL     1     154.725   6.245  33.450  1.00  0.00     0.134 A 
ATOM      7  C   UNL     1     154.808   7.000  34.627  1.00  0.00     0.093 A 
ATOM      8  C   UNL     1     155.533   8.193  34.668  1.00  0.00     0.123 A 
ATOM      9  C   UNL     1     156.178   8.650  33.521  1.00  0.00     0.094 A 
ATOM     10  C   UNL     1     156.083   7.938  32.322  1.00  0.00     0.146 A 
ATOM     11  O   UNL     1     156.703   8.416  31.250  1.00  0.00    -0.451 OA
ENDROOT
BRANCH   1  12
ATOM     12  C   UNL     1     157.403   8.441  28.939  1.00  0.00     0.063 A 
ATOM     13  C   UNL     1     159.412   8.499  27.567  1.00  0.00     0.047 A 
ATOM     14  C   UNL     1     158.656   7.911  28.584  1.00  0.00     0.020 A 
ATOM     15  C   UNL     1     158.932   9.629  26.897  1.00  0.00     0.119 A 
ATOM     16  C   UNL     1     157.689  10.165  27.245  1.00  0.00     0.093 A 
ATOM     17  C   UNL     1     156.916   9.580  28.255  1.00  0.00     0.130 A 
BRANCH  15  18
ATOM     18  O   UNL     1     159.680  10.228  25.886  1.00  0.00    -0.508 OA
ATOM     19  H   UNL     1     160.247  11.049  26.061  1.00  0.00     0.293 HD
ENDBRANCH  15  18
BRANCH  17  20
ATOM     20  O   UNL     1     155.665  10.135  28.535  1.00  0.00    -0.507 OA
ATOM     21  H   UNL     1     154.993   9.699  29.152  1.00  0.00     0.293 HD
ENDBRANCH  17  20
ENDBRANCH   1  12
BRANCH   2  22
ATOM     22  O   UNL     1     155.798   6.083  28.615  1.00  0.00    -0.502 OA
ATOM     23  H   UNL     1     154.969   6.165  28.040  1.00  0.00     0.293 HD
ENDBRANCH   2  22
BRANCH   6  24
ATOM     24  O   UNL     1     154.055   5.020  33.541  1.00  0.00    -0.507 OA
ATOM     25  H   UNL     1     153.247   4.765  32.994  1.00  0.00     0.293 HD
ENDBRANCH   6  24
BRANCH   8  26
ATOM     26  O   UNL     1     155.623   8.929  35.846  1.00  0.00    -0.508 OA
ATOM     27  H   UNL     1     155.605   8.481  36.754  1.00  0.00     0.293 HD
ENDBRANCH   8  26
TORSDOF 6
ENDMDL
MODEL 4
REMARK VINA RESULT:    -5.808      1.670      6.745
REMARK INTER + INTRA:          -7.360
REMARK INTER:                  -6.954
REMARK INTRA:                  -0.406
REMARK UNBOUND:                -0.363
REMARK SMILES O=c1c(O)c(-c2ccc(O)cc2O)oc2cc(O)cc(O)c12
REMARK SMILES IDX 5 1 3 2 2 3 1 4 22 5 20 6 19 7 17 8 16 9 15 10 14 11 6 12
REMARK SMILES IDX 8 13 7 14 9 15 11 16 12 17 10 18 13 20 4 22 21 24 18 26
REMARK H PARENT 10 19 13 21 4 23 21 25 18 27
REMARK Flexibility Score: inf
ROOT
ATOM      1  C   UNL     1     158.682   7.019  31.767  1.00  0.00     0.184 A 
ATOM      2  C   UNL     1     157.382   7.474  32.028  1.00  0.00     0.208 A 
ATOM      3  C   UNL     1     156.739   8.282  31.076  1.00  0.00     0.238 A 
ATOM      4  O   UNL     1     155.550   8.636  31.288  1.00  0.00    -0.285 OA
ATOM      5  C   UNL     1     157.420   8.648  29.889  1.00  0.00     0.111 A 
ATOM      6  C   UNL     1     156.882   9.495  28.874  1.00  0.00     0.134 A 
ATOM      7  C   UNL     1     157.597   9.690  27.685  1.00  0.00     0.093 A 
ATOM      8  C   UNL     1     158.860   9.121  27.503  1.00  0.00     0.123 A 
ATOM      9  C   UNL     1     159.419   8.340  28.512  1.00  0.00     0.094 A 
ATOM     10  C   UNL     1     158.714   8.097  29.693  1.00  0.00     0.146 A 
ATOM     11  O   UNL     1     159.278   7.335  30.623  1.00  0.00    -0.451 OA
ENDROOT
BRANCH   1  12
ATOM     12  C   UNL     1     159.417   6.185  32.742  1.00  0.00     0.063 A 
ATOM     13  C   UNL     1     160.719   6.034  34.792  1.00  0.00     0.047 A 
ATOM     14  C   UNL     1     159.973   6.789  33.883  1.00  0.00     0.020 A 
ATOM     15  C   UNL     1     160.925   4.669  34.570  1.00  0.00     0.119 A 
ATOM     16  C   UNL     1     160.379   4.060  33.437  1.00  0.00     0.093 A 
ATOM     17  C   UNL     1     159.620   4.802  32.523  1.00  0.00     0.130 A 
BRANCH  15  18
ATOM     18  O   UNL     1     161.672   3.908  35.467  1.00  0.00    -0.508 OA
ATOM     19  H   UNL     1     162.641   4.127  35.670  1.00  0.00     0.293 HD
ENDBRANCH  15  18
BRANCH  17  20
ATOM     20  O   UNL     1     159.067   4.134  31.428  1.00  0.00    -0.507 OA
ATOM     21  H   UNL     1     158.103   4.245  31.143  1.00  0.00     0.293 HD
ENDBRANCH  17  20
ENDBRANCH   1  12
BRANCH   2  22
ATOM     22  O   UNL     1     156.735   7.100  33.209  1.00  0.00    -0.502 OA
ATOM     23  H   UNL     1     155.727   7.052  33.284  1.00  0.00     0.293 HD
ENDBRANCH   2  22
BRANCH   6  24
ATOM     24  O   UNL     1     155.671  10.184  28.993  1.00  0.00    -0.507 OA
ATOM     25  H   UNL     1     155.053  10.131  29.788  1.00  0.00     0.293 HD
ENDBRANCH   6  24
BRANCH   8  26
ATOM     26  O   UNL     1     159.571   9.333  26.325  1.00  0.00    -0.508 OA
ATOM     27  H   UNL     1     159.101   9.552  25.454  1.00  0.00     0.293 HD
ENDBRANCH   8  26
TORSDOF 6
ENDMDL
MODEL 5
REMARK VINA RESULT:    -5.613      3.458      6.103
REMARK INTER + INTRA:          -7.125
REMARK INTER:                  -6.781
REMARK INTRA:                  -0.344
REMARK UNBOUND:                -0.363
REMARK SMILES O=c1c(O)c(-c2ccc(O)cc2O)oc2cc(O)cc(O)c12
REMARK SMILES IDX 5 1 3 2 2 3 1 4 22 5 20 6 19 7 17 8 16 9 15 10 14 11 6 12
REMARK SMILES IDX 8 13 7 14 9 15 11 16 12 17 10 18 13 20 4 22 21 24 18 26
REMARK H PARENT 10 19 13 21 4 23 21 25 18 27
REMARK Flexibility Score: inf
ROOT
ATOM      1  C   UNL     1     156.328   7.966  31.658  1.00  0.00     0.184 A 
ATOM      2  C   UNL     1     156.357   6.621  31.263  1.00  0.00     0.208 A 
ATOM      3  C   UNL     1     156.946   6.286  30.033  1.00  0.00     0.238 A 
ATOM      4  O   UNL     1     157.025   5.072  29.712  1.00  0.00    -0.285 OA
ATOM      5  C   UNL     1     157.471   7.307  29.203  1.00  0.00     0.111 A 
ATOM      6  C   UNL     1     158.054   7.087  27.919  1.00  0.00     0.134 A 
ATOM      7  C   UNL     1     158.652   8.157  27.239  1.00  0.00     0.093 A 
ATOM      8  C   UNL     1     158.629   9.449  27.768  1.00  0.00     0.123 A 
ATOM      9  C   UNL     1     158.011   9.684  28.994  1.00  0.00     0.094 A 
ATOM     10  C   UNL     1     157.439   8.631  29.713  1.00  0.00     0.146 A 
ATOM     11  O   UNL     1     156.873   8.897  30.884  1.00  0.00    -0.451 OA
ENDROOT
BRANCH   1  12
ATOM     12  C   UNL     1     155.701   8.381  32.932  1.00  0.00     0.063 A 
ATOM     13  C   UNL     1     155.681   8.311  35.364  1.00  0.00     0.047 A 
ATOM     14  C   UNL     1     156.283   7.980  34.148  1.00  0.00     0.020 A 
ATOM     15  C   UNL     1     154.487   9.039  35.383  1.00  0.00     0.119 A 
ATOM     16  C   UNL     1     153.900   9.440  34.180  1.00  0.00     0.093 A 
ATOM     17  C   UNL     1     154.497   9.124  32.953  1.00  0.00     0.130 A 
BRANCH  15  18
ATOM     18  O   UNL     1     153.875   9.369  36.590  1.00  0.00    -0.508 OA
ATOM     19  H   UNL     1     152.921   9.095  36.794  1.00  0.00     0.293 HD
ENDBRANCH  15  18
BRANCH  17  20
ATOM     20  O   UNL     1     153.886   9.582  31.784  1.00  0.00    -0.507 OA
ATOM     21  H   UNL     1     153.681   8.981  30.996  1.00  0.00     0.293 HD
ENDBRANCH  17  20
ENDBRANCH   1  12
BRANCH   2  22
ATOM     22  O   UNL     1     155.829   5.635  32.101  1.00  0.00    -0.502 OA
ATOM     23  H   UNL     1     154.956   5.757  32.598  1.00  0.00     0.293 HD
ENDBRANCH   2  22
BRANCH   6  24
ATOM     24  O   UNL     1     158.051   5.854  27.259  1.00  0.00    -0.507 OA
ATOM     25  H   UNL     1     157.921   4.961  27.709  1.00  0.00     0.293 HD
ENDBRANCH   6  24
BRANCH   8  26
ATOM     26  O   UNL     1     159.211  10.510  27.078  1.00  0.00    -0.508 OA
ATOM     27  H   UNL     1     159.076  11.470  27.370  1.00  0.00     0.293 HD
ENDBRANCH   8  26
TORSDOF 6
ENDMDL
MODEL 6
REMARK VINA RESULT:    -5.600      2.110      3.386
REMARK INTER + INTRA:          -7.110
REMARK INTER:                  -6.714
REMARK INTRA:                  -0.396
REMARK UNBOUND:                -0.363
REMARK SMILES O=c1c(O)c(-c2ccc(O)cc2O)oc2cc(O)cc(O)c12
REMARK SMILES IDX 5 1 3 2 2 3 1 4 22 5 20 6 19 7 17 8 16 9 15 10 14 11 6 12
REMARK SMILES IDX 8 13 7 14 9 15 11 16 12 17 10 18 13 20 4 22 21 24 18 26
REMARK H PARENT 10 19 13 21 4 23 21 25 18 27
REMARK Flexibility Score: inf
ROOT
ATOM      1  C   UNL     1     158.718   7.123  31.832  1.00  0.00     0.184 A 
ATOM      2  C   UNL     1     158.023   6.746  32.990  1.00  0.00     0.208 A 
ATOM      3  C   UNL     1     158.752   6.348  34.122  1.00  0.00     0.238 A 
ATOM      4  O   UNL     1     158.125   6.069  35.177  1.00  0.00    -0.285 OA
ATOM      5  C   UNL     1     160.167   6.307  34.069  1.00  0.00     0.111 A 
ATOM      6  C   UNL     1     161.006   5.881  35.142  1.00  0.00     0.134 A 
ATOM      7  C   UNL     1     162.397   5.997  35.020  1.00  0.00     0.093 A 
ATOM      8  C   UNL     1     162.980   6.462  33.839  1.00  0.00     0.123 A 
ATOM      9  C   UNL     1     162.171   6.825  32.765  1.00  0.00     0.094 A 
ATOM     10  C   UNL     1     160.779   6.756  32.869  1.00  0.00     0.146 A 
ATOM     11  O   UNL     1     160.046   7.124  31.826  1.00  0.00    -0.451 OA
ENDROOT
BRANCH   1  12
ATOM     12  C   UNL     1     158.004   7.529  30.602  1.00  0.00     0.063 A 
ATOM     13  C   UNL     1     156.900   9.274  29.313  1.00  0.00     0.047 A 
ATOM     14  C   UNL     1     157.624   8.873  30.439  1.00  0.00     0.020 A 
ATOM     15  C   UNL     1     156.539   8.337  28.340  1.00  0.00     0.119 A 
ATOM     16  C   UNL     1     156.909   6.998  28.494  1.00  0.00     0.093 A 
ATOM     17  C   UNL     1     157.644   6.585  29.612  1.00  0.00     0.130 A 
BRANCH  15  18
ATOM     18  O   UNL     1     155.812   8.724  27.217  1.00  0.00    -0.508 OA
ATOM     19  H   UNL     1     155.875   8.215  26.342  1.00  0.00     0.293 HD
ENDBRANCH  15  18
BRANCH  17  20
ATOM     20  O   UNL     1     158.019   5.242  29.696  1.00  0.00    -0.507 OA
ATOM     21  H   UNL     1     157.352   4.483  29.727  1.00  0.00     0.293 HD
ENDBRANCH  17  20
ENDBRANCH   1  12
BRANCH   2  22
ATOM     22  O   UNL     1     156.626   6.793  33.012  1.00  0.00    -0.502 OA
ATOM     23  H   UNL     1     156.116   7.608  33.330  1.00  0.00     0.293 HD
ENDBRANCH   2  22
BRANCH   6  24
ATOM     24  O   UNL     1     160.529   5.318  36.331  1.00  0.00    -0.507 OA
ATOM     25  H   UNL     1     160.480   4.328  36.519  1.00  0.00     0.293 HD
ENDBRANCH   6  24
BRANCH   8  26
ATOM     26  O   UNL     1     164.364   6.559  33.721  1.00  0.00    -0.508 OA
ATOM     27  H   UNL     1     164.804   6.817  32.846  1.00  0.00     0.293 HD
ENDBRANCH   8  26
TORSDOF 6
ENDMDL
MODEL 7
REMARK VINA RESULT:    -5.564      1.392      6.527
REMARK INTER + INTRA:          -7.065
REMARK INTER:                  -6.771
REMARK INTRA:                  -0.295
REMARK UNBOUND:                -0.363
REMARK SMILES O=c1c(O)c(-c2ccc(O)cc2O)oc2cc(O)cc(O)c12
REMARK SMILES IDX 5 1 3 2 2 3 1 4 22 5 20 6 19 7 17 8 16 9 15 10 14 11 6 12
REMARK SMILES IDX 8 13 7 14 9 15 11 16 12 17 10 18 13 20 4 22 21 24 18 26
REMARK H PARENT 10 19 13 21 4 23 21 25 18 27
REMARK Flexibility Score: inf
ROOT
ATOM      1  C   UNL     1     157.848   6.897  30.883  1.00  0.00     0.184 A 
ATOM      2  C   UNL     1     156.623   6.417  30.397  1.00  0.00     0.208 A 
ATOM      3  C   UNL     1     156.055   7.023  29.265  1.00  0.00     0.238 A 
ATOM      4  O   UNL     1     154.987   6.548  28.798  1.00  0.00    -0.285 OA
ATOM      5  C   UNL     1     156.707   8.122  28.654  1.00  0.00     0.111 A 
ATOM      6  C   UNL     1     156.202   8.839  27.527  1.00  0.00     0.134 A 
ATOM      7  C   UNL     1     156.991   9.831  26.930  1.00  0.00     0.093 A 
ATOM      8  C   UNL     1     158.237  10.176  27.458  1.00  0.00     0.123 A 
ATOM      9  C   UNL     1     158.712   9.522  28.592  1.00  0.00     0.094 A 
ATOM     10  C   UNL     1     157.966   8.502  29.189  1.00  0.00     0.146 A 
ATOM     11  O   UNL     1     158.462   7.895  30.259  1.00  0.00    -0.451 OA
ENDROOT
BRANCH   1  12
ATOM     12  C   UNL     1     158.482   6.313  32.084  1.00  0.00     0.063 A 
ATOM     13  C   UNL     1     159.297   6.601  34.359  1.00  0.00     0.047 A 
ATOM     14  C   UNL     1     158.651   7.110  33.230  1.00  0.00     0.020 A 
ATOM     15  C   UNL     1     159.790   5.292  34.356  1.00  0.00     0.119 A 
ATOM     16  C   UNL     1     159.629   4.493  33.222  1.00  0.00     0.093 A 
ATOM     17  C   UNL     1     158.975   4.987  32.087  1.00  0.00     0.130 A 
BRANCH  15  18
ATOM     18  O   UNL     1     160.441   4.776  35.475  1.00  0.00    -0.508 OA
ATOM     19  H   UNL     1     160.706   5.368  36.254  1.00  0.00     0.293 HD
ENDBRANCH  15  18
BRANCH  17  20
ATOM     20  O   UNL     1     158.810   4.132  30.995  1.00  0.00    -0.507 OA
ATOM     21  H   UNL     1     159.262   4.281  30.103  1.00  0.00     0.293 HD
ENDBRANCH  17  20
ENDBRANCH   1  12
BRANCH   2  22
ATOM     22  O   UNL     1     156.000   5.333  31.023  1.00  0.00    -0.502 OA
ATOM     23  H   UNL     1     156.336   4.944  31.895  1.00  0.00     0.293 HD
ENDBRANCH   2  22
BRANCH   6  24
ATOM     24  O   UNL     1     154.933   8.636  26.976  1.00  0.00    -0.507 OA
ATOM     25  H   UNL     1     154.135   9.233  27.132  1.00  0.00     0.293 HD
ENDBRANCH   6  24
BRANCH   8  26
ATOM     26  O   UNL     1     159.007  11.174  26.867  1.00  0.00    -0.508 OA
ATOM     27  H   UNL     1     159.959  11.355  27.164  1.00  0.00     0.293 HD
ENDBRANCH   8  26
TORSDOF 6
ENDMDL
MODEL 8
REMARK VINA RESULT:    -5.508      1.648      2.307
REMARK INTER + INTRA:          -6.999
REMARK INTER:                  -6.584
REMARK INTRA:                  -0.415
REMARK UNBOUND:                -0.363
REMARK SMILES O=c1c(O)c(-c2ccc(O)cc2O)oc2cc(O)cc(O)c12
REMARK SMILES IDX 5 1 3 2 2 3 1 4 22 5 20 6 19 7 17 8 16 9 15 10 14 11 6 12
REMARK SMILES IDX 8 13 7 14 9 15 11 16 12 17 10 18 13 20 4 22 21 24 18 26
REMARK H PARENT 10 19 13 21 4 23 21 25 18 27
REMARK Flexibility Score: inf
ROOT
ATOM      1  C   UNL     1     158.673   6.734  31.381  1.00  0.00     0.184 A 
ATOM      2  C   UNL     1     157.999   5.664  31.987  1.00  0.00     0.208 A 
ATOM      3  C   UNL     1     158.623   4.976  33.040  1.00  0.00     0.238 A 
ATOM      4  O   UNL     1     157.988   4.056  33.620  1.00  0.00    -0.285 OA
ATOM      5  C   UNL     1     159.925   5.350  33.452  1.00  0.00     0.111 A 
ATOM      6  C   UNL     1     160.669   4.697  34.480  1.00  0.00     0.134 A 
ATOM      7  C   UNL     1     161.899   5.230  34.888  1.00  0.00     0.093 A 
ATOM      8  C   UNL     1     162.442   6.353  34.259  1.00  0.00     0.123 A 
ATOM      9  C   UNL     1     161.750   6.962  33.215  1.00  0.00     0.094 A 
ATOM     10  C   UNL     1     160.504   6.477  32.811  1.00  0.00     0.146 A 
ATOM     11  O   UNL     1     159.872   7.097  31.821  1.00  0.00    -0.451 OA
ENDROOT
BRANCH   1  12
ATOM     12  C   UNL     1     158.076   7.482  30.253  1.00  0.00     0.063 A 
ATOM     13  C   UNL     1     157.895   7.838  27.853  1.00  0.00     0.047 A 
ATOM     14  C   UNL     1     158.401   7.115  28.936  1.00  0.00     0.020 A 
ATOM     15  C   UNL     1     157.064   8.942  28.072  1.00  0.00     0.119 A 
ATOM     16  C   UNL     1     156.736   9.315  29.377  1.00  0.00     0.093 A 
ATOM     17  C   UNL     1     157.228   8.593  30.472  1.00  0.00     0.130 A 
BRANCH  15  18
ATOM     18  O   UNL     1     156.558   9.673  27.000  1.00  0.00    -0.508 OA
ATOM     19  H   UNL     1     155.560   9.766  26.844  1.00  0.00     0.293 HD
ENDBRANCH  15  18
BRANCH  17  20
ATOM     20  O   UNL     1     156.839   8.989  31.753  1.00  0.00    -0.507 OA
ATOM     21  H   UNL     1     156.256   9.797  31.928  1.00  0.00     0.293 HD
ENDBRANCH  17  20
ENDBRANCH   1  12
BRANCH   2  22
ATOM     22  O   UNL     1     156.716   5.314  31.558  1.00  0.00    -0.502 OA
ATOM     23  H   UNL     1     156.378   5.526  30.627  1.00  0.00     0.293 HD
ENDBRANCH   2  22
BRANCH   6  24
ATOM     24  O   UNL     1     160.261   3.517  35.111  1.00  0.00    -0.507 OA
ATOM     25  H   UNL     1     160.366   2.592  34.725  1.00  0.00     0.293 HD
ENDBRANCH   6  24
BRANCH   8  26
ATOM     26  O   UNL     1     163.672   6.866  34.660  1.00  0.00    -0.508 OA
ATOM     27  H   UNL     1     164.524   6.324  34.580  1.00  0.00     0.293 HD
ENDBRANCH   8  26
TORSDOF 6
ENDMDL
MODEL 9
REMARK VINA RESULT:    -5.290      1.724      6.726
REMARK INTER + INTRA:          -6.736
REMARK INTER:                  -6.394
REMARK INTRA:                  -0.342
REMARK UNBOUND:                -0.363
REMARK SMILES O=c1c(O)c(-c2ccc(O)cc2O)oc2cc(O)cc(O)c12
REMARK SMILES IDX 5 1 3 2 2 3 1 4 22 5 20 6 19 7 17 8 16 9 15 10 14 11 6 12
REMARK SMILES IDX 8 13 7 14 9 15 11 16 12 17 10 18 13 20 4 22 21 24 18 26
REMARK H PARENT 10 19 13 21 4 23 21 25 18 27
REMARK Flexibility Score: inf
ROOT
ATOM      1  C   UNL     1     158.506   6.517  31.397  1.00  0.00     0.184 A 
ATOM      2  C   UNL     1     157.232   6.987  31.746  1.00  0.00     0.208 A 
ATOM      3  C   UNL     1     156.625   7.967  30.944  1.00  0.00     0.238 A 
ATOM      4  O   UNL     1     155.457   8.340  31.228  1.00  0.00    -0.285 OA
ATOM      5  C   UNL     1     157.315   8.482  29.819  1.00  0.00     0.111 A 
ATOM      6  C   UNL     1     156.813   9.505  28.960  1.00  0.00     0.134 A 
ATOM      7  C   UNL     1     157.528   9.851  27.806  1.00  0.00     0.093 A 
ATOM      8  C   UNL     1     158.759   9.257  27.517  1.00  0.00     0.123 A 
ATOM      9  C   UNL     1     159.285   8.300  28.380  1.00  0.00     0.094 A 
ATOM     10  C   UNL     1     158.577   7.906  29.519  1.00  0.00     0.146 A 
ATOM     11  O   UNL     1     159.109   6.980  30.308  1.00  0.00    -0.451 OA
ENDROOT
BRANCH   1  12
ATOM     12  C   UNL     1     159.205   5.503  32.216  1.00  0.00     0.063 A 
ATOM     13  C   UNL     1     159.288   3.239  33.104  1.00  0.00     0.047 A 
ATOM     14  C   UNL     1     158.680   4.201  32.294  1.00  0.00     0.020 A 
ATOM     15  C   UNL     1     160.422   3.566  33.853  1.00  0.00     0.119 A 
ATOM     16  C   UNL     1     160.950   4.858  33.785  1.00  0.00     0.093 A 
ATOM     17  C   UNL     1     160.357   5.829  32.969  1.00  0.00     0.130 A 
BRANCH  15  18
ATOM     18  O   UNL     1     161.033   2.616  34.669  1.00  0.00    -0.508 OA
ATOM     19  H   UNL     1     160.490   1.941  35.196  1.00  0.00     0.293 HD
ENDBRANCH  15  18
BRANCH  17  20
ATOM     20  O   UNL     1     160.949   7.093  32.911  1.00  0.00    -0.507 OA
ATOM     21  H   UNL     1     161.644   7.346  32.222  1.00  0.00     0.293 HD
ENDBRANCH  17  20
ENDBRANCH   1  12
BRANCH   2  22
ATOM     22  O   UNL     1     156.577   6.463  32.863  1.00  0.00    -0.502 OA
ATOM     23  H   UNL     1     157.073   6.012  33.622  1.00  0.00     0.293 HD
ENDBRANCH   2  22
BRANCH   6  24
ATOM     24  O   UNL     1     155.639  10.225  29.204  1.00  0.00    -0.507 OA
ATOM     25  H   UNL     1     155.321  10.515  30.116  1.00  0.00     0.293 HD
ENDBRANCH   6  24
BRANCH   8  26
ATOM     26  O   UNL     1     159.471   9.619  26.376  1.00  0.00    -0.508 OA
ATOM     27  H   UNL     1     159.560   8.991  25.585  1.00  0.00     0.293 HD
ENDBRANCH   8  26
TORSDOF 6
ENDMDL
