MODEL 1
REMARK VINA RESULT:    -5.981      0.000      0.000
REMARK INTER + INTRA:         -13.091
REMARK INTER:                 -10.352
REMARK INTRA:                  -2.739
REMARK UNBOUND:                -2.739
REMARK SMILES OC[C@@H]1O[C@@H](O[C@H]2[C@@H](O)[C@H](O)[C@H](O[C@@H]3[C@H](O)[C@H](O)[C@H](O)O[C@@H]3CO)O[C@H]2CO)[C@H](O)[C@@H](O)[C@H]1O
REMARK SMILES IDX 7 1 26 2 25 3 12 4 10 5 8 6 6 7 5 8 3 9 33 10 4 11 31 12
REMARK SMILES IDX 29 13 2 14 1 15 34 17 32 19 30 21 27 23 28 24 9 26 11 28
REMARK SMILES IDX 13 30 14 31 22 32 15 33 21 34 17 35 19 36 23 37 24 38 16 40
REMARK SMILES IDX 18 42 20 44
REMARK H PARENT 1 16 34 18 32 20 30 22 28 25 9 27 11 29 24 39 16 41 18 43
REMARK H PARENT 20 45
REMARK Flexibility Score: inf
ROOT
ATOM      1  C   UNL     1     -11.841  44.292  36.195  1.00  0.00     0.184 C 
ATOM      2  C   UNL     1     -11.783  44.012  34.681  1.00  0.00     0.178 C 
ATOM      3  O   UNL     1     -11.559  42.631  34.433  1.00  0.00    -0.341 OA
ATOM      4  C   UNL     1     -10.291  42.207  34.919  1.00  0.00     0.282 C 
ATOM      5  C   UNL     1     -10.159  42.434  36.443  1.00  0.00     0.202 C 
ATOM      6  C   UNL     1     -10.477  43.892  36.802  1.00  0.00     0.180 C 
ENDROOT
BRANCH   1   7
ATOM      7  O   UNL     1     -12.890  43.516  36.758  1.00  0.00    -0.341 OA
BRANCH   7   8
ATOM      8  C   UNL     1     -13.848  44.293  37.464  1.00  0.00     0.282 C 
ATOM      9  C   UNL     1     -13.549  43.012  39.414  1.00  0.00     0.178 C 
ATOM     10  C   UNL     1     -14.977  42.412  39.362  1.00  0.00     0.177 C 
ATOM     11  O   UNL     1     -13.538  44.313  38.850  1.00  0.00    -0.341 OA
ATOM     12  C   UNL     1     -15.527  42.401  37.918  1.00  0.00     0.179 C 
ATOM     13  C   UNL     1     -15.276  43.757  37.214  1.00  0.00     0.202 C 
BRANCH   9  14
ATOM     14  C   UNL     1     -13.034  43.104  40.855  1.00  0.00     0.191 C 
BRANCH  14  15
ATOM     15  O   UNL     1     -11.882  43.901  40.915  1.00  0.00    -0.394 OA
ATOM     16  H   UNL     1     -11.678  44.163  39.980  1.00  0.00     0.210 HD
ENDBRANCH  14  15
ENDBRANCH   9  14
BRANCH  10  17
ATOM     17  O   UNL     1     -15.031  41.126  39.930  1.00  0.00    -0.387 OA
ATOM     18  H   UNL     1     -14.476  41.132  40.752  1.00  0.00     0.211 HD
ENDBRANCH  10  17
BRANCH  12  19
ATOM     19  O   UNL     1     -15.024  41.326  37.160  1.00  0.00    -0.387 OA
ATOM     20  H   UNL     1     -14.600  41.689  36.344  1.00  0.00     0.211 HD
ENDBRANCH  12  19
BRANCH  13  21
ATOM     21  O   UNL     1     -16.200  44.708  37.679  1.00  0.00    -0.385 OA
ATOM     22  H   UNL     1     -16.852  44.863  36.945  1.00  0.00     0.211 HD
ENDBRANCH  13  21
ENDBRANCH   7   8
ENDBRANCH   1   7
BRANCH   2  23
ATOM     23  C   UNL     1     -13.087  44.440  33.992  1.00  0.00     0.191 C 
BRANCH  23  24
ATOM     24  O   UNL     1     -13.990  43.367  33.929  1.00  0.00    -0.394 OA
ATOM     25  H   UNL     1     -13.583  42.627  34.449  1.00  0.00     0.210 HD
ENDBRANCH  23  24
ENDBRANCH   2  23
BRANCH   6  26
ATOM     26  O   UNL     1     -10.482  44.040  38.198  1.00  0.00    -0.387 OA
ATOM     27  H   UNL     1     -11.410  43.859  38.502  1.00  0.00     0.211 HD
ENDBRANCH   6  26
BRANCH   5  28
ATOM     28  O   UNL     1      -8.859  42.121  36.874  1.00  0.00    -0.385 OA
ATOM     29  H   UNL     1      -8.921  41.261  37.369  1.00  0.00     0.211 HD
ENDBRANCH   5  28
BRANCH   4  30
ATOM     30  O   UNL     1      -9.236  42.865  34.225  1.00  0.00    -0.341 OA
BRANCH  30  31
ATOM     31  C   UNL     1      -8.706  42.050  33.189  1.00  0.00     0.184 C 
ATOM     32  C   UNL     1      -8.339  42.901  31.936  1.00  0.00     0.178 C 
ATOM     33  C   UNL     1      -7.456  41.274  33.709  1.00  0.00     0.180 C 
ATOM     34  O   UNL     1      -6.996  43.341  32.011  1.00  0.00    -0.342 OA
ATOM     35  C   UNL     1      -6.455  40.975  32.570  1.00  0.00     0.201 C 
ATOM     36  C   UNL     1      -6.104  42.263  31.760  1.00  0.00     0.279 C 
BRANCH  32  37
ATOM     37  C   UNL     1      -9.267  44.106  31.710  1.00  0.00     0.191 C 
BRANCH  37  38
ATOM     38  O   UNL     1     -10.604  43.705  31.571  1.00  0.00    -0.394 OA
ATOM     39  H   UNL     1     -11.166  44.493  31.796  1.00  0.00     0.210 HD
ENDBRANCH  37  38
ENDBRANCH  32  37
BRANCH  33  40
ATOM     40  O   UNL     1      -6.819  41.948  34.771  1.00  0.00    -0.387 OA
ATOM     41  H   UNL     1      -6.301  41.282  35.294  1.00  0.00     0.211 HD
ENDBRANCH  33  40
BRANCH  35  42
ATOM     42  O   UNL     1      -5.292  40.371  33.080  1.00  0.00    -0.385 OA
ATOM     43  H   UNL     1      -4.586  40.481  32.388  1.00  0.00     0.211 HD
ENDBRANCH  35  42
BRANCH  36  44
ATOM     44  O   UNL     1      -4.789  42.686  32.019  1.00  0.00    -0.366 OA
ATOM     45  H   UNL     1      -4.846  43.516  32.564  1.00  0.00     0.213 HD
ENDBRANCH  36  44
ENDBRANCH  30  31
ENDBRANCH   4  30
TORSDOF 18
ENDMDL
MODEL 2
REMARK VINA RESULT:    -5.800      7.200     10.022
REMARK INTER + INTRA:         -12.776
REMARK INTER:                 -10.127
REMARK INTRA:                  -2.650
REMARK UNBOUND:                -2.739
REMARK SMILES OC[C@@H]1O[C@@H](O[C@H]2[C@@H](O)[C@H](O)[C@H](O[C@@H]3[C@H](O)[C@H](O)[C@H](O)O[C@@H]3CO)O[C@H]2CO)[C@H](O)[C@@H](O)[C@H]1O
REMARK SMILES IDX 7 1 26 2 25 3 12 4 10 5 8 6 6 7 5 8 3 9 33 10 4 11 31 12
REMARK SMILES IDX 29 13 2 14 1 15 34 17 32 19 30 21 27 23 28 24 9 26 11 28
REMARK SMILES IDX 13 30 14 31 22 32 15 33 21 34 17 35 19 36 23 37 24 38 16 40
REMARK SMILES IDX 18 42 20 44
REMARK H PARENT 1 16 34 18 32 20 30 22 28 25 9 27 11 29 24 39 16 41 18 43
REMARK H PARENT 20 45
REMARK Flexibility Score: inf
ROOT
ATOM      1  C   UNL     1      -6.357  45.182  31.532  1.00  0.00     0.184 C 
ATOM      2  C   UNL     1      -6.408  46.126  30.314  1.00  0.00     0.178 C 
ATOM      3  O   UNL     1      -5.111  46.303  29.762  1.00  0.00    -0.341 OA
ATOM      4  C   UNL     1      -4.233  46.952  30.674  1.00  0.00     0.282 C 
ATOM      5  C   UNL     1      -4.074  46.145  31.984  1.00  0.00     0.202 C 
ATOM      6  C   UNL     1      -5.447  45.834  32.596  1.00  0.00     0.180 C 
ENDROOT
BRANCH   1   7
ATOM      7  O   UNL     1      -5.827  43.932  31.112  1.00  0.00    -0.341 OA
BRANCH   7   8
ATOM      8  C   UNL     1      -6.433  42.819  31.755  1.00  0.00     0.282 C 
ATOM      9  C   UNL     1      -4.342  41.806  32.122  1.00  0.00     0.178 C 
ATOM     10  C   UNL     1      -4.630  40.628  31.157  1.00  0.00     0.177 C 
ATOM     11  O   UNL     1      -5.546  42.264  32.716  1.00  0.00    -0.341 OA
ATOM     12  C   UNL     1      -5.668  41.023  30.083  1.00  0.00     0.179 C 
ATOM     13  C   UNL     1      -6.873  41.763  30.717  1.00  0.00     0.202 C 
BRANCH   9  14
ATOM     14  C   UNL     1      -3.378  41.391  33.240  1.00  0.00     0.191 C 
BRANCH  14  15
ATOM     15  O   UNL     1      -2.052  41.654  32.868  1.00  0.00    -0.394 OA
ATOM     16  H   UNL     1      -1.689  42.268  33.558  1.00  0.00     0.210 HD
ENDBRANCH  14  15
ENDBRANCH   9  14
BRANCH  10  17
ATOM     17  O   UNL     1      -3.454  40.134  30.561  1.00  0.00    -0.387 OA
ATOM     18  H   UNL     1      -3.307  40.635  29.717  1.00  0.00     0.211 HD
ENDBRANCH  10  17
BRANCH  12  19
ATOM     19  O   UNL     1      -5.099  41.771  29.035  1.00  0.00    -0.387 OA
ATOM     20  H   UNL     1      -4.191  41.422  28.857  1.00  0.00     0.211 HD
ENDBRANCH  12  19
BRANCH  13  21
ATOM     21  O   UNL     1      -7.716  40.834  31.351  1.00  0.00    -0.385 OA
ATOM     22  H   UNL     1      -7.450  40.807  32.308  1.00  0.00     0.211 HD
ENDBRANCH  13  21
ENDBRANCH   7   8
ENDBRANCH   1   7
BRANCH   2  23
ATOM     23  C   UNL     1      -7.344  45.574  29.229  1.00  0.00     0.191 C 
BRANCH  23  24
ATOM     24  O   UNL     1      -7.063  46.164  27.986  1.00  0.00    -0.394 OA
ATOM     25  H   UNL     1      -6.593  45.475  27.449  1.00  0.00     0.210 HD
ENDBRANCH  23  24
ENDBRANCH   2  23
BRANCH   6  26
ATOM     26  O   UNL     1      -5.284  44.990  33.707  1.00  0.00    -0.387 OA
ATOM     27  H   UNL     1      -6.063  45.147  34.303  1.00  0.00     0.211 HD
ENDBRANCH   6  26
BRANCH   5  28
ATOM     28  O   UNL     1      -3.302  46.864  32.911  1.00  0.00    -0.385 OA
ATOM     29  H   UNL     1      -3.273  46.320  33.743  1.00  0.00     0.211 HD
ENDBRANCH   5  28
BRANCH   4  30
ATOM     30  O   UNL     1      -4.680  48.274  30.956  1.00  0.00    -0.341 OA
BRANCH  30  31
ATOM     31  C   UNL     1      -3.875  49.246  30.304  1.00  0.00     0.184 C 
ATOM     32  C   UNL     1      -4.754  50.322  29.599  1.00  0.00     0.178 C 
ATOM     33  C   UNL     1      -2.910  49.915  31.332  1.00  0.00     0.180 C 
ATOM     34  O   UNL     1      -5.009  51.405  30.473  1.00  0.00    -0.342 OA
ATOM     35  C   UNL     1      -2.561  51.365  30.928  1.00  0.00     0.201 C 
ATOM     36  C   UNL     1      -3.844  52.204  30.632  1.00  0.00     0.279 C 
BRANCH  32  37
ATOM     37  C   UNL     1      -6.081  49.777  29.048  1.00  0.00     0.191 C 
BRANCH  37  38
ATOM     38  O   UNL     1      -5.872  48.685  28.192  1.00  0.00    -0.394 OA
ATOM     39  H   UNL     1      -6.599  48.706  27.515  1.00  0.00     0.210 HD
ENDBRANCH  37  38
ENDBRANCH  32  37
BRANCH  33  40
ATOM     40  O   UNL     1      -3.423  49.870  32.644  1.00  0.00    -0.387 OA
ATOM     41  H   UNL     1      -2.934  50.540  33.190  1.00  0.00     0.211 HD
ENDBRANCH  33  40
BRANCH  35  42
ATOM     42  O   UNL     1      -1.778  51.980  31.921  1.00  0.00    -0.385 OA
ATOM     43  H   UNL     1      -2.079  52.926  31.977  1.00  0.00     0.211 HD
ENDBRANCH  35  42
BRANCH  36  44
ATOM     44  O   UNL     1      -4.074  53.157  31.639  1.00  0.00    -0.366 OA
ATOM     45  H   UNL     1      -3.323  53.092  32.287  1.00  0.00     0.213 HD
ENDBRANCH  36  44
ENDBRANCH  30  31
ENDBRANCH   4  30
TORSDOF 18
ENDMDL
MODEL 3
REMARK VINA RESULT:    -5.641      1.595      1.735
REMARK INTER + INTRA:         -12.501
REMARK INTER:                  -9.835
REMARK INTRA:                  -2.666
REMARK UNBOUND:                -2.739
REMARK SMILES OC[C@@H]1O[C@@H](O[C@H]2[C@@H](O)[C@H](O)[C@H](O[C@@H]3[C@H](O)[C@H](O)[C@H](O)O[C@@H]3CO)O[C@H]2CO)[C@H](O)[C@@H](O)[C@H]1O
REMARK SMILES IDX 7 1 26 2 25 3 12 4 10 5 8 6 6 7 5 8 3 9 33 10 4 11 31 12
REMARK SMILES IDX 29 13 2 14 1 15 34 17 32 19 30 21 27 23 28 24 9 26 11 28
REMARK SMILES IDX 13 30 14 31 22 32 15 33 21 34 17 35 19 36 23 37 24 38 16 40
REMARK SMILES IDX 18 42 20 44
REMARK H PARENT 1 16 34 18 32 20 30 22 28 25 9 27 11 29 24 39 16 41 18 43
REMARK H PARENT 20 45
REMARK Flexibility Score: inf
ROOT
ATOM      1  C   UNL     1     -10.956  44.608  35.888  1.00  0.00     0.184 C 
ATOM      2  C   UNL     1     -10.465  44.453  34.435  1.00  0.00     0.178 C 
ATOM      3  O   UNL     1     -10.172  43.093  34.146  1.00  0.00    -0.341 OA
ATOM      4  C   UNL     1      -9.094  42.606  34.936  1.00  0.00     0.282 C 
ATOM      5  C   UNL     1      -9.405  42.704  36.449  1.00  0.00     0.202 C 
ATOM      6  C   UNL     1      -9.821  44.133  36.823  1.00  0.00     0.180 C 
ENDROOT
BRANCH   1   7
ATOM      7  O   UNL     1     -12.118  43.808  36.059  1.00  0.00    -0.341 OA
BRANCH   7   8
ATOM      8  C   UNL     1     -13.254  44.550  36.483  1.00  0.00     0.282 C 
ATOM      9  C   UNL     1     -13.455  43.256  38.437  1.00  0.00     0.178 C 
ATOM     10  C   UNL     1     -14.797  42.618  37.998  1.00  0.00     0.177 C 
ATOM     11  O   UNL     1     -13.331  44.564  37.901  1.00  0.00    -0.341 OA
ATOM     12  C   UNL     1     -14.936  42.608  36.459  1.00  0.00     0.179 C 
ATOM     13  C   UNL     1     -14.544  43.978  35.854  1.00  0.00     0.202 C 
BRANCH   9  14
ATOM     14  C   UNL     1     -13.352  43.346  39.964  1.00  0.00     0.191 C 
BRANCH  14  15
ATOM     15  O   UNL     1     -12.222  44.088  40.337  1.00  0.00    -0.394 OA
ATOM     16  H   UNL     1     -12.064  43.886  41.296  1.00  0.00     0.210 HD
ENDBRANCH  14  15
ENDBRANCH   9  14
BRANCH  10  17
ATOM     17  O   UNL     1     -14.964  41.324  38.526  1.00  0.00    -0.387 OA
ATOM     18  H   UNL     1     -15.937  41.126  38.545  1.00  0.00     0.211 HD
ENDBRANCH  10  17
BRANCH  12  19
ATOM     19  O   UNL     1     -14.215  41.556  35.861  1.00  0.00    -0.387 OA
ATOM     20  H   UNL     1     -14.322  40.747  36.418  1.00  0.00     0.211 HD
ENDBRANCH  12  19
BRANCH  13  21
ATOM     21  O   UNL     1     -15.587  44.898  36.054  1.00  0.00    -0.385 OA
ATOM     22  H   UNL     1     -15.461  45.629  35.394  1.00  0.00     0.211 HD
ENDBRANCH  13  21
ENDBRANCH   7   8
ENDBRANCH   1   7
BRANCH   2  23
ATOM     23  C   UNL     1     -11.519  44.961  33.441  1.00  0.00     0.191 C 
BRANCH  23  24
ATOM     24  O   UNL     1     -12.373  43.918  33.048  1.00  0.00    -0.394 OA
ATOM     25  H   UNL     1     -11.868  43.076  33.183  1.00  0.00     0.210 HD
ENDBRANCH  23  24
ENDBRANCH   2  23
BRANCH   6  26
ATOM     26  O   UNL     1     -10.226  44.165  38.167  1.00  0.00    -0.387 OA
ATOM     27  H   UNL     1      -9.425  43.944  38.713  1.00  0.00     0.211 HD
ENDBRANCH   6  26
BRANCH   5  28
ATOM     28  O   UNL     1      -8.282  42.331  37.204  1.00  0.00    -0.385 OA
ATOM     29  H   UNL     1      -8.226  41.339  37.164  1.00  0.00     0.211 HD
ENDBRANCH   5  28
BRANCH   4  30
ATOM     30  O   UNL     1      -7.888  43.298  34.632  1.00  0.00    -0.341 OA
BRANCH  30  31
ATOM     31  C   UNL     1      -6.922  42.432  34.052  1.00  0.00     0.184 C 
ATOM     32  C   UNL     1      -6.337  43.040  32.742  1.00  0.00     0.178 C 
ATOM     33  C   UNL     1      -5.783  42.143  35.078  1.00  0.00     0.180 C 
ATOM     34  O   UNL     1      -5.187  43.814  33.024  1.00  0.00    -0.342 OA
ATOM     35  C   UNL     1      -4.438  41.859  34.372  1.00  0.00     0.201 C 
ATOM     36  C   UNL     1      -4.084  42.973  33.337  1.00  0.00     0.279 C 
BRANCH  32  37
ATOM     37  C   UNL     1      -7.345  43.882  31.943  1.00  0.00     0.191 C 
BRANCH  37  38
ATOM     38  O   UNL     1      -8.518  43.160  31.674  1.00  0.00    -0.394 OA
ATOM     39  H   UNL     1      -9.183  43.810  31.325  1.00  0.00     0.210 HD
ENDBRANCH  37  38
ENDBRANCH  32  37
BRANCH  33  40
ATOM     40  O   UNL     1      -5.643  43.182  36.021  1.00  0.00    -0.387 OA
ATOM     41  H   UNL     1      -5.091  43.899  35.612  1.00  0.00     0.211 HD
ENDBRANCH  33  40
BRANCH  35  42
ATOM     42  O   UNL     1      -3.407  41.706  35.316  1.00  0.00    -0.385 OA
ATOM     43  H   UNL     1      -3.781  41.166  36.063  1.00  0.00     0.211 HD
ENDBRANCH  35  42
BRANCH  36  44
ATOM     44  O   UNL     1      -3.015  43.767  33.787  1.00  0.00    -0.366 OA
ATOM     45  H   UNL     1      -2.561  43.268  34.518  1.00  0.00     0.213 HD
ENDBRANCH  36  44
ENDBRANCH  30  31
ENDBRANCH   4  30
TORSDOF 18
ENDMDL
MODEL 4
REMARK VINA RESULT:    -5.594      5.028      8.269
REMARK INTER + INTRA:         -12.421
REMARK INTER:                  -9.650
REMARK INTRA:                  -2.771
REMARK UNBOUND:                -2.739
REMARK SMILES OC[C@@H]1O[C@@H](O[C@H]2[C@@H](O)[C@H](O)[C@H](O[C@@H]3[C@H](O)[C@H](O)[C@H](O)O[C@@H]3CO)O[C@H]2CO)[C@H](O)[C@@H](O)[C@H]1O
REMARK SMILES IDX 7 1 26 2 25 3 12 4 10 5 8 6 6 7 5 8 3 9 33 10 4 11 31 12
REMARK SMILES IDX 29 13 2 14 1 15 34 17 32 19 30 21 27 23 28 24 9 26 11 28
REMARK SMILES IDX 13 30 14 31 22 32 15 33 21 34 17 35 19 36 23 37 24 38 16 40
REMARK SMILES IDX 18 42 20 44
REMARK H PARENT 1 16 34 18 32 20 30 22 28 25 9 27 11 29 24 39 16 41 18 43
REMARK H PARENT 20 45
REMARK Flexibility Score: inf
ROOT
ATOM      1  C   UNL     1     -13.342  45.299  33.292  1.00  0.00     0.184 C 
ATOM      2  C   UNL     1     -13.329  46.804  33.625  1.00  0.00     0.178 C 
ATOM      3  O   UNL     1     -14.651  47.283  33.831  1.00  0.00    -0.341 OA
ATOM      4  C   UNL     1     -15.436  47.190  32.648  1.00  0.00     0.282 C 
ATOM      5  C   UNL     1     -15.544  45.730  32.149  1.00  0.00     0.202 C 
ATOM      6  C   UNL     1     -14.149  45.110  31.988  1.00  0.00     0.180 C 
ENDROOT
BRANCH   1   7
ATOM      7  O   UNL     1     -13.954  44.603  34.370  1.00  0.00    -0.341 OA
BRANCH   7   8
ATOM      8  C   UNL     1     -13.149  43.555  34.893  1.00  0.00     0.282 C 
ATOM      9  C   UNL     1     -14.900  42.001  34.656  1.00  0.00     0.178 C 
ATOM     10  C   UNL     1     -15.071  41.807  36.184  1.00  0.00     0.177 C 
ATOM     11  O   UNL     1     -13.550  42.307  34.344  1.00  0.00    -0.341 OA
ATOM     12  C   UNL     1     -14.584  43.049  36.964  1.00  0.00     0.179 C 
ATOM     13  C   UNL     1     -13.212  43.538  36.437  1.00  0.00     0.202 C 
BRANCH   9  14
ATOM     14  C   UNL     1     -15.301  40.739  33.884  1.00  0.00     0.191 C 
BRANCH  14  15
ATOM     15  O   UNL     1     -15.083  39.595  34.665  1.00  0.00    -0.394 OA
ATOM     16  H   UNL     1     -14.450  39.028  34.153  1.00  0.00     0.210 HD
ENDBRANCH  14  15
ENDBRANCH   9  14
BRANCH  10  17
ATOM     17  O   UNL     1     -16.395  41.484  36.530  1.00  0.00    -0.387 OA
ATOM     18  H   UNL     1     -17.000  42.067  36.001  1.00  0.00     0.211 HD
ENDBRANCH  10  17
BRANCH  12  19
ATOM     19  O   UNL     1     -15.534  44.088  36.968  1.00  0.00    -0.387 OA
ATOM     20  H   UNL     1     -15.332  44.696  37.720  1.00  0.00     0.211 HD
ENDBRANCH  12  19
BRANCH  13  21
ATOM     21  O   UNL     1     -12.194  42.697  36.918  1.00  0.00    -0.385 OA
ATOM     22  H   UNL     1     -11.456  42.725  36.254  1.00  0.00     0.211 HD
ENDBRANCH  13  21
ENDBRANCH   7   8
ENDBRANCH   1   7
BRANCH   2  23
ATOM     23  C   UNL     1     -12.493  47.082  34.883  1.00  0.00     0.191 C 
BRANCH  23  24
ATOM     24  O   UNL     1     -12.113  48.433  34.936  1.00  0.00    -0.394 OA
ATOM     25  H   UNL     1     -12.136  48.693  35.892  1.00  0.00     0.210 HD
ENDBRANCH  23  24
ENDBRANCH   2  23
BRANCH   6  26
ATOM     26  O   UNL     1     -14.276  43.750  31.664  1.00  0.00    -0.387 OA
ATOM     27  H   UNL     1     -14.616  43.292  32.479  1.00  0.00     0.211 HD
ENDBRANCH   6  26
BRANCH   5  28
ATOM     28  O   UNL     1     -16.220  45.683  30.919  1.00  0.00    -0.385 OA
ATOM     29  H   UNL     1     -17.135  45.343  31.108  1.00  0.00     0.211 HD
ENDBRANCH   5  28
BRANCH   4  30
ATOM     30  O   UNL     1     -14.912  48.029  31.624  1.00  0.00    -0.341 OA
BRANCH  30  31
ATOM     31  C   UNL     1     -15.688  49.209  31.470  1.00  0.00     0.184 C 
ATOM     32  C   UNL     1     -14.778  50.470  31.369  1.00  0.00     0.178 C 
ATOM     33  C   UNL     1     -16.597  49.088  30.208  1.00  0.00     0.180 C 
ATOM     34  O   UNL     1     -14.454  50.741  30.019  1.00  0.00    -0.342 OA
ATOM     35  C   UNL     1     -16.890  50.469  29.580  1.00  0.00     0.201 C 
ATOM     36  C   UNL     1     -15.578  51.279  29.334  1.00  0.00     0.279 C 
BRANCH  32  37
ATOM     37  C   UNL     1     -13.490  50.375  32.202  1.00  0.00     0.191 C 
BRANCH  37  38
ATOM     38  O   UNL     1     -13.771  50.167  33.561  1.00  0.00    -0.394 OA
ATOM     39  H   UNL     1     -14.739  50.353  33.687  1.00  0.00     0.210 HD
ENDBRANCH  37  38
ENDBRANCH  32  37
BRANCH  33  40
ATOM     40  O   UNL     1     -16.057  48.207  29.250  1.00  0.00    -0.387 OA
ATOM     41  H   UNL     1     -15.341  47.675  29.686  1.00  0.00     0.211 HD
ENDBRANCH  33  40
BRANCH  35  42
ATOM     42  O   UNL     1     -17.621  50.325  28.388  1.00  0.00    -0.385 OA
ATOM     43  H   UNL     1     -17.063  49.775  27.775  1.00  0.00     0.211 HD
ENDBRANCH  35  42
BRANCH  36  44
ATOM     44  O   UNL     1     -15.282  51.366  27.963  1.00  0.00    -0.366 OA
ATOM     45  H   UNL     1     -15.645  52.232  27.635  1.00  0.00     0.213 HD
ENDBRANCH  36  44
ENDBRANCH  30  31
ENDBRANCH   4  30
TORSDOF 18
ENDMDL
MODEL 5
REMARK VINA RESULT:    -5.543      4.164      9.747
REMARK INTER + INTRA:         -12.332
REMARK INTER:                  -9.649
REMARK INTRA:                  -2.683
REMARK UNBOUND:                -2.739
REMARK SMILES OC[C@@H]1O[C@@H](O[C@H]2[C@@H](O)[C@H](O)[C@H](O[C@@H]3[C@H](O)[C@H](O)[C@H](O)O[C@@H]3CO)O[C@H]2CO)[C@H](O)[C@@H](O)[C@H]1O
REMARK SMILES IDX 7 1 26 2 25 3 12 4 10 5 8 6 6 7 5 8 3 9 33 10 4 11 31 12
REMARK SMILES IDX 29 13 2 14 1 15 34 17 32 19 30 21 27 23 28 24 9 26 11 28
REMARK SMILES IDX 13 30 14 31 22 32 15 33 21 34 17 35 19 36 23 37 24 38 16 40
REMARK SMILES IDX 18 42 20 44
REMARK H PARENT 1 16 34 18 32 20 30 22 28 25 9 27 11 29 24 39 16 41 18 43
REMARK H PARENT 20 45
REMARK Flexibility Score: inf
ROOT
ATOM      1  C   UNL     1      -8.915  42.701  29.820  1.00  0.00     0.184 C 
ATOM      2  C   UNL     1      -9.502  43.408  31.057  1.00  0.00     0.178 C 
ATOM      3  O   UNL     1      -9.678  42.488  32.125  1.00  0.00    -0.341 OA
ATOM      4  C   UNL     1     -10.636  41.485  31.805  1.00  0.00     0.282 C 
ATOM      5  C   UNL     1     -10.215  40.674  30.556  1.00  0.00     0.202 C 
ATOM      6  C   UNL     1      -9.917  41.611  29.379  1.00  0.00     0.180 C 
ENDROOT
BRANCH   1   7
ATOM      7  O   UNL     1      -7.668  42.122  30.181  1.00  0.00    -0.341 OA
BRANCH   7   8
ATOM      8  C   UNL     1      -6.567  42.664  29.461  1.00  0.00     0.282 C 
ATOM      9  C   UNL     1      -6.134  40.592  28.434  1.00  0.00     0.178 C 
ATOM     10  C   UNL     1      -4.779  40.400  29.160  1.00  0.00     0.177 C 
ATOM     11  O   UNL     1      -6.396  41.971  28.232  1.00  0.00    -0.341 OA
ATOM     12  C   UNL     1      -4.743  41.178  30.495  1.00  0.00     0.179 C 
ATOM     13  C   UNL     1      -5.282  42.619  30.317  1.00  0.00     0.202 C 
BRANCH   9  14
ATOM     14  C   UNL     1      -6.141  39.893  27.069  1.00  0.00     0.191 C 
BRANCH  14  15
ATOM     15  O   UNL     1      -7.441  39.851  26.545  1.00  0.00    -0.394 OA
ATOM     16  H   UNL     1      -7.917  39.139  27.045  1.00  0.00     0.210 HD
ENDBRANCH  14  15
ENDBRANCH   9  14
BRANCH  10  17
ATOM     17  O   UNL     1      -4.475  39.041  29.362  1.00  0.00    -0.387 OA
ATOM     18  H   UNL     1      -4.015  38.959  30.237  1.00  0.00     0.211 HD
ENDBRANCH  10  17
BRANCH  12  19
ATOM     19  O   UNL     1      -5.418  40.500  31.529  1.00  0.00    -0.387 OA
ATOM     20  H   UNL     1      -6.230  41.013  31.763  1.00  0.00     0.211 HD
ENDBRANCH  12  19
BRANCH  13  21
ATOM     21  O   UNL     1      -4.303  43.415  29.698  1.00  0.00    -0.385 OA
ATOM     22  H   UNL     1      -4.719  44.298  29.515  1.00  0.00     0.211 HD
ENDBRANCH  13  21
ENDBRANCH   7   8
ENDBRANCH   1   7
BRANCH   2  23
ATOM     23  C   UNL     1      -8.587  44.550  31.524  1.00  0.00     0.191 C 
BRANCH  23  24
ATOM     24  O   UNL     1      -7.698  44.099  32.513  1.00  0.00    -0.394 OA
ATOM     25  H   UNL     1      -6.908  44.696  32.472  1.00  0.00     0.210 HD
ENDBRANCH  23  24
ENDBRANCH   2  23
BRANCH   6  26
ATOM     26  O   UNL     1      -9.412  40.864  28.302  1.00  0.00    -0.387 OA
ATOM     27  H   UNL     1     -10.167  40.722  27.673  1.00  0.00     0.211 HD
ENDBRANCH   6  26
BRANCH   5  28
ATOM     28  O   UNL     1     -11.231  39.775  30.193  1.00  0.00    -0.385 OA
ATOM     29  H   UNL     1     -10.810  38.877  30.131  1.00  0.00     0.211 HD
ENDBRANCH   5  28
BRANCH   4  30
ATOM     30  O   UNL     1     -11.925  42.057  31.615  1.00  0.00    -0.341 OA
BRANCH  30  31
ATOM     31  C   UNL     1     -12.784  41.779  32.713  1.00  0.00     0.184 C 
ATOM     32  C   UNL     1     -13.566  43.054  33.150  1.00  0.00     0.178 C 
ATOM     33  C   UNL     1     -13.773  40.632  32.338  1.00  0.00     0.180 C 
ATOM     34  O   UNL     1     -14.798  43.141  32.460  1.00  0.00    -0.342 OA
ATOM     35  C   UNL     1     -15.109  40.756  33.104  1.00  0.00     0.201 C 
ATOM     36  C   UNL     1     -15.722  42.185  32.964  1.00  0.00     0.279 C 
BRANCH  32  37
ATOM     37  C   UNL     1     -12.777  44.361  32.969  1.00  0.00     0.191 C 
BRANCH  37  38
ATOM     38  O   UNL     1     -11.564  44.329  33.673  1.00  0.00    -0.394 OA
ATOM     39  H   UNL     1     -11.113  45.198  33.509  1.00  0.00     0.210 HD
ENDBRANCH  37  38
ENDBRANCH  32  37
BRANCH  33  40
ATOM     40  O   UNL     1     -13.998  40.561  30.948  1.00  0.00    -0.387 OA
ATOM     41  H   UNL     1     -14.894  40.946  30.759  1.00  0.00     0.211 HD
ENDBRANCH  33  40
BRANCH  35  42
ATOM     42  O   UNL     1     -16.019  39.775  32.673  1.00  0.00    -0.385 OA
ATOM     43  H   UNL     1     -15.536  39.206  32.016  1.00  0.00     0.211 HD
ENDBRANCH  35  42
BRANCH  36  44
ATOM     44  O   UNL     1     -16.863  42.173  32.144  1.00  0.00    -0.366 OA
ATOM     45  H   UNL     1     -17.434  42.940  32.418  1.00  0.00     0.213 HD
ENDBRANCH  36  44
ENDBRANCH  30  31
ENDBRANCH   4  30
TORSDOF 18
ENDMDL
MODEL 6
REMARK VINA RESULT:    -5.449      1.986      8.857
REMARK INTER + INTRA:         -12.170
REMARK INTER:                  -9.453
REMARK INTRA:                  -2.717
REMARK UNBOUND:                -2.739
REMARK SMILES OC[C@@H]1O[C@@H](O[C@H]2[C@@H](O)[C@H](O)[C@H](O[C@@H]3[C@H](O)[C@H](O)[C@H](O)O[C@@H]3CO)O[C@H]2CO)[C@H](O)[C@@H](O)[C@H]1O
REMARK SMILES IDX 7 1 26 2 25 3 12 4 10 5 8 6 6 7 5 8 3 9 33 10 4 11 31 12
REMARK SMILES IDX 29 13 2 14 1 15 34 17 32 19 30 21 27 23 28 24 9 26 11 28
REMARK SMILES IDX 13 30 14 31 22 32 15 33 21 34 17 35 19 36 23 37 24 38 16 40
REMARK SMILES IDX 18 42 20 44
REMARK H PARENT 1 16 34 18 32 20 30 22 28 25 9 27 11 29 24 39 16 41 18 43
REMARK H PARENT 20 45
REMARK Flexibility Score: inf
ROOT
ATOM      1  C   UNL     1      -9.371  44.197  32.478  1.00  0.00     0.184 C 
ATOM      2  C   UNL     1      -9.278  44.107  34.014  1.00  0.00     0.178 C 
ATOM      3  O   UNL     1      -9.551  42.785  34.457  1.00  0.00    -0.341 OA
ATOM      4  C   UNL     1     -10.887  42.394  34.161  1.00  0.00     0.282 C 
ATOM      5  C   UNL     1     -11.171  42.444  32.642  1.00  0.00     0.202 C 
ATOM      6  C   UNL     1     -10.813  43.822  32.070  1.00  0.00     0.180 C 
ENDROOT
BRANCH   1   7
ATOM      7  O   UNL     1      -8.434  43.287  31.916  1.00  0.00    -0.341 OA
BRANCH   7   8
ATOM      8  C   UNL     1      -7.739  43.817  30.795  1.00  0.00     0.282 C 
ATOM      9  C   UNL     1      -7.595  41.693  29.795  1.00  0.00     0.178 C 
ATOM     10  C   UNL     1      -6.054  41.616  29.943  1.00  0.00     0.177 C 
ATOM     11  O   UNL     1      -8.010  43.040  29.637  1.00  0.00    -0.341 OA
ATOM     12  C   UNL     1      -5.559  42.495  31.113  1.00  0.00     0.179 C 
ATOM     13  C   UNL     1      -6.223  43.894  31.081  1.00  0.00     0.202 C 
BRANCH   9  14
ATOM     14  C   UNL     1      -8.081  40.891  28.582  1.00  0.00     0.191 C 
BRANCH  14  15
ATOM     15  O   UNL     1      -9.482  40.833  28.561  1.00  0.00    -0.394 OA
ATOM     16  H   UNL     1      -9.717  39.869  28.523  1.00  0.00     0.210 HD
ENDBRANCH  14  15
ENDBRANCH   9  14
BRANCH  10  17
ATOM     17  O   UNL     1      -5.603  40.290  30.084  1.00  0.00    -0.387 OA
ATOM     18  H   UNL     1      -5.448  40.123  31.050  1.00  0.00     0.211 HD
ENDBRANCH  10  17
BRANCH  12  19
ATOM     19  O   UNL     1      -5.732  41.872  32.364  1.00  0.00    -0.387 OA
ATOM     20  H   UNL     1      -4.923  41.340  32.563  1.00  0.00     0.211 HD
ENDBRANCH  12  19
BRANCH  13  21
ATOM     21  O   UNL     1      -5.617  44.680  30.085  1.00  0.00    -0.385 OA
ATOM     22  H   UNL     1      -5.984  45.599  30.179  1.00  0.00     0.211 HD
ENDBRANCH  13  21
ENDBRANCH   7   8
ENDBRANCH   1   7
BRANCH   2  23
ATOM     23  C   UNL     1      -7.885  44.524  34.507  1.00  0.00     0.191 C 
BRANCH  23  24
ATOM     24  O   UNL     1      -7.010  43.425  34.507  1.00  0.00    -0.394 OA
ATOM     25  H   UNL     1      -7.407  42.751  35.116  1.00  0.00     0.210 HD
ENDBRANCH  23  24
ENDBRANCH   2  23
BRANCH   6  26
ATOM     26  O   UNL     1     -10.953  43.799  30.673  1.00  0.00    -0.387 OA
ATOM     27  H   UNL     1     -11.426  42.955  30.446  1.00  0.00     0.211 HD
ENDBRANCH   6  26
BRANCH   5  28
ATOM     28  O   UNL     1     -12.526  42.171  32.389  1.00  0.00    -0.385 OA
ATOM     29  H   UNL     1     -12.965  43.046  32.212  1.00  0.00     0.211 HD
ENDBRANCH   5  28
BRANCH   4  30
ATOM     30  O   UNL     1     -11.820  43.203  34.868  1.00  0.00    -0.341 OA
BRANCH  30  31
ATOM     31  C   UNL     1     -12.469  42.470  35.898  1.00  0.00     0.184 C 
ATOM     32  C   UNL     1     -12.419  43.238  37.253  1.00  0.00     0.178 C 
ATOM     33  C   UNL     1     -13.946  42.174  35.491  1.00  0.00     0.180 C 
ATOM     34  O   UNL     1     -13.557  44.068  37.395  1.00  0.00    -0.342 OA
ATOM     35  C   UNL     1     -14.867  42.058  36.726  1.00  0.00     0.201 C 
ATOM     36  C   UNL     1     -14.711  43.287  37.677  1.00  0.00     0.279 C 
BRANCH  32  37
ATOM     37  C   UNL     1     -11.143  44.072  37.448  1.00  0.00     0.191 C 
BRANCH  37  38
ATOM     38  O   UNL     1      -9.994  43.267  37.411  1.00  0.00    -0.394 OA
ATOM     39  H   UNL     1     -10.296  42.328  37.525  1.00  0.00     0.210 HD
ENDBRANCH  37  38
ENDBRANCH  32  37
BRANCH  33  40
ATOM     40  O   UNL     1     -14.446  43.128  34.582  1.00  0.00    -0.387 OA
ATOM     41  H   UNL     1     -14.951  43.810  35.096  1.00  0.00     0.211 HD
ENDBRANCH  33  40
BRANCH  35  42
ATOM     42  O   UNL     1     -16.207  41.897  36.331  1.00  0.00    -0.385 OA
ATOM     43  H   UNL     1     -16.231  41.117  35.714  1.00  0.00     0.211 HD
ENDBRANCH  35  42
BRANCH  36  44
ATOM     44  O   UNL     1     -15.847  44.114  37.632  1.00  0.00    -0.366 OA
ATOM     45  H   UNL     1     -15.933  44.449  36.699  1.00  0.00     0.213 HD
ENDBRANCH  36  44
ENDBRANCH  30  31
ENDBRANCH   4  30
TORSDOF 18
ENDMDL
MODEL 7
REMARK VINA RESULT:    -5.405      2.278      8.742
REMARK INTER + INTRA:         -12.093
REMARK INTER:                  -9.360
REMARK INTRA:                  -2.733
REMARK UNBOUND:                -2.739
REMARK SMILES OC[C@@H]1O[C@@H](O[C@H]2[C@@H](O)[C@H](O)[C@H](O[C@@H]3[C@H](O)[C@H](O)[C@H](O)O[C@@H]3CO)O[C@H]2CO)[C@H](O)[C@@H](O)[C@H]1O
REMARK SMILES IDX 7 1 26 2 25 3 12 4 10 5 8 6 6 7 5 8 3 9 33 10 4 11 31 12
REMARK SMILES IDX 29 13 2 14 1 15 34 17 32 19 30 21 27 23 28 24 9 26 11 28
REMARK SMILES IDX 13 30 14 31 22 32 15 33 21 34 17 35 19 36 23 37 24 38 16 40
REMARK SMILES IDX 18 42 20 44
REMARK H PARENT 1 16 34 18 32 20 30 22 28 25 9 27 11 29 24 39 16 41 18 43
REMARK H PARENT 20 45
REMARK Flexibility Score: inf
ROOT
ATOM      1  C   UNL     1      -9.689  45.820  34.035  1.00  0.00     0.184 C 
ATOM      2  C   UNL     1      -9.658  45.141  35.418  1.00  0.00     0.178 C 
ATOM      3  O   UNL     1      -9.921  43.750  35.300  1.00  0.00    -0.341 OA
ATOM      4  C   UNL     1     -11.236  43.502  34.815  1.00  0.00     0.282 C 
ATOM      5  C   UNL     1     -11.459  44.137  33.422  1.00  0.00     0.202 C 
ATOM      6  C   UNL     1     -11.105  45.630  33.447  1.00  0.00     0.180 C 
ENDROOT
BRANCH   1   7
ATOM      7  O   UNL     1      -8.712  45.204  33.207  1.00  0.00    -0.341 OA
BRANCH   7   8
ATOM      8  C   UNL     1      -7.826  46.132  32.595  1.00  0.00     0.282 C 
ATOM      9  C   UNL     1      -8.291  45.268  30.457  1.00  0.00     0.178 C 
ATOM     10  C   UNL     1      -6.860  44.706  30.261  1.00  0.00     0.177 C 
ATOM     11  O   UNL     1      -8.260  46.427  31.275  1.00  0.00    -0.341 OA
ATOM     12  C   UNL     1      -6.182  44.415  31.619  1.00  0.00     0.179 C 
ATOM     13  C   UNL     1      -6.379  45.592  32.606  1.00  0.00     0.202 C 
BRANCH   9  14
ATOM     14  C   UNL     1      -8.934  45.640  29.115  1.00  0.00     0.191 C 
BRANCH  14  15
ATOM     15  O   UNL     1      -7.968  46.136  28.228  1.00  0.00    -0.394 OA
ATOM     16  H   UNL     1      -8.310  47.012  27.910  1.00  0.00     0.210 HD
ENDBRANCH  14  15
ENDBRANCH   9  14
BRANCH  10  17
ATOM     17  O   UNL     1      -6.849  43.564  29.439  1.00  0.00    -0.387 OA
ATOM     18  H   UNL     1      -5.938  43.174  29.473  1.00  0.00     0.211 HD
ENDBRANCH  10  17
BRANCH  12  19
ATOM     19  O   UNL     1      -6.608  43.196  32.181  1.00  0.00    -0.387 OA
ATOM     20  H   UNL     1      -6.424  42.471  31.535  1.00  0.00     0.211 HD
ENDBRANCH  12  19
BRANCH  13  21
ATOM     21  O   UNL     1      -5.506  46.641  32.268  1.00  0.00    -0.385 OA
ATOM     22  H   UNL     1      -5.917  47.480  32.605  1.00  0.00     0.211 HD
ENDBRANCH  13  21
ENDBRANCH   7   8
ENDBRANCH   1   7
BRANCH   2  23
ATOM     23  C   UNL     1      -8.294  45.336  36.097  1.00  0.00     0.191 C 
BRANCH  23  24
ATOM     24  O   UNL     1      -8.431  45.327  37.494  1.00  0.00    -0.394 OA
ATOM     25  H   UNL     1      -7.563  45.633  37.863  1.00  0.00     0.210 HD
ENDBRANCH  23  24
ENDBRANCH   2  23
BRANCH   6  26
ATOM     26  O   UNL     1     -11.187  46.153  32.147  1.00  0.00    -0.387 OA
ATOM     27  H   UNL     1     -10.518  46.886  32.090  1.00  0.00     0.211 HD
ENDBRANCH   6  26
BRANCH   5  28
ATOM     28  O   UNL     1     -12.796  43.981  33.022  1.00  0.00    -0.385 OA
ATOM     29  H   UNL     1     -12.987  44.709  32.372  1.00  0.00     0.211 HD
ENDBRANCH   5  28
BRANCH   4  30
ATOM     30  O   UNL     1     -12.214  43.969  35.737  1.00  0.00    -0.341 OA
BRANCH  30  31
ATOM     31  C   UNL     1     -12.803  42.896  36.459  1.00  0.00     0.184 C 
ATOM     32  C   UNL     1     -13.041  43.286  37.949  1.00  0.00     0.178 C 
ATOM     33  C   UNL     1     -14.144  42.473  35.784  1.00  0.00     0.180 C 
ATOM     34  O   UNL     1     -14.328  43.848  38.116  1.00  0.00    -0.342 OA
ATOM     35  C   UNL     1     -15.141  41.889  36.810  1.00  0.00     0.201 C 
ATOM     36  C   UNL     1     -15.327  42.839  38.036  1.00  0.00     0.279 C 
BRANCH  32  37
ATOM     37  C   UNL     1     -11.980  44.243  38.518  1.00  0.00     0.191 C 
BRANCH  37  38
ATOM     38  O   UNL     1     -10.682  43.758  38.301  1.00  0.00    -0.394 OA
ATOM     39  H   UNL     1     -10.723  42.770  38.398  1.00  0.00     0.210 HD
ENDBRANCH  37  38
ENDBRANCH  32  37
BRANCH  33  40
ATOM     40  O   UNL     1     -14.731  43.532  35.062  1.00  0.00    -0.387 OA
ATOM     41  H   UNL     1     -15.438  43.938  35.629  1.00  0.00     0.211 HD
ENDBRANCH  33  40
BRANCH  35  42
ATOM     42  O   UNL     1     -16.376  41.613  36.198  1.00  0.00    -0.385 OA
ATOM     43  H   UNL     1     -16.179  41.075  35.386  1.00  0.00     0.211 HD
ENDBRANCH  35  42
BRANCH  36  44
ATOM     44  O   UNL     1     -16.594  43.447  38.022  1.00  0.00    -0.366 OA
ATOM     45  H   UNL     1     -16.742  43.805  37.106  1.00  0.00     0.213 HD
ENDBRANCH  36  44
ENDBRANCH  30  31
ENDBRANCH   4  30
TORSDOF 18
ENDMDL
MODEL 8
REMARK VINA RESULT:    -5.368      2.363      3.296
REMARK INTER + INTRA:         -12.029
REMARK INTER:                  -9.295
REMARK INTRA:                  -2.734
REMARK UNBOUND:                -2.739
REMARK SMILES OC[C@@H]1O[C@@H](O[C@H]2[C@@H](O)[C@H](O)[C@H](O[C@@H]3[C@H](O)[C@H](O)[C@H](O)O[C@@H]3CO)O[C@H]2CO)[C@H](O)[C@@H](O)[C@H]1O
REMARK SMILES IDX 7 1 26 2 25 3 12 4 10 5 8 6 6 7 5 8 3 9 33 10 4 11 31 12
REMARK SMILES IDX 29 13 2 14 1 15 34 17 32 19 30 21 27 23 28 24 9 26 11 28
REMARK SMILES IDX 13 30 14 31 22 32 15 33 21 34 17 35 19 36 23 37 24 38 16 40
REMARK SMILES IDX 18 42 20 44
REMARK H PARENT 1 16 34 18 32 20 30 22 28 25 9 27 11 29 24 39 16 41 18 43
REMARK H PARENT 20 45
REMARK Flexibility Score: inf
ROOT
ATOM      1  C   UNL     1     -12.840  43.033  32.699  1.00  0.00     0.184 C 
ATOM      2  C   UNL     1     -12.326  42.127  31.563  1.00  0.00     0.178 C 
ATOM      3  O   UNL     1     -11.620  41.013  32.090  1.00  0.00    -0.341 OA
ATOM      4  C   UNL     1     -10.443  41.413  32.782  1.00  0.00     0.282 C 
ATOM      5  C   UNL     1     -10.770  42.357  33.963  1.00  0.00     0.202 C 
ATOM      6  C   UNL     1     -11.614  43.546  33.486  1.00  0.00     0.180 C 
ENDROOT
BRANCH   1   7
ATOM      7  O   UNL     1     -13.692  42.264  33.538  1.00  0.00    -0.341 OA
BRANCH   7   8
ATOM      8  C   UNL     1     -14.990  42.824  33.686  1.00  0.00     0.282 C 
ATOM      9  C   UNL     1     -14.797  42.819  36.031  1.00  0.00     0.178 C 
ATOM     10  C   UNL     1     -15.902  41.750  36.222  1.00  0.00     0.177 C 
ATOM     11  O   UNL     1     -15.057  43.599  34.875  1.00  0.00    -0.341 OA
ATOM     12  C   UNL     1     -16.044  40.860  34.966  1.00  0.00     0.179 C 
ATOM     13  C   UNL     1     -16.066  41.715  33.675  1.00  0.00     0.202 C 
BRANCH   9  14
ATOM     14  C   UNL     1     -14.713  43.759  37.240  1.00  0.00     0.191 C 
BRANCH  14  15
ATOM     15  O   UNL     1     -15.993  44.187  37.620  1.00  0.00    -0.394 OA
ATOM     16  H   UNL     1     -15.913  44.492  38.560  1.00  0.00     0.210 HD
ENDBRANCH  14  15
ENDBRANCH   9  14
BRANCH  10  17
ATOM     17  O   UNL     1     -15.687  40.967  37.371  1.00  0.00    -0.387 OA
ATOM     18  H   UNL     1     -14.735  40.690  37.377  1.00  0.00     0.211 HD
ENDBRANCH  10  17
BRANCH  12  19
ATOM     19  O   UNL     1     -15.056  39.859  34.904  1.00  0.00    -0.387 OA
ATOM     20  H   UNL     1     -14.473  39.943  35.698  1.00  0.00     0.211 HD
ENDBRANCH  12  19
BRANCH  13  21
ATOM     21  O   UNL     1     -17.328  42.316  33.529  1.00  0.00    -0.385 OA
ATOM     22  H   UNL     1     -17.474  42.883  34.332  1.00  0.00     0.211 HD
ENDBRANCH  13  21
ENDBRANCH   7   8
ENDBRANCH   1   7
BRANCH   2  23
ATOM     23  C   UNL     1     -13.486  41.621  30.694  1.00  0.00     0.191 C 
BRANCH  23  24
ATOM     24  O   UNL     1     -13.946  40.378  31.157  1.00  0.00    -0.394 OA
ATOM     25  H   UNL     1     -14.798  40.199  30.683  1.00  0.00     0.210 HD
ENDBRANCH  23  24
ENDBRANCH   2  23
BRANCH   6  26
ATOM     26  O   UNL     1     -12.009  44.314  34.593  1.00  0.00    -0.387 OA
ATOM     27  H   UNL     1     -12.169  43.678  35.340  1.00  0.00     0.211 HD
ENDBRANCH   6  26
BRANCH   5  28
ATOM     28  O   UNL     1      -9.586  42.831  34.552  1.00  0.00    -0.385 OA
ATOM     29  H   UNL     1      -9.843  43.242  35.420  1.00  0.00     0.211 HD
ENDBRANCH   5  28
BRANCH   4  30
ATOM     30  O   UNL     1      -9.516  42.030  31.895  1.00  0.00    -0.341 OA
BRANCH  30  31
ATOM     31  C   UNL     1      -8.454  41.149  31.556  1.00  0.00     0.184 C 
ATOM     32  C   UNL     1      -8.124  41.226  30.035  1.00  0.00     0.178 C 
ATOM     33  C   UNL     1      -7.192  41.485  32.408  1.00  0.00     0.180 C 
ATOM     34  O   UNL     1      -7.130  42.203  29.792  1.00  0.00    -0.342 OA
ATOM     35  C   UNL     1      -5.887  41.127  31.662  1.00  0.00     0.201 C 
ATOM     36  C   UNL     1      -5.858  41.740  30.226  1.00  0.00     0.279 C 
BRANCH  32  37
ATOM     37  C   UNL     1      -9.348  41.499  29.146  1.00  0.00     0.191 C 
BRANCH  37  38
ATOM     38  O   UNL     1     -10.356  40.545  29.354  1.00  0.00    -0.394 OA
ATOM     39  H   UNL     1     -10.818  40.794  30.197  1.00  0.00     0.210 HD
ENDBRANCH  37  38
ENDBRANCH  32  37
BRANCH  33  40
ATOM     40  O   UNL     1      -7.177  42.833  32.823  1.00  0.00    -0.387 OA
ATOM     41  H   UNL     1      -6.824  42.867  33.750  1.00  0.00     0.211 HD
ENDBRANCH  33  40
BRANCH  35  42
ATOM     42  O   UNL     1      -4.764  41.536  32.404  1.00  0.00    -0.385 OA
ATOM     43  H   UNL     1      -4.997  41.414  33.364  1.00  0.00     0.211 HD
ENDBRANCH  35  42
BRANCH  36  44
ATOM     44  O   UNL     1      -4.932  42.795  30.140  1.00  0.00    -0.366 OA
ATOM     45  H   UNL     1      -4.484  42.725  29.255  1.00  0.00     0.213 HD
ENDBRANCH  36  44
ENDBRANCH  30  31
ENDBRANCH   4  30
TORSDOF 18
ENDMDL
MODEL 9
REMARK VINA RESULT:    -5.363      3.812      8.443
REMARK INTER + INTRA:         -12.021
REMARK INTER:                  -9.543
REMARK INTRA:                  -2.478
REMARK UNBOUND:                -2.739
REMARK SMILES OC[C@@H]1O[C@@H](O[C@H]2[C@@H](O)[C@H](O)[C@H](O[C@@H]3[C@H](O)[C@H](O)[C@H](O)O[C@@H]3CO)O[C@H]2CO)[C@H](O)[C@@H](O)[C@H]1O
REMARK SMILES IDX 7 1 26 2 25 3 12 4 10 5 8 6 6 7 5 8 3 9 33 10 4 11 31 12
REMARK SMILES IDX 29 13 2 14 1 15 34 17 32 19 30 21 27 23 28 24 9 26 11 28
REMARK SMILES IDX 13 30 14 31 22 32 15 33 21 34 17 35 19 36 23 37 24 38 16 40
REMARK SMILES IDX 18 42 20 44
REMARK H PARENT 1 16 34 18 32 20 30 22 28 25 9 27 11 29 24 39 16 41 18 43
REMARK H PARENT 20 45
REMARK Flexibility Score: inf
ROOT
ATOM      1  C   UNL     1     -14.886  40.433  33.479  1.00  0.00     0.184 C 
ATOM      2  C   UNL     1     -15.797  41.033  34.568  1.00  0.00     0.178 C 
ATOM      3  O   UNL     1     -15.568  42.429  34.701  1.00  0.00    -0.341 OA
ATOM      4  C   UNL     1     -14.248  42.706  35.155  1.00  0.00     0.282 C 
ATOM      5  C   UNL     1     -13.183  42.150  34.180  1.00  0.00     0.202 C 
ATOM      6  C   UNL     1     -13.421  40.658  33.913  1.00  0.00     0.180 C 
ENDROOT
BRANCH   1   7
ATOM      7  O   UNL     1     -15.156  41.095  32.250  1.00  0.00    -0.341 OA
BRANCH   7   8
ATOM      8  C   UNL     1     -15.304  40.204  31.152  1.00  0.00     0.282 C 
ATOM      9  C   UNL     1     -14.278  41.733  29.688  1.00  0.00     0.178 C 
ATOM     10  C   UNL     1     -15.574  41.979  28.874  1.00  0.00     0.177 C 
ATOM     11  O   UNL     1     -14.264  40.413  30.207  1.00  0.00    -0.341 OA
ATOM     12  C   UNL     1     -16.832  41.700  29.727  1.00  0.00     0.179 C 
ATOM     13  C   UNL     1     -16.696  40.367  30.503  1.00  0.00     0.202 C 
BRANCH   9  14
ATOM     14  C   UNL     1     -13.028  41.925  28.820  1.00  0.00     0.191 C 
BRANCH  14  15
ATOM     15  O   UNL     1     -13.278  41.519  27.501  1.00  0.00    -0.394 OA
ATOM     16  H   UNL     1     -12.629  40.794  27.308  1.00  0.00     0.210 HD
ENDBRANCH  14  15
ENDBRANCH   9  14
BRANCH  10  17
ATOM     17  O   UNL     1     -15.615  43.275  28.327  1.00  0.00    -0.387 OA
ATOM     18  H   UNL     1     -14.731  43.462  27.919  1.00  0.00     0.211 HD
ENDBRANCH  10  17
BRANCH  12  19
ATOM     19  O   UNL     1     -17.144  42.768  30.590  1.00  0.00    -0.387 OA
ATOM     20  H   UNL     1     -18.122  42.781  30.732  1.00  0.00     0.211 HD
ENDBRANCH  12  19
BRANCH  13  21
ATOM     21  O   UNL     1     -16.912  39.288  29.628  1.00  0.00    -0.385 OA
ATOM     22  H   UNL     1     -16.785  38.456  30.156  1.00  0.00     0.211 HD
ENDBRANCH  13  21
ENDBRANCH   7   8
ENDBRANCH   1   7
BRANCH   2  23
ATOM     23  C   UNL     1     -17.279  40.798  34.238  1.00  0.00     0.191 C 
BRANCH  23  24
ATOM     24  O   UNL     1     -17.800  41.876  33.505  1.00  0.00    -0.394 OA
ATOM     25  H   UNL     1     -17.036  42.285  33.025  1.00  0.00     0.210 HD
ENDBRANCH  23  24
ENDBRANCH   2  23
BRANCH   6  26
ATOM     26  O   UNL     1     -12.527  40.211  32.927  1.00  0.00    -0.387 OA
ATOM     27  H   UNL     1     -11.964  40.991  32.675  1.00  0.00     0.211 HD
ENDBRANCH   6  26
BRANCH   5  28
ATOM     28  O   UNL     1     -11.894  42.330  34.709  1.00  0.00    -0.385 OA
ATOM     29  H   UNL     1     -11.349  42.759  33.996  1.00  0.00     0.211 HD
ENDBRANCH   5  28
BRANCH   4  30
ATOM     30  O   UNL     1     -14.041  42.188  36.464  1.00  0.00    -0.341 OA
BRANCH  30  31
ATOM     31  C   UNL     1     -14.352  43.152  37.460  1.00  0.00     0.184 C 
ATOM     32  C   UNL     1     -15.064  42.492  38.679  1.00  0.00     0.178 C 
ATOM     33  C   UNL     1     -13.052  43.884  37.916  1.00  0.00     0.180 C 
ATOM     34  O   UNL     1     -14.115  42.084  39.647  1.00  0.00    -0.342 OA
ATOM     35  C   UNL     1     -13.151  44.365  39.381  1.00  0.00     0.201 C 
ATOM     36  C   UNL     1     -13.591  43.211  40.337  1.00  0.00     0.279 C 
BRANCH  32  37
ATOM     37  C   UNL     1     -15.964  41.303  38.304  1.00  0.00     0.191 C 
BRANCH  37  38
ATOM     38  O   UNL     1     -15.714  40.192  39.124  1.00  0.00    -0.394 OA
ATOM     39  H   UNL     1     -15.294  40.535  39.955  1.00  0.00     0.210 HD
ENDBRANCH  37  38
ENDBRANCH  32  37
BRANCH  33  40
ATOM     40  O   UNL     1     -11.903  43.089  37.727  1.00  0.00    -0.387 OA
ATOM     41  H   UNL     1     -11.630  42.724  38.609  1.00  0.00     0.211 HD
ENDBRANCH  33  40
BRANCH  35  42
ATOM     42  O   UNL     1     -11.932  44.926  39.801  1.00  0.00    -0.385 OA
ATOM     43  H   UNL     1     -11.797  44.644  40.745  1.00  0.00     0.211 HD
ENDBRANCH  35  42
BRANCH  36  44
ATOM     44  O   UNL     1     -12.528  42.794  41.156  1.00  0.00    -0.366 OA
ATOM     45  H   UNL     1     -12.893  42.134  41.804  1.00  0.00     0.213 HD
ENDBRANCH  36  44
ENDBRANCH  30  31
ENDBRANCH   4  30
TORSDOF 18
ENDMDL
