MODEL 1
REMARK VINA RESULT:    34.341      0.000      0.000
REMARK INTER + INTRA:          41.889
REMARK INTER:                  42.371
REMARK INTRA:                  -0.482
REMARK UNBOUND:                -0.482
REMARK SMILES O=c1c(-c2ccc(O)cc2)coc2c([C@@H]3O[C@H](CO)[C@H](O)[C@H](O)[C@@H]3O)c(O)ccc12
REMARK SMILES IDX 3 1 11 2 12 3 13 4 30 5 2 6 1 7 29 8 28 9 26 10 14 11 4 12
REMARK SMILES IDX 5 13 6 14 7 15 10 16 9 17 8 18 15 20 24 21 16 22 22 23 17 24
REMARK SMILES IDX 20 25 25 26 23 28 18 30 19 31 21 33 27 35
REMARK H PARENT 8 19 25 27 23 29 19 32 21 34 27 36
REMARK Flexibility Score: inf
ROOT
ATOM      1  C   UNL     1      -1.185 -18.897 -11.503  1.00  0.00     0.065 A 
ATOM      2  C   UNL     1      -2.393 -19.613 -10.768  1.00  0.00     0.208 A 
ATOM      3  O   UNL     1      -3.380 -20.385 -11.726  1.00  0.00    -0.463 OA
ATOM      4  C   UNL     1      -2.721 -20.262 -13.201  1.00  0.00     0.147 A 
ATOM      5  C   UNL     1      -1.226 -20.755 -12.803  1.00  0.00     0.066 A 
ATOM      6  C   UNL     1       0.092 -19.837 -11.752  1.00  0.00     0.200 A 
ATOM      7  O   UNL     1       0.486 -20.462 -10.369  1.00  0.00    -0.288 OA
ATOM      8  C   UNL     1      -1.804 -22.078 -12.272  1.00  0.00     0.020 A 
ATOM      9  C   UNL     1      -2.926 -22.644 -13.150  1.00  0.00     0.047 A 
ATOM     10  C   UNL     1      -2.689 -22.291 -14.788  1.00  0.00     0.125 A 
ATOM     11  C   UNL     1      -2.618 -20.776 -15.036  1.00  0.00     0.069 A 
ENDROOT
BRANCH   1  12
ATOM     12  C   UNL     1      -1.521 -17.885 -12.780  1.00  0.00    -0.011 A 
ATOM     13  C   UNL     1      -1.718 -16.496 -12.330  1.00  0.00     0.013 A 
ATOM     14  C   UNL     1      -0.738 -15.338 -12.745  1.00  0.00     0.047 A 
ATOM     15  C   UNL     1       0.533 -15.718 -13.386  1.00  0.00     0.115 A 
ATOM     16  C   UNL     1      -0.259 -18.115 -13.575  1.00  0.00     0.013 A 
ATOM     17  C   UNL     1       0.857 -17.125 -13.702  1.00  0.00     0.047 A 
BRANCH  15  18
ATOM     18  O   UNL     1       1.358 -14.642 -13.665  1.00  0.00    -0.508 OA
ATOM     19  H   UNL     1       1.427 -13.892 -14.382  1.00  0.00     0.293 HD
ENDBRANCH  15  18
ENDBRANCH   1  12
BRANCH  11  20
ATOM     20  C   UNL     1      -0.705 -21.104 -15.571  1.00  0.00     0.188 C 
ATOM     21  C   UNL     1      -0.173 -21.397 -17.217  1.00  0.00     0.179 C 
ATOM     22  O   UNL     1       0.731 -21.095 -15.241  1.00  0.00    -0.362 OA
ATOM     23  C   UNL     1      -0.125 -23.114 -17.544  1.00  0.00     0.177 C 
ATOM     24  C   UNL     1       1.666 -22.362 -14.807  1.00  0.00     0.176 C 
ATOM     25  C   UNL     1       0.845 -23.869 -15.258  1.00  0.00     0.177 C 
BRANCH  21  26
ATOM     26  O   UNL     1       0.262 -19.392 -17.705  1.00  0.00    -0.387 OA
ATOM     27  H   UNL     1       1.044 -19.166 -16.498  1.00  0.00     0.211 HD
ENDBRANCH  21  26
BRANCH  23  28
ATOM     28  O   UNL     1      -0.554 -24.136 -19.470  1.00  0.00    -0.387 OA
ATOM     29  H   UNL     1      -0.674 -24.919 -21.079  1.00  0.00     0.211 HD
ENDBRANCH  23  28
BRANCH  24  30
ATOM     30  C   UNL     1       2.932 -22.580 -15.894  1.00  0.00     0.191 C 
BRANCH  30  31
ATOM     31  O   UNL     1       3.165 -21.382 -16.844  1.00  0.00    -0.394 OA
ATOM     32  H   UNL     1       2.272 -20.897 -16.429  1.00  0.00     0.210 HD
ENDBRANCH  30  31
ENDBRANCH  24  30
BRANCH  25  33
ATOM     33  O   UNL     1       2.051 -25.066 -15.611  1.00  0.00    -0.388 OA
ATOM     34  H   UNL     1       0.985 -25.567 -15.484  1.00  0.00     0.211 HD
ENDBRANCH  25  33
ENDBRANCH  11  20
BRANCH  10  35
ATOM     35  O   UNL     1      -2.861 -23.507 -13.894  1.00  0.00    -0.507 OA
ATOM     36  H   UNL     1      -2.383 -24.380 -14.197  1.00  0.00     0.293 HD
ENDBRANCH  10  35
TORSDOF 9
ENDMDL
MODEL 2
REMARK VINA RESULT:    35.373      1.570      2.445
REMARK INTER + INTRA:          43.164
REMARK INTER:                  41.295
REMARK INTRA:                   1.869
REMARK UNBOUND:                -0.482
REMARK SMILES O=c1c(-c2ccc(O)cc2)coc2c([C@@H]3O[C@H](CO)[C@H](O)[C@H](O)[C@@H]3O)c(O)ccc12
REMARK SMILES IDX 3 1 11 2 12 3 13 4 30 5 2 6 1 7 29 8 28 9 26 10 14 11 4 12
REMARK SMILES IDX 5 13 6 14 7 15 10 16 9 17 8 18 15 20 24 21 16 22 22 23 17 24
REMARK SMILES IDX 20 25 25 26 23 28 18 30 19 31 21 33 27 35
REMARK H PARENT 8 19 25 27 23 29 19 32 21 34 27 36
REMARK Flexibility Score: inf
ROOT
ATOM      1  C   UNL     1      -0.551 -18.676 -11.576  1.00  0.00     0.065 A 
ATOM      2  C   UNL     1      -2.078 -18.512 -11.187  1.00  0.00     0.208 A 
ATOM      3  O   UNL     1      -3.092 -18.915 -12.326  1.00  0.00    -0.463 OA
ATOM      4  C   UNL     1      -2.171 -19.489 -13.529  1.00  0.00     0.147 A 
ATOM      5  C   UNL     1      -1.298 -20.532 -12.643  1.00  0.00     0.066 A 
ATOM      6  C   UNL     1       0.045 -20.146 -11.326  1.00  0.00     0.200 A 
ATOM      7  O   UNL     1      -0.263 -20.526  -9.837  1.00  0.00    -0.288 OA
ATOM      8  C   UNL     1      -2.591 -21.234 -12.194  1.00  0.00     0.020 A 
ATOM      9  C   UNL     1      -3.623 -21.379 -13.319  1.00  0.00     0.047 A 
ATOM     10  C   UNL     1      -2.890 -21.595 -14.828  1.00  0.00     0.125 A 
ATOM     11  C   UNL     1      -1.969 -20.418 -15.184  1.00  0.00     0.069 A 
ENDROOT
BRANCH   1  12
ATOM     12  C   UNL     1      -0.010 -17.973 -12.984  1.00  0.00    -0.011 A 
ATOM     13  C   UNL     1      -0.753 -16.739 -13.291  1.00  0.00     0.013 A 
ATOM     14  C   UNL     1      -0.060 -15.327 -13.296  1.00  0.00     0.047 A 
ATOM     15  C   UNL     1       1.298 -15.234 -12.734  1.00  0.00     0.115 A 
ATOM     16  C   UNL     1       1.428 -17.756 -12.579  1.00  0.00     0.013 A 
ATOM     17  C   UNL     1       2.025 -16.425 -12.247  1.00  0.00     0.047 A 
BRANCH  15  18
ATOM     18  O   UNL     1       1.808 -13.947 -12.726  1.00  0.00    -0.508 OA
ATOM     19  H   UNL     1       2.707 -13.474 -12.951  1.00  0.00     0.293 HD
ENDBRANCH  15  18
ENDBRANCH   1  12
BRANCH  11  20
ATOM     20  C   UNL     1      -0.465 -21.751 -15.067  1.00  0.00     0.188 C 
ATOM     21  C   UNL     1       1.173 -21.357 -14.579  1.00  0.00     0.179 C 
ATOM     22  O   UNL     1       0.002 -23.148 -15.060  1.00  0.00    -0.362 OA
ATOM     23  C   UNL     1       2.154 -20.996 -15.980  1.00  0.00     0.177 C 
ATOM     24  C   UNL     1       0.665 -23.987 -16.295  1.00  0.00     0.176 C 
ATOM     25  C   UNL     1       1.217 -22.848 -17.539  1.00  0.00     0.177 C 
BRANCH  21  26
ATOM     26  O   UNL     1       0.934 -21.772 -12.526  1.00  0.00    -0.387 OA
ATOM     27  H   UNL     1       2.295 -21.380 -12.188  1.00  0.00     0.211 HD
ENDBRANCH  21  26
BRANCH  23  28
ATOM     28  O   UNL     1       3.824 -19.536 -16.122  1.00  0.00    -0.387 OA
ATOM     29  H   UNL     1       5.314 -18.542 -16.201  1.00  0.00     0.211 HD
ENDBRANCH  23  28
BRANCH  24  30
ATOM     30  C   UNL     1       2.217 -24.509 -15.908  1.00  0.00     0.191 C 
BRANCH  30  31
ATOM     31  O   UNL     1       2.737 -23.994 -14.545  1.00  0.00    -0.394 OA
ATOM     32  H   UNL     1       3.062 -25.014 -14.299  1.00  0.00     0.210 HD
ENDBRANCH  30  31
ENDBRANCH  24  30
BRANCH  25  33
ATOM     33  O   UNL     1       2.586 -23.541 -18.349  1.00  0.00    -0.388 OA
ATOM     34  H   UNL     1       1.583 -23.789 -18.929  1.00  0.00     0.211 HD
ENDBRANCH  25  33
ENDBRANCH  11  20
BRANCH  10  35
ATOM     35  O   UNL     1      -3.871 -22.316 -13.920  1.00  0.00    -0.507 OA
ATOM     36  H   UNL     1      -3.908 -22.000 -12.930  1.00  0.00     0.293 HD
ENDBRANCH  10  35
TORSDOF 9
ENDMDL
