MODEL 1
REMARK VINA RESULT:    26.234      0.000      0.000
REMARK INTER + INTRA:          30.519
REMARK INTER:                  30.835
REMARK INTRA:                  -0.316
REMARK UNBOUND:                -0.316
REMARK SMILES O=c1cc(-c2ccc(O)c(O)c2)oc2cc(O)cc(O)c12
REMARK SMILES IDX 4 1 3 2 2 3 1 4 21 5 19 6 18 7 16 8 15 9 14 10 13 11 5 12
REMARK SMILES IDX 6 13 7 14 8 15 12 16 10 17 9 18 11 20 20 22 17 24
REMARK H PARENT 9 19 11 21 20 23 17 25
REMARK Flexibility Score: inf
ROOT
ATOM      1  C   UNL     1      17.567   3.312  12.980  1.00  0.00     0.138 A 
ATOM      2  C   UNL     1      17.965   2.861  14.247  1.00  0.00     0.100 A 
ATOM      3  C   UNL     1      17.087   2.968  15.325  1.00  0.00     0.197 A 
ATOM      4  O   UNL     1      17.448   2.499  16.435  1.00  0.00    -0.289 OA
ATOM      5  C   UNL     1      15.814   3.561  15.140  1.00  0.00     0.107 A 
ATOM      6  C   UNL     1      14.852   3.760  16.175  1.00  0.00     0.134 A 
ATOM      7  C   UNL     1      13.581   4.249  15.850  1.00  0.00     0.093 A 
ATOM      8  C   UNL     1      13.259   4.603  14.537  1.00  0.00     0.123 A 
ATOM      9  C   UNL     1      14.209   4.463  13.529  1.00  0.00     0.094 A 
ATOM     10  C   UNL     1      15.475   3.945  13.815  1.00  0.00     0.146 A 
ATOM     11  O   UNL     1      16.347   3.812  12.821  1.00  0.00    -0.456 OA
ENDROOT
BRANCH   1  12
ATOM     12  C   UNL     1      18.462   3.221  11.799  1.00  0.00     0.021 A 
ATOM     13  C   UNL     1      19.649   2.472  11.886  1.00  0.00     0.016 A 
ATOM     14  C   UNL     1      20.504   2.364  10.787  1.00  0.00     0.051 A 
ATOM     15  C   UNL     1      20.185   2.997   9.580  1.00  0.00     0.157 A 
ATOM     16  C   UNL     1      18.141   3.844  10.577  1.00  0.00     0.062 A 
ATOM     17  C   UNL     1      19.000   3.735   9.473  1.00  0.00     0.158 A 
BRANCH  15  18
ATOM     18  O   UNL     1      21.037   2.893   8.481  1.00  0.00    -0.504 OA
ATOM     19  H   UNL     1      21.018   3.572   7.730  1.00  0.00     0.293 HD
ENDBRANCH  15  18
BRANCH  17  20
ATOM     20  O   UNL     1      18.680   4.354   8.266  1.00  0.00    -0.504 OA
ATOM     21  H   UNL     1      17.868   4.077   7.726  1.00  0.00     0.293 HD
ENDBRANCH  17  20
ENDBRANCH   1  12
BRANCH   6  22
ATOM     22  O   UNL     1      15.101   3.519  17.530  1.00  0.00    -0.507 OA
ATOM     23  H   UNL     1      15.725   4.063  18.106  1.00  0.00     0.293 HD
ENDBRANCH   6  22
BRANCH   8  24
ATOM     24  O   UNL     1      11.996   5.104  14.226  1.00  0.00    -0.508 OA
ATOM     25  H   UNL     1      11.174   4.832  14.753  1.00  0.00     0.293 HD
ENDBRANCH   8  24
TORSDOF 5
ENDMDL
MODEL 2
REMARK VINA RESULT:    27.482      5.275      8.089
REMARK INTER + INTRA:          31.986
REMARK INTER:                  32.303
REMARK INTRA:                  -0.317
REMARK UNBOUND:                -0.316
REMARK SMILES O=c1cc(-c2ccc(O)c(O)c2)oc2cc(O)cc(O)c12
REMARK SMILES IDX 4 1 3 2 2 3 1 4 21 5 19 6 18 7 16 8 15 9 14 10 13 11 5 12
REMARK SMILES IDX 6 13 7 14 8 15 12 16 10 17 9 18 11 20 20 22 17 24
REMARK H PARENT 9 19 11 21 20 23 17 25
REMARK Flexibility Score: inf
ROOT
ATOM      1  C   UNL     1      15.612   8.376  16.534  1.00  0.00     0.138 A 
ATOM      2  C   UNL     1      14.773   8.549  15.424  1.00  0.00     0.100 A 
ATOM      3  C   UNL     1      14.109   7.448  14.883  1.00  0.00     0.197 A 
ATOM      4  O   UNL     1      13.315   7.644  13.927  1.00  0.00    -0.289 OA
ATOM      5  C   UNL     1      14.313   6.161  15.437  1.00  0.00     0.107 A 
ATOM      6  C   UNL     1      13.721   4.961  14.942  1.00  0.00     0.134 A 
ATOM      7  C   UNL     1      13.904   3.762  15.644  1.00  0.00     0.093 A 
ATOM      8  C   UNL     1      14.705   3.711  16.786  1.00  0.00     0.123 A 
ATOM      9  C   UNL     1      15.331   4.867  17.247  1.00  0.00     0.094 A 
ATOM     10  C   UNL     1      15.141   6.085  16.588  1.00  0.00     0.146 A 
ATOM     11  O   UNL     1      15.743   7.168  17.069  1.00  0.00    -0.456 OA
ENDROOT
BRANCH   1  12
ATOM     12  C   UNL     1      16.342   9.513  17.148  1.00  0.00     0.021 A 
ATOM     13  C   UNL     1      16.059  10.825  16.730  1.00  0.00     0.016 A 
ATOM     14  C   UNL     1      16.725  11.913  17.298  1.00  0.00     0.051 A 
ATOM     15  C   UNL     1      17.681  11.710  18.300  1.00  0.00     0.157 A 
ATOM     16  C   UNL     1      17.296   9.318  18.167  1.00  0.00     0.062 A 
ATOM     17  C   UNL     1      17.964  10.411  18.738  1.00  0.00     0.158 A 
BRANCH  15  18
ATOM     18  O   UNL     1      18.350  12.793  18.869  1.00  0.00    -0.504 OA
ATOM     19  H   UNL     1      18.782  12.729  19.783  1.00  0.00     0.293 HD
ENDBRANCH  15  18
BRANCH  17  20
ATOM     20  O   UNL     1      18.908  10.213  19.745  1.00  0.00    -0.504 OA
ATOM     21  H   UNL     1      19.891  10.085  19.533  1.00  0.00     0.293 HD
ENDBRANCH  17  20
ENDBRANCH   1  12
BRANCH   6  22
ATOM     22  O   UNL     1      12.974   4.886  13.763  1.00  0.00    -0.507 OA
ATOM     23  H   UNL     1      13.223   5.331  12.894  1.00  0.00     0.293 HD
ENDBRANCH   6  22
BRANCH   8  24
ATOM     24  O   UNL     1      14.893   2.511  17.469  1.00  0.00    -0.508 OA
ATOM     25  H   UNL     1      15.806   2.231  17.808  1.00  0.00     0.293 HD
ENDBRANCH   8  24
TORSDOF 5
ENDMDL
