MODEL 1
REMARK VINA RESULT:    -1.534      0.000      0.000
REMARK INTER + INTRA:          -2.142
REMARK INTER:                  -1.938
REMARK INTRA:                  -0.204
REMARK UNBOUND:                -0.204
REMARK SMILES CC(C)=CCCC(C)=CCO
REMARK SMILES IDX 7 1 9 2 8 3 6 4 5 5 4 6 1 7 2 8 3 9 10 10 11 11
REMARK H PARENT 11 12
REMARK Flexibility Score: inf
ROOT
ATOM      1  C   UNL     1      18.661 -16.645  23.651  1.00  0.00    -0.075 C 
ATOM      2  C   UNL     1      18.332 -17.903  23.279  1.00  0.00    -0.000 C 
ATOM      3  C   UNL     1      17.608 -15.609  23.961  1.00  0.00     0.039 C 
ENDROOT
BRANCH   1   4
ATOM      4  C   UNL     1      20.124 -16.261  23.739  1.00  0.00     0.034 C 
BRANCH   4   5
ATOM      5  C   UNL     1      20.396 -14.907  23.071  1.00  0.00     0.032 C 
BRANCH   5   6
ATOM      6  C   UNL     1      19.851 -14.876  21.662  1.00  0.00    -0.028 C 
ATOM      7  C   UNL     1      19.903 -14.916  19.207  1.00  0.00     0.039 C 
ATOM      8  C   UNL     1      20.603 -14.889  20.540  1.00  0.00    -0.080 C 
ATOM      9  C   UNL     1      22.113 -14.876  20.585  1.00  0.00     0.039 C 
ENDBRANCH   5   6
ENDBRANCH   4   5
ENDBRANCH   1   4
BRANCH   2  10
ATOM     10  C   UNL     1      16.916 -18.389  23.133  1.00  0.00     0.183 C 
BRANCH  10  11
ATOM     11  O   UNL     1      16.883 -19.516  22.301  1.00  0.00    -0.392 OA
ATOM     12  H   UNL     1      15.946 -19.841  22.316  1.00  0.00     0.210 HD
ENDBRANCH  10  11
ENDBRANCH   2  10
TORSDOF 5
ENDMDL
MODEL 2
REMARK VINA RESULT:    -0.993      2.733      3.657
REMARK INTER + INTRA:          -1.458
REMARK INTER:                  -1.093
REMARK INTRA:                  -0.365
REMARK UNBOUND:                -0.204
REMARK SMILES CC(C)=CCCC(C)=CCO
REMARK SMILES IDX 7 1 9 2 8 3 6 4 5 5 4 6 1 7 2 8 3 9 10 10 11 11
REMARK H PARENT 11 12
REMARK Flexibility Score: inf
ROOT
ATOM      1  C   UNL     1      18.293 -16.624  22.780  1.00  0.00    -0.075 C 
ATOM      2  C   UNL     1      19.125 -15.679  23.273  1.00  0.00    -0.000 C 
ATOM      3  C   UNL     1      18.514 -18.093  23.051  1.00  0.00     0.039 C 
ENDROOT
BRANCH   1   4
ATOM      4  C   UNL     1      17.122 -16.200  21.918  1.00  0.00     0.034 C 
BRANCH   4   5
ATOM      5  C   UNL     1      17.399 -14.875  21.196  1.00  0.00     0.032 C 
BRANCH   5   6
ATOM      6  C   UNL     1      16.892 -14.915  19.773  1.00  0.00    -0.028 C 
ATOM      7  C   UNL     1      17.014 -15.048  17.324  1.00  0.00     0.039 C 
ATOM      8  C   UNL     1      17.676 -14.947  18.673  1.00  0.00    -0.080 C 
ATOM      9  C   UNL     1      19.183 -14.887  18.758  1.00  0.00     0.039 C 
ENDBRANCH   5   6
ENDBRANCH   4   5
ENDBRANCH   1   4
BRANCH   2  10
ATOM     10  C   UNL     1      20.332 -15.983  24.117  1.00  0.00     0.183 C 
BRANCH  10  11
ATOM     11  O   UNL     1      21.405 -15.173  23.723  1.00  0.00    -0.392 OA
ATOM     12  H   UNL     1      21.218 -14.271  24.089  1.00  0.00     0.210 HD
ENDBRANCH  10  11
ENDBRANCH   2  10
TORSDOF 5
ENDMDL
MODEL 3
REMARK VINA RESULT:    -0.698     14.036     15.375
REMARK INTER + INTRA:          -1.085
REMARK INTER:                  -0.798
REMARK INTRA:                  -0.287
REMARK UNBOUND:                -0.204
REMARK SMILES CC(C)=CCCC(C)=CCO
REMARK SMILES IDX 7 1 9 2 8 3 6 4 5 5 4 6 1 7 2 8 3 9 10 10 11 11
REMARK H PARENT 11 12
REMARK Flexibility Score: inf
ROOT
ATOM      1  C   UNL     1      30.916 -25.077  20.208  1.00  0.00    -0.075 C 
ATOM      2  C   UNL     1      31.537 -25.568  21.305  1.00  0.00    -0.000 C 
ATOM      3  C   UNL     1      31.445 -23.869  19.472  1.00  0.00     0.039 C 
ENDROOT
BRANCH   1   4
ATOM      4  C   UNL     1      29.646 -25.743  19.719  1.00  0.00     0.034 C 
BRANCH   4   5
ATOM      5  C   UNL     1      28.922 -26.483  20.850  1.00  0.00     0.032 C 
BRANCH   5   6
ATOM      6  C   UNL     1      27.436 -26.559  20.585  1.00  0.00    -0.028 C 
ATOM      7  C   UNL     1      25.265 -27.605  20.115  1.00  0.00     0.039 C 
ATOM      8  C   UNL     1      26.758 -27.690  20.291  1.00  0.00    -0.080 C 
ATOM      9  C   UNL     1      27.449 -29.023  20.136  1.00  0.00     0.039 C 
ENDBRANCH   5   6
ENDBRANCH   4   5
ENDBRANCH   1   4
BRANCH   2  10
ATOM     10  C   UNL     1      32.786 -24.974  21.896  1.00  0.00     0.183 C 
BRANCH  10  11
ATOM     11  O   UNL     1      33.897 -25.747  21.535  1.00  0.00    -0.392 OA
ATOM     12  H   UNL     1      34.361 -25.243  20.818  1.00  0.00     0.210 HD
ENDBRANCH  10  11
ENDBRANCH   2  10
TORSDOF 5
ENDMDL
MODEL 4
REMARK VINA RESULT:    -0.567     14.095     14.925
REMARK INTER + INTRA:          -0.920
REMARK INTER:                  -0.685
REMARK INTRA:                  -0.235
REMARK UNBOUND:                -0.204
REMARK SMILES CC(C)=CCCC(C)=CCO
REMARK SMILES IDX 7 1 9 2 8 3 6 4 5 5 4 6 1 7 2 8 3 9 10 10 11 11
REMARK H PARENT 11 12
REMARK Flexibility Score: inf
ROOT
ATOM      1  C   UNL     1      27.062 -27.833  20.310  1.00  0.00    -0.075 C 
ATOM      2  C   UNL     1      27.641 -28.992  19.923  1.00  0.00    -0.000 C 
ATOM      3  C   UNL     1      25.648 -27.482  19.913  1.00  0.00     0.039 C 
ENDROOT
BRANCH   1   4
ATOM      4  C   UNL     1      27.859 -26.853  21.145  1.00  0.00     0.034 C 
BRANCH   4   5
ATOM      5  C   UNL     1      28.884 -26.088  20.299  1.00  0.00     0.032 C 
BRANCH   5   6
ATOM      6  C   UNL     1      30.246 -26.101  20.952  1.00  0.00    -0.028 C 
ATOM      7  C   UNL     1      32.541 -25.368  21.429  1.00  0.00     0.039 C 
ATOM      8  C   UNL     1      31.263 -25.266  20.641  1.00  0.00    -0.080 C 
ATOM      9  C   UNL     1      31.152 -24.244  19.534  1.00  0.00     0.039 C 
ENDBRANCH   5   6
ENDBRANCH   4   5
ENDBRANCH   1   4
BRANCH   2  10
ATOM     10  C   UNL     1      26.957 -30.027  19.072  1.00  0.00     0.183 C 
BRANCH  10  11
ATOM     11  O   UNL     1      27.912 -30.783  18.381  1.00  0.00    -0.392 OA
ATOM     12  H   UNL     1      28.338 -31.371  19.057  1.00  0.00     0.210 HD
ENDBRANCH  10  11
ENDBRANCH   2  10
TORSDOF 5
ENDMDL
MODEL 5
REMARK VINA RESULT:     0.746      2.508      4.991
REMARK INTER + INTRA:           0.738
REMARK INTER:                  -1.431
REMARK INTRA:                   2.169
REMARK UNBOUND:                -0.204
REMARK SMILES CC(C)=CCCC(C)=CCO
REMARK SMILES IDX 7 1 9 2 8 3 6 4 5 5 4 6 1 7 2 8 3 9 10 10 11 11
REMARK H PARENT 11 12
REMARK Flexibility Score: inf
ROOT
ATOM      1  C   UNL     1      20.247 -14.914  20.606  1.00  0.00    -0.075 C 
ATOM      2  C   UNL     1      21.598 -14.908  20.550  1.00  0.00    -0.000 C 
ATOM      3  C   UNL     1      19.401 -14.893  19.355  1.00  0.00     0.039 C 
ENDROOT
BRANCH   1   4
ATOM      4  C   UNL     1      19.565 -14.920  21.959  1.00  0.00     0.034 C 
BRANCH   4   5
ATOM      5  C   UNL     1      18.037 -14.879  21.825  1.00  0.00     0.032 C 
BRANCH   5   6
ATOM      6  C   UNL     1      17.411 -16.152  22.344  1.00  0.00    -0.028 C 
ATOM      7  C   UNL     1      17.304 -18.334  23.466  1.00  0.00     0.039 C 
ATOM      8  C   UNL     1      18.085 -17.156  22.949  1.00  0.00    -0.080 C 
ATOM      9  C   UNL     1      19.585 -17.128  23.118  1.00  0.00     0.039 C 
ENDBRANCH   5   6
ENDBRANCH   4   5
ENDBRANCH   1   4
BRANCH   2  10
ATOM     10  C   UNL     1      22.382 -14.876  19.267  1.00  0.00     0.183 C 
BRANCH  10  11
ATOM     11  O   UNL     1      21.530 -15.117  18.182  1.00  0.00    -0.392 OA
ATOM     12  H   UNL     1      21.139 -14.238  17.939  1.00  0.00     0.210 HD
ENDBRANCH  10  11
ENDBRANCH   2  10
TORSDOF 5
ENDMDL
MODEL 6
REMARK VINA RESULT:     1.337     13.947     15.193
REMARK INTER + INTRA:           1.485
REMARK INTER:                   1.086
REMARK INTRA:                   0.399
REMARK UNBOUND:                -0.204
REMARK SMILES CC(C)=CCCC(C)=CCO
REMARK SMILES IDX 7 1 9 2 8 3 6 4 5 5 4 6 1 7 2 8 3 9 10 10 11 11
REMARK H PARENT 11 12
REMARK Flexibility Score: inf
ROOT
ATOM      1  C   UNL     1      30.568 -25.766  20.851  1.00  0.00    -0.075 C 
ATOM      2  C   UNL     1      29.848 -25.320  19.797  1.00  0.00    -0.000 C 
ATOM      3  C   UNL     1      32.054 -25.522  20.956  1.00  0.00     0.039 C 
ENDROOT
BRANCH   1   4
ATOM      4  C   UNL     1      29.869 -26.550  21.943  1.00  0.00     0.034 C 
BRANCH   4   5
ATOM      5  C   UNL     1      28.379 -26.748  21.635  1.00  0.00     0.032 C 
BRANCH   5   6
ATOM      6  C   UNL     1      28.146 -28.044  20.892  1.00  0.00    -0.028 C 
ATOM      7  C   UNL     1      27.002 -29.640  19.418  1.00  0.00     0.039 C 
ATOM      8  C   UNL     1      27.055 -28.323  20.146  1.00  0.00    -0.080 C 
ATOM      9  C   UNL     1      25.898 -27.359  20.022  1.00  0.00     0.039 C 
ENDBRANCH   5   6
ENDBRANCH   4   5
ENDBRANCH   1   4
BRANCH   2  10
ATOM     10  C   UNL     1      30.438 -24.555  18.643  1.00  0.00     0.183 C 
BRANCH  10  11
ATOM     11  O   UNL     1      31.367 -23.620  19.117  1.00  0.00    -0.392 OA
ATOM     12  H   UNL     1      31.431 -23.768  20.097  1.00  0.00     0.210 HD
ENDBRANCH  10  11
ENDBRANCH   2  10
TORSDOF 5
ENDMDL
