MODEL 1
REMARK VINA RESULT:    -3.212      0.000      0.000
REMARK INTER + INTRA:          -3.719
REMARK INTER:                  -3.682
REMARK INTRA:                  -0.037
REMARK UNBOUND:                -0.037
REMARK SMILES CC(C)[C@H]([NH3+])C(=O)[O-]
REMARK SMILES IDX 4 1 5 2 6 6 7 7 8 8 2 9 1 10 3 11
REMARK H PARENT 5 3 5 4 5 5
REMARK Flexibility Score: inf
ROOT
ATOM      1  C   UNL     1     -53.234 447.907  -9.712  1.00  0.00     0.230 C 
ENDROOT
BRANCH   1   2
ATOM      2  N   UNL     1     -52.837 447.494  -8.356  1.00  0.00    -0.350 N 
ATOM      3  H   UNL     1     -52.110 446.746  -8.401  1.00  0.00     0.345 HD
ATOM      4  H   UNL     1     -53.656 447.152  -7.806  1.00  0.00     0.345 HD
ATOM      5  H   UNL     1     -52.418 448.311  -7.854  1.00  0.00     0.345 HD
ENDBRANCH   1   2
BRANCH   1   6
ATOM      6  C   UNL     1     -53.812 449.302  -9.698  1.00  0.00     0.099 C 
ATOM      7  O   UNL     1     -54.377 449.736  -8.660  1.00  0.00    -0.544 OA
ATOM      8  O   UNL     1     -53.688 450.133 -10.805  1.00  0.00    -0.544 OA
ENDBRANCH   1   6
BRANCH   1   9
ATOM      9  C   UNL     1     -54.217 446.906 -10.391  1.00  0.00     0.047 C 
ATOM     10  C   UNL     1     -53.994 446.827 -11.909  1.00  0.00     0.014 C 
ATOM     11  C   UNL     1     -54.184 445.497  -9.777  1.00  0.00     0.014 C 
ENDBRANCH   1   9
TORSDOF 3
ENDMDL
MODEL 2
REMARK VINA RESULT:    -3.125      5.381      6.340
REMARK INTER + INTRA:          -3.619
REMARK INTER:                  -3.570
REMARK INTRA:                  -0.049
REMARK UNBOUND:                -0.037
REMARK SMILES CC(C)[C@H]([NH3+])C(=O)[O-]
REMARK SMILES IDX 4 1 5 2 6 6 7 7 8 8 2 9 1 10 3 11
REMARK H PARENT 5 3 5 4 5 5
REMARK Flexibility Score: inf
ROOT
ATOM      1  C   UNL     1     -51.270 453.112 -12.250  1.00  0.00     0.230 C 
ENDROOT
BRANCH   1   2
ATOM      2  N   UNL     1     -50.665 454.125 -11.371  1.00  0.00    -0.350 N 
ATOM      3  H   UNL     1     -50.020 453.674 -10.685  1.00  0.00     0.345 HD
ATOM      4  H   UNL     1     -51.393 454.671 -10.858  1.00  0.00     0.345 HD
ATOM      5  H   UNL     1     -50.098 454.790 -11.947  1.00  0.00     0.345 HD
ENDBRANCH   1   2
BRANCH   1   6
ATOM      6  C   UNL     1     -52.238 452.245 -11.480  1.00  0.00     0.099 C 
ATOM      7  O   UNL     1     -52.877 451.339 -12.074  1.00  0.00    -0.544 OA
ATOM      8  O   UNL     1     -52.397 452.405 -10.108  1.00  0.00    -0.544 OA
ENDBRANCH   1   6
BRANCH   1   9
ATOM      9  C   UNL     1     -50.214 452.239 -12.992  1.00  0.00     0.047 C 
ATOM     10  C   UNL     1     -50.295 452.416 -14.516  1.00  0.00     0.014 C 
ATOM     11  C   UNL     1     -48.773 452.470 -12.508  1.00  0.00     0.014 C 
ENDBRANCH   1   9
TORSDOF 3
ENDMDL
MODEL 3
REMARK VINA RESULT:    -3.020      2.810      3.670
REMARK INTER + INTRA:          -3.498
REMARK INTER:                  -3.479
REMARK INTRA:                  -0.019
REMARK UNBOUND:                -0.037
REMARK SMILES CC(C)[C@H]([NH3+])C(=O)[O-]
REMARK SMILES IDX 4 1 5 2 6 6 7 7 8 8 2 9 1 10 3 11
REMARK H PARENT 5 3 5 4 5 5
REMARK Flexibility Score: inf
ROOT
ATOM      1  C   UNL     1     -53.459 447.170 -10.663  1.00  0.00     0.230 C 
ENDROOT
BRANCH   1   2
ATOM      2  N   UNL     1     -53.315 447.606 -12.061  1.00  0.00    -0.350 N 
ATOM      3  H   UNL     1     -53.195 446.781 -12.690  1.00  0.00     0.345 HD
ATOM      4  H   UNL     1     -52.505 448.255 -12.178  1.00  0.00     0.345 HD
ATOM      5  H   UNL     1     -54.186 448.106 -12.359  1.00  0.00     0.345 HD
ENDBRANCH   1   2
BRANCH   1   6
ATOM      6  C   UNL     1     -54.332 445.940 -10.574  1.00  0.00     0.099 C 
ATOM      7  O   UNL     1     -54.378 445.281  -9.502  1.00  0.00    -0.544 OA
ATOM      8  O   UNL     1     -55.125 445.553 -11.647  1.00  0.00    -0.544 OA
ENDBRANCH   1   6
BRANCH   1   9
ATOM      9  C   UNL     1     -53.990 448.295  -9.725  1.00  0.00     0.047 C 
ATOM     10  C   UNL     1     -53.236 448.327  -8.387  1.00  0.00     0.014 C 
ATOM     11  C   UNL     1     -53.982 449.691 -10.370  1.00  0.00     0.014 C 
ENDBRANCH   1   9
TORSDOF 3
ENDMDL
MODEL 4
REMARK VINA RESULT:    -3.016      1.937      3.689
REMARK INTER + INTRA:          -3.494
REMARK INTER:                  -3.438
REMARK INTRA:                  -0.056
REMARK UNBOUND:                -0.037
REMARK SMILES CC(C)[C@H]([NH3+])C(=O)[O-]
REMARK SMILES IDX 4 1 5 2 6 6 7 7 8 8 2 9 1 10 3 11
REMARK H PARENT 5 3 5 4 5 5
REMARK Flexibility Score: inf
ROOT
ATOM      1  C   UNL     1     -53.879 449.174  -8.964  1.00  0.00     0.230 C 
ENDROOT
BRANCH   1   2
ATOM      2  N   UNL     1     -52.832 448.609  -8.098  1.00  0.00    -0.350 N 
ATOM      3  H   UNL     1     -52.171 449.356  -7.789  1.00  0.00     0.345 HD
ATOM      4  H   UNL     1     -52.301 447.852  -8.583  1.00  0.00     0.345 HD
ATOM      5  H   UNL     1     -53.274 448.204  -7.239  1.00  0.00     0.345 HD
ENDBRANCH   1   2
BRANCH   1   6
ATOM      6  C   UNL     1     -53.849 448.530 -10.329  1.00  0.00     0.099 C 
ATOM      7  O   UNL     1     -54.208 449.186 -11.341  1.00  0.00    -0.544 OA
ATOM      8  O   UNL     1     -53.382 447.230 -10.490  1.00  0.00    -0.544 OA
ENDBRANCH   1   6
BRANCH   1   9
ATOM      9  C   UNL     1     -53.799 450.726  -9.083  1.00  0.00     0.047 C 
ATOM     10  C   UNL     1     -55.124 451.398  -8.694  1.00  0.00     0.014 C 
ATOM     11  C   UNL     1     -52.638 451.347  -8.288  1.00  0.00     0.014 C 
ENDBRANCH   1   9
TORSDOF 3
ENDMDL
MODEL 5
REMARK VINA RESULT:    -2.930      5.990      6.996
REMARK INTER + INTRA:          -3.395
REMARK INTER:                  -3.334
REMARK INTRA:                  -0.061
REMARK UNBOUND:                -0.037
REMARK SMILES CC(C)[C@H]([NH3+])C(=O)[O-]
REMARK SMILES IDX 4 1 5 2 6 6 7 7 8 8 2 9 1 10 3 11
REMARK H PARENT 5 3 5 4 5 5
REMARK Flexibility Score: inf
ROOT
ATOM      1  C   UNL     1     -50.512 452.812 -11.846  1.00  0.00     0.230 C 
ENDROOT
BRANCH   1   2
ATOM      2  N   UNL     1     -50.993 454.125 -11.388  1.00  0.00    -0.350 N 
ATOM      3  H   UNL     1     -50.916 454.200 -10.350  1.00  0.00     0.345 HD
ATOM      4  H   UNL     1     -51.983 454.292 -11.677  1.00  0.00     0.345 HD
ATOM      5  H   UNL     1     -50.395 454.877 -11.804  1.00  0.00     0.345 HD
ENDBRANCH   1   2
BRANCH   1   6
ATOM      6  C   UNL     1     -49.032 452.856 -12.138  1.00  0.00     0.099 C 
ATOM      7  O   UNL     1     -48.508 451.969 -12.862  1.00  0.00    -0.544 OA
ATOM      8  O   UNL     1     -48.244 453.895 -11.657  1.00  0.00    -0.544 OA
ENDBRANCH   1   6
BRANCH   1   9
ATOM      9  C   UNL     1     -51.303 452.267 -13.073  1.00  0.00     0.047 C 
ATOM     10  C   UNL     1     -52.581 451.529 -12.649  1.00  0.00     0.014 C 
ATOM     11  C   UNL     1     -51.638 453.344 -14.119  1.00  0.00     0.014 C 
ENDBRANCH   1   9
TORSDOF 3
ENDMDL
MODEL 6
REMARK VINA RESULT:    -2.892      3.125      4.021
REMARK INTER + INTRA:          -3.351
REMARK INTER:                  -3.295
REMARK INTRA:                  -0.056
REMARK UNBOUND:                -0.037
REMARK SMILES CC(C)[C@H]([NH3+])C(=O)[O-]
REMARK SMILES IDX 4 1 5 2 6 6 7 7 8 8 2 9 1 10 3 11
REMARK H PARENT 5 3 5 4 5 5
REMARK Flexibility Score: inf
ROOT
ATOM      1  C   UNL     1     -53.943 450.990 -10.667  1.00  0.00     0.230 C 
ENDROOT
BRANCH   1   2
ATOM      2  N   UNL     1     -54.020 449.823 -11.559  1.00  0.00    -0.350 N 
ATOM      3  H   UNL     1     -53.234 449.836 -12.246  1.00  0.00     0.345 HD
ATOM      4  H   UNL     1     -54.930 449.792 -12.072  1.00  0.00     0.345 HD
ATOM      5  H   UNL     1     -53.930 448.947 -10.992  1.00  0.00     0.345 HD
ENDBRANCH   1   2
BRANCH   1   6
ATOM      6  C   UNL     1     -52.780 451.876 -11.044  1.00  0.00     0.099 C 
ATOM      7  O   UNL     1     -52.434 451.978 -12.251  1.00  0.00    -0.544 OA
ATOM      8  O   UNL     1     -52.113 452.621 -10.079  1.00  0.00    -0.544 OA
ENDBRANCH   1   6
BRANCH   1   9
ATOM      9  C   UNL     1     -53.878 450.602  -9.159  1.00  0.00     0.047 C 
ATOM     10  C   UNL     1     -55.125 451.068  -8.394  1.00  0.00     0.014 C 
ATOM     11  C   UNL     1     -53.639 449.102  -8.918  1.00  0.00     0.014 C 
ENDBRANCH   1   9
TORSDOF 3
ENDMDL
MODEL 7
REMARK VINA RESULT:    -2.834      2.867      3.456
REMARK INTER + INTRA:          -3.285
REMARK INTER:                  -3.237
REMARK INTRA:                  -0.048
REMARK UNBOUND:                -0.037
REMARK SMILES CC(C)[C@H]([NH3+])C(=O)[O-]
REMARK SMILES IDX 4 1 5 2 6 6 7 7 8 8 2 9 1 10 3 11
REMARK H PARENT 5 3 5 4 5 5
REMARK Flexibility Score: inf
ROOT
ATOM      1  C   UNL     1     -54.086 450.973  -9.609  1.00  0.00     0.230 C 
ENDROOT
BRANCH   1   2
ATOM      2  N   UNL     1     -54.905 451.657 -10.621  1.00  0.00    -0.350 N 
ATOM      3  H   UNL     1     -55.917 451.450 -10.472  1.00  0.00     0.345 HD
ATOM      4  H   UNL     1     -54.631 451.376 -11.589  1.00  0.00     0.345 HD
ATOM      5  H   UNL     1     -54.777 452.692 -10.528  1.00  0.00     0.345 HD
ENDBRANCH   1   2
BRANCH   1   6
ATOM      6  C   UNL     1     -52.917 451.834  -9.194  1.00  0.00     0.099 C 
ATOM      7  O   UNL     1     -52.536 451.839  -7.995  1.00  0.00    -0.544 OA
ATOM      8  O   UNL     1     -52.223 452.589 -10.133  1.00  0.00    -0.544 OA
ENDBRANCH   1   6
BRANCH   1   9
ATOM      9  C   UNL     1     -53.600 449.565 -10.068  1.00  0.00     0.047 C 
ATOM     10  C   UNL     1     -53.667 448.537  -8.928  1.00  0.00     0.014 C 
ATOM     11  C   UNL     1     -54.339 449.030 -11.306  1.00  0.00     0.014 C 
ENDBRANCH   1   9
TORSDOF 3
ENDMDL
MODEL 8
REMARK VINA RESULT:    -1.713      6.130      7.076
REMARK INTER + INTRA:          -2.000
REMARK INTER:                  -1.994
REMARK INTRA:                  -0.006
REMARK UNBOUND:                -0.037
REMARK SMILES CC(C)[C@H]([NH3+])C(=O)[O-]
REMARK SMILES IDX 4 1 5 2 6 6 7 7 8 8 2 9 1 10 3 11
REMARK H PARENT 5 3 5 4 5 5
REMARK Flexibility Score: inf
ROOT
ATOM      1  C   UNL     1     -50.935 453.678 -12.018  1.00  0.00     0.230 C 
ENDROOT
BRANCH   1   2
ATOM      2  N   UNL     1     -51.311 453.317 -10.642  1.00  0.00    -0.350 N 
ATOM      3  H   UNL     1     -50.522 452.826 -10.166  1.00  0.00     0.345 HD
ATOM      4  H   UNL     1     -52.160 452.710 -10.625  1.00  0.00     0.345 HD
ATOM      5  H   UNL     1     -51.515 454.188 -10.099  1.00  0.00     0.345 HD
ENDBRANCH   1   2
BRANCH   1   6
ATOM      6  C   UNL     1     -51.665 452.811 -13.017  1.00  0.00     0.099 C 
ATOM      7  O   UNL     1     -52.214 451.744 -12.638  1.00  0.00    -0.544 OA
ATOM      8  O   UNL     1     -51.779 453.202 -14.346  1.00  0.00    -0.544 OA
ENDBRANCH   1   6
BRANCH   1   9
ATOM      9  C   UNL     1     -49.397 453.630 -12.263  1.00  0.00     0.047 C 
ATOM     10  C   UNL     1     -48.607 454.125 -11.042  1.00  0.00     0.014 C 
ATOM     11  C   UNL     1     -48.884 452.247 -12.699  1.00  0.00     0.014 C 
ENDBRANCH   1   9
TORSDOF 3
ENDMDL
