MODEL 1
REMARK VINA RESULT:    -4.622      0.000      0.000
REMARK INTER + INTRA:          -9.257
REMARK INTER:                  -8.540
REMARK INTRA:                  -0.717
REMARK UNBOUND:                -0.717
REMARK SMILES CCCCCCCCCCCCCCCCO
REMARK SMILES IDX 9 1 8 2 7 3 6 4 5 5 4 6 3 7 2 8 1 9 10 10 11 11 12 12 13 13
REMARK SMILES IDX 14 14 15 15 16 16 17 17
REMARK H PARENT 17 18
REMARK Flexibility Score: inf
ROOT
ATOM      1  C   UNL     1     -24.734  -0.319 -11.902  1.00  0.00     0.000 C 
ENDROOT
BRANCH   1   2
ATOM      2  C   UNL     1     -24.191  -1.710 -12.261  1.00  0.00    -0.000 C 
BRANCH   2   3
ATOM      3  C   UNL     1     -23.359  -2.334 -11.129  1.00  0.00    -0.000 C 
BRANCH   3   4
ATOM      4  C   UNL     1     -21.921  -1.786 -11.080  1.00  0.00    -0.000 C 
BRANCH   4   5
ATOM      5  C   UNL     1     -21.410  -1.350 -12.463  1.00  0.00    -0.000 C 
BRANCH   5   6
ATOM      6  C   UNL     1     -20.702  -2.490 -13.217  1.00  0.00    -0.000 C 
BRANCH   6   7
ATOM      7  C   UNL     1     -19.331  -2.834 -12.614  1.00  0.00    -0.000 C 
BRANCH   7   8
ATOM      8  C   UNL     1     -19.023  -4.338 -12.658  1.00  0.00    -0.003 C 
ATOM      9  C   UNL     1     -18.364  -4.726 -13.978  1.00  0.00     0.004 C 
ENDBRANCH   7   8
ENDBRANCH   6   7
ENDBRANCH   5   6
ENDBRANCH   4   5
ENDBRANCH   3   4
ENDBRANCH   2   3
ENDBRANCH   1   2
BRANCH   1  10
ATOM     10  C   UNL     1     -25.203  -0.273 -10.440  1.00  0.00     0.000 C 
BRANCH  10  11
ATOM     11  C   UNL     1     -26.266   0.811 -10.182  1.00  0.00     0.000 C 
BRANCH  11  12
ATOM     12  C   UNL     1     -26.672   1.628 -11.421  1.00  0.00     0.000 C 
BRANCH  12  13
ATOM     13  C   UNL     1     -28.110   2.167 -11.336  1.00  0.00     0.000 C 
BRANCH  13  14
ATOM     14  C   UNL     1     -28.812   1.774 -10.027  1.00  0.00     0.002 C 
BRANCH  14  15
ATOM     15  C   UNL     1     -29.690   0.522 -10.182  1.00  0.00     0.028 C 
BRANCH  15  16
ATOM     16  C   UNL     1     -31.166   0.886 -10.354  1.00  0.00     0.156 C 
BRANCH  16  17
ATOM     17  O   UNL     1     -31.530   0.799 -11.704  1.00  0.00    -0.396 OA
ATOM     18  H   UNL     1     -31.749   1.725 -11.990  1.00  0.00     0.210 HD
ENDBRANCH  16  17
ENDBRANCH  15  16
ENDBRANCH  14  15
ENDBRANCH  13  14
ENDBRANCH  12  13
ENDBRANCH  11  12
ENDBRANCH  10  11
ENDBRANCH   1  10
TORSDOF 15
ENDMDL
MODEL 2
REMARK VINA RESULT:    -4.585      2.055      2.948
REMARK INTER + INTRA:          -9.189
REMARK INTER:                  -8.137
REMARK INTRA:                  -1.052
REMARK UNBOUND:                -0.717
REMARK SMILES CCCCCCCCCCCCCCCCO
REMARK SMILES IDX 9 1 8 2 7 3 6 4 5 5 4 6 3 7 2 8 1 9 10 10 11 11 12 12 13 13
REMARK SMILES IDX 14 14 15 15 16 16 17 17
REMARK H PARENT 17 18
REMARK Flexibility Score: inf
ROOT
ATOM      1  C   UNL     1     -23.448  -1.804 -11.013  1.00  0.00     0.000 C 
ENDROOT
BRANCH   1   2
ATOM      2  C   UNL     1     -23.470  -0.991 -12.315  1.00  0.00    -0.000 C 
BRANCH   2   3
ATOM      3  C   UNL     1     -22.069  -0.795 -12.918  1.00  0.00    -0.000 C 
BRANCH   3   4
ATOM      4  C   UNL     1     -21.011  -1.698 -12.258  1.00  0.00    -0.000 C 
BRANCH   4   5
ATOM      5  C   UNL     1     -20.508  -2.803 -13.201  1.00  0.00    -0.000 C 
BRANCH   5   6
ATOM      6  C   UNL     1     -19.056  -3.217 -12.904  1.00  0.00    -0.000 C 
BRANCH   6   7
ATOM      7  C   UNL     1     -18.912  -3.940 -11.555  1.00  0.00    -0.000 C 
BRANCH   7   8
ATOM      8  C   UNL     1     -17.883  -3.274 -10.631  1.00  0.00    -0.003 C 
ATOM      9  C   UNL     1     -16.994  -2.306 -11.406  1.00  0.00     0.004 C 
ENDBRANCH   7   8
ENDBRANCH   6   7
ENDBRANCH   5   6
ENDBRANCH   4   5
ENDBRANCH   3   4
ENDBRANCH   2   3
ENDBRANCH   1   2
BRANCH   1  10
ATOM     10  C   UNL     1     -24.735  -1.579 -10.203  1.00  0.00     0.000 C 
BRANCH  10  11
ATOM     11  C   UNL     1     -25.057  -0.088  -9.989  1.00  0.00     0.000 C 
BRANCH  11  12
ATOM     12  C   UNL     1     -26.556   0.240  -9.875  1.00  0.00     0.000 C 
BRANCH  12  13
ATOM     13  C   UNL     1     -27.069   1.104 -11.040  1.00  0.00     0.000 C 
BRANCH  13  14
ATOM     14  C   UNL     1     -25.941   1.557 -11.981  1.00  0.00     0.002 C 
BRANCH  14  15
ATOM     15  C   UNL     1     -25.929   3.078 -12.196  1.00  0.00     0.028 C 
BRANCH  15  16
ATOM     16  C   UNL     1     -27.275   3.586 -12.713  1.00  0.00     0.156 C 
BRANCH  16  17
ATOM     17  O   UNL     1     -27.516   3.090 -14.001  1.00  0.00    -0.396 OA
ATOM     18  H   UNL     1     -28.498   2.955 -14.065  1.00  0.00     0.210 HD
ENDBRANCH  16  17
ENDBRANCH  15  16
ENDBRANCH  14  15
ENDBRANCH  13  14
ENDBRANCH  12  13
ENDBRANCH  11  12
ENDBRANCH  10  11
ENDBRANCH   1  10
TORSDOF 15
ENDMDL
MODEL 3
REMARK VINA RESULT:    -4.561      4.052      9.717
REMARK INTER + INTRA:          -9.144
REMARK INTER:                  -8.624
REMARK INTRA:                  -0.521
REMARK UNBOUND:                -0.717
REMARK SMILES CCCCCCCCCCCCCCCCO
REMARK SMILES IDX 9 1 8 2 7 3 6 4 5 5 4 6 3 7 2 8 1 9 10 10 11 11 12 12 13 13
REMARK SMILES IDX 14 14 15 15 16 16 17 17
REMARK H PARENT 17 18
REMARK Flexibility Score: inf
ROOT
ATOM      1  C   UNL     1     -24.012  -1.004 -12.148  1.00  0.00     0.000 C 
ENDROOT
BRANCH   1   2
ATOM      2  C   UNL     1     -24.573  -0.989 -10.718  1.00  0.00    -0.000 C 
BRANCH   2   3
ATOM      3  C   UNL     1     -25.645   0.094 -10.511  1.00  0.00    -0.000 C 
BRANCH   3   4
ATOM      4  C   UNL     1     -25.856   0.963 -11.764  1.00  0.00    -0.000 C 
BRANCH   4   5
ATOM      5  C   UNL     1     -27.124   1.827 -11.675  1.00  0.00    -0.000 C 
BRANCH   5   6
ATOM      6  C   UNL     1     -26.992   3.151 -12.449  1.00  0.00    -0.000 C 
BRANCH   6   7
ATOM      7  C   UNL     1     -27.467   4.363 -11.632  1.00  0.00    -0.000 C 
BRANCH   7   8
ATOM      8  C   UNL     1     -28.122   5.446 -12.502  1.00  0.00    -0.003 C 
ATOM      9  C   UNL     1     -27.445   6.798 -12.297  1.00  0.00     0.004 C 
ENDBRANCH   7   8
ENDBRANCH   6   7
ENDBRANCH   5   6
ENDBRANCH   4   5
ENDBRANCH   3   4
ENDBRANCH   2   3
ENDBRANCH   1   2
BRANCH   1  10
ATOM     10  C   UNL     1     -22.479  -0.896 -12.136  1.00  0.00     0.000 C 
BRANCH  10  11
ATOM     11  C   UNL     1     -21.783  -2.140 -12.718  1.00  0.00     0.000 C 
BRANCH  11  12
ATOM     12  C   UNL     1     -20.250  -2.146 -12.587  1.00  0.00     0.000 C 
BRANCH  12  13
ATOM     13  C   UNL     1     -19.589  -3.308 -13.348  1.00  0.00     0.000 C 
BRANCH  13  14
ATOM     14  C   UNL     1     -18.579  -4.080 -12.485  1.00  0.00     0.002 C 
BRANCH  14  15
ATOM     15  C   UNL     1     -18.257  -3.358 -11.167  1.00  0.00     0.028 C 
BRANCH  15  16
ATOM     16  C   UNL     1     -16.883  -2.687 -11.212  1.00  0.00     0.156 C 
BRANCH  16  17
ATOM     17  O   UNL     1     -16.987  -1.413 -11.787  1.00  0.00    -0.396 OA
ATOM     18  H   UNL     1     -16.077  -1.184 -12.113  1.00  0.00     0.210 HD
ENDBRANCH  16  17
ENDBRANCH  15  16
ENDBRANCH  14  15
ENDBRANCH  13  14
ENDBRANCH  12  13
ENDBRANCH  11  12
ENDBRANCH  10  11
ENDBRANCH   1  10
TORSDOF 15
ENDMDL
MODEL 4
REMARK VINA RESULT:    -4.531      3.902      9.393
REMARK INTER + INTRA:          -9.088
REMARK INTER:                  -8.406
REMARK INTRA:                  -0.682
REMARK UNBOUND:                -0.717
REMARK SMILES CCCCCCCCCCCCCCCCO
REMARK SMILES IDX 9 1 8 2 7 3 6 4 5 5 4 6 3 7 2 8 1 9 10 10 11 11 12 12 13 13
REMARK SMILES IDX 14 14 15 15 16 16 17 17
REMARK H PARENT 17 18
REMARK Flexibility Score: inf
ROOT
ATOM      1  C   UNL     1     -23.444  -2.068 -11.089  1.00  0.00     0.000 C 
ENDROOT
BRANCH   1   2
ATOM      2  C   UNL     1     -24.610  -1.448 -10.305  1.00  0.00    -0.000 C 
BRANCH   2   3
ATOM      3  C   UNL     1     -25.258  -0.263 -11.040  1.00  0.00    -0.000 C 
BRANCH   3   4
ATOM      4  C   UNL     1     -26.088   0.631 -10.102  1.00  0.00    -0.000 C 
BRANCH   4   5
ATOM      5  C   UNL     1     -27.007   1.596 -10.868  1.00  0.00    -0.000 C 
BRANCH   5   6
ATOM      6  C   UNL     1     -26.406   2.043 -12.212  1.00  0.00    -0.000 C 
BRANCH   6   7
ATOM      7  C   UNL     1     -26.429   3.570 -12.390  1.00  0.00    -0.000 C 
BRANCH   7   8
ATOM      8  C   UNL     1     -27.779   4.087 -12.909  1.00  0.00    -0.003 C 
ATOM      9  C   UNL     1     -28.064   5.493 -12.390  1.00  0.00     0.004 C 
ENDBRANCH   7   8
ENDBRANCH   6   7
ENDBRANCH   5   6
ENDBRANCH   4   5
ENDBRANCH   3   4
ENDBRANCH   2   3
ENDBRANCH   1   2
BRANCH   1  10
ATOM     10  C   UNL     1     -23.174  -1.285 -12.383  1.00  0.00     0.000 C 
BRANCH  10  11
ATOM     11  C   UNL     1     -21.675  -1.166 -12.712  1.00  0.00     0.000 C 
BRANCH  11  12
ATOM     12  C   UNL     1     -20.960  -2.504 -12.970  1.00  0.00     0.000 C 
BRANCH  12  13
ATOM     13  C   UNL     1     -19.507  -2.513 -12.463  1.00  0.00     0.000 C 
BRANCH  13  14
ATOM     14  C   UNL     1     -19.070  -3.894 -11.949  1.00  0.00     0.002 C 
BRANCH  14  15
ATOM     15  C   UNL     1     -17.924  -4.495 -12.779  1.00  0.00     0.028 C 
BRANCH  15  16
ATOM     16  C   UNL     1     -18.410  -4.979 -14.146  1.00  0.00     0.156 C 
BRANCH  16  17
ATOM     17  O   UNL     1     -17.984  -4.099 -15.149  1.00  0.00    -0.396 OA
ATOM     18  H   UNL     1     -18.178  -4.551 -16.012  1.00  0.00     0.210 HD
ENDBRANCH  16  17
ENDBRANCH  15  16
ENDBRANCH  14  15
ENDBRANCH  13  14
ENDBRANCH  12  13
ENDBRANCH  11  12
ENDBRANCH  10  11
ENDBRANCH   1  10
TORSDOF 15
ENDMDL
MODEL 5
REMARK VINA RESULT:    -4.519      4.087      9.787
REMARK INTER + INTRA:          -9.067
REMARK INTER:                  -8.504
REMARK INTRA:                  -0.562
REMARK UNBOUND:                -0.717
REMARK SMILES CCCCCCCCCCCCCCCCO
REMARK SMILES IDX 9 1 8 2 7 3 6 4 5 5 4 6 3 7 2 8 1 9 10 10 11 11 12 12 13 13
REMARK SMILES IDX 14 14 15 15 16 16 17 17
REMARK H PARENT 17 18
REMARK Flexibility Score: inf
ROOT
ATOM      1  C   UNL     1     -24.721  -0.844 -11.065  1.00  0.00     0.000 C 
ENDROOT
BRANCH   1   2
ATOM      2  C   UNL     1     -25.024   0.204 -12.146  1.00  0.00    -0.000 C 
BRANCH   2   3
ATOM      3  C   UNL     1     -26.179   1.142 -11.759  1.00  0.00    -0.000 C 
BRANCH   3   4
ATOM      4  C   UNL     1     -25.945   2.590 -12.224  1.00  0.00    -0.000 C 
BRANCH   4   5
ATOM      5  C   UNL     1     -27.214   3.236 -12.804  1.00  0.00    -0.000 C 
BRANCH   5   6
ATOM      6  C   UNL     1     -28.303   3.459 -11.740  1.00  0.00    -0.000 C 
BRANCH   6   7
ATOM      7  C   UNL     1     -28.516   4.946 -11.416  1.00  0.00    -0.000 C 
BRANCH   7   8
ATOM      8  C   UNL     1     -28.246   5.860 -12.620  1.00  0.00    -0.003 C 
ATOM      9  C   UNL     1     -27.220   6.935 -12.274  1.00  0.00     0.004 C 
ENDBRANCH   7   8
ENDBRANCH   6   7
ENDBRANCH   5   6
ENDBRANCH   4   5
ENDBRANCH   3   4
ENDBRANCH   2   3
ENDBRANCH   1   2
BRANCH   1  10
ATOM     10  C   UNL     1     -23.265  -1.325 -11.160  1.00  0.00     0.000 C 
BRANCH  10  11
ATOM     11  C   UNL     1     -22.667  -1.158 -12.569  1.00  0.00     0.000 C 
BRANCH  11  12
ATOM     12  C   UNL     1     -21.783  -2.327 -13.039  1.00  0.00     0.000 C 
BRANCH  12  13
ATOM     13  C   UNL     1     -20.321  -2.194 -12.578  1.00  0.00     0.000 C 
BRANCH  13  14
ATOM     14  C   UNL     1     -19.353  -3.024 -13.437  1.00  0.00     0.002 C 
BRANCH  14  15
ATOM     15  C   UNL     1     -18.975  -4.358 -12.775  1.00  0.00     0.028 C 
BRANCH  15  16
ATOM     16  C   UNL     1     -17.920  -5.112 -13.585  1.00  0.00     0.156 C 
BRANCH  16  17
ATOM     17  O   UNL     1     -18.408  -5.396 -14.867  1.00  0.00    -0.396 OA
ATOM     18  H   UNL     1     -17.703  -5.101 -15.501  1.00  0.00     0.210 HD
ENDBRANCH  16  17
ENDBRANCH  15  16
ENDBRANCH  14  15
ENDBRANCH  13  14
ENDBRANCH  12  13
ENDBRANCH  11  12
ENDBRANCH  10  11
ENDBRANCH   1  10
TORSDOF 15
ENDMDL
MODEL 6
REMARK VINA RESULT:    -4.458      1.260      1.878
REMARK INTER + INTRA:          -8.954
REMARK INTER:                  -8.079
REMARK INTRA:                  -0.875
REMARK UNBOUND:                -0.717
REMARK SMILES CCCCCCCCCCCCCCCCO
REMARK SMILES IDX 9 1 8 2 7 3 6 4 5 5 4 6 3 7 2 8 1 9 10 10 11 11 12 12 13 13
REMARK SMILES IDX 14 14 15 15 16 16 17 17
REMARK H PARENT 17 18
REMARK Flexibility Score: inf
ROOT
ATOM      1  C   UNL     1     -24.072  -2.108 -11.647  1.00  0.00     0.000 C 
ENDROOT
BRANCH   1   2
ATOM      2  C   UNL     1     -23.219  -1.763 -12.877  1.00  0.00    -0.000 C 
BRANCH   2   3
ATOM      3  C   UNL     1     -22.010  -0.878 -12.533  1.00  0.00    -0.000 C 
BRANCH   3   4
ATOM      4  C   UNL     1     -20.701  -1.681 -12.428  1.00  0.00    -0.000 C 
BRANCH   4   5
ATOM      5  C   UNL     1     -20.766  -3.017 -13.186  1.00  0.00    -0.000 C 
BRANCH   5   6
ATOM      6  C   UNL     1     -19.393  -3.705 -13.288  1.00  0.00    -0.000 C 
BRANCH   6   7
ATOM      7  C   UNL     1     -18.647  -3.737 -11.944  1.00  0.00    -0.000 C 
BRANCH   7   8
ATOM      8  C   UNL     1     -17.338  -2.934 -11.973  1.00  0.00    -0.003 C 
ATOM      9  C   UNL     1     -16.771  -2.758 -10.568  1.00  0.00     0.004 C 
ENDBRANCH   7   8
ENDBRANCH   6   7
ENDBRANCH   5   6
ENDBRANCH   4   5
ENDBRANCH   3   4
ENDBRANCH   2   3
ENDBRANCH   1   2
BRANCH   1  10
ATOM     10  C   UNL     1     -24.119  -0.928 -10.664  1.00  0.00     0.000 C 
BRANCH  10  11
ATOM     11  C   UNL     1     -25.457  -0.166 -10.701  1.00  0.00     0.000 C 
BRANCH  11  12
ATOM     12  C   UNL     1     -25.606   0.825 -11.868  1.00  0.00     0.000 C 
BRANCH  12  13
ATOM     13  C   UNL     1     -26.954   1.565 -11.855  1.00  0.00     0.000 C 
BRANCH  13  14
ATOM     14  C   UNL     1     -27.599   1.595 -10.460  1.00  0.00     0.002 C 
BRANCH  14  15
ATOM     15  C   UNL     1     -29.075   2.018 -10.502  1.00  0.00     0.028 C 
BRANCH  15  16
ATOM     16  C   UNL     1     -30.010   0.807 -10.499  1.00  0.00     0.156 C 
BRANCH  16  17
ATOM     17  O   UNL     1     -30.828   0.826 -11.637  1.00  0.00    -0.396 OA
ATOM     18  H   UNL     1     -31.748   0.630 -11.317  1.00  0.00     0.210 HD
ENDBRANCH  16  17
ENDBRANCH  15  16
ENDBRANCH  14  15
ENDBRANCH  13  14
ENDBRANCH  12  13
ENDBRANCH  11  12
ENDBRANCH  10  11
ENDBRANCH   1  10
TORSDOF 15
ENDMDL
MODEL 7
REMARK VINA RESULT:    -4.398      1.702      2.404
REMARK INTER + INTRA:          -8.844
REMARK INTER:                  -7.852
REMARK INTRA:                  -0.992
REMARK UNBOUND:                -0.717
REMARK SMILES CCCCCCCCCCCCCCCCO
REMARK SMILES IDX 9 1 8 2 7 3 6 4 5 5 4 6 3 7 2 8 1 9 10 10 11 11 12 12 13 13
REMARK SMILES IDX 14 14 15 15 16 16 17 17
REMARK H PARENT 17 18
REMARK Flexibility Score: inf
ROOT
ATOM      1  C   UNL     1     -25.437   0.403 -11.763  1.00  0.00     0.000 C 
ENDROOT
BRANCH   1   2
ATOM      2  C   UNL     1     -24.501  -0.756 -12.136  1.00  0.00    -0.000 C 
BRANCH   2   3
ATOM      3  C   UNL     1     -23.922  -1.474 -10.906  1.00  0.00    -0.000 C 
BRANCH   3   4
ATOM      4  C   UNL     1     -22.383  -1.491 -10.901  1.00  0.00    -0.000 C 
BRANCH   4   5
ATOM      5  C   UNL     1     -21.784  -1.033 -12.241  1.00  0.00    -0.000 C 
BRANCH   5   6
ATOM      6  C   UNL     1     -21.039  -2.163 -12.972  1.00  0.00    -0.000 C 
BRANCH   6   7
ATOM      7  C   UNL     1     -19.708  -2.526 -12.295  1.00  0.00    -0.000 C 
BRANCH   7   8
ATOM      8  C   UNL     1     -19.213  -3.930 -12.674  1.00  0.00    -0.003 C 
ATOM      9  C   UNL     1     -18.674  -3.957 -14.101  1.00  0.00     0.004 C 
ENDBRANCH   7   8
ENDBRANCH   6   7
ENDBRANCH   5   6
ENDBRANCH   4   5
ENDBRANCH   3   4
ENDBRANCH   2   3
ENDBRANCH   1   2
BRANCH   1  10
ATOM     10  C   UNL     1     -25.775   0.374 -10.264  1.00  0.00     0.000 C 
BRANCH  10  11
ATOM     11  C   UNL     1     -26.873   1.382  -9.876  1.00  0.00     0.000 C 
BRANCH  11  12
ATOM     12  C   UNL     1     -28.206   1.208 -10.624  1.00  0.00     0.000 C 
BRANCH  12  13
ATOM     13  C   UNL     1     -28.930   2.542 -10.874  1.00  0.00     0.000 C 
BRANCH  13  14
ATOM     14  C   UNL     1     -28.010   3.758 -10.682  1.00  0.00     0.002 C 
BRANCH  14  15
ATOM     15  C   UNL     1     -27.708   4.482 -12.004  1.00  0.00     0.028 C 
BRANCH  15  16
ATOM     16  C   UNL     1     -26.811   3.642 -12.915  1.00  0.00     0.156 C 
BRANCH  16  17
ATOM     17  O   UNL     1     -27.564   3.094 -13.962  1.00  0.00    -0.396 OA
ATOM     18  H   UNL     1     -28.423   3.594 -13.973  1.00  0.00     0.210 HD
ENDBRANCH  16  17
ENDBRANCH  15  16
ENDBRANCH  14  15
ENDBRANCH  13  14
ENDBRANCH  12  13
ENDBRANCH  11  12
ENDBRANCH  10  11
ENDBRANCH   1  10
TORSDOF 15
ENDMDL
MODEL 8
REMARK VINA RESULT:    -4.316      2.492      3.037
REMARK INTER + INTRA:          -8.692
REMARK INTER:                  -8.051
REMARK INTRA:                  -0.641
REMARK UNBOUND:                -0.717
REMARK SMILES CCCCCCCCCCCCCCCCO
REMARK SMILES IDX 9 1 8 2 7 3 6 4 5 5 4 6 3 7 2 8 1 9 10 10 11 11 12 12 13 13
REMARK SMILES IDX 14 14 15 15 16 16 17 17
REMARK H PARENT 17 18
REMARK Flexibility Score: inf
ROOT
ATOM      1  C   UNL     1     -24.708  -0.117 -12.140  1.00  0.00     0.000 C 
ENDROOT
BRANCH   1   2
ATOM      2  C   UNL     1     -24.409  -1.229 -11.123  1.00  0.00    -0.000 C 
BRANCH   2   3
ATOM      3  C   UNL     1     -23.000  -1.821 -11.286  1.00  0.00    -0.000 C 
BRANCH   3   4
ATOM      4  C   UNL     1     -22.051  -0.884 -12.054  1.00  0.00    -0.000 C 
BRANCH   4   5
ATOM      5  C   UNL     1     -21.383  -1.576 -13.254  1.00  0.00    -0.000 C 
BRANCH   5   6
ATOM      6  C   UNL     1     -20.714  -2.908 -12.871  1.00  0.00    -0.000 C 
BRANCH   6   7
ATOM      7  C   UNL     1     -19.186  -2.790 -12.757  1.00  0.00    -0.000 C 
BRANCH   7   8
ATOM      8  C   UNL     1     -18.490  -4.156 -12.665  1.00  0.00    -0.003 C 
ATOM      9  C   UNL     1     -18.431  -4.836 -14.030  1.00  0.00     0.004 C 
ENDBRANCH   7   8
ENDBRANCH   6   7
ENDBRANCH   5   6
ENDBRANCH   4   5
ENDBRANCH   3   4
ENDBRANCH   2   3
ENDBRANCH   1   2
BRANCH   1  10
ATOM     10  C   UNL     1     -25.866   0.770 -11.659  1.00  0.00     0.000 C 
BRANCH  10  11
ATOM     11  C   UNL     1     -25.771   2.217 -12.178  1.00  0.00     0.000 C 
BRANCH  11  12
ATOM     12  C   UNL     1     -27.105   2.827 -12.643  1.00  0.00     0.000 C 
BRANCH  12  13
ATOM     13  C   UNL     1     -28.148   2.915 -11.515  1.00  0.00     0.000 C 
BRANCH  13  14
ATOM     14  C   UNL     1     -28.572   4.361 -11.213  1.00  0.00     0.002 C 
BRANCH  14  15
ATOM     15  C   UNL     1     -27.831   5.386 -12.086  1.00  0.00     0.028 C 
BRANCH  15  16
ATOM     16  C   UNL     1     -28.799   6.362 -12.757  1.00  0.00     0.156 C 
BRANCH  16  17
ATOM     17  O   UNL     1     -28.332   7.676 -12.620  1.00  0.00    -0.396 OA
ATOM     18  H   UNL     1     -27.413   7.681 -12.997  1.00  0.00     0.210 HD
ENDBRANCH  16  17
ENDBRANCH  15  16
ENDBRANCH  14  15
ENDBRANCH  13  14
ENDBRANCH  12  13
ENDBRANCH  11  12
ENDBRANCH  10  11
ENDBRANCH   1  10
TORSDOF 15
ENDMDL
MODEL 9
REMARK VINA RESULT:    -4.162      3.938      9.309
REMARK INTER + INTRA:          -8.407
REMARK INTER:                  -7.357
REMARK INTRA:                  -1.050
REMARK UNBOUND:                -0.717
REMARK SMILES CCCCCCCCCCCCCCCCO
REMARK SMILES IDX 9 1 8 2 7 3 6 4 5 5 4 6 3 7 2 8 1 9 10 10 11 11 12 12 13 13
REMARK SMILES IDX 14 14 15 15 16 16 17 17
REMARK H PARENT 17 18
REMARK Flexibility Score: inf
ROOT
ATOM      1  C   UNL     1     -25.819   1.053 -12.082  1.00  0.00     0.000 C 
ENDROOT
BRANCH   1   2
ATOM      2  C   UNL     1     -25.828   2.589 -12.105  1.00  0.00    -0.000 C 
BRANCH   2   3
ATOM      3  C   UNL     1     -27.103   3.167 -12.740  1.00  0.00    -0.000 C 
BRANCH   3   4
ATOM      4  C   UNL     1     -28.247   3.332 -11.723  1.00  0.00    -0.000 C 
BRANCH   4   5
ATOM      5  C   UNL     1     -27.869   4.258 -10.556  1.00  0.00    -0.000 C 
BRANCH   5   6
ATOM      6  C   UNL     1     -28.622   5.600 -10.598  1.00  0.00    -0.000 C 
BRANCH   6   7
ATOM      7  C   UNL     1     -27.704   6.780 -10.955  1.00  0.00    -0.000 C 
BRANCH   7   8
ATOM      8  C   UNL     1     -27.498   6.936 -12.469  1.00  0.00    -0.003 C 
ATOM      9  C   UNL     1     -28.815   6.770 -13.222  1.00  0.00     0.004 C 
ENDBRANCH   7   8
ENDBRANCH   6   7
ENDBRANCH   5   6
ENDBRANCH   4   5
ENDBRANCH   3   4
ENDBRANCH   2   3
ENDBRANCH   1   2
BRANCH   1  10
ATOM     10  C   UNL     1     -25.963   0.525 -10.647  1.00  0.00     0.000 C 
BRANCH  10  11
ATOM     11  C   UNL     1     -24.991  -0.627 -10.329  1.00  0.00     0.000 C 
BRANCH  11  12
ATOM     12  C   UNL     1     -24.141  -1.105 -11.520  1.00  0.00     0.000 C 
BRANCH  12  13
ATOM     13  C   UNL     1     -22.665  -1.327 -11.150  1.00  0.00     0.000 C 
BRANCH  13  14
ATOM     14  C   UNL     1     -21.710  -1.006 -12.311  1.00  0.00     0.002 C 
BRANCH  14  15
ATOM     15  C   UNL     1     -21.313  -2.257 -13.110  1.00  0.00     0.028 C 
BRANCH  15  16
ATOM     16  C   UNL     1     -19.958  -2.807 -12.662  1.00  0.00     0.156 C 
BRANCH  16  17
ATOM     17  O   UNL     1     -19.868  -4.172 -12.965  1.00  0.00    -0.396 OA
ATOM     18  H   UNL     1     -20.696  -4.588 -12.609  1.00  0.00     0.210 HD
ENDBRANCH  16  17
ENDBRANCH  15  16
ENDBRANCH  14  15
ENDBRANCH  13  14
ENDBRANCH  12  13
ENDBRANCH  11  12
ENDBRANCH  10  11
ENDBRANCH   1  10
TORSDOF 15
ENDMDL
