MODEL 1
REMARK VINA RESULT:    -3.775      0.000      0.000
REMARK INTER + INTRA:          -5.708
REMARK INTER:                  -4.658
REMARK INTRA:                  -1.050
REMARK UNBOUND:                -1.050
REMARK SMILES CC(C)=CCC[C@@H](C)c1ccc(C)cc1
REMARK SMILES IDX 6 1 7 2 8 3 9 4 13 5 12 6 11 7 14 8 10 9 15 10 5 11 4 12
REMARK SMILES IDX 2 13 1 14 3 15
REMARK H PARENT
REMARK Flexibility Score: inf
ROOT
ATOM      1  C   UNL     1     -21.496 -61.263  12.514  1.00  0.00     0.012 C 
ENDROOT
BRANCH   1   2
ATOM      2  C   UNL     1     -21.251 -60.423  11.238  1.00  0.00     0.016 C 
ATOM      3  C   UNL     1     -22.355 -59.384  10.991  1.00  0.00     0.013 C 
BRANCH   2   4
ATOM      4  C   UNL     1     -19.894 -59.745  11.311  1.00  0.00    -0.045 A 
ATOM      5  C   UNL     1     -16.005 -57.875  11.507  1.00  0.00     0.044 C 
ATOM      6  C   UNL     1     -17.367 -58.498  11.430  1.00  0.00    -0.051 A 
ATOM      7  C   UNL     1     -18.205 -58.506  12.554  1.00  0.00     0.004 A 
ATOM      8  C   UNL     1     -17.785 -59.138  10.255  1.00  0.00     0.004 A 
ATOM      9  C   UNL     1     -19.459 -59.120  12.495  1.00  0.00     0.004 A 
ATOM     10  C   UNL     1     -19.041 -59.752  10.194  1.00  0.00     0.004 A 
ENDBRANCH   2   4
ENDBRANCH   1   2
BRANCH   1  11
ATOM     11  C   UNL     1     -22.639 -60.730  13.402  1.00  0.00     0.028 C 
BRANCH  11  12
ATOM     12  C   UNL     1     -22.217 -60.557  14.841  1.00  0.00    -0.028 C 
ATOM     13  C   UNL     1     -21.950 -59.365  15.422  1.00  0.00    -0.080 C 
ATOM     14  C   UNL     1     -22.006 -58.067  14.651  1.00  0.00     0.039 C 
ATOM     15  C   UNL     1     -21.556 -59.349  16.876  1.00  0.00     0.039 C 
ENDBRANCH  11  12
ENDBRANCH   1  11
TORSDOF 4
ENDMDL
MODEL 2
REMARK VINA RESULT:    -3.722      1.493      1.717
REMARK INTER + INTRA:          -5.643
REMARK INTER:                  -4.277
REMARK INTRA:                  -1.366
REMARK UNBOUND:                -1.050
REMARK SMILES CC(C)=CCC[C@@H](C)c1ccc(C)cc1
REMARK SMILES IDX 6 1 7 2 8 3 9 4 13 5 12 6 11 7 14 8 10 9 15 10 5 11 4 12
REMARK SMILES IDX 2 13 1 14 3 15
REMARK H PARENT
REMARK Flexibility Score: inf
ROOT
ATOM      1  C   UNL     1     -22.359 -60.509  12.401  1.00  0.00     0.012 C 
ENDROOT
BRANCH   1   2
ATOM      2  C   UNL     1     -21.656 -60.850  11.066  1.00  0.00     0.016 C 
ATOM      3  C   UNL     1     -22.205 -60.040   9.883  1.00  0.00     0.013 C 
BRANCH   2   4
ATOM      4  C   UNL     1     -20.157 -60.645  11.198  1.00  0.00    -0.045 A 
ATOM      5  C   UNL     1     -15.886 -60.078  11.510  1.00  0.00     0.044 C 
ATOM      6  C   UNL     1     -17.373 -60.254  11.424  1.00  0.00    -0.051 A 
ATOM      7  C   UNL     1     -18.014 -61.232  12.197  1.00  0.00     0.004 A 
ATOM      8  C   UNL     1     -18.123 -59.492  10.518  1.00  0.00     0.004 A 
ATOM      9  C   UNL     1     -19.395 -61.424  12.090  1.00  0.00     0.004 A 
ATOM     10  C   UNL     1     -19.505 -59.681  10.410  1.00  0.00     0.004 A 
ENDBRANCH   2   4
ENDBRANCH   1   2
BRANCH   1  11
ATOM     11  C   UNL     1     -22.217 -59.031  12.821  1.00  0.00     0.028 C 
BRANCH  11  12
ATOM     12  C   UNL     1     -21.911 -58.878  14.292  1.00  0.00    -0.028 C 
ATOM     13  C   UNL     1     -20.711 -58.504  14.788  1.00  0.00    -0.080 C 
ATOM     14  C   UNL     1     -19.520 -58.244  13.896  1.00  0.00     0.039 C 
ATOM     15  C   UNL     1     -20.561 -58.378  16.283  1.00  0.00     0.039 C 
ENDBRANCH  11  12
ENDBRANCH   1  11
TORSDOF 4
ENDMDL
MODEL 3
REMARK VINA RESULT:    -3.700      1.129      4.825
REMARK INTER + INTRA:          -5.615
REMARK INTER:                  -4.098
REMARK INTRA:                  -1.517
REMARK UNBOUND:                -1.050
REMARK SMILES CC(C)=CCC[C@@H](C)c1ccc(C)cc1
REMARK SMILES IDX 6 1 7 2 8 3 9 4 13 5 12 6 11 7 14 8 10 9 15 10 5 11 4 12
REMARK SMILES IDX 2 13 1 14 3 15
REMARK H PARENT
REMARK Flexibility Score: inf
ROOT
ATOM      1  C   UNL     1     -20.776 -59.771  10.292  1.00  0.00     0.012 C 
ENDROOT
BRANCH   1   2
ATOM      2  C   UNL     1     -21.573 -60.850  11.062  1.00  0.00     0.016 C 
ATOM      3  C   UNL     1     -20.890 -62.225  11.032  1.00  0.00     0.013 C 
BRANCH   2   4
ATOM      4  C   UNL     1     -21.804 -60.405  12.496  1.00  0.00    -0.045 A 
ATOM      5  C   UNL     1     -22.401 -59.111  16.574  1.00  0.00     0.044 C 
ATOM      6  C   UNL     1     -22.224 -59.560  15.154  1.00  0.00    -0.051 A 
ATOM      7  C   UNL     1     -22.158 -60.927  14.849  1.00  0.00     0.004 A 
ATOM      8  C   UNL     1     -22.052 -58.618  14.131  1.00  0.00     0.004 A 
ATOM      9  C   UNL     1     -21.954 -61.347  13.531  1.00  0.00     0.004 A 
ATOM     10  C   UNL     1     -21.849 -59.036  12.811  1.00  0.00     0.004 A 
ENDBRANCH   2   4
ENDBRANCH   1   2
BRANCH   1  11
ATOM     11  C   UNL     1     -19.249 -59.991  10.310  1.00  0.00     0.028 C 
BRANCH  11  12
ATOM     12  C   UNL     1     -18.528 -58.953  11.137  1.00  0.00    -0.028 C 
ATOM     13  C   UNL     1     -18.080 -59.156  12.396  1.00  0.00    -0.080 C 
ATOM     14  C   UNL     1     -18.307 -60.457  13.129  1.00  0.00     0.039 C 
ATOM     15  C   UNL     1     -17.361 -58.028  13.092  1.00  0.00     0.039 C 
ENDBRANCH  11  12
ENDBRANCH   1  11
TORSDOF 4
ENDMDL
MODEL 4
REMARK VINA RESULT:    -3.677      1.631      3.890
REMARK INTER + INTRA:          -5.587
REMARK INTER:                  -4.445
REMARK INTRA:                  -1.142
REMARK UNBOUND:                -1.050
REMARK SMILES CC(C)=CCC[C@@H](C)c1ccc(C)cc1
REMARK SMILES IDX 6 1 7 2 8 3 9 4 13 5 12 6 11 7 14 8 10 9 15 10 5 11 4 12
REMARK SMILES IDX 2 13 1 14 3 15
REMARK H PARENT
REMARK Flexibility Score: inf
ROOT
ATOM      1  C   UNL     1     -21.923 -60.231  14.560  1.00  0.00     0.012 C 
ENDROOT
BRANCH   1   2
ATOM      2  C   UNL     1     -21.567 -58.731  14.430  1.00  0.00     0.016 C 
ATOM      3  C   UNL     1     -22.196 -57.875  15.540  1.00  0.00     0.013 C 
BRANCH   2   4
ATOM      4  C   UNL     1     -20.059 -58.551  14.414  1.00  0.00    -0.045 A 
ATOM      5  C   UNL     1     -15.776 -57.989  14.409  1.00  0.00     0.044 C 
ATOM      6  C   UNL     1     -17.259 -58.214  14.404  1.00  0.00    -0.051 A 
ATOM      7  C   UNL     1     -17.997 -58.034  13.225  1.00  0.00     0.004 A 
ATOM      8  C   UNL     1     -17.928 -58.537  15.592  1.00  0.00     0.004 A 
ATOM      9  C   UNL     1     -19.384 -58.205  13.228  1.00  0.00     0.004 A 
ATOM     10  C   UNL     1     -19.317 -58.710  15.597  1.00  0.00     0.004 A 
ENDBRANCH   2   4
ENDBRANCH   1   2
BRANCH   1  11
ATOM     11  C   UNL     1     -22.581 -60.828  13.299  1.00  0.00     0.028 C 
BRANCH  11  12
ATOM     12  C   UNL     1     -21.569 -61.190  12.238  1.00  0.00    -0.028 C 
ATOM     13  C   UNL     1     -21.414 -60.527  11.071  1.00  0.00    -0.080 C 
ATOM     14  C   UNL     1     -22.293 -59.359  10.689  1.00  0.00     0.039 C 
ATOM     15  C   UNL     1     -20.347 -60.997  10.115  1.00  0.00     0.039 C 
ENDBRANCH  11  12
ENDBRANCH   1  11
TORSDOF 4
ENDMDL
MODEL 5
REMARK VINA RESULT:    -3.672      1.630      3.713
REMARK INTER + INTRA:          -5.581
REMARK INTER:                  -4.438
REMARK INTRA:                  -1.143
REMARK UNBOUND:                -1.050
REMARK SMILES CC(C)=CCC[C@@H](C)c1ccc(C)cc1
REMARK SMILES IDX 6 1 7 2 8 3 9 4 13 5 12 6 11 7 14 8 10 9 15 10 5 11 4 12
REMARK SMILES IDX 2 13 1 14 3 15
REMARK H PARENT
REMARK Flexibility Score: inf
ROOT
ATOM      1  C   UNL     1     -21.956 -60.233  14.591  1.00  0.00     0.012 C 
ENDROOT
BRANCH   1   2
ATOM      2  C   UNL     1     -21.575 -58.739  14.468  1.00  0.00     0.016 C 
ATOM      3  C   UNL     1     -22.199 -57.875  15.575  1.00  0.00     0.013 C 
BRANCH   2   4
ATOM      4  C   UNL     1     -20.064 -58.583  14.465  1.00  0.00    -0.045 A 
ATOM      5  C   UNL     1     -15.762 -58.193  14.412  1.00  0.00     0.044 C 
ATOM      6  C   UNL     1     -17.258 -58.299  14.436  1.00  0.00    -0.051 A 
ATOM      7  C   UNL     1     -17.925 -58.609  15.630  1.00  0.00     0.004 A 
ATOM      8  C   UNL     1     -17.996 -58.159  13.253  1.00  0.00     0.004 A 
ATOM      9  C   UNL     1     -19.316 -58.746  15.646  1.00  0.00     0.004 A 
ATOM     10  C   UNL     1     -19.388 -58.294  13.267  1.00  0.00     0.004 A 
ENDBRANCH   2   4
ENDBRANCH   1   2
BRANCH   1  11
ATOM     11  C   UNL     1     -22.620 -60.814  13.326  1.00  0.00     0.028 C 
BRANCH  11  12
ATOM     12  C   UNL     1     -21.611 -61.167  12.258  1.00  0.00    -0.028 C 
ATOM     13  C   UNL     1     -21.463 -60.496  11.095  1.00  0.00    -0.080 C 
ATOM     14  C   UNL     1     -22.346 -59.328  10.724  1.00  0.00     0.039 C 
ATOM     15  C   UNL     1     -20.399 -60.957  10.131  1.00  0.00     0.039 C 
ENDBRANCH  11  12
ENDBRANCH   1  11
TORSDOF 4
ENDMDL
MODEL 6
REMARK VINA RESULT:    -3.655      1.916      4.472
REMARK INTER + INTRA:          -5.560
REMARK INTER:                  -4.037
REMARK INTRA:                  -1.523
REMARK UNBOUND:                -1.050
REMARK SMILES CC(C)=CCC[C@@H](C)c1ccc(C)cc1
REMARK SMILES IDX 6 1 7 2 8 3 9 4 13 5 12 6 11 7 14 8 10 9 15 10 5 11 4 12
REMARK SMILES IDX 2 13 1 14 3 15
REMARK H PARENT
REMARK Flexibility Score: inf
ROOT
ATOM      1  C   UNL     1     -21.043 -60.059  16.280  1.00  0.00     0.012 C 
ENDROOT
BRANCH   1   2
ATOM      2  C   UNL     1     -22.151 -59.409  15.419  1.00  0.00     0.016 C 
ATOM      3  C   UNL     1     -22.142 -57.875  15.501  1.00  0.00     0.013 C 
BRANCH   2   4
ATOM      4  C   UNL     1     -22.025 -59.862  13.975  1.00  0.00    -0.045 A 
ATOM      5  C   UNL     1     -21.602 -61.157   9.876  1.00  0.00     0.044 C 
ATOM      6  C   UNL     1     -21.777 -60.719  11.300  1.00  0.00    -0.051 A 
ATOM      7  C   UNL     1     -22.260 -59.434  11.589  1.00  0.00     0.004 A 
ATOM      8  C   UNL     1     -21.394 -61.562  12.351  1.00  0.00     0.004 A 
ATOM      9  C   UNL     1     -22.388 -59.010  12.915  1.00  0.00     0.004 A 
ATOM     10  C   UNL     1     -21.522 -61.141  13.679  1.00  0.00     0.004 A 
ENDBRANCH   2   4
ENDBRANCH   1   2
BRANCH   1  11
ATOM     11  C   UNL     1     -19.761 -59.209  16.393  1.00  0.00     0.028 C 
BRANCH  11  12
ATOM     12  C   UNL     1     -18.601 -59.812  15.636  1.00  0.00    -0.028 C 
ATOM     13  C   UNL     1     -18.169 -59.383  14.429  1.00  0.00    -0.080 C 
ATOM     14  C   UNL     1     -18.855 -58.261  13.685  1.00  0.00     0.039 C 
ATOM     15  C   UNL     1     -16.986 -60.075  13.803  1.00  0.00     0.039 C 
ENDBRANCH  11  12
ENDBRANCH   1  11
TORSDOF 4
ENDMDL
MODEL 7
REMARK VINA RESULT:    -3.612      1.496      3.414
REMARK INTER + INTRA:          -5.507
REMARK INTER:                  -3.978
REMARK INTRA:                  -1.529
REMARK UNBOUND:                -1.050
REMARK SMILES CC(C)=CCC[C@@H](C)c1ccc(C)cc1
REMARK SMILES IDX 6 1 7 2 8 3 9 4 13 5 12 6 11 7 14 8 10 9 15 10 5 11 4 12
REMARK SMILES IDX 2 13 1 14 3 15
REMARK H PARENT
REMARK Flexibility Score: inf
ROOT
ATOM      1  C   UNL     1     -20.819 -58.349  14.899  1.00  0.00     0.012 C 
ENDROOT
BRANCH   1   2
ATOM      2  C   UNL     1     -19.535 -59.200  15.039  1.00  0.00     0.016 C 
ATOM      3  C   UNL     1     -19.816 -60.616  15.564  1.00  0.00     0.013 C 
BRANCH   2   4
ATOM      4  C   UNL     1     -18.804 -59.265  13.709  1.00  0.00    -0.045 A 
ATOM      5  C   UNL     1     -16.672 -59.475   9.957  1.00  0.00     0.044 C 
ATOM      6  C   UNL     1     -17.439 -59.405  11.245  1.00  0.00    -0.051 A 
ATOM      7  C   UNL     1     -17.836 -58.164  11.764  1.00  0.00     0.004 A 
ATOM      8  C   UNL     1     -17.703 -60.572  11.975  1.00  0.00     0.004 A 
ATOM      9  C   UNL     1     -18.516 -58.094  12.983  1.00  0.00     0.004 A 
ATOM     10  C   UNL     1     -18.384 -60.504  13.194  1.00  0.00     0.004 A 
ENDBRANCH   2   4
ENDBRANCH   1   2
BRANCH   1  11
ATOM     11  C   UNL     1     -22.023 -59.124  14.326  1.00  0.00     0.028 C 
BRANCH  11  12
ATOM     12  C   UNL     1     -22.182 -58.922  12.838  1.00  0.00    -0.028 C 
ATOM     13  C   UNL     1     -22.053 -59.901  11.915  1.00  0.00    -0.080 C 
ATOM     14  C   UNL     1     -21.683 -61.316  12.293  1.00  0.00     0.039 C 
ATOM     15  C   UNL     1     -22.258 -59.550  10.464  1.00  0.00     0.039 C 
ENDBRANCH  11  12
ENDBRANCH   1  11
TORSDOF 4
ENDMDL
MODEL 8
REMARK VINA RESULT:    -3.511      1.828      4.805
REMARK INTER + INTRA:          -5.382
REMARK INTER:                  -3.868
REMARK INTRA:                  -1.514
REMARK UNBOUND:                -1.050
REMARK SMILES CC(C)=CCC[C@@H](C)c1ccc(C)cc1
REMARK SMILES IDX 6 1 7 2 8 3 9 4 13 5 12 6 11 7 14 8 10 9 15 10 5 11 4 12
REMARK SMILES IDX 2 13 1 14 3 15
REMARK H PARENT
REMARK Flexibility Score: inf
ROOT
ATOM      1  C   UNL     1     -19.733 -59.666  10.544  1.00  0.00     0.012 C 
ENDROOT
BRANCH   1   2
ATOM      2  C   UNL     1     -21.263 -59.631  10.768  1.00  0.00     0.016 C 
ATOM      3  C   UNL     1     -22.007 -60.692   9.943  1.00  0.00     0.013 C 
BRANCH   2   4
ATOM      4  C   UNL     1     -21.578 -59.793  12.245  1.00  0.00    -0.045 A 
ATOM      5  C   UNL     1     -22.540 -60.240  16.432  1.00  0.00     0.044 C 
ATOM      6  C   UNL     1     -22.183 -60.104  14.982  1.00  0.00    -0.051 A 
ATOM      7  C   UNL     1     -21.317 -59.084  14.560  1.00  0.00     0.004 A 
ATOM      8  C   UNL     1     -22.765 -60.950  14.028  1.00  0.00     0.004 A 
ATOM      9  C   UNL     1     -21.014 -58.932  13.205  1.00  0.00     0.004 A 
ATOM     10  C   UNL     1     -22.462 -60.800  12.671  1.00  0.00     0.004 A 
ENDBRANCH   2   4
ENDBRANCH   1   2
BRANCH   1  11
ATOM     11  C   UNL     1     -19.135 -61.089  10.538  1.00  0.00     0.028 C 
BRANCH  11  12
ATOM     12  C   UNL     1     -18.656 -61.517  11.905  1.00  0.00    -0.028 C 
ATOM     13  C   UNL     1     -19.105 -62.607  12.565  1.00  0.00    -0.080 C 
ATOM     14  C   UNL     1     -20.190 -63.495  12.003  1.00  0.00     0.039 C 
ATOM     15  C   UNL     1     -18.519 -62.918  13.919  1.00  0.00     0.039 C 
ENDBRANCH  11  12
ENDBRANCH   1  11
TORSDOF 4
ENDMDL
