MODEL 1
REMARK VINA RESULT:    -3.835      0.000      0.000
REMARK INTER + INTRA:          -7.939
REMARK INTER:                  -7.198
REMARK INTRA:                  -0.741
REMARK UNBOUND:                -0.741
REMARK SMILES O=C([O-])CCCCCCCCCCCCCCC(=O)[O-]
REMARK SMILES IDX 10 1 9 2 8 3 7 4 6 5 5 6 4 7 2 8 1 9 3 10 11 11 12 12 13 13
REMARK SMILES IDX 14 14 15 15 16 16 17 17 18 18 19 19 20 20
REMARK H PARENT
REMARK Flexibility Score: inf
ROOT
ATOM      1  C   UNL     1      11.131  -5.993   4.329  1.00  0.00     0.000 C 
ENDROOT
BRANCH   1   2
ATOM      2  C   UNL     1      12.561  -6.523   4.137  1.00  0.00     0.000 C 
BRANCH   2   3
ATOM      3  C   UNL     1      13.634  -5.515   4.576  1.00  0.00     0.000 C 
BRANCH   3   4
ATOM      4  C   UNL     1      14.468  -5.045   3.375  1.00  0.00     0.000 C 
BRANCH   4   5
ATOM      5  C   UNL     1      15.675  -5.957   3.098  1.00  0.00     0.000 C 
BRANCH   5   6
ATOM      6  C   UNL     1      16.502  -6.243   4.364  1.00  0.00     0.006 C 
BRANCH   6   7
ATOM      7  C   UNL     1      17.493  -7.398   4.159  1.00  0.00     0.053 C 
BRANCH   7   8
ATOM      8  C   UNL     1      17.518  -8.322   5.338  1.00  0.00     0.041 C 
ATOM      9  O   UNL     1      17.579  -7.855   6.507  1.00  0.00    -0.550 OA
ATOM     10  O   UNL     1      17.503  -9.697   5.146  1.00  0.00    -0.550 OA
ENDBRANCH   7   8
ENDBRANCH   6   7
ENDBRANCH   5   6
ENDBRANCH   4   5
ENDBRANCH   3   4
ENDBRANCH   2   3
ENDBRANCH   1   2
BRANCH   1  11
ATOM     11  C   UNL     1      10.611  -5.231   3.101  1.00  0.00     0.000 C 
BRANCH  11  12
ATOM     12  C   UNL     1       9.096  -4.994   3.198  1.00  0.00     0.000 C 
BRANCH  12  13
ATOM     13  C   UNL     1       8.458  -5.773   4.361  1.00  0.00     0.000 C 
BRANCH  13  14
ATOM     14  C   UNL     1       7.353  -6.731   3.883  1.00  0.00     0.000 C 
BRANCH  14  15
ATOM     15  C   UNL     1       5.968  -6.351   4.436  1.00  0.00     0.000 C 
BRANCH  15  16
ATOM     16  C   UNL     1       5.877  -6.546   5.961  1.00  0.00     0.006 C 
BRANCH  16  17
ATOM     17  C   UNL     1       6.036  -8.017   6.369  1.00  0.00     0.053 C 
BRANCH  17  18
ATOM     18  C   UNL     1       4.711  -8.698   6.531  1.00  0.00     0.041 C 
ATOM     19  O   UNL     1       4.351  -9.121   7.662  1.00  0.00    -0.550 OA
ATOM     20  O   UNL     1       3.878  -8.874   5.434  1.00  0.00    -0.550 OA
ENDBRANCH  17  18
ENDBRANCH  16  17
ENDBRANCH  15  16
ENDBRANCH  14  15
ENDBRANCH  13  14
ENDBRANCH  12  13
ENDBRANCH  11  12
ENDBRANCH   1  11
TORSDOF 15
ENDMDL
MODEL 2
REMARK VINA RESULT:    -3.441      2.507      4.353
REMARK INTER + INTRA:          -7.200
REMARK INTER:                  -6.110
REMARK INTRA:                  -1.089
REMARK UNBOUND:                -0.741
REMARK SMILES O=C([O-])CCCCCCCCCCCCCCC(=O)[O-]
REMARK SMILES IDX 10 1 9 2 8 3 7 4 6 5 5 6 4 7 2 8 1 9 3 10 11 11 12 12 13 13
REMARK SMILES IDX 14 14 15 15 16 16 17 17 18 18 19 19 20 20
REMARK H PARENT
REMARK Flexibility Score: inf
ROOT
ATOM      1  C   UNL     1       7.837  -6.350   4.729  1.00  0.00     0.000 C 
ENDROOT
BRANCH   1   2
ATOM      2  C   UNL     1       7.952  -5.545   3.424  1.00  0.00     0.000 C 
BRANCH   2   3
ATOM      3  C   UNL     1       9.386  -5.503   2.875  1.00  0.00     0.000 C 
BRANCH   3   4
ATOM      4  C   UNL     1      10.411  -5.681   4.005  1.00  0.00     0.000 C 
BRANCH   4   5
ATOM      5  C   UNL     1      11.743  -6.268   3.510  1.00  0.00     0.000 C 
BRANCH   5   6
ATOM      6  C   UNL     1      12.846  -5.202   3.379  1.00  0.00     0.006 C 
BRANCH   6   7
ATOM      7  C   UNL     1      13.878  -5.295   4.513  1.00  0.00     0.053 C 
BRANCH   7   8
ATOM      8  C   UNL     1      15.143  -5.954   4.057  1.00  0.00     0.041 C 
ATOM      9  O   UNL     1      15.118  -7.131   3.608  1.00  0.00    -0.550 OA
ATOM     10  O   UNL     1      16.354  -5.280   4.154  1.00  0.00    -0.550 OA
ENDBRANCH   7   8
ENDBRANCH   6   7
ENDBRANCH   5   6
ENDBRANCH   4   5
ENDBRANCH   3   4
ENDBRANCH   2   3
ENDBRANCH   1   2
BRANCH   1  11
ATOM     11  C   UNL     1       6.672  -7.351   4.708  1.00  0.00     0.000 C 
BRANCH  11  12
ATOM     12  C   UNL     1       6.116  -7.583   6.122  1.00  0.00     0.000 C 
BRANCH  12  13
ATOM     13  C   UNL     1       4.815  -8.402   6.110  1.00  0.00     0.000 C 
BRANCH  13  14
ATOM     14  C   UNL     1       4.332  -8.706   4.681  1.00  0.00     0.000 C 
BRANCH  14  15
ATOM     15  C   UNL     1       3.031  -7.964   4.331  1.00  0.00     0.000 C 
BRANCH  15  16
ATOM     16  C   UNL     1       3.277  -6.769   3.391  1.00  0.00     0.006 C 
BRANCH  16  17
ATOM     17  C   UNL     1       2.795  -5.443   3.998  1.00  0.00     0.053 C 
BRANCH  17  18
ATOM     18  C   UNL     1       3.940  -4.574   4.420  1.00  0.00     0.041 C 
ATOM     19  O   UNL     1       4.066  -4.235   5.627  1.00  0.00    -0.550 OA
ATOM     20  O   UNL     1       4.861  -4.128   3.481  1.00  0.00    -0.550 OA
ENDBRANCH  17  18
ENDBRANCH  16  17
ENDBRANCH  15  16
ENDBRANCH  14  15
ENDBRANCH  13  14
ENDBRANCH  12  13
ENDBRANCH  11  12
ENDBRANCH   1  11
TORSDOF 15
ENDMDL
MODEL 3
REMARK VINA RESULT:    -3.405      1.781      9.495
REMARK INTER + INTRA:          -7.132
REMARK INTER:                  -6.034
REMARK INTRA:                  -1.098
REMARK UNBOUND:                -0.741
REMARK SMILES O=C([O-])CCCCCCCCCCCCCCC(=O)[O-]
REMARK SMILES IDX 10 1 9 2 8 3 7 4 6 5 5 6 4 7 2 8 1 9 3 10 11 11 12 12 13 13
REMARK SMILES IDX 14 14 15 15 16 16 17 17 18 18 19 19 20 20
REMARK H PARENT
REMARK Flexibility Score: inf
ROOT
ATOM      1  C   UNL     1      12.332  -6.568   4.647  1.00  0.00     0.000 C 
ENDROOT
BRANCH   1   2
ATOM      2  C   UNL     1      10.837  -6.214   4.633  1.00  0.00     0.000 C 
BRANCH   2   3
ATOM      3  C   UNL     1      10.435  -5.368   3.415  1.00  0.00     0.000 C 
BRANCH   3   4
ATOM      4  C   UNL     1       8.926  -5.082   3.420  1.00  0.00     0.000 C 
BRANCH   4   5
ATOM      5  C   UNL     1       8.079  -6.364   3.451  1.00  0.00     0.000 C 
BRANCH   5   6
ATOM      6  C   UNL     1       6.836  -6.230   4.349  1.00  0.00     0.006 C 
BRANCH   6   7
ATOM      7  C   UNL     1       6.507  -7.538   5.082  1.00  0.00     0.053 C 
BRANCH   7   8
ATOM      8  C   UNL     1       5.761  -7.286   6.356  1.00  0.00     0.041 C 
ATOM      9  O   UNL     1       5.492  -6.108   6.710  1.00  0.00    -0.550 OA
ATOM     10  O   UNL     1       5.388  -8.351   7.167  1.00  0.00    -0.550 OA
ENDBRANCH   7   8
ENDBRANCH   6   7
ENDBRANCH   5   6
ENDBRANCH   4   5
ENDBRANCH   3   4
ENDBRANCH   2   3
ENDBRANCH   1   2
BRANCH   1  11
ATOM     11  C   UNL     1      13.052  -6.153   3.355  1.00  0.00     0.000 C 
BRANCH  11  12
ATOM     12  C   UNL     1      14.008  -7.256   2.875  1.00  0.00     0.000 C 
BRANCH  12  13
ATOM     13  C   UNL     1      13.623  -8.640   3.426  1.00  0.00     0.000 C 
BRANCH  13  14
ATOM     14  C   UNL     1      14.671  -9.714   3.084  1.00  0.00     0.000 C 
BRANCH  14  15
ATOM     15  C   UNL     1      15.626  -9.994   4.257  1.00  0.00     0.000 C 
BRANCH  15  16
ATOM     16  C   UNL     1      17.103  -9.798   3.864  1.00  0.00     0.006 C 
BRANCH  16  17
ATOM     17  C   UNL     1      17.469  -8.315   3.706  1.00  0.00     0.053 C 
BRANCH  17  18
ATOM     18  C   UNL     1      17.351  -7.571   5.002  1.00  0.00     0.041 C 
ATOM     19  O   UNL     1      17.806  -8.074   6.063  1.00  0.00    -0.550 OA
ATOM     20  O   UNL     1      16.730  -6.330   5.040  1.00  0.00    -0.550 OA
ENDBRANCH  17  18
ENDBRANCH  16  17
ENDBRANCH  15  16
ENDBRANCH  14  15
ENDBRANCH  13  14
ENDBRANCH  12  13
ENDBRANCH  11  12
ENDBRANCH   1  11
TORSDOF 15
ENDMDL
MODEL 4
REMARK VINA RESULT:    -3.391      1.583      2.268
REMARK INTER + INTRA:          -7.105
REMARK INTER:                  -6.136
REMARK INTRA:                  -0.969
REMARK UNBOUND:                -0.741
REMARK SMILES O=C([O-])CCCCCCCCCCCCCCC(=O)[O-]
REMARK SMILES IDX 10 1 9 2 8 3 7 4 6 5 5 6 4 7 2 8 1 9 3 10 11 11 12 12 13 13
REMARK SMILES IDX 14 14 15 15 16 16 17 17 18 18 19 19 20 20
REMARK H PARENT
REMARK Flexibility Score: inf
ROOT
ATOM      1  C   UNL     1       9.725  -5.955   4.501  1.00  0.00     0.000 C 
ENDROOT
BRANCH   1   2
ATOM      2  C   UNL     1      11.030  -5.611   3.766  1.00  0.00     0.000 C 
BRANCH   2   3
ATOM      3  C   UNL     1      11.557  -6.774   2.912  1.00  0.00     0.000 C 
BRANCH   3   4
ATOM      4  C   UNL     1      12.710  -7.498   3.624  1.00  0.00     0.000 C 
BRANCH   4   5
ATOM      5  C   UNL     1      14.047  -7.363   2.877  1.00  0.00     0.000 C 
BRANCH   5   6
ATOM      6  C   UNL     1      14.613  -5.932   2.934  1.00  0.00     0.006 C 
BRANCH   6   7
ATOM      7  C   UNL     1      14.847  -5.459   4.376  1.00  0.00     0.053 C 
BRANCH   7   8
ATOM      8  C   UNL     1      16.270  -5.657   4.800  1.00  0.00     0.041 C 
ATOM      9  O   UNL     1      16.570  -5.669   6.023  1.00  0.00    -0.550 OA
ATOM     10  O   UNL     1      17.268  -5.798   3.844  1.00  0.00    -0.550 OA
ENDBRANCH   7   8
ENDBRANCH   6   7
ENDBRANCH   5   6
ENDBRANCH   4   5
ENDBRANCH   3   4
ENDBRANCH   2   3
ENDBRANCH   1   2
BRANCH   1  11
ATOM     11  C   UNL     1       8.473  -5.598   3.686  1.00  0.00     0.000 C 
BRANCH  11  12
ATOM     12  C   UNL     1       7.829  -6.856   3.082  1.00  0.00     0.000 C 
BRANCH  12  13
ATOM     13  C   UNL     1       6.300  -6.863   3.242  1.00  0.00     0.000 C 
BRANCH  13  14
ATOM     14  C   UNL     1       5.803  -5.712   4.134  1.00  0.00     0.000 C 
BRANCH  14  15
ATOM     15  C   UNL     1       5.247  -6.210   5.479  1.00  0.00     0.000 C 
BRANCH  15  16
ATOM     16  C   UNL     1       6.087  -7.360   6.065  1.00  0.00     0.006 C 
BRANCH  16  17
ATOM     17  C   UNL     1       5.300  -8.189   7.091  1.00  0.00     0.053 C 
BRANCH  17  18
ATOM     18  C   UNL     1       4.230  -9.012   6.439  1.00  0.00     0.041 C 
ATOM     19  O   UNL     1       3.277  -9.468   7.125  1.00  0.00    -0.550 OA
ATOM     20  O   UNL     1       4.289  -9.283   5.078  1.00  0.00    -0.550 OA
ENDBRANCH  17  18
ENDBRANCH  16  17
ENDBRANCH  15  16
ENDBRANCH  14  15
ENDBRANCH  13  14
ENDBRANCH  12  13
ENDBRANCH  11  12
ENDBRANCH   1  11
TORSDOF 15
ENDMDL
MODEL 5
REMARK VINA RESULT:    -3.346      1.950      2.414
REMARK INTER + INTRA:          -7.022
REMARK INTER:                  -6.095
REMARK INTRA:                  -0.927
REMARK UNBOUND:                -0.741
REMARK SMILES O=C([O-])CCCCCCCCCCCCCCC(=O)[O-]
REMARK SMILES IDX 10 1 9 2 8 3 7 4 6 5 5 6 4 7 2 8 1 9 3 10 11 11 12 12 13 13
REMARK SMILES IDX 14 14 15 15 16 16 17 17 18 18 19 19 20 20
REMARK H PARENT
REMARK Flexibility Score: inf
ROOT
ATOM      1  C   UNL     1      11.676  -6.428   3.200  1.00  0.00     0.000 C 
ENDROOT
BRANCH   1   2
ATOM      2  C   UNL     1      12.906  -5.564   2.875  1.00  0.00     0.000 C 
BRANCH   2   3
ATOM      3  C   UNL     1      13.512  -4.898   4.120  1.00  0.00     0.000 C 
BRANCH   3   4
ATOM      4  C   UNL     1      14.858  -5.541   4.484  1.00  0.00     0.000 C 
BRANCH   4   5
ATOM      5  C   UNL     1      15.902  -5.407   3.363  1.00  0.00     0.000 C 
BRANCH   5   6
ATOM      6  C   UNL     1      16.454  -6.769   2.904  1.00  0.00     0.006 C 
BRANCH   6   7
ATOM      7  C   UNL     1      17.677  -7.204   3.724  1.00  0.00     0.053 C 
BRANCH   7   8
ATOM      8  C   UNL     1      17.327  -8.268   4.719  1.00  0.00     0.041 C 
ATOM      9  O   UNL     1      16.622  -9.253   4.371  1.00  0.00    -0.550 OA
ATOM     10  O   UNL     1      17.754  -8.158   6.036  1.00  0.00    -0.550 OA
ENDBRANCH   7   8
ENDBRANCH   6   7
ENDBRANCH   5   6
ENDBRANCH   4   5
ENDBRANCH   3   4
ENDBRANCH   2   3
ENDBRANCH   1   2
BRANCH   1  11
ATOM     11  C   UNL     1      10.592  -5.653   3.963  1.00  0.00     0.000 C 
BRANCH  11  12
ATOM     12  C   UNL     1       9.593  -5.000   2.994  1.00  0.00     0.000 C 
BRANCH  12  13
ATOM     13  C   UNL     1       8.150  -5.469   3.242  1.00  0.00     0.000 C 
BRANCH  13  14
ATOM     14  C   UNL     1       7.968  -6.079   4.643  1.00  0.00     0.000 C 
BRANCH  14  15
ATOM     15  C   UNL     1       6.847  -7.131   4.684  1.00  0.00     0.000 C 
BRANCH  15  16
ATOM     16  C   UNL     1       5.710  -6.733   5.644  1.00  0.00     0.006 C 
BRANCH  16  17
ATOM     17  C   UNL     1       4.444  -6.293   4.894  1.00  0.00     0.053 C 
BRANCH  17  18
ATOM     18  C   UNL     1       4.404  -4.809   4.692  1.00  0.00     0.041 C 
ATOM     19  O   UNL     1       4.812  -4.306   3.612  1.00  0.00    -0.550 OA
ATOM     20  O   UNL     1       3.925  -3.981   5.699  1.00  0.00    -0.550 OA
ENDBRANCH  17  18
ENDBRANCH  16  17
ENDBRANCH  15  16
ENDBRANCH  14  15
ENDBRANCH  13  14
ENDBRANCH  12  13
ENDBRANCH  11  12
ENDBRANCH   1  11
TORSDOF 15
ENDMDL
MODEL 6
REMARK VINA RESULT:    -3.338      1.643      2.204
REMARK INTER + INTRA:          -7.006
REMARK INTER:                  -5.985
REMARK INTRA:                  -1.022
REMARK UNBOUND:                -0.741
REMARK SMILES O=C([O-])CCCCCCCCCCCCCCC(=O)[O-]
REMARK SMILES IDX 10 1 9 2 8 3 7 4 6 5 5 6 4 7 2 8 1 9 3 10 11 11 12 12 13 13
REMARK SMILES IDX 14 14 15 15 16 16 17 17 18 18 19 19 20 20
REMARK H PARENT
REMARK Flexibility Score: inf
ROOT
ATOM      1  C   UNL     1      12.864  -5.664   3.858  1.00  0.00     0.000 C 
ENDROOT
BRANCH   1   2
ATOM      2  C   UNL     1      12.773  -7.191   4.010  1.00  0.00     0.000 C 
BRANCH   2   3
ATOM      3  C   UNL     1      13.794  -7.938   3.139  1.00  0.00     0.000 C 
BRANCH   3   4
ATOM      4  C   UNL     1      15.166  -7.248   3.189  1.00  0.00     0.000 C 
BRANCH   4   5
ATOM      5  C   UNL     1      16.254  -8.137   3.812  1.00  0.00     0.000 C 
BRANCH   5   6
ATOM      6  C   UNL     1      17.169  -7.362   4.778  1.00  0.00     0.006 C 
BRANCH   6   7
ATOM      7  C   UNL     1      16.985  -5.843   4.655  1.00  0.00     0.053 C 
BRANCH   7   8
ATOM      8  C   UNL     1      16.512  -5.237   5.940  1.00  0.00     0.041 C 
ATOM      9  O   UNL     1      15.317  -5.391   6.311  1.00  0.00    -0.550 OA
ATOM     10  O   UNL     1      17.380  -4.479   6.715  1.00  0.00    -0.550 OA
ENDBRANCH   7   8
ENDBRANCH   6   7
ENDBRANCH   5   6
ENDBRANCH   4   5
ENDBRANCH   3   4
ENDBRANCH   2   3
ENDBRANCH   1   2
BRANCH   1  11
ATOM     11  C   UNL     1      11.800  -5.098   2.906  1.00  0.00     0.000 C 
BRANCH  11  12
ATOM     12  C   UNL     1      10.488  -5.892   3.008  1.00  0.00     0.000 C 
BRANCH  12  13
ATOM     13  C   UNL     1       9.356  -5.069   3.644  1.00  0.00     0.000 C 
BRANCH  13  14
ATOM     14  C   UNL     1       8.319  -5.956   4.354  1.00  0.00     0.000 C 
BRANCH  14  15
ATOM     15  C   UNL     1       7.324  -6.596   3.371  1.00  0.00     0.000 C 
BRANCH  15  16
ATOM     16  C   UNL     1       6.061  -7.121   4.080  1.00  0.00     0.006 C 
BRANCH  16  17
ATOM     17  C   UNL     1       6.388  -7.807   5.414  1.00  0.00     0.053 C 
BRANCH  17  18
ATOM     18  C   UNL     1       5.148  -8.250   6.131  1.00  0.00     0.041 C 
ATOM     19  O   UNL     1       5.182  -8.480   7.369  1.00  0.00    -0.550 OA
ATOM     20  O   UNL     1       3.960  -8.419   5.431  1.00  0.00    -0.550 OA
ENDBRANCH  17  18
ENDBRANCH  16  17
ENDBRANCH  15  16
ENDBRANCH  14  15
ENDBRANCH  13  14
ENDBRANCH  12  13
ENDBRANCH  11  12
ENDBRANCH   1  11
TORSDOF 15
ENDMDL
MODEL 7
REMARK VINA RESULT:    -3.287      1.149      9.892
REMARK INTER + INTRA:          -6.911
REMARK INTER:                  -6.340
REMARK INTRA:                  -0.571
REMARK UNBOUND:                -0.741
REMARK SMILES O=C([O-])CCCCCCCCCCCCCCC(=O)[O-]
REMARK SMILES IDX 10 1 9 2 8 3 7 4 6 5 5 6 4 7 2 8 1 9 3 10 11 11 12 12 13 13
REMARK SMILES IDX 14 14 15 15 16 16 17 17 18 18 19 19 20 20
REMARK H PARENT
REMARK Flexibility Score: inf
ROOT
ATOM      1  C   UNL     1       9.313  -4.690   3.101  1.00  0.00     0.000 C 
ENDROOT
BRANCH   1   2
ATOM      2  C   UNL     1       7.904  -5.286   2.949  1.00  0.00     0.000 C 
BRANCH   2   3
ATOM      3  C   UNL     1       7.591  -6.355   4.007  1.00  0.00     0.000 C 
BRANCH   3   4
ATOM      4  C   UNL     1       6.288  -7.094   3.670  1.00  0.00     0.000 C 
BRANCH   4   5
ATOM      5  C   UNL     1       6.507  -8.594   3.413  1.00  0.00     0.000 C 
BRANCH   5   6
ATOM      6  C   UNL     1       6.135  -9.462   4.629  1.00  0.00     0.006 C 
BRANCH   6   7
ATOM      7  C   UNL     1       5.922  -8.622   5.896  1.00  0.00     0.053 C 
BRANCH   7   8
ATOM      8  C   UNL     1       4.587  -8.891   6.521  1.00  0.00     0.041 C 
ATOM      9  O   UNL     1       3.555  -8.968   5.801  1.00  0.00    -0.550 OA
ATOM     10  O   UNL     1       4.477  -9.028   7.899  1.00  0.00    -0.550 OA
ENDBRANCH   7   8
ENDBRANCH   6   7
ENDBRANCH   5   6
ENDBRANCH   4   5
ENDBRANCH   3   4
ENDBRANCH   2   3
ENDBRANCH   1   2
BRANCH   1  11
ATOM     11  C   UNL     1      10.252  -5.591   3.917  1.00  0.00     0.000 C 
BRANCH  11  12
ATOM     12  C   UNL     1      11.646  -5.664   3.273  1.00  0.00     0.000 C 
BRANCH  12  13
ATOM     13  C   UNL     1      12.762  -5.836   4.317  1.00  0.00     0.000 C 
BRANCH  13  14
ATOM     14  C   UNL     1      14.075  -6.333   3.688  1.00  0.00     0.000 C 
BRANCH  14  15
ATOM     15  C   UNL     1      14.993  -5.177   3.257  1.00  0.00     0.000 C 
BRANCH  15  16
ATOM     16  C   UNL     1      16.465  -5.432   3.632  1.00  0.00     0.006 C 
BRANCH  16  17
ATOM     17  C   UNL     1      16.602  -6.220   4.942  1.00  0.00     0.053 C 
BRANCH  17  18
ATOM     18  C   UNL     1      17.270  -7.545   4.728  1.00  0.00     0.041 C 
ATOM     19  O   UNL     1      17.870  -8.112   5.680  1.00  0.00    -0.550 OA
ATOM     20  O   UNL     1      17.240  -8.147   3.477  1.00  0.00    -0.550 OA
ENDBRANCH  17  18
ENDBRANCH  16  17
ENDBRANCH  15  16
ENDBRANCH  14  15
ENDBRANCH  13  14
ENDBRANCH  12  13
ENDBRANCH  11  12
ENDBRANCH   1  11
TORSDOF 15
ENDMDL
MODEL 8
REMARK VINA RESULT:    -3.020      2.906      5.362
REMARK INTER + INTRA:          -6.409
REMARK INTER:                  -5.613
REMARK INTRA:                  -0.797
REMARK UNBOUND:                -0.741
REMARK SMILES O=C([O-])CCCCCCCCCCCCCCC(=O)[O-]
REMARK SMILES IDX 10 1 9 2 8 3 7 4 6 5 5 6 4 7 2 8 1 9 3 10 11 11 12 12 13 13
REMARK SMILES IDX 14 14 15 15 16 16 17 17 18 18 19 19 20 20
REMARK H PARENT
REMARK Flexibility Score: inf
ROOT
ATOM      1  C   UNL     1       5.087  -5.157   4.293  1.00  0.00     0.000 C 
ENDROOT
BRANCH   1   2
ATOM      2  C   UNL     1       5.768  -5.043   2.919  1.00  0.00     0.000 C 
BRANCH   2   3
ATOM      3  C   UNL     1       7.228  -5.519   2.936  1.00  0.00     0.000 C 
BRANCH   3   4
ATOM      4  C   UNL     1       8.181  -4.353   3.235  1.00  0.00     0.000 C 
BRANCH   4   5
ATOM      5  C   UNL     1       9.641  -4.673   2.875  1.00  0.00     0.000 C 
BRANCH   5   6
ATOM      6  C   UNL     1      10.081  -6.062   3.371  1.00  0.00     0.006 C 
BRANCH   6   7
ATOM      7  C   UNL     1      11.206  -5.975   4.413  1.00  0.00     0.053 C 
BRANCH   7   8
ATOM      8  C   UNL     1      12.557  -6.119   3.782  1.00  0.00     0.041 C 
ATOM      9  O   UNL     1      13.093  -7.255   3.685  1.00  0.00    -0.550 OA
ATOM     10  O   UNL     1      13.237  -4.996   3.328  1.00  0.00    -0.550 OA
ENDBRANCH   7   8
ENDBRANCH   6   7
ENDBRANCH   5   6
ENDBRANCH   4   5
ENDBRANCH   3   4
ENDBRANCH   2   3
ENDBRANCH   1   2
BRANCH   1  11
ATOM     11  C   UNL     1       3.690  -4.519   4.317  1.00  0.00     0.000 C 
BRANCH  11  12
ATOM     12  C   UNL     1       2.608  -5.544   3.941  1.00  0.00     0.000 C 
BRANCH  12  13
ATOM     13  C   UNL     1       3.151  -6.654   3.025  1.00  0.00     0.000 C 
BRANCH  13  14
ATOM     14  C   UNL     1       2.651  -8.048   3.442  1.00  0.00     0.000 C 
BRANCH  14  15
ATOM     15  C   UNL     1       3.453  -8.630   4.619  1.00  0.00     0.000 C 
BRANCH  15  16
ATOM     16  C   UNL     1       4.965  -8.678   4.326  1.00  0.00     0.006 C 
BRANCH  16  17
ATOM     17  C   UNL     1       5.783  -9.077   5.562  1.00  0.00     0.053 C 
BRANCH  17  18
ATOM     18  C   UNL     1       5.318  -8.362   6.794  1.00  0.00     0.041 C 
ATOM     19  O   UNL     1       4.726  -8.995   7.707  1.00  0.00    -0.550 OA
ATOM     20  O   UNL     1       5.527  -6.995   6.928  1.00  0.00    -0.550 OA
ENDBRANCH  17  18
ENDBRANCH  16  17
ENDBRANCH  15  16
ENDBRANCH  14  15
ENDBRANCH  13  14
ENDBRANCH  12  13
ENDBRANCH  11  12
ENDBRANCH   1  11
TORSDOF 15
ENDMDL
