MODEL 1
REMARK VINA RESULT:    -4.505      0.000      0.000
REMARK INTER + INTRA:          -7.086
REMARK INTER:                  -6.876
REMARK INTRA:                  -0.211
REMARK UNBOUND:                -0.211
REMARK SMILES CC1=CCC[C@@H](C)C(=O)C[C@H](C(C)C)C(=O)C1
REMARK SMILES IDX 8 1 9 2 6 3 7 4 5 5 4 6 3 7 2 8 1 9 10 11 11 12 15 13 16 14
REMARK SMILES IDX 17 15 12 17 13 18 14 19
REMARK H PARENT
REMARK Flexibility Score: 70.00
ROOT
ATOM      1  C   UNL     1      28.738  53.631  11.291  1.00  0.00     0.136 C 
ATOM      2  O   UNL     1      29.886  54.020  11.123  1.00  0.00    -0.299 OA
ENDROOT
BRANCH   1   3
ATOM      3  C   UNL     1      28.339  52.247  10.816  1.00  0.00     0.053 C 
ATOM      4  C   UNL     1      29.585  51.387  10.559  1.00  0.00     0.016 C 
BRANCH   3   5
ATOM      5  C   UNL     1      27.465  52.349   9.547  1.00  0.00     0.015 C 
BRANCH   5   6
ATOM      6  C   UNL     1      25.997  51.963   9.818  1.00  0.00     0.028 C 
BRANCH   6   7
ATOM      7  C   UNL     1      25.045  52.891   9.110  1.00  0.00    -0.028 C 
ATOM      8  C   UNL     1      24.565  54.050   9.617  1.00  0.00    -0.070 CG0
ATOM      9  C   UNL     1      23.666  54.886   8.741  1.00  0.00     0.039 C 
ATOM     10  G   UNL     1      24.896  54.552  11.014  1.00  0.00     0.000 G0
ENDBRANCH   6   7
ENDBRANCH   5   6
ENDBRANCH   3   5
ENDBRANCH   1   3
BRANCH   1  11
ATOM     11  C   UNL     1      27.743  54.544  11.970  1.00  0.00     0.087 C 
BRANCH  11  12
ATOM     12  C   UNL     1      27.302  55.720  11.062  1.00  0.00     0.066 C 
BRANCH  12  13
ATOM     13  C   UNL     1      25.782  55.807  10.984  1.00  0.00     0.140 C 
ATOM     14  O   UNL     1      25.258  56.911  10.944  1.00  0.00    -0.299 OA
BRANCH  13  15
ATOM     15  C   UNL     1      24.905  54.575  11.028  1.00  0.00     0.106 CG0
ATOM     16  G   UNL     1      24.581  54.050   9.638  1.00  0.00     0.000 G0
ENDBRANCH  13  15
ENDBRANCH  12  13
BRANCH  12  17
ATOM     17  C   UNL     1      27.934  57.087  11.482  1.00  0.00    -0.006 C 
ATOM     18  C   UNL     1      29.307  57.290  10.814  1.00  0.00     0.008 C 
ATOM     19  C   UNL     1      28.103  57.211  13.007  1.00  0.00     0.008 C 
ENDBRANCH  12  17
ENDBRANCH  11  12
ENDBRANCH   1  11
TORSDOF 1
ENDMDL
MODEL 2
REMARK VINA RESULT:    -4.434      2.133      5.404
REMARK INTER + INTRA:          -6.978
REMARK INTER:                  -6.711
REMARK INTRA:                  -0.267
REMARK UNBOUND:                -0.211
REMARK SMILES CC1=CCC[C@@H](C)C(=O)C[C@H](C(C)C)C(=O)C1
REMARK SMILES IDX 8 1 9 2 6 3 7 4 5 5 4 6 3 7 2 8 1 9 10 11 11 12 15 13 16 14
REMARK SMILES IDX 17 15 12 17 13 18 14 19
REMARK H PARENT
REMARK Flexibility Score: 70.00
ROOT
ATOM      1  C   UNL     1      26.080  55.710  10.937  1.00  0.00     0.136 C 
ATOM      2  O   UNL     1      25.510  56.339  10.055  1.00  0.00    -0.299 OA
ENDROOT
BRANCH   1   3
ATOM      3  C   UNL     1      26.994  56.437  11.904  1.00  0.00     0.053 C 
ATOM      4  C   UNL     1      26.199  57.460  12.729  1.00  0.00     0.016 C 
BRANCH   3   5
ATOM      5  C   UNL     1      28.148  57.120  11.138  1.00  0.00     0.015 C 
BRANCH   5   6
ATOM      6  C   UNL     1      29.374  56.196  10.987  1.00  0.00     0.028 C 
BRANCH   6   7
ATOM      7  C   UNL     1      29.605  55.381  12.231  1.00  0.00    -0.028 C 
ATOM      8  C   UNL     1      29.619  54.028  12.285  1.00  0.00    -0.070 CG0
ATOM      9  C   UNL     1      29.926  53.377  13.610  1.00  0.00     0.039 C 
ATOM     10  G   UNL     1      29.352  53.141  11.078  1.00  0.00     0.000 G0
ENDBRANCH   6   7
ENDBRANCH   5   6
ENDBRANCH   3   5
ENDBRANCH   1   3
BRANCH   1  11
ATOM     11  C   UNL     1      25.858  54.219  11.039  1.00  0.00     0.087 C 
BRANCH  11  12
ATOM     12  C   UNL     1      26.854  53.410  10.168  1.00  0.00     0.066 C 
BRANCH  12  13
ATOM     13  C   UNL     1      27.880  52.693  11.038  1.00  0.00     0.140 C 
ATOM     14  O   UNL     1      27.504  51.781  11.760  1.00  0.00    -0.299 OA
BRANCH  13  15
ATOM     15  C   UNL     1      29.329  53.124  11.088  1.00  0.00     0.106 CG0
ATOM     16  G   UNL     1      29.621  54.021  12.281  1.00  0.00     0.000 G0
ENDBRANCH  13  15
ENDBRANCH  12  13
BRANCH  12  17
ATOM     17  C   UNL     1      26.144  52.422   9.185  1.00  0.00    -0.006 C 
ATOM     18  C   UNL     1      27.167  51.720   8.273  1.00  0.00     0.008 C 
ATOM     19  C   UNL     1      25.096  53.125   8.304  1.00  0.00     0.008 C 
ENDBRANCH  12  17
ENDBRANCH  11  12
ENDBRANCH   1  11
TORSDOF 1
ENDMDL
MODEL 3
REMARK VINA RESULT:    -4.405      6.385      7.581
REMARK INTER + INTRA:          -6.933
REMARK INTER:                  -6.726
REMARK INTRA:                  -0.207
REMARK UNBOUND:                -0.211
REMARK SMILES CC1=CCC[C@@H](C)C(=O)C[C@H](C(C)C)C(=O)C1
REMARK SMILES IDX 8 1 9 2 6 3 7 4 5 5 4 6 3 7 2 8 1 9 10 11 11 12 15 13 16 14
REMARK SMILES IDX 17 15 12 17 13 18 14 19
REMARK H PARENT
REMARK Flexibility Score: 70.00
ROOT
ATOM      1  C   UNL     1      25.626  50.278  16.871  1.00  0.00     0.136 C 
ATOM      2  O   UNL     1      25.068  49.538  17.672  1.00  0.00    -0.299 OA
ENDROOT
BRANCH   1   3
ATOM      3  C   UNL     1      26.602  49.695  15.868  1.00  0.00     0.053 C 
ATOM      4  C   UNL     1      25.889  48.703  14.938  1.00  0.00     0.016 C 
BRANCH   3   5
ATOM      5  C   UNL     1      27.781  49.017  16.601  1.00  0.00     0.015 C 
BRANCH   5   6
ATOM      6  C   UNL     1      28.985  49.966  16.769  1.00  0.00     0.028 C 
BRANCH   6   7
ATOM      7  C   UNL     1      29.200  50.805  15.537  1.00  0.00    -0.028 C 
ATOM      8  C   UNL     1      29.138  52.156  15.495  1.00  0.00    -0.070 CG0
ATOM      9  C   UNL     1      29.441  52.837  14.184  1.00  0.00     0.039 C 
ATOM     10  G   UNL     1      28.792  53.015  16.702  1.00  0.00     0.000 G0
ENDBRANCH   6   7
ENDBRANCH   5   6
ENDBRANCH   3   5
ENDBRANCH   1   3
BRANCH   1  11
ATOM     11  C   UNL     1      25.326  51.759  16.904  1.00  0.00     0.087 C 
BRANCH  11  12
ATOM     12  C   UNL     1      26.376  52.559  17.716  1.00  0.00     0.066 C 
BRANCH  12  13
ATOM     13  C   UNL     1      27.306  53.334  16.789  1.00  0.00     0.140 C 
ATOM     14  O   UNL     1      26.827  54.182  16.051  1.00  0.00    -0.299 OA
BRANCH  13  15
ATOM     15  C   UNL     1      28.786  53.033  16.704  1.00  0.00     0.106 CG0
ATOM     16  G   UNL     1      29.128  52.158  15.508  1.00  0.00     0.000 G0
ENDBRANCH  13  15
ENDBRANCH  12  13
BRANCH  12  17
ATOM     17  C   UNL     1      25.735  53.490  18.795  1.00  0.00    -0.006 C 
ATOM     18  C   UNL     1      26.795  54.406  19.437  1.00  0.00     0.008 C 
ATOM     19  C   UNL     1      25.027  52.698  19.909  1.00  0.00     0.008 C 
ENDBRANCH  12  17
ENDBRANCH  11  12
ENDBRANCH   1  11
TORSDOF 1
ENDMDL
MODEL 4
REMARK VINA RESULT:    -4.287      6.166      6.944
REMARK INTER + INTRA:          -6.753
REMARK INTER:                  -6.484
REMARK INTRA:                  -0.269
REMARK UNBOUND:                -0.211
REMARK SMILES CC1=CCC[C@@H](C)C(=O)C[C@H](C(C)C)C(=O)C1
REMARK SMILES IDX 8 1 9 2 6 3 7 4 5 5 4 6 3 7 2 8 1 9 10 11 11 12 15 13 16 14
REMARK SMILES IDX 17 15 12 17 13 18 14 19
REMARK H PARENT
REMARK Flexibility Score: 70.00
ROOT
ATOM      1  C   UNL     1      28.895  50.706  15.979  1.00  0.00     0.136 C 
ATOM      2  O   UNL     1      29.548  50.909  14.963  1.00  0.00    -0.299 OA
ENDROOT
BRANCH   1   3
ATOM      3  C   UNL     1      28.370  49.313  16.266  1.00  0.00     0.053 C 
ATOM      4  C   UNL     1      29.521  48.296  16.279  1.00  0.00     0.016 C 
BRANCH   3   5
ATOM      5  C   UNL     1      27.297  48.922  15.226  1.00  0.00     0.015 C 
BRANCH   5   6
ATOM      6  C   UNL     1      25.950  49.626  15.485  1.00  0.00     0.028 C 
BRANCH   6   7
ATOM      7  C   UNL     1      25.596  49.615  16.949  1.00  0.00    -0.028 C 
ATOM      8  C   UNL     1      25.209  50.696  17.665  1.00  0.00    -0.070 CG0
ATOM      9  C   UNL     1      24.833  50.488  19.111  1.00  0.00     0.039 C 
ATOM     10  G   UNL     1      25.124  52.098  17.082  1.00  0.00     0.000 G0
ENDBRANCH   6   7
ENDBRANCH   5   6
ENDBRANCH   3   5
ENDBRANCH   1   3
BRANCH   1  11
ATOM     11  C   UNL     1      28.630  51.854  16.925  1.00  0.00     0.087 C 
BRANCH  11  12
ATOM     12  C   UNL     1      27.567  52.841  16.376  1.00  0.00     0.066 C 
BRANCH  12  13
ATOM     13  C   UNL     1      26.365  52.922  17.311  1.00  0.00     0.140 C 
ATOM     14  O   UNL     1      26.446  53.619  18.312  1.00  0.00    -0.299 OA
BRANCH  13  15
ATOM     15  C   UNL     1      25.110  52.112  17.074  1.00  0.00     0.106 CG0
ATOM     16  G   UNL     1      25.216  50.707  17.648  1.00  0.00     0.000 G0
ENDBRANCH  13  15
ENDBRANCH  12  13
BRANCH  12  17
ATOM     17  C   UNL     1      28.150  54.258  16.066  1.00  0.00    -0.006 C 
ATOM     18  C   UNL     1      28.476  54.407  14.568  1.00  0.00     0.008 C 
ATOM     19  C   UNL     1      29.421  54.560  16.881  1.00  0.00     0.008 C 
ENDBRANCH  12  17
ENDBRANCH  11  12
ENDBRANCH   1  11
TORSDOF 1
ENDMDL
MODEL 5
REMARK VINA RESULT:    -4.173      1.570      3.819
REMARK INTER + INTRA:          -6.578
REMARK INTER:                  -6.417
REMARK INTRA:                  -0.161
REMARK UNBOUND:                -0.211
REMARK SMILES CC1=CCC[C@@H](C)C(=O)C[C@H](C(C)C)C(=O)C1
REMARK SMILES IDX 8 1 9 2 6 3 7 4 5 5 4 6 3 7 2 8 1 9 10 11 11 12 15 13 16 14
REMARK SMILES IDX 17 15 12 17 13 18 14 19
REMARK H PARENT
REMARK Flexibility Score: 70.00
ROOT
ATOM      1  C   UNL     1      25.568  55.956  10.226  1.00  0.00     0.136 C 
ATOM      2  O   UNL     1      24.926  56.838  10.783  1.00  0.00    -0.299 OA
ENDROOT
BRANCH   1   3
ATOM      3  C   UNL     1      24.907  55.114   9.152  1.00  0.00     0.053 C 
ATOM      4  C   UNL     1      24.430  56.000   7.991  1.00  0.00     0.016 C 
BRANCH   3   5
ATOM      5  C   UNL     1      23.733  54.308   9.751  1.00  0.00     0.015 C 
BRANCH   5   6
ATOM      6  C   UNL     1      24.084  52.818   9.937  1.00  0.00     0.028 C 
BRANCH   6   7
ATOM      7  C   UNL     1      25.258  52.419   9.082  1.00  0.00    -0.028 C 
ATOM      8  C   UNL     1      26.497  52.133   9.545  1.00  0.00    -0.070 CG0
ATOM      9  C   UNL     1      27.540  51.691   8.548  1.00  0.00     0.039 C 
ATOM     10  G   UNL     1      26.883  52.224  11.014  1.00  0.00     0.000 G0
ENDBRANCH   6   7
ENDBRANCH   5   6
ENDBRANCH   3   5
ENDBRANCH   1   3
BRANCH   1  11
ATOM     11  C   UNL     1      27.007  55.729  10.625  1.00  0.00     0.087 C 
BRANCH  11  12
ATOM     12  C   UNL     1      27.146  54.740  11.810  1.00  0.00     0.066 C 
BRANCH  12  13
ATOM     13  C   UNL     1      27.741  53.414  11.347  1.00  0.00     0.140 C 
ATOM     14  O   UNL     1      28.948  53.342  11.173  1.00  0.00    -0.299 OA
BRANCH  13  15
ATOM     15  C   UNL     1      26.875  52.216  11.027  1.00  0.00     0.106 CG0
ATOM     16  G   UNL     1      26.519  52.142   9.550  1.00  0.00     0.000 G0
ENDBRANCH  13  15
ENDBRANCH  12  13
BRANCH  12  17
ATOM     17  C   UNL     1      27.942  55.337  13.016  1.00  0.00    -0.006 C 
ATOM     18  C   UNL     1      27.363  54.849  14.357  1.00  0.00     0.008 C 
ATOM     19  C   UNL     1      27.948  56.876  13.010  1.00  0.00     0.008 C 
ENDBRANCH  12  17
ENDBRANCH  11  12
ENDBRANCH   1  11
TORSDOF 1
ENDMDL
MODEL 6
REMARK VINA RESULT:    -4.172      2.077      5.140
REMARK INTER + INTRA:          -6.578
REMARK INTER:                  -6.675
REMARK INTRA:                   0.097
REMARK UNBOUND:                -0.211
REMARK SMILES CC1=CCC[C@@H](C)C(=O)C[C@H](C(C)C)C(=O)C1
REMARK SMILES IDX 8 1 9 2 6 3 7 4 5 5 4 6 3 7 2 8 1 9 10 11 11 12 15 13 16 14
REMARK SMILES IDX 17 15 12 17 13 18 14 19
REMARK H PARENT
REMARK Flexibility Score: 70.00
ROOT
ATOM      1  C   UNL     1      25.197  55.713  10.415  1.00  0.00     0.136 C 
ATOM      2  O   UNL     1      24.753  56.686   9.818  1.00  0.00    -0.299 OA
ENDROOT
BRANCH   1   3
ATOM      3  C   UNL     1      26.253  55.909  11.485  1.00  0.00     0.053 C 
ATOM      4  C   UNL     1      25.776  56.928  12.531  1.00  0.00     0.016 C 
BRANCH   3   5
ATOM      5  C   UNL     1      27.586  56.356  10.845  1.00  0.00     0.015 C 
BRANCH   5   6
ATOM      6  C   UNL     1      28.685  55.283  10.978  1.00  0.00     0.028 C 
BRANCH   6   7
ATOM      7  C   UNL     1      28.551  54.515  12.267  1.00  0.00    -0.028 C 
ATOM      8  C   UNL     1      28.151  53.226  12.368  1.00  0.00    -0.070 CG0
ATOM      9  C   UNL     1      28.132  52.597  13.738  1.00  0.00     0.039 C 
ATOM     10  G   UNL     1      27.734  52.384  11.171  1.00  0.00     0.000 G0
ENDBRANCH   6   7
ENDBRANCH   5   6
ENDBRANCH   3   5
ENDBRANCH   1   3
BRANCH   1  11
ATOM     11  C   UNL     1      24.678  54.337  10.068  1.00  0.00     0.087 C 
BRANCH  11  12
ATOM     12  C   UNL     1      25.810  53.366   9.642  1.00  0.00     0.066 C 
BRANCH  12  13
ATOM     13  C   UNL     1      26.278  52.523  10.824  1.00  0.00     0.140 C 
ATOM     14  O   UNL     1      25.437  52.007  11.545  1.00  0.00    -0.299 OA
BRANCH  13  15
ATOM     15  C   UNL     1      27.742  52.371  11.169  1.00  0.00     0.106 CG0
ATOM     16  G   UNL     1      28.141  53.217  12.369  1.00  0.00     0.000 G0
ENDBRANCH  13  15
ENDBRANCH  12  13
BRANCH  12  17
ATOM     17  C   UNL     1      25.423  52.474   8.418  1.00  0.00    -0.006 C 
ATOM     18  C   UNL     1      26.608  51.594   7.979  1.00  0.00     0.008 C 
ATOM     19  C   UNL     1      24.952  53.306   7.212  1.00  0.00     0.008 C 
ENDBRANCH  12  17
ENDBRANCH  11  12
ENDBRANCH   1  11
TORSDOF 1
ENDMDL
MODEL 7
REMARK VINA RESULT:    -4.142      1.821      4.007
REMARK INTER + INTRA:          -6.533
REMARK INTER:                  -6.382
REMARK INTRA:                  -0.150
REMARK UNBOUND:                -0.211
REMARK SMILES CC1=CCC[C@@H](C)C(=O)C[C@H](C(C)C)C(=O)C1
REMARK SMILES IDX 8 1 9 2 6 3 7 4 5 5 4 6 3 7 2 8 1 9 10 11 11 12 15 13 16 14
REMARK SMILES IDX 17 15 12 17 13 18 14 19
REMARK H PARENT
REMARK Flexibility Score: 70.00
ROOT
ATOM      1  C   UNL     1      26.078  55.801  10.356  1.00  0.00     0.136 C 
ATOM      2  O   UNL     1      25.386  56.685  10.845  1.00  0.00    -0.299 OA
ENDROOT
BRANCH   1   3
ATOM      3  C   UNL     1      25.433  54.739   9.488  1.00  0.00     0.053 C 
ATOM      4  C   UNL     1      24.165  55.288   8.818  1.00  0.00     0.016 C 
BRANCH   3   5
ATOM      5  C   UNL     1      25.116  53.482  10.328  1.00  0.00     0.015 C 
BRANCH   5   6
ATOM      6  C   UNL     1      26.215  52.408  10.208  1.00  0.00     0.028 C 
BRANCH   6   7
ATOM      7  C   UNL     1      26.610  51.874  11.560  1.00  0.00    -0.028 C 
ATOM      8  C   UNL     1      27.663  52.308  12.292  1.00  0.00    -0.070 CG0
ATOM      9  C   UNL     1      27.875  51.699  13.655  1.00  0.00     0.039 C 
ATOM     10  G   UNL     1      28.627  53.382  11.813  1.00  0.00     0.000 G0
ENDBRANCH   6   7
ENDBRANCH   5   6
ENDBRANCH   3   5
ENDBRANCH   1   3
BRANCH   1  11
ATOM     11  C   UNL     1      27.564  55.793  10.632  1.00  0.00     0.087 C 
BRANCH  11  12
ATOM     12  C   UNL     1      27.887  55.905  12.145  1.00  0.00     0.066 C 
BRANCH  12  13
ATOM     13  C   UNL     1      28.583  54.646  12.648  1.00  0.00     0.140 C 
ATOM     14  O   UNL     1      29.150  54.681  13.730  1.00  0.00    -0.299 OA
BRANCH  13  15
ATOM     15  C   UNL     1      28.655  53.384  11.818  1.00  0.00     0.106 CG0
ATOM     16  G   UNL     1      27.667  52.328  12.289  1.00  0.00     0.000 G0
ENDBRANCH  13  15
ENDBRANCH  12  13
BRANCH  12  17
ATOM     17  C   UNL     1      28.698  57.193  12.503  1.00  0.00    -0.006 C 
ATOM     18  C   UNL     1      27.804  58.235  13.199  1.00  0.00     0.008 C 
ATOM     19  C   UNL     1      29.343  57.842  11.265  1.00  0.00     0.008 C 
ENDBRANCH  12  17
ENDBRANCH  11  12
ENDBRANCH   1  11
TORSDOF 1
ENDMDL
MODEL 8
REMARK VINA RESULT:    -4.068      5.649      7.646
REMARK INTER + INTRA:          -6.419
REMARK INTER:                  -6.651
REMARK INTRA:                   0.232
REMARK UNBOUND:                -0.211
REMARK SMILES CC1=CCC[C@@H](C)C(=O)C[C@H](C(C)C)C(=O)C1
REMARK SMILES IDX 8 1 9 2 6 3 7 4 5 5 4 6 3 7 2 8 1 9 10 11 11 12 15 13 16 14
REMARK SMILES IDX 17 15 12 17 13 18 14 19
REMARK H PARENT
REMARK Flexibility Score: 70.00
ROOT
ATOM      1  C   UNL     1      26.405  50.434  16.893  1.00  0.00     0.136 C 
ATOM      2  O   UNL     1      25.646  49.892  16.100  1.00  0.00    -0.299 OA
ENDROOT
BRANCH   1   3
ATOM      3  C   UNL     1      25.889  51.553  17.777  1.00  0.00     0.053 C 
ATOM      4  C   UNL     1      24.504  51.200  18.338  1.00  0.00     0.016 C 
BRANCH   3   5
ATOM      5  C   UNL     1      25.846  52.880  16.989  1.00  0.00     0.015 C 
BRANCH   5   6
ATOM      6  C   UNL     1      27.233  53.547  16.891  1.00  0.00     0.028 C 
BRANCH   6   7
ATOM      7  C   UNL     1      27.538  53.978  15.480  1.00  0.00    -0.028 C 
ATOM      8  C   UNL     1      28.366  53.329  14.629  1.00  0.00    -0.070 CG0
ATOM      9  C   UNL     1      28.507  53.871  13.229  1.00  0.00     0.039 C 
ATOM     10  G   UNL     1      29.148  52.081  15.012  1.00  0.00     0.000 G0
ENDBRANCH   6   7
ENDBRANCH   5   6
ENDBRANCH   3   5
ENDBRANCH   1   3
BRANCH   1  11
ATOM     11  C   UNL     1      27.842  49.973  16.970  1.00  0.00     0.087 C 
BRANCH  11  12
ATOM     12  C   UNL     1      28.416  49.587  15.582  1.00  0.00     0.066 C 
BRANCH  12  13
ATOM     13  C   UNL     1      28.438  50.792  14.648  1.00  0.00     0.140 C 
ATOM     14  O   UNL     1      27.911  50.694  13.550  1.00  0.00    -0.299 OA
BRANCH  13  15
ATOM     15  C   UNL     1      29.155  52.074  15.011  1.00  0.00     0.106 CG0
ATOM     16  G   UNL     1      28.359  53.309  14.615  1.00  0.00     0.000 G0
ENDBRANCH  13  15
ENDBRANCH  12  13
BRANCH  12  17
ATOM     17  C   UNL     1      29.819  48.903  15.670  1.00  0.00    -0.006 C 
ATOM     18  C   UNL     1      29.697  47.373  15.548  1.00  0.00     0.008 C 
ATOM     19  C   UNL     1      30.554  49.237  16.981  1.00  0.00     0.008 C 
ENDBRANCH  12  17
ENDBRANCH  11  12
ENDBRANCH   1  11
TORSDOF 1
ENDMDL
MODEL 9
REMARK VINA RESULT:    -4.046      1.895      4.072
REMARK INTER + INTRA:          -6.386
REMARK INTER:                  -6.392
REMARK INTRA:                   0.006
REMARK UNBOUND:                -0.211
REMARK SMILES CC1=CCC[C@@H](C)C(=O)C[C@H](C(C)C)C(=O)C1
REMARK SMILES IDX 8 1 9 2 6 3 7 4 5 5 4 6 3 7 2 8 1 9 10 11 11 12 15 13 16 14
REMARK SMILES IDX 17 15 12 17 13 18 14 19
REMARK H PARENT
REMARK Flexibility Score: 70.00
ROOT
ATOM      1  C   UNL     1      25.609  52.594   9.442  1.00  0.00     0.136 C 
ATOM      2  O   UNL     1      25.987  52.402   8.293  1.00  0.00    -0.299 OA
ENDROOT
BRANCH   1   3
ATOM      3  C   UNL     1      24.239  53.196   9.689  1.00  0.00     0.053 C 
ATOM      4  C   UNL     1      23.144  52.137   9.495  1.00  0.00     0.016 C 
BRANCH   3   5
ATOM      5  C   UNL     1      24.011  54.406   8.757  1.00  0.00     0.015 C 
BRANCH   5   6
ATOM      6  C   UNL     1      25.097  55.488   8.930  1.00  0.00     0.028 C 
BRANCH   6   7
ATOM      7  C   UNL     1      24.917  56.244  10.220  1.00  0.00    -0.028 C 
ATOM      8  C   UNL     1      25.870  56.407  11.167  1.00  0.00    -0.070 CG0
ATOM      9  C   UNL     1      25.533  57.248  12.372  1.00  0.00     0.039 C 
ATOM     10  G   UNL     1      27.259  55.795  11.068  1.00  0.00     0.000 G0
ENDBRANCH   6   7
ENDBRANCH   5   6
ENDBRANCH   3   5
ENDBRANCH   1   3
BRANCH   1  11
ATOM     11  C   UNL     1      26.522  52.224  10.588  1.00  0.00     0.087 C 
BRANCH  11  12
ATOM     12  C   UNL     1      27.710  53.208  10.741  1.00  0.00     0.066 C 
BRANCH  12  13
ATOM     13  C   UNL     1      27.328  54.390  11.626  1.00  0.00     0.140 C 
ATOM     14  O   UNL     1      27.004  54.176  12.785  1.00  0.00    -0.299 OA
BRANCH  13  15
ATOM     15  C   UNL     1      27.267  55.804  11.092  1.00  0.00     0.106 CG0
ATOM     16  G   UNL     1      25.865  56.389  11.172  1.00  0.00     0.000 G0
ENDBRANCH  13  15
ENDBRANCH  12  13
BRANCH  12  17
ATOM     17  C   UNL     1      29.018  52.514  11.243  1.00  0.00    -0.006 C 
ATOM     18  C   UNL     1      30.112  53.553  11.552  1.00  0.00     0.008 C 
ATOM     19  C   UNL     1      29.572  51.501  10.226  1.00  0.00     0.008 C 
ENDBRANCH  12  17
ENDBRANCH  11  12
ENDBRANCH   1  11
TORSDOF 1
ENDMDL
