MODEL 1
REMARK VINA RESULT:    -3.832      0.000      0.000
REMARK INTER + INTRA:          -5.454
REMARK INTER:                  -5.849
REMARK INTRA:                   0.395
REMARK UNBOUND:                 0.395
REMARK SMILES CC1=CCC[C@H](C)C(=O)C[C@@H](C(C)C)C(=O)C1
REMARK SMILES IDX 8 1 9 2 6 3 7 4 5 5 4 6 3 7 2 8 1 9 10 11 11 12 15 13 16 14
REMARK SMILES IDX 17 15 12 17 13 18 14 19
REMARK H PARENT
REMARK Flexibility Score: 70.00
ROOT
ATOM      1  C   UNL     1       9.157 -29.469  15.159  1.00  0.00     0.136 C 
ATOM      2  O   UNL     1      10.006 -28.885  15.819  1.00  0.00    -0.299 OA
ENDROOT
BRANCH   1   3
ATOM      3  C   UNL     1       9.422 -29.761  13.694  1.00  0.00     0.053 C 
ATOM      4  C   UNL     1      10.912 -29.578  13.372  1.00  0.00     0.016 C 
BRANCH   3   5
ATOM      5  C   UNL     1       8.950 -31.188  13.331  1.00  0.00     0.015 C 
BRANCH   5   6
ATOM      6  C   UNL     1       9.468 -32.230  14.342  1.00  0.00     0.028 C 
BRANCH   6   7
ATOM      7  C   UNL     1       8.630 -33.484  14.388  1.00  0.00    -0.028 C 
ATOM      8  C   UNL     1       7.400 -33.590  14.950  1.00  0.00    -0.070 CG0
ATOM      9  C   UNL     1       6.675 -34.905  14.802  1.00  0.00     0.039 C 
ATOM     10  G   UNL     1       6.742 -32.479  15.759  1.00  0.00     0.000 G0
ENDBRANCH   6   7
ENDBRANCH   5   6
ENDBRANCH   3   5
ENDBRANCH   1   3
BRANCH   1  11
ATOM     11  C   UNL     1       7.861 -29.874  15.826  1.00  0.00     0.087 C 
BRANCH  11  12
ATOM     12  C   UNL     1       8.103 -30.696  17.117  1.00  0.00     0.066 C 
BRANCH  12  13
ATOM     13  C   UNL     1       7.483 -32.082  17.011  1.00  0.00     0.140 C 
ATOM     14  O   UNL     1       7.609 -32.891  17.919  1.00  0.00    -0.299 OA
BRANCH  13  15
ATOM     15  C   UNL     1       6.732 -32.473  15.762  1.00  0.00     0.106 CG0
ATOM     16  G   UNL     1       7.400 -33.580  14.957  1.00  0.00     0.000 G0
ENDBRANCH  13  15
ENDBRANCH  12  13
BRANCH  12  17
ATOM     17  C   UNL     1       7.701 -29.912  18.406  1.00  0.00    -0.006 C 
ATOM     18  C   UNL     1       6.348 -29.203  18.239  1.00  0.00     0.008 C 
ATOM     19  C   UNL     1       8.767 -28.924  18.913  1.00  0.00     0.008 C 
ENDBRANCH  12  17
ENDBRANCH  11  12
ENDBRANCH   1  11
TORSDOF 1
ENDMDL
MODEL 2
REMARK VINA RESULT:    -3.667      2.005      5.396
REMARK INTER + INTRA:          -5.201
REMARK INTER:                  -5.031
REMARK INTRA:                  -0.170
REMARK UNBOUND:                 0.395
REMARK SMILES CC1=CCC[C@H](C)C(=O)C[C@@H](C(C)C)C(=O)C1
REMARK SMILES IDX 8 1 9 2 6 3 7 4 5 5 4 6 3 7 2 8 1 9 10 11 11 12 15 13 16 14
REMARK SMILES IDX 17 15 12 17 13 18 14 19
REMARK H PARENT
REMARK Flexibility Score: 70.00
ROOT
ATOM      1  C   UNL     1       7.374 -33.390  14.827  1.00  0.00     0.136 C 
ATOM      2  O   UNL     1       7.616 -34.546  14.506  1.00  0.00    -0.299 OA
ENDROOT
BRANCH   1   3
ATOM      3  C   UNL     1       6.669 -33.113  16.142  1.00  0.00     0.053 C 
ATOM      4  C   UNL     1       6.003 -34.390  16.673  1.00  0.00     0.016 C 
BRANCH   3   5
ATOM      5  C   UNL     1       7.662 -32.536  17.177  1.00  0.00     0.015 C 
BRANCH   5   6
ATOM      6  C   UNL     1       7.241 -31.129  17.645  1.00  0.00     0.028 C 
BRANCH   6   7
ATOM      7  C   UNL     1       8.387 -30.149  17.695  1.00  0.00    -0.028 C 
ATOM      8  C   UNL     1       8.852 -29.426  16.645  1.00  0.00    -0.070 CG0
ATOM      9  C   UNL     1       9.941 -28.418  16.921  1.00  0.00     0.039 C 
ATOM     10  G   UNL     1       8.374 -29.613  15.211  1.00  0.00     0.000 G0
ENDBRANCH   6   7
ENDBRANCH   5   6
ENDBRANCH   3   5
ENDBRANCH   1   3
BRANCH   1  11
ATOM     11  C   UNL     1       7.777 -32.270  13.892  1.00  0.00     0.087 C 
BRANCH  11  12
ATOM     12  C   UNL     1       9.249 -31.835  14.107  1.00  0.00     0.066 C 
BRANCH  12  13
ATOM     13  C   UNL     1       9.356 -30.330  14.299  1.00  0.00     0.140 C 
ATOM     14  O   UNL     1      10.248 -29.695  13.756  1.00  0.00    -0.299 OA
BRANCH  13  15
ATOM     15  C   UNL     1       8.371 -29.618  15.195  1.00  0.00     0.106 CG0
ATOM     16  G   UNL     1       8.853 -29.436  16.628  1.00  0.00     0.000 G0
ENDBRANCH  13  15
ENDBRANCH  12  13
BRANCH  12  17
ATOM     17  C   UNL     1      10.205 -32.410  13.014  1.00  0.00    -0.006 C 
ATOM     18  C   UNL     1       9.427 -33.139  11.907  1.00  0.00     0.008 C 
ATOM     19  C   UNL     1      11.334 -33.306  13.556  1.00  0.00     0.008 C 
ENDBRANCH  12  17
ENDBRANCH  11  12
ENDBRANCH   1  11
TORSDOF 1
ENDMDL
MODEL 3
REMARK VINA RESULT:    -3.606      1.787      4.045
REMARK INTER + INTRA:          -5.109
REMARK INTER:                  -5.059
REMARK INTRA:                  -0.050
REMARK UNBOUND:                 0.395
REMARK SMILES CC1=CCC[C@H](C)C(=O)C[C@@H](C(C)C)C(=O)C1
REMARK SMILES IDX 8 1 9 2 6 3 7 4 5 5 4 6 3 7 2 8 1 9 10 11 11 12 15 13 16 14
REMARK SMILES IDX 17 15 12 17 13 18 14 19
REMARK H PARENT
REMARK Flexibility Score: 70.00
ROOT
ATOM      1  C   UNL     1       8.015 -29.846  15.985  1.00  0.00     0.136 C 
ATOM      2  O   UNL     1       6.887 -29.378  15.898  1.00  0.00    -0.299 OA
ENDROOT
BRANCH   1   3
ATOM      3  C   UNL     1       8.511 -30.352  17.326  1.00  0.00     0.053 C 
ATOM      4  C   UNL     1       8.909 -29.176  18.229  1.00  0.00     0.016 C 
BRANCH   3   5
ATOM      5  C   UNL     1       7.434 -31.229  18.006  1.00  0.00     0.015 C 
BRANCH   5   6
ATOM      6  C   UNL     1       7.682 -32.730  17.752  1.00  0.00     0.028 C 
BRANCH   6   7
ATOM      7  C   UNL     1       6.921 -33.267  16.564  1.00  0.00    -0.028 C 
ATOM      8  C   UNL     1       7.429 -33.447  15.319  1.00  0.00    -0.070 CG0
ATOM      9  C   UNL     1       6.538 -34.096  14.289  1.00  0.00     0.039 C 
ATOM     10  G   UNL     1       8.819 -32.987  14.898  1.00  0.00     0.000 G0
ENDBRANCH   6   7
ENDBRANCH   5   6
ENDBRANCH   3   5
ENDBRANCH   1   3
BRANCH   1  11
ATOM     11  C   UNL     1       8.885 -29.895  14.748  1.00  0.00     0.087 C 
BRANCH  11  12
ATOM     12  C   UNL     1       8.269 -30.783  13.637  1.00  0.00     0.066 C 
BRANCH  12  13
ATOM     13  C   UNL     1       8.880 -32.176  13.644  1.00  0.00     0.140 C 
ATOM     14  O   UNL     1       9.387 -32.638  12.632  1.00  0.00    -0.299 OA
BRANCH  13  15
ATOM     15  C   UNL     1       8.832 -33.009  14.902  1.00  0.00     0.106 CG0
ATOM     16  G   UNL     1       7.428 -33.438  15.309  1.00  0.00     0.000 G0
ENDBRANCH  13  15
ENDBRANCH  12  13
BRANCH  12  17
ATOM     17  C   UNL     1       8.282 -30.084  12.241  1.00  0.00    -0.006 C 
ATOM     18  C   UNL     1       9.505 -29.168  12.077  1.00  0.00     0.008 C 
ATOM     19  C   UNL     1       6.991 -29.323  11.892  1.00  0.00     0.008 C 
ENDBRANCH  12  17
ENDBRANCH  11  12
ENDBRANCH   1  11
TORSDOF 1
ENDMDL
MODEL 4
REMARK VINA RESULT:    -3.558      1.574      3.867
REMARK INTER + INTRA:          -5.036
REMARK INTER:                  -4.763
REMARK INTRA:                  -0.272
REMARK UNBOUND:                 0.395
REMARK SMILES CC1=CCC[C@H](C)C(=O)C[C@@H](C(C)C)C(=O)C1
REMARK SMILES IDX 8 1 9 2 6 3 7 4 5 5 4 6 3 7 2 8 1 9 10 11 11 12 15 13 16 14
REMARK SMILES IDX 17 15 12 17 13 18 14 19
REMARK H PARENT
REMARK Flexibility Score: 70.00
ROOT
ATOM      1  C   UNL     1       7.606 -32.719  16.572  1.00  0.00     0.136 C 
ATOM      2  O   UNL     1       7.344 -33.228  17.653  1.00  0.00    -0.299 OA
ENDROOT
BRANCH   1   3
ATOM      3  C   UNL     1       6.865 -33.182  15.331  1.00  0.00     0.053 C 
ATOM      4  C   UNL     1       5.896 -32.093  14.848  1.00  0.00     0.016 C 
BRANCH   3   5
ATOM      5  C   UNL     1       7.863 -33.567  14.215  1.00  0.00     0.015 C 
BRANCH   5   6
ATOM      6  C   UNL     1       7.779 -32.598  13.019  1.00  0.00     0.028 C 
BRANCH   6   7
ATOM      7  C   UNL     1       9.109 -31.990  12.648  1.00  0.00    -0.028 C 
ATOM      8  C   UNL     1       9.533 -30.750  12.997  1.00  0.00    -0.070 CG0
ATOM      9  C   UNL     1      10.941 -30.362  12.618  1.00  0.00     0.039 C 
ATOM     10  G   UNL     1       8.654 -29.721  13.696  1.00  0.00     0.000 G0
ENDBRANCH   6   7
ENDBRANCH   5   6
ENDBRANCH   3   5
ENDBRANCH   1   3
BRANCH   1  11
ATOM     11  C   UNL     1       8.673 -31.649  16.505  1.00  0.00     0.087 C 
BRANCH  11  12
ATOM     12  C   UNL     1       8.079 -30.256  16.175  1.00  0.00     0.066 C 
BRANCH  12  13
ATOM     13  C   UNL     1       8.935 -29.519  15.156  1.00  0.00     0.140 C 
ATOM     14  O   UNL     1       9.827 -28.766  15.519  1.00  0.00    -0.299 OA
BRANCH  13  15
ATOM     15  C   UNL     1       8.661 -29.696  13.681  1.00  0.00     0.106 CG0
ATOM     16  G   UNL     1       9.528 -30.754  13.011  1.00  0.00     0.000 G0
ENDBRANCH  13  15
ENDBRANCH  12  13
BRANCH  12  17
ATOM     17  C   UNL     1       7.757 -29.426  17.459  1.00  0.00    -0.006 C 
ATOM     18  C   UNL     1       8.683 -29.806  18.625  1.00  0.00     0.008 C 
ATOM     19  C   UNL     1       6.285 -29.479  17.903  1.00  0.00     0.008 C 
ENDBRANCH  12  17
ENDBRANCH  11  12
ENDBRANCH   1  11
TORSDOF 1
ENDMDL
MODEL 5
REMARK VINA RESULT:    -3.374      1.743      4.022
REMARK INTER + INTRA:          -4.755
REMARK INTER:                  -4.699
REMARK INTRA:                  -0.056
REMARK UNBOUND:                 0.395
REMARK SMILES CC1=CCC[C@H](C)C(=O)C[C@@H](C(C)C)C(=O)C1
REMARK SMILES IDX 8 1 9 2 6 3 7 4 5 5 4 6 3 7 2 8 1 9 10 11 11 12 15 13 16 14
REMARK SMILES IDX 17 15 12 17 13 18 14 19
REMARK H PARENT
REMARK Flexibility Score: 70.00
ROOT
ATOM      1  C   UNL     1       8.871 -29.989  15.961  1.00  0.00     0.136 C 
ATOM      2  O   UNL     1       9.072 -28.843  15.584  1.00  0.00    -0.299 OA
ENDROOT
BRANCH   1   3
ATOM      3  C   UNL     1       8.263 -30.227  17.331  1.00  0.00     0.053 C 
ATOM      4  C   UNL     1       9.026 -29.433  18.401  1.00  0.00     0.016 C 
BRANCH   3   5
ATOM      5  C   UNL     1       6.763 -29.852  17.330  1.00  0.00     0.015 C 
BRANCH   5   6
ATOM      6  C   UNL     1       6.002 -30.560  16.191  1.00  0.00     0.028 C 
BRANCH   6   7
ATOM      7  C   UNL     1       6.034 -32.065  16.297  1.00  0.00    -0.028 C 
ATOM      8  C   UNL     1       6.266 -32.923  15.273  1.00  0.00    -0.070 CG0
ATOM      9  C   UNL     1       6.362 -34.392  15.601  1.00  0.00     0.039 C 
ATOM     10  G   UNL     1       6.382 -32.489  13.817  1.00  0.00     0.000 G0
ENDBRANCH   6   7
ENDBRANCH   5   6
ENDBRANCH   3   5
ENDBRANCH   1   3
BRANCH   1  11
ATOM     11  C   UNL     1       9.246 -31.137  15.050  1.00  0.00     0.087 C 
BRANCH  11  12
ATOM     12  C   UNL     1       8.564 -31.026  13.663  1.00  0.00     0.066 C 
BRANCH  12  13
ATOM     13  C   UNL     1       7.803 -32.298  13.321  1.00  0.00     0.140 C 
ATOM     14  O   UNL     1       8.324 -33.172  12.642  1.00  0.00    -0.299 OA
BRANCH  13  15
ATOM     15  C   UNL     1       6.381 -32.471  13.797  1.00  0.00     0.106 CG0
ATOM     16  G   UNL     1       6.262 -32.919  15.248  1.00  0.00     0.000 G0
ENDBRANCH  13  15
ENDBRANCH  12  13
BRANCH  12  17
ATOM     17  C   UNL     1       9.551 -30.552  12.550  1.00  0.00    -0.006 C 
ATOM     18  C   UNL     1      11.014 -30.654  13.009  1.00  0.00     0.008 C 
ATOM     19  C   UNL     1       9.260 -29.146  11.993  1.00  0.00     0.008 C 
ENDBRANCH  12  17
ENDBRANCH  11  12
ENDBRANCH   1  11
TORSDOF 1
ENDMDL
MODEL 6
REMARK VINA RESULT:    -3.364      2.180      4.892
REMARK INTER + INTRA:          -4.740
REMARK INTER:                  -4.562
REMARK INTRA:                  -0.178
REMARK UNBOUND:                 0.395
REMARK SMILES CC1=CCC[C@H](C)C(=O)C[C@@H](C(C)C)C(=O)C1
REMARK SMILES IDX 8 1 9 2 6 3 7 4 5 5 4 6 3 7 2 8 1 9 10 11 11 12 15 13 16 14
REMARK SMILES IDX 17 15 12 17 13 18 14 19
REMARK H PARENT
REMARK Flexibility Score: 70.00
ROOT
ATOM      1  C   UNL     1       6.847 -31.691  16.586  1.00  0.00     0.136 C 
ATOM      2  O   UNL     1       7.128 -32.573  17.386  1.00  0.00    -0.299 OA
ENDROOT
BRANCH   1   3
ATOM      3  C   UNL     1       7.285 -30.265  16.865  1.00  0.00     0.053 C 
ATOM      4  C   UNL     1       6.747 -29.795  18.223  1.00  0.00     0.016 C 
BRANCH   3   5
ATOM      5  C   UNL     1       8.826 -30.152  16.811  1.00  0.00     0.015 C 
BRANCH   5   6
ATOM      6  C   UNL     1       9.282 -29.112  15.769  1.00  0.00     0.028 C 
BRANCH   6   7
ATOM      7  C   UNL     1       9.816 -29.732  14.501  1.00  0.00    -0.028 C 
ATOM      8  C   UNL     1       9.087 -30.006  13.390  1.00  0.00    -0.070 CG0
ATOM      9  C   UNL     1       9.824 -30.531  12.183  1.00  0.00     0.039 C 
ATOM     10  G   UNL     1       7.572 -29.862  13.316  1.00  0.00     0.000 G0
ENDBRANCH   6   7
ENDBRANCH   5   6
ENDBRANCH   3   5
ENDBRANCH   1   3
BRANCH   1  11
ATOM     11  C   UNL     1       6.059 -32.050  15.345  1.00  0.00     0.087 C 
BRANCH  11  12
ATOM     12  C   UNL     1       6.979 -32.288  14.121  1.00  0.00     0.066 C 
BRANCH  12  13
ATOM     13  C   UNL     1       6.832 -31.172  13.097  1.00  0.00     0.140 C 
ATOM     14  O   UNL     1       6.137 -31.326  12.103  1.00  0.00    -0.299 OA
BRANCH  13  15
ATOM     15  C   UNL     1       7.575 -29.873  13.294  1.00  0.00     0.106 CG0
ATOM     16  G   UNL     1       9.087 -30.031  13.390  1.00  0.00     0.000 G0
ENDBRANCH  13  15
ENDBRANCH  12  13
BRANCH  12  17
ATOM     17  C   UNL     1       6.823 -33.724  13.528  1.00  0.00    -0.006 C 
ATOM     18  C   UNL     1       5.997 -34.631  14.453  1.00  0.00     0.008 C 
ATOM     19  C   UNL     1       8.148 -34.408  13.149  1.00  0.00     0.008 C 
ENDBRANCH  12  17
ENDBRANCH  11  12
ENDBRANCH   1  11
TORSDOF 1
ENDMDL
MODEL 7
REMARK VINA RESULT:    -3.245      2.483      4.468
REMARK INTER + INTRA:          -4.558
REMARK INTER:                  -4.458
REMARK INTRA:                  -0.099
REMARK UNBOUND:                 0.395
REMARK SMILES CC1=CCC[C@H](C)C(=O)C[C@@H](C(C)C)C(=O)C1
REMARK SMILES IDX 8 1 9 2 6 3 7 4 5 5 4 6 3 7 2 8 1 9 10 11 11 12 15 13 16 14
REMARK SMILES IDX 17 15 12 17 13 18 14 19
REMARK H PARENT
REMARK Flexibility Score: 70.00
ROOT
ATOM      1  C   UNL     1       9.598 -33.446  13.902  1.00  0.00     0.136 C 
ATOM      2  O   UNL     1       8.800 -34.024  13.176  1.00  0.00    -0.299 OA
ENDROOT
BRANCH   1   3
ATOM      3  C   UNL     1      11.047 -33.325  13.469  1.00  0.00     0.053 C 
ATOM      4  C   UNL     1      11.733 -34.698  13.502  1.00  0.00     0.016 C 
BRANCH   3   5
ATOM      5  C   UNL     1      11.142 -32.694  12.061  1.00  0.00     0.015 C 
BRANCH   5   6
ATOM      6  C   UNL     1      10.408 -31.340  11.995  1.00  0.00     0.028 C 
BRANCH   6   7
ATOM      7  C   UNL     1      11.118 -30.240  12.745  1.00  0.00    -0.028 C 
ATOM      8  C   UNL     1      10.566 -29.455  13.704  1.00  0.00    -0.070 CG0
ATOM      9  C   UNL     1      11.471 -28.478  14.412  1.00  0.00     0.039 C 
ATOM     10  G   UNL     1       9.085 -29.473  14.062  1.00  0.00     0.000 G0
ENDBRANCH   6   7
ENDBRANCH   5   6
ENDBRANCH   3   5
ENDBRANCH   1   3
BRANCH   1  11
ATOM     11  C   UNL     1       9.112 -32.877  15.217  1.00  0.00     0.087 C 
BRANCH  11  12
ATOM     12  C   UNL     1       8.093 -31.727  15.013  1.00  0.00     0.066 C 
BRANCH  12  13
ATOM     13  C   UNL     1       8.742 -30.370  15.240  1.00  0.00     0.140 C 
ATOM     14  O   UNL     1       8.975 -29.973  16.372  1.00  0.00    -0.299 OA
BRANCH  13  15
ATOM     15  C   UNL     1       9.072 -29.491  14.057  1.00  0.00     0.106 CG0
ATOM     16  G   UNL     1      10.553 -29.460  13.702  1.00  0.00     0.000 G0
ENDBRANCH  13  15
ENDBRANCH  12  13
BRANCH  12  17
ATOM     17  C   UNL     1       6.775 -31.950  15.821  1.00  0.00    -0.006 C 
ATOM     18  C   UNL     1       5.949 -33.111  15.248  1.00  0.00     0.008 C 
ATOM     19  C   UNL     1       5.900 -30.693  15.978  1.00  0.00     0.008 C 
ENDBRANCH  12  17
ENDBRANCH  11  12
ENDBRANCH   1  11
TORSDOF 1
ENDMDL
MODEL 8
REMARK VINA RESULT:    -3.038      1.886      4.257
REMARK INTER + INTRA:          -4.242
REMARK INTER:                  -4.378
REMARK INTRA:                   0.136
REMARK UNBOUND:                 0.395
REMARK SMILES CC1=CCC[C@H](C)C(=O)C[C@@H](C(C)C)C(=O)C1
REMARK SMILES IDX 8 1 9 2 6 3 7 4 5 5 4 6 3 7 2 8 1 9 10 11 11 12 15 13 16 14
REMARK SMILES IDX 17 15 12 17 13 18 14 19
REMARK H PARENT
REMARK Flexibility Score: 70.00
ROOT
ATOM      1  C   UNL     1       9.799 -32.153  13.314  1.00  0.00     0.136 C 
ATOM      2  O   UNL     1       9.992 -32.821  12.307  1.00  0.00    -0.299 OA
ENDROOT
BRANCH   1   3
ATOM      3  C   UNL     1      10.168 -30.681  13.314  1.00  0.00     0.053 C 
ATOM      4  C   UNL     1      10.328 -30.168  11.876  1.00  0.00     0.016 C 
BRANCH   3   5
ATOM      5  C   UNL     1       9.108 -29.857  14.080  1.00  0.00     0.015 C 
BRANCH   5   6
ATOM      6  C   UNL     1       9.648 -29.355  15.433  1.00  0.00     0.028 C 
BRANCH   6   7
ATOM      7  C   UNL     1       8.567 -29.136  16.463  1.00  0.00    -0.028 C 
ATOM      8  C   UNL     1       7.987 -30.105  17.215  1.00  0.00    -0.070 CG0
ATOM      9  C   UNL     1       6.997 -29.672  18.268  1.00  0.00     0.039 C 
ATOM     10  G   UNL     1       8.242 -31.594  17.019  1.00  0.00     0.000 G0
ENDBRANCH   6   7
ENDBRANCH   5   6
ENDBRANCH   3   5
ENDBRANCH   1   3
BRANCH   1  11
ATOM     11  C   UNL     1       9.206 -32.821  14.534  1.00  0.00     0.087 C 
BRANCH  11  12
ATOM     12  C   UNL     1       7.681 -32.575  14.650  1.00  0.00     0.066 C 
BRANCH  12  13
ATOM     13  C   UNL     1       7.276 -32.293  16.089  1.00  0.00     0.140 C 
ATOM     14  O   UNL     1       6.167 -32.606  16.497  1.00  0.00    -0.299 OA
BRANCH  13  15
ATOM     15  C   UNL     1       8.240 -31.591  17.014  1.00  0.00     0.106 CG0
ATOM     16  G   UNL     1       7.957 -30.105  17.195  1.00  0.00     0.000 G0
ENDBRANCH  13  15
ENDBRANCH  12  13
BRANCH  12  17
ATOM     17  C   UNL     1       6.842 -33.695  13.957  1.00  0.00    -0.006 C 
ATOM     18  C   UNL     1       7.651 -34.991  13.797  1.00  0.00     0.008 C 
ATOM     19  C   UNL     1       6.212 -33.286  12.613  1.00  0.00     0.008 C 
ENDBRANCH  12  17
ENDBRANCH  11  12
ENDBRANCH   1  11
TORSDOF 1
ENDMDL
MODEL 9
REMARK VINA RESULT:    -3.016      2.095      2.513
REMARK INTER + INTRA:          -4.208
REMARK INTER:                  -4.193
REMARK INTRA:                  -0.015
REMARK UNBOUND:                 0.395
REMARK SMILES CC1=CCC[C@H](C)C(=O)C[C@@H](C(C)C)C(=O)C1
REMARK SMILES IDX 8 1 9 2 6 3 7 4 5 5 4 6 3 7 2 8 1 9 10 11 11 12 15 13 16 14
REMARK SMILES IDX 17 15 12 17 13 18 14 19
REMARK H PARENT
REMARK Flexibility Score: 70.00
ROOT
ATOM      1  C   UNL     1       8.893 -29.517  12.978  1.00  0.00     0.136 C 
ATOM      2  O   UNL     1       8.401 -29.263  11.887  1.00  0.00    -0.299 OA
ENDROOT
BRANCH   1   3
ATOM      3  C   UNL     1      10.381 -29.799  13.078  1.00  0.00     0.053 C 
ATOM      4  C   UNL     1      11.018 -28.935  14.175  1.00  0.00     0.016 C 
BRANCH   3   5
ATOM      5  C   UNL     1      10.631 -31.301  13.343  1.00  0.00     0.015 C 
BRANCH   5   6
ATOM      6  C   UNL     1      10.113 -32.176  12.183  1.00  0.00     0.028 C 
BRANCH   6   7
ATOM      7  C   UNL     1       9.458 -33.454  12.646  1.00  0.00    -0.028 C 
ATOM      8  C   UNL     1       8.138 -33.609  12.919  1.00  0.00    -0.070 CG0
ATOM      9  C   UNL     1       7.656 -34.995  13.269  1.00  0.00     0.039 C 
ATOM     10  G   UNL     1       7.138 -32.459  12.941  1.00  0.00     0.000 G0
ENDBRANCH   6   7
ENDBRANCH   5   6
ENDBRANCH   3   5
ENDBRANCH   1   3
BRANCH   1  11
ATOM     11  C   UNL     1       7.997 -29.551  14.196  1.00  0.00     0.087 C 
BRANCH  11  12
ATOM     12  C   UNL     1       7.988 -30.945  14.873  1.00  0.00     0.066 C 
BRANCH  12  13
ATOM     13  C   UNL     1       6.904 -31.836  14.285  1.00  0.00     0.140 C 
ATOM     14  O   UNL     1       5.875 -32.059  14.907  1.00  0.00    -0.299 OA
BRANCH  13  15
ATOM     15  C   UNL     1       7.112 -32.476  12.934  1.00  0.00     0.106 CG0
ATOM     16  G   UNL     1       8.141 -33.600  12.931  1.00  0.00     0.000 G0
ENDBRANCH  13  15
ENDBRANCH  12  13
BRANCH  12  17
ATOM     17  C   UNL     1       7.962 -30.851  16.432  1.00  0.00    -0.006 C 
ATOM     18  C   UNL     1       8.714 -29.610  16.936  1.00  0.00     0.008 C 
ATOM     19  C   UNL     1       8.461 -32.113  17.158  1.00  0.00     0.008 C 
ENDBRANCH  12  17
ENDBRANCH  11  12
ENDBRANCH   1  11
TORSDOF 1
ENDMDL
