MODEL 1
REMARK VINA RESULT:    -3.904      0.000      0.000
REMARK INTER + INTRA:          -8.687
REMARK INTER:                  -7.327
REMARK INTRA:                  -1.360
REMARK UNBOUND:                -1.360
REMARK SMILES O=C([O-])CCCCCCCCCCCCCCC(=O)[O-]
REMARK SMILES IDX 10 1 9 2 8 3 7 4 6 5 5 6 4 7 2 8 1 9 3 10 11 11 12 12 13 13
REMARK SMILES IDX 14 14 15 15 16 16 17 17 18 18 19 19 20 20
REMARK H PARENT
REMARK Flexibility Score: inf
ROOT
ATOM      1  C   UNL     1     -97.709 -62.261 -69.029  1.00  0.00     0.000 C 
ENDROOT
BRANCH   1   2
ATOM      2  C   UNL     1     -96.792 -62.514 -70.240  1.00  0.00     0.000 C 
BRANCH   2   3
ATOM      3  C   UNL     1     -96.959 -61.453 -71.339  1.00  0.00     0.000 C 
BRANCH   3   4
ATOM      4  C   UNL     1     -95.706 -60.583 -71.522  1.00  0.00     0.000 C 
BRANCH   4   5
ATOM      5  C   UNL     1     -94.628 -61.332 -72.314  1.00  0.00     0.000 C 
BRANCH   5   6
ATOM      6  C   UNL     1     -93.266 -61.236 -71.616  1.00  0.00     0.006 C 
BRANCH   6   7
ATOM      7  C   UNL     1     -92.889 -62.568 -70.960  1.00  0.00     0.053 C 
BRANCH   7   8
ATOM      8  C   UNL     1     -93.011 -62.471 -69.472  1.00  0.00     0.041 C 
ATOM      9  O   UNL     1     -93.062 -63.516 -68.771  1.00  0.00    -0.550 OA
ATOM     10  O   UNL     1     -93.020 -61.227 -68.856  1.00  0.00    -0.550 OA
ENDBRANCH   7   8
ENDBRANCH   6   7
ENDBRANCH   5   6
ENDBRANCH   4   5
ENDBRANCH   3   4
ENDBRANCH   2   3
ENDBRANCH   1   2
BRANCH   1  11
ATOM     11  C   UNL     1     -99.167 -62.665 -69.299  1.00  0.00     0.000 C 
BRANCH  11  12
ATOM     12  C   UNL     1     -99.958 -62.927 -68.010  1.00  0.00     0.000 C 
BRANCH  12  13
ATOM     13  C   UNL     1     -99.597 -61.901 -66.927  1.00  0.00     0.000 C 
BRANCH  13  14
ATOM     14  C   UNL     1    -100.504 -60.665 -67.016  1.00  0.00     0.000 C 
BRANCH  14  15
ATOM     15  C   UNL     1     -99.774 -59.358 -66.657  1.00  0.00     0.000 C 
BRANCH  15  16
ATOM     16  C   UNL     1     -98.244 -59.400 -66.827  1.00  0.00     0.006 C 
BRANCH  16  17
ATOM     17  C   UNL     1     -97.529 -58.265 -66.082  1.00  0.00     0.053 C 
BRANCH  17  18
ATOM     18  C   UNL     1     -96.813 -58.799 -64.881  1.00  0.00     0.041 C 
ATOM     19  O   UNL     1     -96.043 -58.055 -64.220  1.00  0.00    -0.550 OA
ATOM     20  O   UNL     1     -97.035 -60.105 -64.463  1.00  0.00    -0.550 OA
ENDBRANCH  17  18
ENDBRANCH  16  17
ENDBRANCH  15  16
ENDBRANCH  14  15
ENDBRANCH  13  14
ENDBRANCH  12  13
ENDBRANCH  11  12
ENDBRANCH   1  11
TORSDOF 15
ENDMDL
MODEL 2
REMARK VINA RESULT:    -3.673      1.025      6.462
REMARK INTER + INTRA:          -8.255
REMARK INTER:                  -6.823
REMARK INTRA:                  -1.432
REMARK UNBOUND:                -1.360
REMARK SMILES O=C([O-])CCCCCCCCCCCCCCC(=O)[O-]
REMARK SMILES IDX 10 1 9 2 8 3 7 4 6 5 5 6 4 7 2 8 1 9 3 10 11 11 12 12 13 13
REMARK SMILES IDX 14 14 15 15 16 16 17 17 18 18 19 19 20 20
REMARK H PARENT
REMARK Flexibility Score: inf
ROOT
ATOM      1  C   UNL     1     -98.838 -62.231 -69.414  1.00  0.00     0.000 C 
ENDROOT
BRANCH   1   2
ATOM      2  C   UNL     1     -99.341 -62.835 -68.090  1.00  0.00     0.000 C 
BRANCH   2   3
ATOM      3  C   UNL     1    -100.358 -61.929 -67.377  1.00  0.00     0.000 C 
BRANCH   3   4
ATOM      4  C   UNL     1     -99.695 -60.934 -66.413  1.00  0.00     0.000 C 
BRANCH   4   5
ATOM      5  C   UNL     1     -99.615 -59.536 -67.038  1.00  0.00     0.000 C 
BRANCH   5   6
ATOM      6  C   UNL     1     -98.214 -58.935 -66.868  1.00  0.00     0.006 C 
BRANCH   6   7
ATOM      7  C   UNL     1     -97.706 -59.123 -65.436  1.00  0.00     0.053 C 
BRANCH   7   8
ATOM      8  C   UNL     1     -96.599 -58.160 -65.142  1.00  0.00     0.041 C 
ATOM      9  O   UNL     1     -96.414 -57.162 -65.887  1.00  0.00    -0.550 OA
ATOM     10  O   UNL     1     -95.803 -58.339 -64.019  1.00  0.00    -0.550 OA
ENDBRANCH   7   8
ENDBRANCH   6   7
ENDBRANCH   5   6
ENDBRANCH   4   5
ENDBRANCH   3   4
ENDBRANCH   2   3
ENDBRANCH   1   2
BRANCH   1  11
ATOM     11  C   UNL     1     -97.307 -62.095 -69.456  1.00  0.00     0.000 C 
BRANCH  11  12
ATOM     12  C   UNL     1     -96.676 -62.857 -70.631  1.00  0.00     0.000 C 
BRANCH  12  13
ATOM     13  C   UNL     1     -96.336 -61.903 -71.783  1.00  0.00     0.000 C 
BRANCH  13  14
ATOM     14  C   UNL     1     -95.436 -60.757 -71.301  1.00  0.00     0.000 C 
BRANCH  14  15
ATOM     15  C   UNL     1     -94.039 -60.777 -71.947  1.00  0.00     0.000 C 
BRANCH  15  16
ATOM     16  C   UNL     1     -92.882 -61.110 -70.986  1.00  0.00     0.006 C 
BRANCH  16  17
ATOM     17  C   UNL     1     -93.368 -61.598 -69.615  1.00  0.00     0.053 C 
BRANCH  17  18
ATOM     18  C   UNL     1     -93.033 -63.044 -69.428  1.00  0.00     0.041 C 
ATOM     19  O   UNL     1     -92.875 -63.513 -68.270  1.00  0.00    -0.550 OA
ATOM     20  O   UNL     1     -92.946 -63.886 -70.529  1.00  0.00    -0.550 OA
ENDBRANCH  17  18
ENDBRANCH  16  17
ENDBRANCH  15  16
ENDBRANCH  14  15
ENDBRANCH  13  14
ENDBRANCH  12  13
ENDBRANCH  11  12
ENDBRANCH   1  11
TORSDOF 15
ENDMDL
MODEL 3
REMARK VINA RESULT:    -3.658     12.835     15.657
REMARK INTER + INTRA:          -8.226
REMARK INTER:                  -6.483
REMARK INTRA:                  -1.744
REMARK UNBOUND:                -1.360
REMARK SMILES O=C([O-])CCCCCCCCCCCCCCC(=O)[O-]
REMARK SMILES IDX 10 1 9 2 8 3 7 4 6 5 5 6 4 7 2 8 1 9 3 10 11 11 12 12 13 13
REMARK SMILES IDX 14 14 15 15 16 16 17 17 18 18 19 19 20 20
REMARK H PARENT
REMARK Flexibility Score: inf
ROOT
ATOM      1  C   UNL     1     -96.931 -44.762 -69.591  1.00  0.00     0.000 C 
ENDROOT
BRANCH   1   2
ATOM      2  C   UNL     1     -97.857 -45.687 -68.780  1.00  0.00     0.000 C 
BRANCH   2   3
ATOM      3  C   UNL     1     -98.381 -46.872 -69.607  1.00  0.00     0.000 C 
BRANCH   3   4
ATOM      4  C   UNL     1     -97.826 -46.889 -71.039  1.00  0.00     0.000 C 
BRANCH   4   5
ATOM      5  C   UNL     1     -98.491 -47.991 -71.872  1.00  0.00     0.000 C 
BRANCH   5   6
ATOM      6  C   UNL     1     -99.304 -47.395 -73.027  1.00  0.00     0.006 C 
BRANCH   6   7
ATOM      7  C   UNL     1    -100.787 -47.757 -72.901  1.00  0.00     0.053 C 
BRANCH   7   8
ATOM      8  C   UNL     1    -101.567 -46.593 -72.376  1.00  0.00     0.041 C 
ATOM      9  O   UNL     1    -102.823 -46.648 -72.315  1.00  0.00    -0.550 OA
ATOM     10  O   UNL     1    -100.903 -45.466 -71.909  1.00  0.00    -0.550 OA
ENDBRANCH   7   8
ENDBRANCH   6   7
ENDBRANCH   5   6
ENDBRANCH   4   5
ENDBRANCH   3   4
ENDBRANCH   2   3
ENDBRANCH   1   2
BRANCH   1  11
ATOM     11  C   UNL     1     -95.500 -44.722 -69.031  1.00  0.00     0.000 C 
BRANCH  11  12
ATOM     12  C   UNL     1     -95.138 -45.988 -68.241  1.00  0.00     0.000 C 
BRANCH  12  13
ATOM     13  C   UNL     1     -93.966 -46.728 -68.899  1.00  0.00     0.000 C 
BRANCH  13  14
ATOM     14  C   UNL     1     -94.065 -46.666 -70.430  1.00  0.00     0.000 C 
BRANCH  14  15
ATOM     15  C   UNL     1     -94.381 -48.031 -71.067  1.00  0.00     0.000 C 
BRANCH  15  16
ATOM     16  C   UNL     1     -94.312 -48.062 -72.606  1.00  0.00     0.006 C 
BRANCH  16  17
ATOM     17  C   UNL     1     -95.144 -49.196 -73.218  1.00  0.00     0.053 C 
BRANCH  17  18
ATOM     18  C   UNL     1     -94.265 -50.354 -73.572  1.00  0.00     0.041 C 
ATOM     19  O   UNL     1     -94.765 -51.492 -73.768  1.00  0.00    -0.550 OA
ATOM     20  O   UNL     1     -92.898 -50.165 -73.737  1.00  0.00    -0.550 OA
ENDBRANCH  17  18
ENDBRANCH  16  17
ENDBRANCH  15  16
ENDBRANCH  14  15
ENDBRANCH  13  14
ENDBRANCH  12  13
ENDBRANCH  11  12
ENDBRANCH   1  11
TORSDOF 15
ENDMDL
MODEL 4
REMARK VINA RESULT:    -3.651     13.430     15.158
REMARK INTER + INTRA:          -8.212
REMARK INTER:                  -6.338
REMARK INTRA:                  -1.875
REMARK UNBOUND:                -1.360
REMARK SMILES O=C([O-])CCCCCCCCCCCCCCC(=O)[O-]
REMARK SMILES IDX 10 1 9 2 8 3 7 4 6 5 5 6 4 7 2 8 1 9 3 10 11 11 12 12 13 13
REMARK SMILES IDX 14 14 15 15 16 16 17 17 18 18 19 19 20 20
REMARK H PARENT
REMARK Flexibility Score: inf
ROOT
ATOM      1  C   UNL     1     -96.888 -44.926 -69.344  1.00  0.00     0.000 C 
ENDROOT
BRANCH   1   2
ATOM      2  C   UNL     1     -95.402 -44.832 -68.953  1.00  0.00     0.000 C 
BRANCH   2   3
ATOM      3  C   UNL     1     -94.928 -46.045 -68.137  1.00  0.00     0.000 C 
BRANCH   3   4
ATOM      4  C   UNL     1     -94.014 -46.982 -68.942  1.00  0.00     0.000 C 
BRANCH   4   5
ATOM      5  C   UNL     1     -93.318 -46.226 -70.079  1.00  0.00     0.000 C 
BRANCH   5   6
ATOM      6  C   UNL     1     -93.505 -46.951 -71.418  1.00  0.00     0.006 C 
BRANCH   6   7
ATOM      7  C   UNL     1     -94.533 -48.080 -71.293  1.00  0.00     0.053 C 
BRANCH   7   8
ATOM      8  C   UNL     1     -94.927 -48.581 -72.646  1.00  0.00     0.041 C 
ATOM      9  O   UNL     1     -95.276 -47.771 -73.545  1.00  0.00    -0.550 OA
ATOM     10  O   UNL     1     -94.865 -49.939 -72.928  1.00  0.00    -0.550 OA
ENDBRANCH   7   8
ENDBRANCH   6   7
ENDBRANCH   5   6
ENDBRANCH   4   5
ENDBRANCH   3   4
ENDBRANCH   2   3
ENDBRANCH   1   2
BRANCH   1  11
ATOM     11  C   UNL     1     -97.601 -46.110 -68.669  1.00  0.00     0.000 C 
BRANCH  11  12
ATOM     12  C   UNL     1     -98.542 -46.858 -69.624  1.00  0.00     0.000 C 
BRANCH  12  13
ATOM     13  C   UNL     1     -97.975 -46.877 -71.050  1.00  0.00     0.000 C 
BRANCH  13  14
ATOM     14  C   UNL     1     -98.515 -48.076 -71.841  1.00  0.00     0.000 C 
BRANCH  14  15
ATOM     15  C   UNL     1     -99.350 -47.661 -73.067  1.00  0.00     0.000 C 
BRANCH  15  16
ATOM     16  C   UNL     1    -100.870 -47.597 -72.827  1.00  0.00     0.006 C 
BRANCH  16  17
ATOM     17  C   UNL     1    -101.369 -46.176 -72.537  1.00  0.00     0.053 C 
BRANCH  17  18
ATOM     18  C   UNL     1    -101.885 -46.081 -71.136  1.00  0.00     0.041 C 
ATOM     19  O   UNL     1    -102.548 -47.028 -70.638  1.00  0.00    -0.550 OA
ATOM     20  O   UNL     1    -101.589 -44.966 -70.360  1.00  0.00    -0.550 OA
ENDBRANCH  17  18
ENDBRANCH  16  17
ENDBRANCH  15  16
ENDBRANCH  14  15
ENDBRANCH  13  14
ENDBRANCH  12  13
ENDBRANCH  11  12
ENDBRANCH   1  11
TORSDOF 15
ENDMDL
MODEL 5
REMARK VINA RESULT:    -3.649     13.892     15.879
REMARK INTER + INTRA:          -8.209
REMARK INTER:                  -6.462
REMARK INTRA:                  -1.747
REMARK UNBOUND:                -1.360
REMARK SMILES O=C([O-])CCCCCCCCCCCCCCC(=O)[O-]
REMARK SMILES IDX 10 1 9 2 8 3 7 4 6 5 5 6 4 7 2 8 1 9 3 10 11 11 12 12 13 13
REMARK SMILES IDX 14 14 15 15 16 16 17 17 18 18 19 19 20 20
REMARK H PARENT
REMARK Flexibility Score: inf
ROOT
ATOM      1  C   UNL     1     -98.527 -46.943 -69.574  1.00  0.00     0.000 C 
ENDROOT
BRANCH   1   2
ATOM      2  C   UNL     1     -98.436 -46.760 -71.100  1.00  0.00     0.000 C 
BRANCH   2   3
ATOM      3  C   UNL     1     -98.732 -48.057 -71.870  1.00  0.00     0.000 C 
BRANCH   3   4
ATOM      4  C   UNL     1     -99.730 -47.853 -73.019  1.00  0.00     0.000 C 
BRANCH   4   5
ATOM      5  C   UNL     1    -100.723 -46.732 -72.691  1.00  0.00     0.000 C 
BRANCH   5   6
ATOM      6  C   UNL     1    -102.081 -47.305 -72.268  1.00  0.00     0.006 C 
BRANCH   6   7
ATOM      7  C   UNL     1    -102.415 -46.920 -70.823  1.00  0.00     0.053 C 
BRANCH   7   8
ATOM      8  C   UNL     1    -103.614 -47.674 -70.344  1.00  0.00     0.041 C 
ATOM      9  O   UNL     1    -104.197 -47.329 -69.282  1.00  0.00    -0.550 OA
ATOM     10  O   UNL     1    -104.118 -48.728 -71.095  1.00  0.00    -0.550 OA
ENDBRANCH   7   8
ENDBRANCH   6   7
ENDBRANCH   5   6
ENDBRANCH   4   5
ENDBRANCH   3   4
ENDBRANCH   2   3
ENDBRANCH   1   2
BRANCH   1  11
ATOM     11  C   UNL     1     -97.707 -45.894 -68.805  1.00  0.00     0.000 C 
BRANCH  11  12
ATOM     12  C   UNL     1     -96.931 -44.950 -69.735  1.00  0.00     0.000 C 
BRANCH  12  13
ATOM     13  C   UNL     1     -95.474 -44.804 -69.274  1.00  0.00     0.000 C 
BRANCH  13  14
ATOM     14  C   UNL     1     -95.106 -45.895 -68.259  1.00  0.00     0.000 C 
BRANCH  14  15
ATOM     15  C   UNL     1     -94.056 -46.885 -68.796  1.00  0.00     0.000 C 
BRANCH  15  16
ATOM     16  C   UNL     1     -93.768 -46.773 -70.305  1.00  0.00     0.006 C 
BRANCH  16  17
ATOM     17  C   UNL     1     -94.277 -47.980 -71.101  1.00  0.00     0.053 C 
BRANCH  17  18
ATOM     18  C   UNL     1     -95.007 -47.526 -72.327  1.00  0.00     0.041 C 
ATOM     19  O   UNL     1     -95.501 -48.370 -73.119  1.00  0.00    -0.550 OA
ATOM     20  O   UNL     1     -95.185 -46.170 -72.568  1.00  0.00    -0.550 OA
ENDBRANCH  17  18
ENDBRANCH  16  17
ENDBRANCH  15  16
ENDBRANCH  14  15
ENDBRANCH  13  14
ENDBRANCH  12  13
ENDBRANCH  11  12
ENDBRANCH   1  11
TORSDOF 15
ENDMDL
MODEL 6
REMARK VINA RESULT:    -3.335     13.921     15.287
REMARK INTER + INTRA:          -7.620
REMARK INTER:                  -5.967
REMARK INTRA:                  -1.653
REMARK UNBOUND:                -1.360
REMARK SMILES O=C([O-])CCCCCCCCCCCCCCC(=O)[O-]
REMARK SMILES IDX 10 1 9 2 8 3 7 4 6 5 5 6 4 7 2 8 1 9 3 10 11 11 12 12 13 13
REMARK SMILES IDX 14 14 15 15 16 16 17 17 18 18 19 19 20 20
REMARK H PARENT
REMARK Flexibility Score: inf
ROOT
ATOM      1  C   UNL     1     -97.775 -46.156 -69.224  1.00  0.00     0.000 C 
ENDROOT
BRANCH   1   2
ATOM      2  C   UNL     1     -97.040 -44.866 -69.632  1.00  0.00     0.000 C 
BRANCH   2   3
ATOM      3  C   UNL     1     -95.541 -44.908 -69.295  1.00  0.00     0.000 C 
BRANCH   3   4
ATOM      4  C   UNL     1     -95.188 -46.015 -68.290  1.00  0.00     0.000 C 
BRANCH   4   5
ATOM      5  C   UNL     1     -94.035 -46.882 -68.811  1.00  0.00     0.000 C 
BRANCH   5   6
ATOM      6  C   UNL     1     -93.863 -46.717 -70.326  1.00  0.00     0.006 C 
BRANCH   6   7
ATOM      7  C   UNL     1     -94.340 -47.966 -71.073  1.00  0.00     0.053 C 
BRANCH   7   8
ATOM      8  C   UNL     1     -95.185 -47.584 -72.246  1.00  0.00     0.041 C 
ATOM      9  O   UNL     1     -95.438 -46.373 -72.477  1.00  0.00    -0.550 OA
ATOM     10  O   UNL     1     -95.655 -48.563 -73.111  1.00  0.00    -0.550 OA
ENDBRANCH   7   8
ENDBRANCH   6   7
ENDBRANCH   5   6
ENDBRANCH   4   5
ENDBRANCH   3   4
ENDBRANCH   2   3
ENDBRANCH   1   2
BRANCH   1  11
ATOM     11  C   UNL     1     -98.916 -46.515 -70.189  1.00  0.00     0.000 C 
BRANCH  11  12
ATOM     12  C   UNL     1     -98.576 -47.709 -71.092  1.00  0.00     0.000 C 
BRANCH  12  13
ATOM     13  C   UNL     1     -99.043 -47.458 -72.532  1.00  0.00     0.000 C 
BRANCH  13  14
ATOM     14  C   UNL     1    -100.413 -46.764 -72.553  1.00  0.00     0.000 C 
BRANCH  14  15
ATOM     15  C   UNL     1    -101.582 -47.747 -72.751  1.00  0.00     0.000 C 
BRANCH  15  16
ATOM     16  C   UNL     1    -102.931 -47.278 -72.174  1.00  0.00     0.006 C 
BRANCH  16  17
ATOM     17  C   UNL     1    -102.772 -46.376 -70.943  1.00  0.00     0.053 C 
BRANCH  17  18
ATOM     18  C   UNL     1    -103.769 -46.748 -69.892  1.00  0.00     0.041 C 
ATOM     19  O   UNL     1    -104.465 -45.859 -69.336  1.00  0.00    -0.550 OA
ATOM     20  O   UNL     1    -103.967 -48.083 -69.562  1.00  0.00    -0.550 OA
ENDBRANCH  17  18
ENDBRANCH  16  17
ENDBRANCH  15  16
ENDBRANCH  14  15
ENDBRANCH  13  14
ENDBRANCH  12  13
ENDBRANCH  11  12
ENDBRANCH   1  11
TORSDOF 15
ENDMDL
MODEL 7
REMARK VINA RESULT:    -3.293     14.434     16.292
REMARK INTER + INTRA:          -7.541
REMARK INTER:                  -5.484
REMARK INTRA:                  -2.057
REMARK UNBOUND:                -1.360
REMARK SMILES O=C([O-])CCCCCCCCCCCCCCC(=O)[O-]
REMARK SMILES IDX 10 1 9 2 8 3 7 4 6 5 5 6 4 7 2 8 1 9 3 10 11 11 12 12 13 13
REMARK SMILES IDX 14 14 15 15 16 16 17 17 18 18 19 19 20 20
REMARK H PARENT
REMARK Flexibility Score: inf
ROOT
ATOM      1  C   UNL     1     -96.826 -44.861 -69.738  1.00  0.00     0.000 C 
ENDROOT
BRANCH   1   2
ATOM      2  C   UNL     1     -97.860 -45.617 -68.883  1.00  0.00     0.000 C 
BRANCH   2   3
ATOM      3  C   UNL     1     -98.438 -46.845 -69.605  1.00  0.00     0.000 C 
BRANCH   3   4
ATOM      4  C   UNL     1     -97.901 -47.002 -71.035  1.00  0.00     0.000 C 
BRANCH   4   5
ATOM      5  C   UNL     1     -98.880 -47.799 -71.904  1.00  0.00     0.000 C 
BRANCH   5   6
ATOM      6  C   UNL     1     -99.871 -46.868 -72.613  1.00  0.00     0.006 C 
BRANCH   6   7
ATOM      7  C   UNL     1    -101.265 -47.500 -72.686  1.00  0.00     0.053 C 
BRANCH   7   8
ATOM      8  C   UNL     1    -102.192 -46.835 -71.719  1.00  0.00     0.041 C 
ATOM      9  O   UNL     1    -103.430 -47.065 -71.768  1.00  0.00    -0.550 OA
ATOM     10  O   UNL     1    -101.685 -45.999 -70.734  1.00  0.00    -0.550 OA
ENDBRANCH   7   8
ENDBRANCH   6   7
ENDBRANCH   5   6
ENDBRANCH   4   5
ENDBRANCH   3   4
ENDBRANCH   2   3
ENDBRANCH   1   2
BRANCH   1  11
ATOM     11  C   UNL     1     -95.422 -44.873 -69.112  1.00  0.00     0.000 C 
BRANCH  11  12
ATOM     12  C   UNL     1     -95.225 -46.028 -68.120  1.00  0.00     0.000 C 
BRANCH  12  13
ATOM     13  C   UNL     1     -94.006 -46.878 -68.502  1.00  0.00     0.000 C 
BRANCH  13  14
ATOM     14  C   UNL     1     -93.698 -46.754 -70.001  1.00  0.00     0.000 C 
BRANCH  14  15
ATOM     15  C   UNL     1     -94.338 -47.875 -70.840  1.00  0.00     0.000 C 
BRANCH  15  16
ATOM     16  C   UNL     1     -94.573 -47.525 -72.322  1.00  0.00     0.006 C 
BRANCH  16  17
ATOM     17  C   UNL     1     -94.489 -46.019 -72.599  1.00  0.00     0.053 C 
BRANCH  17  18
ATOM     18  C   UNL     1     -95.501 -45.621 -73.627  1.00  0.00     0.041 C 
ATOM     19  O   UNL     1     -95.519 -44.445 -74.077  1.00  0.00    -0.550 OA
ATOM     20  O   UNL     1     -96.394 -46.562 -74.125  1.00  0.00    -0.550 OA
ENDBRANCH  17  18
ENDBRANCH  16  17
ENDBRANCH  15  16
ENDBRANCH  14  15
ENDBRANCH  13  14
ENDBRANCH  12  13
ENDBRANCH  11  12
ENDBRANCH   1  11
TORSDOF 15
ENDMDL
MODEL 8
REMARK VINA RESULT:    -3.211     16.266     20.480
REMARK INTER + INTRA:          -7.386
REMARK INTER:                  -4.942
REMARK INTRA:                  -2.444
REMARK UNBOUND:                -1.360
REMARK SMILES O=C([O-])CCCCCCCCCCCCCCC(=O)[O-]
REMARK SMILES IDX 10 1 9 2 8 3 7 4 6 5 5 6 4 7 2 8 1 9 3 10 11 11 12 12 13 13
REMARK SMILES IDX 14 14 15 15 16 16 17 17 18 18 19 19 20 20
REMARK H PARENT
REMARK Flexibility Score: inf
ROOT
ATOM      1  C   UNL     1    -110.145 -45.526 -57.068  1.00  0.00     0.000 C 
ENDROOT
BRANCH   1   2
ATOM      2  C   UNL     1    -109.465 -46.759 -56.445  1.00  0.00     0.000 C 
BRANCH   2   3
ATOM      3  C   UNL     1    -107.975 -46.858 -56.806  1.00  0.00     0.000 C 
BRANCH   3   4
ATOM      4  C   UNL     1    -107.537 -48.292 -57.140  1.00  0.00     0.000 C 
BRANCH   4   5
ATOM      5  C   UNL     1    -108.599 -49.306 -56.699  1.00  0.00     0.000 C 
BRANCH   5   6
ATOM      6  C   UNL     1    -108.887 -50.322 -57.811  1.00  0.00     0.006 C 
BRANCH   6   7
ATOM      7  C   UNL     1    -110.200 -49.995 -58.528  1.00  0.00     0.053 C 
BRANCH   7   8
ATOM      8  C   UNL     1    -110.348 -50.833 -59.758  1.00  0.00     0.041 C 
ATOM      9  O   UNL     1    -111.098 -50.455 -60.697  1.00  0.00    -0.550 OA
ATOM     10  O   UNL     1    -109.621 -52.009 -59.889  1.00  0.00    -0.550 OA
ENDBRANCH   7   8
ENDBRANCH   6   7
ENDBRANCH   5   6
ENDBRANCH   4   5
ENDBRANCH   3   4
ENDBRANCH   2   3
ENDBRANCH   1   2
BRANCH   1  11
ATOM     11  C   UNL     1    -110.008 -45.488 -58.598  1.00  0.00     0.000 C 
BRANCH  11  12
ATOM     12  C   UNL     1    -111.001 -46.423 -59.306  1.00  0.00     0.000 C 
BRANCH  12  13
ATOM     13  C   UNL     1    -110.393 -46.995 -60.593  1.00  0.00     0.000 C 
BRANCH  13  14
ATOM     14  C   UNL     1    -108.870 -46.793 -60.619  1.00  0.00     0.000 C 
BRANCH  14  15
ATOM     15  C   UNL     1    -108.100 -48.080 -60.969  1.00  0.00     0.000 C 
BRANCH  15  16
ATOM     16  C   UNL     1    -108.429 -48.680 -62.349  1.00  0.00     0.006 C 
BRANCH  16  17
ATOM     17  C   UNL     1    -107.884 -50.102 -62.526  1.00  0.00     0.053 C 
BRANCH  17  18
ATOM     18  C   UNL     1    -107.245 -50.252 -63.870  1.00  0.00     0.041 C 
ATOM     19  O   UNL     1    -107.458 -49.400 -64.772  1.00  0.00    -0.550 OA
ATOM     20  O   UNL     1    -106.372 -51.306 -64.112  1.00  0.00    -0.550 OA
ENDBRANCH  17  18
ENDBRANCH  16  17
ENDBRANCH  15  16
ENDBRANCH  14  15
ENDBRANCH  13  14
ENDBRANCH  12  13
ENDBRANCH  11  12
ENDBRANCH   1  11
TORSDOF 15
ENDMDL
MODEL 9
REMARK VINA RESULT:    -3.189     14.016     16.057
REMARK INTER + INTRA:          -7.346
REMARK INTER:                  -5.273
REMARK INTRA:                  -2.073
REMARK UNBOUND:                -1.360
REMARK SMILES O=C([O-])CCCCCCCCCCCCCCC(=O)[O-]
REMARK SMILES IDX 10 1 9 2 8 3 7 4 6 5 5 6 4 7 2 8 1 9 3 10 11 11 12 12 13 13
REMARK SMILES IDX 14 14 15 15 16 16 17 17 18 18 19 19 20 20
REMARK H PARENT
REMARK Flexibility Score: inf
ROOT
ATOM      1  C   UNL     1     -93.887 -47.457 -71.457  1.00  0.00     0.000 C 
ENDROOT
BRANCH   1   2
ATOM      2  C   UNL     1     -94.054 -47.520 -69.928  1.00  0.00     0.000 C 
BRANCH   2   3
ATOM      3  C   UNL     1     -93.730 -46.184 -69.242  1.00  0.00     0.000 C 
BRANCH   3   4
ATOM      4  C   UNL     1     -93.322 -45.088 -70.238  1.00  0.00     0.000 C 
BRANCH   4   5
ATOM      5  C   UNL     1     -94.278 -43.891 -70.159  1.00  0.00     0.000 C 
BRANCH   5   6
ATOM      6  C   UNL     1     -95.334 -44.101 -69.067  1.00  0.00     0.006 C 
BRANCH   6   7
ATOM      7  C   UNL     1     -96.749 -44.021 -69.648  1.00  0.00     0.053 C 
BRANCH   7   8
ATOM      8  C   UNL     1     -97.645 -45.018 -68.985  1.00  0.00     0.041 C 
ATOM      9  O   UNL     1     -97.264 -46.208 -68.830  1.00  0.00    -0.550 OA
ATOM     10  O   UNL     1     -98.882 -44.621 -68.494  1.00  0.00    -0.550 OA
ENDBRANCH   7   8
ENDBRANCH   6   7
ENDBRANCH   5   6
ENDBRANCH   4   5
ENDBRANCH   3   4
ENDBRANCH   2   3
ENDBRANCH   1   2
BRANCH   1  11
ATOM     11  C   UNL     1     -94.781 -48.470 -72.190  1.00  0.00     0.000 C 
BRANCH  11  12
ATOM     12  C   UNL     1     -95.773 -47.799 -73.151  1.00  0.00     0.000 C 
BRANCH  12  13
ATOM     13  C   UNL     1     -96.162 -46.402 -72.649  1.00  0.00     0.000 C 
BRANCH  13  14
ATOM     14  C   UNL     1     -97.685 -46.275 -72.499  1.00  0.00     0.000 C 
BRANCH  14  15
ATOM     15  C   UNL     1     -98.335 -47.526 -71.880  1.00  0.00     0.000 C 
BRANCH  15  16
ATOM     16  C   UNL     1     -99.661 -47.961 -72.532  1.00  0.00     0.006 C 
BRANCH  16  17
ATOM     17  C   UNL     1    -100.599 -46.781 -72.820  1.00  0.00     0.053 C 
BRANCH  17  18
ATOM     18  C   UNL     1    -101.221 -46.288 -71.552  1.00  0.00     0.041 C 
ATOM     19  O   UNL     1    -102.006 -47.026 -70.902  1.00  0.00    -0.550 OA
ATOM     20  O   UNL     1    -100.893 -45.030 -71.060  1.00  0.00    -0.550 OA
ENDBRANCH  17  18
ENDBRANCH  16  17
ENDBRANCH  15  16
ENDBRANCH  14  15
ENDBRANCH  13  14
ENDBRANCH  12  13
ENDBRANCH  11  12
ENDBRANCH   1  11
TORSDOF 15
ENDMDL
