MODEL 1
REMARK VINA RESULT:    -3.835      0.000      0.000
REMARK INTER + INTRA:          -4.617
REMARK INTER:                  -4.507
REMARK INTRA:                  -0.110
REMARK UNBOUND:                -0.110
REMARK SMILES O=C([O-])CCC(=O)[O-]
REMARK SMILES IDX 4 1 2 2 1 3 3 4 5 5 6 6 7 7 8 8
REMARK H PARENT
REMARK Flexibility Score: inf
ROOT
ATOM      1  C   UNL     1     126.127 144.998 139.725  1.00  0.00     0.059 C 
ENDROOT
BRANCH   1   2
ATOM      2  C   UNL     1     125.897 145.362 138.290  1.00  0.00     0.042 C 
ATOM      3  O   UNL     1     125.762 146.568 137.955  1.00  0.00    -0.550 OA
ATOM      4  O   UNL     1     125.793 144.365 137.327  1.00  0.00    -0.550 OA
ENDBRANCH   1   2
BRANCH   1   5
ATOM      5  C   UNL     1     126.205 143.479 139.915  1.00  0.00     0.059 C 
BRANCH   5   6
ATOM      6  C   UNL     1     127.624 142.999 139.948  1.00  0.00     0.042 C 
ATOM      7  O   UNL     1     128.304 143.105 141.002  1.00  0.00    -0.550 OA
ATOM      8  O   UNL     1     128.207 142.475 138.801  1.00  0.00    -0.550 OA
ENDBRANCH   5   6
ENDBRANCH   1   5
TORSDOF 3
ENDMDL
MODEL 2
REMARK VINA RESULT:    -3.827      0.077      3.737
REMARK INTER + INTRA:          -4.608
REMARK INTER:                  -4.501
REMARK INTRA:                  -0.108
REMARK UNBOUND:                -0.110
REMARK SMILES O=C([O-])CCC(=O)[O-]
REMARK SMILES IDX 4 1 2 2 1 3 3 4 5 5 6 6 7 7 8 8
REMARK H PARENT
REMARK Flexibility Score: inf
ROOT
ATOM      1  C   UNL     1     126.234 143.444 139.872  1.00  0.00     0.059 C 
ENDROOT
BRANCH   1   2
ATOM      2  C   UNL     1     127.662 142.989 139.885  1.00  0.00     0.042 C 
ATOM      3  O   UNL     1     128.206 142.574 138.828  1.00  0.00    -0.550 OA
ATOM      4  O   UNL     1     128.380 142.987 141.075  1.00  0.00    -0.550 OA
ENDBRANCH   1   2
BRANCH   1   5
ATOM      5  C   UNL     1     126.130 144.965 139.714  1.00  0.00     0.059 C 
BRANCH   5   6
ATOM      6  C   UNL     1     125.911 145.357 138.285  1.00  0.00     0.042 C 
ATOM      7  O   UNL     1     125.790 146.571 137.972  1.00  0.00    -0.550 OA
ATOM      8  O   UNL     1     125.799 144.379 137.305  1.00  0.00    -0.550 OA
ENDBRANCH   5   6
ENDBRANCH   1   5
TORSDOF 3
ENDMDL
MODEL 3
REMARK VINA RESULT:    -3.722      0.275      1.638
REMARK INTER + INTRA:          -4.485
REMARK INTER:                  -4.379
REMARK INTRA:                  -0.107
REMARK UNBOUND:                -0.110
REMARK SMILES O=C([O-])CCC(=O)[O-]
REMARK SMILES IDX 4 1 2 2 1 3 3 4 5 5 6 6 7 7 8 8
REMARK H PARENT
REMARK Flexibility Score: inf
ROOT
ATOM      1  C   UNL     1     126.315 144.922 139.884  1.00  0.00     0.059 C 
ENDROOT
BRANCH   1   2
ATOM      2  C   UNL     1     125.957 145.268 138.470  1.00  0.00     0.042 C 
ATOM      3  O   UNL     1     125.882 144.365 137.596  1.00  0.00    -0.550 OA
ATOM      4  O   UNL     1     125.745 146.594 138.111  1.00  0.00    -0.550 OA
ENDBRANCH   1   2
BRANCH   1   5
ATOM      5  C   UNL     1     126.368 143.405 140.096  1.00  0.00     0.059 C 
BRANCH   5   6
ATOM      6  C   UNL     1     127.778 142.899 140.106  1.00  0.00     0.042 C 
ATOM      7  O   UNL     1     128.316 142.503 139.039  1.00  0.00    -0.550 OA
ATOM      8  O   UNL     1     128.481 142.826 141.301  1.00  0.00    -0.550 OA
ENDBRANCH   5   6
ENDBRANCH   1   5
TORSDOF 3
ENDMDL
MODEL 4
REMARK VINA RESULT:    -3.495     16.061     16.632
REMARK INTER + INTRA:          -4.218
REMARK INTER:                  -4.086
REMARK INTRA:                  -0.132
REMARK UNBOUND:                -0.110
REMARK SMILES O=C([O-])CCC(=O)[O-]
REMARK SMILES IDX 4 1 2 2 1 3 3 4 5 5 6 6 7 7 8 8
REMARK H PARENT
REMARK Flexibility Score: inf
ROOT
ATOM      1  C   UNL     1     139.939 133.025 139.351  1.00  0.00     0.059 C 
ENDROOT
BRANCH   1   2
ATOM      2  C   UNL     1     138.939 133.383 138.294  1.00  0.00     0.042 C 
ATOM      3  O   UNL     1     137.729 133.063 138.431  1.00  0.00    -0.550 OA
ATOM      4  O   UNL     1     139.351 134.038 137.139  1.00  0.00    -0.550 OA
ENDBRANCH   1   2
BRANCH   1   5
ATOM      5  C   UNL     1     139.929 134.037 140.502  1.00  0.00     0.059 C 
BRANCH   5   6
ATOM      6  C   UNL     1     140.819 135.207 140.215  1.00  0.00     0.042 C 
ATOM      7  O   UNL     1     142.047 135.151 140.489  1.00  0.00    -0.550 OA
ATOM      8  O   UNL     1     140.284 136.374 139.684  1.00  0.00    -0.550 OA
ENDBRANCH   5   6
ENDBRANCH   1   5
TORSDOF 3
ENDMDL
MODEL 5
REMARK VINA RESULT:    -3.491     16.065     16.694
REMARK INTER + INTRA:          -4.213
REMARK INTER:                  -4.083
REMARK INTRA:                  -0.130
REMARK UNBOUND:                -0.110
REMARK SMILES O=C([O-])CCC(=O)[O-]
REMARK SMILES IDX 4 1 2 2 1 3 3 4 5 5 6 6 7 7 8 8
REMARK H PARENT
REMARK Flexibility Score: inf
ROOT
ATOM      1  C   UNL     1     139.897 134.079 140.451  1.00  0.00     0.059 C 
ENDROOT
BRANCH   1   2
ATOM      2  C   UNL     1     140.790 135.248 140.170  1.00  0.00     0.042 C 
ATOM      3  O   UNL     1     142.002 135.217 140.510  1.00  0.00    -0.550 OA
ATOM      4  O   UNL     1     140.274 136.389 139.568  1.00  0.00    -0.550 OA
ENDBRANCH   1   2
BRANCH   1   5
ATOM      5  C   UNL     1     139.934 133.056 139.310  1.00  0.00     0.059 C 
BRANCH   5   6
ATOM      6  C   UNL     1     138.912 133.365 138.259  1.00  0.00     0.042 C 
ATOM      7  O   UNL     1     137.720 132.986 138.403  1.00  0.00    -0.550 OA
ATOM      8  O   UNL     1     139.287 134.035 137.101  1.00  0.00    -0.550 OA
ENDBRANCH   5   6
ENDBRANCH   1   5
TORSDOF 3
ENDMDL
MODEL 6
REMARK VINA RESULT:    -3.450     15.674     16.809
REMARK INTER + INTRA:          -4.165
REMARK INTER:                  -4.053
REMARK INTRA:                  -0.113
REMARK UNBOUND:                -0.110
REMARK SMILES O=C([O-])CCC(=O)[O-]
REMARK SMILES IDX 4 1 2 2 1 3 3 4 5 5 6 6 7 7 8 8
REMARK H PARENT
REMARK Flexibility Score: inf
ROOT
ATOM      1  C   UNL     1     140.410 134.252 139.295  1.00  0.00     0.059 C 
ENDROOT
BRANCH   1   2
ATOM      2  C   UNL     1     141.076 134.818 140.512  1.00  0.00     0.042 C 
ATOM      3  O   UNL     1     142.260 135.241 140.448  1.00  0.00    -0.550 OA
ATOM      4  O   UNL     1     140.401 134.842 141.727  1.00  0.00    -0.550 OA
ENDBRANCH   1   2
BRANCH   1   5
ATOM      5  C   UNL     1     139.658 132.955 139.617  1.00  0.00     0.059 C 
BRANCH   5   6
ATOM      6  C   UNL     1     138.174 133.148 139.553  1.00  0.00     0.042 C 
ATOM      7  O   UNL     1     137.554 132.937 138.477  1.00  0.00    -0.550 OA
ATOM      8  O   UNL     1     137.483 133.600 140.669  1.00  0.00    -0.550 OA
ENDBRANCH   5   6
ENDBRANCH   1   5
TORSDOF 3
ENDMDL
MODEL 7
REMARK VINA RESULT:    -3.439     15.522     16.522
REMARK INTER + INTRA:          -4.153
REMARK INTER:                  -4.042
REMARK INTRA:                  -0.111
REMARK UNBOUND:                -0.110
REMARK SMILES O=C([O-])CCC(=O)[O-]
REMARK SMILES IDX 4 1 2 2 1 3 3 4 5 5 6 6 7 7 8 8
REMARK H PARENT
REMARK Flexibility Score: inf
ROOT
ATOM      1  C   UNL     1     139.583 132.961 139.771  1.00  0.00     0.059 C 
ENDROOT
BRANCH   1   2
ATOM      2  C   UNL     1     138.120 133.211 139.574  1.00  0.00     0.042 C 
ATOM      3  O   UNL     1     137.568 132.925 138.479  1.00  0.00    -0.550 OA
ATOM      4  O   UNL     1     137.372 133.798 140.588  1.00  0.00    -0.550 OA
ENDBRANCH   1   2
BRANCH   1   5
ATOM      5  C   UNL     1     140.434 134.063 139.131  1.00  0.00     0.059 C 
BRANCH   5   6
ATOM      6  C   UNL     1     140.936 135.036 140.153  1.00  0.00     0.042 C 
ATOM      7  O   UNL     1     142.165 135.101 140.417  1.00  0.00    -0.550 OA
ATOM      8  O   UNL     1     140.040 135.843 140.842  1.00  0.00    -0.550 OA
ENDBRANCH   5   6
ENDBRANCH   1   5
TORSDOF 3
ENDMDL
MODEL 8
REMARK VINA RESULT:    -3.431     14.749     16.049
REMARK INTER + INTRA:          -4.144
REMARK INTER:                  -3.973
REMARK INTRA:                  -0.171
REMARK UNBOUND:                -0.110
REMARK SMILES O=C([O-])CCC(=O)[O-]
REMARK SMILES IDX 4 1 2 2 1 3 3 4 5 5 6 6 7 7 8 8
REMARK H PARENT
REMARK Flexibility Score: inf
ROOT
ATOM      1  C   UNL     1     139.639 134.793 137.930  1.00  0.00     0.059 C 
ENDROOT
BRANCH   1   2
ATOM      2  C   UNL     1     139.550 135.967 138.856  1.00  0.00     0.042 C 
ATOM      3  O   UNL     1     138.540 136.719 138.832  1.00  0.00    -0.550 OA
ATOM      4  O   UNL     1     140.601 136.255 139.718  1.00  0.00    -0.550 OA
ENDBRANCH   1   2
BRANCH   1   5
ATOM      5  C   UNL     1     140.092 133.528 138.668  1.00  0.00     0.059 C 
BRANCH   5   6
ATOM      6  C   UNL     1     139.071 133.076 139.667  1.00  0.00     0.042 C 
ATOM      7  O   UNL     1     137.968 132.609 139.278  1.00  0.00    -0.550 OA
ATOM      8  O   UNL     1     139.321 133.211 141.026  1.00  0.00    -0.550 OA
ENDBRANCH   5   6
ENDBRANCH   1   5
TORSDOF 3
ENDMDL
MODEL 9
REMARK VINA RESULT:    -3.416      1.340      4.268
REMARK INTER + INTRA:          -4.125
REMARK INTER:                  -4.097
REMARK INTRA:                  -0.028
REMARK UNBOUND:                -0.110
REMARK SMILES O=C([O-])CCC(=O)[O-]
REMARK SMILES IDX 4 1 2 2 1 3 3 4 5 5 6 6 7 7 8 8
REMARK H PARENT
REMARK Flexibility Score: inf
ROOT
ATOM      1  C   UNL     1     127.838 142.759 140.021  1.00  0.00     0.059 C 
ENDROOT
BRANCH   1   2
ATOM      2  C   UNL     1     128.382 142.338 141.352  1.00  0.00     0.042 C 
ATOM      3  O   UNL     1     129.482 142.794 141.761  1.00  0.00    -0.550 OA
ATOM      4  O   UNL     1     127.692 141.412 142.125  1.00  0.00    -0.550 OA
ENDBRANCH   1   2
BRANCH   1   5
ATOM      5  C   UNL     1     126.590 143.635 140.175  1.00  0.00     0.059 C 
BRANCH   5   6
ATOM      6  C   UNL     1     126.218 144.296 138.883  1.00  0.00     0.042 C 
ATOM      7  O   UNL     1     126.123 143.616 137.827  1.00  0.00    -0.550 OA
ATOM      8  O   UNL     1     126.018 145.670 138.837  1.00  0.00    -0.550 OA
ENDBRANCH   5   6
ENDBRANCH   1   5
TORSDOF 3
ENDMDL
