MODEL 1
REMARK VINA RESULT:    -5.188      0.000      0.000
REMARK INTER + INTRA:          -5.491
REMARK INTER:                  -5.491
REMARK INTRA:                   0.000
REMARK UNBOUND:                 0.000
REMARK SMILES Cc1cc(O)c(C)c(C)c1O
REMARK SMILES IDX 1 1 2 2 3 3 4 4 6 5 8 6 10 7 9 8 7 9 11 10 5 12
REMARK H PARENT 11 11 5 13
REMARK Flexibility Score: inf
ROOT
ATOM      1  C   UNL     1       0.562   1.113  11.239  1.00  0.00     0.048 C 
ATOM      2  C   UNL     1       1.614   2.168  11.443  1.00  0.00    -0.005 A 
ATOM      3  C   UNL     1       2.097   2.893  10.351  1.00  0.00     0.053 A 
ATOM      4  C   UNL     1       3.097   3.851  10.510  1.00  0.00     0.119 A 
ATOM      5  C   UNL     1       3.652   4.091  11.790  1.00  0.00    -0.003 A 
ATOM      6  C   UNL     1       3.080   3.449  12.924  1.00  0.00    -0.002 A 
ATOM      7  C   UNL     1       2.109   2.434  12.731  1.00  0.00     0.121 A 
ATOM      8  C   UNL     1       3.502   3.823  14.328  1.00  0.00     0.049 C 
ATOM      9  C   UNL     1       4.826   5.034  11.933  1.00  0.00     0.049 C 
ENDROOT
BRANCH   7  10
ATOM     10  O   UNL     1       1.624   1.664  13.795  1.00  0.00    -0.507 OA
ATOM     11  H   UNL     1       2.203   1.056  14.359  1.00  0.00     0.293 HD
ENDBRANCH   7  10
BRANCH   4  12
ATOM     12  O   UNL     1       3.506   4.554   9.373  1.00  0.00    -0.508 OA
ATOM     13  H   UNL     1       4.472   4.758   9.158  1.00  0.00     0.293 HD
ENDBRANCH   4  12
TORSDOF 2
ENDMDL
MODEL 2
REMARK VINA RESULT:    -5.151     12.574     15.406
REMARK INTER + INTRA:          -5.452
REMARK INTER:                  -5.452
REMARK INTRA:                   0.000
REMARK UNBOUND:                 0.000
REMARK SMILES Cc1cc(O)c(C)c(C)c1O
REMARK SMILES IDX 1 1 2 2 3 3 4 4 6 5 8 6 10 7 9 8 7 9 11 10 5 12
REMARK H PARENT 11 11 5 13
REMARK Flexibility Score: inf
ROOT
ATOM      1  C   UNL     1      -6.632  -4.500  12.463  1.00  0.00     0.048 C 
ATOM      2  C   UNL     1      -7.692  -5.324  13.139  1.00  0.00    -0.005 A 
ATOM      3  C   UNL     1      -7.472  -6.683  13.380  1.00  0.00     0.053 A 
ATOM      4  C   UNL     1      -8.454  -7.475  13.974  1.00  0.00     0.119 A 
ATOM      5  C   UNL     1      -9.703  -6.910  14.327  1.00  0.00    -0.003 A 
ATOM      6  C   UNL     1      -9.888  -5.504  14.201  1.00  0.00    -0.002 A 
ATOM      7  C   UNL     1      -8.902  -4.731  13.538  1.00  0.00     0.121 A 
ATOM      8  C   UNL     1     -11.124  -4.828  14.750  1.00  0.00     0.049 C 
ATOM      9  C   UNL     1     -10.808  -7.802  14.847  1.00  0.00     0.049 C 
ENDROOT
BRANCH   7  10
ATOM     10  O   UNL     1      -9.097  -3.375  13.250  1.00  0.00    -0.507 OA
ATOM     11  H   UNL     1      -9.936  -3.007  12.823  1.00  0.00     0.293 HD
ENDBRANCH   7  10
BRANCH   4  12
ATOM     12  O   UNL     1      -8.147  -8.818  14.208  1.00  0.00    -0.508 OA
ATOM     13  H   UNL     1      -8.838  -9.520  14.434  1.00  0.00     0.293 HD
ENDBRANCH   4  12
TORSDOF 2
ENDMDL
MODEL 3
REMARK VINA RESULT:    -5.149      1.410      2.937
REMARK INTER + INTRA:          -5.450
REMARK INTER:                  -5.450
REMARK INTRA:                   0.000
REMARK UNBOUND:                 0.000
REMARK SMILES Cc1cc(O)c(C)c(C)c1O
REMARK SMILES IDX 1 1 2 2 3 3 4 4 6 5 8 6 10 7 9 8 7 9 11 10 5 12
REMARK H PARENT 11 11 5 13
REMARK Flexibility Score: inf
ROOT
ATOM      1  C   UNL     1       3.200   2.223  15.305  1.00  0.00     0.048 C 
ATOM      2  C   UNL     1       3.241   2.835  13.933  1.00  0.00    -0.005 A 
ATOM      3  C   UNL     1       4.265   3.723  13.594  1.00  0.00     0.053 A 
ATOM      4  C   UNL     1       4.305   4.330  12.340  1.00  0.00     0.119 A 
ATOM      5  C   UNL     1       3.289   4.064  11.392  1.00  0.00    -0.003 A 
ATOM      6  C   UNL     1       2.314   3.068  11.681  1.00  0.00    -0.002 A 
ATOM      7  C   UNL     1       2.256   2.511  12.984  1.00  0.00     0.121 A 
ATOM      8  C   UNL     1       1.334   2.606  10.626  1.00  0.00     0.049 C 
ATOM      9  C   UNL     1       3.265   4.826  10.085  1.00  0.00     0.049 C 
ENDROOT
BRANCH   7  10
ATOM     10  O   UNL     1       1.229   1.642  13.370  1.00  0.00    -0.507 OA
ATOM     11  H   UNL     1       0.261   1.763  13.102  1.00  0.00     0.293 HD
ENDBRANCH   7  10
BRANCH   4  12
ATOM     12  O   UNL     1       5.377   5.184  12.069  1.00  0.00    -0.508 OA
ATOM     13  H   UNL     1       5.552   6.042  12.574  1.00  0.00     0.293 HD
ENDBRANCH   4  12
TORSDOF 2
ENDMDL
MODEL 4
REMARK VINA RESULT:    -5.040     12.892     14.016
REMARK INTER + INTRA:          -5.335
REMARK INTER:                  -5.335
REMARK INTRA:                   0.000
REMARK UNBOUND:                 0.000
REMARK SMILES Cc1cc(O)c(C)c(C)c1O
REMARK SMILES IDX 1 1 2 2 3 3 4 4 6 5 8 6 10 7 9 8 7 9 11 10 5 12
REMARK H PARENT 11 11 5 13
REMARK Flexibility Score: inf
ROOT
ATOM      1  C   UNL     1       2.681  -6.042  20.891  1.00  0.00     0.048 C 
ATOM      2  C   UNL     1       1.270  -6.445  20.562  1.00  0.00    -0.005 A 
ATOM      3  C   UNL     1       0.225  -5.532  20.732  1.00  0.00     0.053 A 
ATOM      4  C   UNL     1      -1.094  -5.894  20.468  1.00  0.00     0.119 A 
ATOM      5  C   UNL     1      -1.397  -7.207  20.036  1.00  0.00    -0.003 A 
ATOM      6  C   UNL     1      -0.330  -8.102  19.740  1.00  0.00    -0.002 A 
ATOM      7  C   UNL     1       0.998  -7.735  20.077  1.00  0.00     0.121 A 
ATOM      8  C   UNL     1      -0.593  -9.441  19.088  1.00  0.00     0.049 C 
ATOM      9  C   UNL     1      -2.841  -7.631  19.879  1.00  0.00     0.049 C 
ENDROOT
BRANCH   7  10
ATOM     10  O   UNL     1       2.066  -8.631  19.950  1.00  0.00    -0.507 OA
ATOM     11  H   UNL     1       3.029  -8.387  20.139  1.00  0.00     0.293 HD
ENDBRANCH   7  10
BRANCH   4  12
ATOM     12  O   UNL     1      -2.078  -4.916  20.635  1.00  0.00    -0.508 OA
ATOM     13  H   UNL     1      -1.889  -3.922  20.623  1.00  0.00     0.293 HD
ENDBRANCH   4  12
TORSDOF 2
ENDMDL
MODEL 5
REMARK VINA RESULT:    -5.036     13.813     15.664
REMARK INTER + INTRA:          -5.330
REMARK INTER:                  -5.330
REMARK INTRA:                   0.000
REMARK UNBOUND:                 0.000
REMARK SMILES Cc1cc(O)c(C)c(C)c1O
REMARK SMILES IDX 1 1 2 2 3 3 4 4 6 5 8 6 10 7 9 8 7 9 11 10 5 12
REMARK H PARENT 11 11 5 13
REMARK Flexibility Score: inf
ROOT
ATOM      1  C   UNL     1     -11.123  -6.986  15.125  1.00  0.00     0.048 C 
ATOM      2  C   UNL     1      -9.832  -7.177  14.378  1.00  0.00    -0.005 A 
ATOM      3  C   UNL     1      -9.174  -8.409  14.425  1.00  0.00     0.053 A 
ATOM      4  C   UNL     1      -7.959  -8.599  13.770  1.00  0.00     0.119 A 
ATOM      5  C   UNL     1      -7.364  -7.533  13.056  1.00  0.00    -0.003 A 
ATOM      6  C   UNL     1      -8.086  -6.316  12.898  1.00  0.00    -0.002 A 
ATOM      7  C   UNL     1      -9.288  -6.124  13.625  1.00  0.00     0.121 A 
ATOM      8  C   UNL     1      -7.583  -5.224  11.980  1.00  0.00     0.049 C 
ATOM      9  C   UNL     1      -5.984  -7.707  12.460  1.00  0.00     0.049 C 
ENDROOT
BRANCH   7  10
ATOM     10  O   UNL     1      -9.960  -4.895  13.627  1.00  0.00    -0.507 OA
ATOM     11  H   UNL     1      -9.550  -4.030  13.300  1.00  0.00     0.293 HD
ENDBRANCH   7  10
BRANCH   4  12
ATOM     12  O   UNL     1      -7.379  -9.869  13.841  1.00  0.00    -0.508 OA
ATOM     13  H   UNL     1      -7.903 -10.730  13.768  1.00  0.00     0.293 HD
ENDBRANCH   4  12
TORSDOF 2
ENDMDL
MODEL 6
REMARK VINA RESULT:    -5.007     14.819     16.485
REMARK INTER + INTRA:          -5.299
REMARK INTER:                  -5.299
REMARK INTRA:                   0.000
REMARK UNBOUND:                 0.000
REMARK SMILES Cc1cc(O)c(C)c(C)c1O
REMARK SMILES IDX 1 1 2 2 3 3 4 4 6 5 8 6 10 7 9 8 7 9 11 10 5 12
REMARK H PARENT 11 11 5 13
REMARK Flexibility Score: inf
ROOT
ATOM      1  C   UNL     1      -6.856  -7.955  11.168  1.00  0.00     0.048 C 
ATOM      2  C   UNL     1      -7.966  -7.752  12.162  1.00  0.00    -0.005 A 
ATOM      3  C   UNL     1      -8.261  -6.468  12.627  1.00  0.00     0.053 A 
ATOM      4  C   UNL     1      -9.262  -6.259  13.574  1.00  0.00     0.119 A 
ATOM      5  C   UNL     1      -9.987  -7.358  14.093  1.00  0.00    -0.003 A 
ATOM      6  C   UNL     1      -9.780  -8.651  13.534  1.00  0.00    -0.002 A 
ATOM      7  C   UNL     1      -8.715  -8.849  12.619  1.00  0.00     0.121 A 
ATOM      8  C   UNL     1     -10.668  -9.815  13.912  1.00  0.00     0.049 C 
ATOM      9  C   UNL     1     -10.978  -7.139  15.215  1.00  0.00     0.049 C 
ENDROOT
BRANCH   7  10
ATOM     10  O   UNL     1      -8.368 -10.124  12.155  1.00  0.00    -0.507 OA
ATOM     11  H   UNL     1      -8.989 -10.921  12.188  1.00  0.00     0.293 HD
ENDBRANCH   7  10
BRANCH   4  12
ATOM     12  O   UNL     1      -9.516  -4.942  13.966  1.00  0.00    -0.508 OA
ATOM     13  H   UNL     1      -8.854  -4.371  14.475  1.00  0.00     0.293 HD
ENDBRANCH   4  12
TORSDOF 2
ENDMDL
MODEL 7
REMARK VINA RESULT:    -4.960     12.141     15.012
REMARK INTER + INTRA:          -5.250
REMARK INTER:                  -5.250
REMARK INTRA:                   0.000
REMARK UNBOUND:                 0.000
REMARK SMILES Cc1cc(O)c(C)c(C)c1O
REMARK SMILES IDX 1 1 2 2 3 3 4 4 6 5 8 6 10 7 9 8 7 9 11 10 5 12
REMARK H PARENT 11 11 5 13
REMARK Flexibility Score: inf
ROOT
ATOM      1  C   UNL     1      -6.295  -4.165  12.396  1.00  0.00     0.048 C 
ATOM      2  C   UNL     1      -7.369  -5.066  12.940  1.00  0.00    -0.005 A 
ATOM      3  C   UNL     1      -8.621  -4.541  13.269  1.00  0.00     0.053 A 
ATOM      4  C   UNL     1      -9.621  -5.350  13.807  1.00  0.00     0.119 A 
ATOM      5  C   UNL     1      -9.370  -6.722  14.045  1.00  0.00    -0.003 A 
ATOM      6  C   UNL     1      -8.145  -7.291  13.598  1.00  0.00    -0.002 A 
ATOM      7  C   UNL     1      -7.121  -6.438  13.112  1.00  0.00     0.121 A 
ATOM      8  C   UNL     1      -7.914  -8.785  13.647  1.00  0.00     0.049 C 
ATOM      9  C   UNL     1     -10.412  -7.562  14.751  1.00  0.00     0.049 C 
ENDROOT
BRANCH   7  10
ATOM     10  O   UNL     1      -5.844  -6.921  12.802  1.00  0.00    -0.507 OA
ATOM     11  H   UNL     1      -5.552  -7.180  11.869  1.00  0.00     0.293 HD
ENDBRANCH   7  10
BRANCH   4  12
ATOM     12  O   UNL     1     -10.855  -4.755  14.082  1.00  0.00    -0.508 OA
ATOM     13  H   UNL     1     -10.989  -4.042  14.786  1.00  0.00     0.293 HD
ENDBRANCH   4  12
TORSDOF 2
ENDMDL
MODEL 8
REMARK VINA RESULT:    -4.945     13.445     15.471
REMARK INTER + INTRA:          -5.234
REMARK INTER:                  -5.234
REMARK INTRA:                   0.000
REMARK UNBOUND:                 0.000
REMARK SMILES Cc1cc(O)c(C)c(C)c1O
REMARK SMILES IDX 1 1 2 2 3 3 4 4 6 5 8 6 10 7 9 8 7 9 11 10 5 12
REMARK H PARENT 11 11 5 13
REMARK Flexibility Score: inf
ROOT
ATOM      1  C   UNL     1     -10.914  -8.627  14.642  1.00  0.00     0.048 C 
ATOM      2  C   UNL     1     -10.104  -7.416  14.271  1.00  0.00    -0.005 A 
ATOM      3  C   UNL     1     -10.628  -6.136  14.474  1.00  0.00     0.053 A 
ATOM      4  C   UNL     1      -9.909  -5.000  14.106  1.00  0.00     0.119 A 
ATOM      5  C   UNL     1      -8.637  -5.130  13.500  1.00  0.00    -0.003 A 
ATOM      6  C   UNL     1      -8.044  -6.420  13.405  1.00  0.00    -0.002 A 
ATOM      7  C   UNL     1      -8.817  -7.565  13.727  1.00  0.00     0.121 A 
ATOM      8  C   UNL     1      -6.611  -6.589  12.953  1.00  0.00     0.049 C 
ATOM      9  C   UNL     1      -7.923  -3.900  12.983  1.00  0.00     0.049 C 
ENDROOT
BRANCH   7  10
ATOM     10  O   UNL     1      -8.340  -8.863  13.509  1.00  0.00    -0.507 OA
ATOM     11  H   UNL     1      -8.757  -9.690  13.914  1.00  0.00     0.293 HD
ENDBRANCH   7  10
BRANCH   4  12
ATOM     12  O   UNL     1     -10.490  -3.756  14.368  1.00  0.00    -0.508 OA
ATOM     13  H   UNL     1     -10.554  -3.351  15.292  1.00  0.00     0.293 HD
ENDBRANCH   4  12
TORSDOF 2
ENDMDL
MODEL 9
REMARK VINA RESULT:    -4.876     14.458     15.809
REMARK INTER + INTRA:          -5.161
REMARK INTER:                  -5.161
REMARK INTRA:                   0.000
REMARK UNBOUND:                 0.000
REMARK SMILES Cc1cc(O)c(C)c(C)c1O
REMARK SMILES IDX 1 1 2 2 3 3 4 4 6 5 8 6 10 7 9 8 7 9 11 10 5 12
REMARK H PARENT 11 11 5 13
REMARK Flexibility Score: inf
ROOT
ATOM      1  C   UNL     1      -7.515  -5.600   1.514  1.00  0.00     0.048 C 
ATOM      2  C   UNL     1      -6.183  -6.094   2.006  1.00  0.00    -0.005 A 
ATOM      3  C   UNL     1      -5.087  -5.228   2.042  1.00  0.00     0.053 A 
ATOM      4  C   UNL     1      -3.834  -5.672   2.462  1.00  0.00     0.119 A 
ATOM      5  C   UNL     1      -3.652  -7.023   2.843  1.00  0.00    -0.003 A 
ATOM      6  C   UNL     1      -4.787  -7.877   2.930  1.00  0.00    -0.002 A 
ATOM      7  C   UNL     1      -6.037  -7.423   2.439  1.00  0.00     0.121 A 
ATOM      8  C   UNL     1      -4.675  -9.264   3.522  1.00  0.00     0.049 C 
ATOM      9  C   UNL     1      -2.264  -7.528   3.169  1.00  0.00     0.049 C 
ENDROOT
BRANCH   7  10
ATOM     10  O   UNL     1      -7.150  -8.269   2.358  1.00  0.00    -0.507 OA
ATOM     11  H   UNL     1      -7.086  -9.274   2.267  1.00  0.00     0.293 HD
ENDBRANCH   7  10
BRANCH   4  12
ATOM     12  O   UNL     1      -2.796  -4.737   2.497  1.00  0.00    -0.508 OA
ATOM     13  H   UNL     1      -1.833  -4.961   2.284  1.00  0.00     0.293 HD
ENDBRANCH   4  12
TORSDOF 2
ENDMDL
