MODEL 1
REMARK VINA RESULT:     4.669      0.000      0.000
REMARK INTER + INTRA:           7.475
REMARK INTER:                   8.491
REMARK INTRA:                  -1.015
REMARK UNBOUND:                -1.015
REMARK SMILES CCCCCCCCCCCCCCCC(=O)[O-]
REMARK SMILES IDX 9 1 10 2 11 3 12 4 13 5 14 6 15 7 16 8 17 9 18 10 8 11 7 12
REMARK SMILES IDX 6 13 5 14 4 15 3 16 2 17 1 18
REMARK H PARENT
REMARK Flexibility Score: inf
ROOT
ATOM      1  C   UNL     1     -38.030  24.281   7.690  1.00  0.00     0.000 C 
ENDROOT
BRANCH   1   2
ATOM      2  C   UNL     1     -38.477  23.024   8.463  1.00  0.00     0.000 C 
BRANCH   2   3
ATOM      3  C   UNL     1     -39.904  23.084   9.045  1.00  0.00     0.000 C 
BRANCH   3   4
ATOM      4  C   UNL     1     -40.875  22.016   8.509  1.00  0.00     0.000 C 
BRANCH   4   5
ATOM      5  C   UNL     1     -42.123  22.625   7.846  1.00  0.00     0.000 C 
BRANCH   5   6
ATOM      6  C   UNL     1     -42.038  22.623   6.308  1.00  0.00     0.006 C 
BRANCH   6   7
ATOM      7  C   UNL     1     -41.044  23.641   5.724  1.00  0.00     0.053 C 
BRANCH   7   8
ATOM      8  C   UNL     1     -41.479  25.054   5.964  1.00  0.00     0.041 C 
ATOM      9  O   UNL     1     -41.931  25.748   5.017  1.00  0.00    -0.550 OA
ATOM     10  O   UNL     1     -41.353  25.615   7.229  1.00  0.00    -0.550 OA
ENDBRANCH   7   8
ENDBRANCH   6   7
ENDBRANCH   5   6
ENDBRANCH   4   5
ENDBRANCH   3   4
ENDBRANCH   2   3
ENDBRANCH   1   2
BRANCH   1  11
ATOM     11  C   UNL     1     -37.349  24.004   6.337  1.00  0.00     0.000 C 
BRANCH  11  12
ATOM     12  C   UNL     1     -36.092  24.858   6.116  1.00  0.00    -0.000 C 
BRANCH  12  13
ATOM     13  C   UNL     1     -35.974  25.949   7.192  1.00  0.00    -0.000 C 
BRANCH  13  14
ATOM     14  C   UNL     1     -34.519  26.201   7.622  1.00  0.00    -0.000 C 
BRANCH  14  15
ATOM     15  C   UNL     1     -33.691  24.909   7.694  1.00  0.00    -0.000 C 
BRANCH  15  16
ATOM     16  C   UNL     1     -32.328  25.169   8.353  1.00  0.00    -0.000 C 
BRANCH  16  17
ATOM     17  C   UNL     1     -31.166  25.117   7.349  1.00  0.00    -0.003 C 
ATOM     18  C   UNL     1     -30.253  26.339   7.437  1.00  0.00     0.004 C 
ENDBRANCH  16  17
ENDBRANCH  15  16
ENDBRANCH  14  15
ENDBRANCH  13  14
ENDBRANCH  12  13
ENDBRANCH  11  12
ENDBRANCH   1  11
TORSDOF 14
ENDMDL
MODEL 2
REMARK VINA RESULT:     4.801      3.817      8.418
REMARK INTER + INTRA:           7.715
REMARK INTER:                   8.688
REMARK INTRA:                  -0.973
REMARK UNBOUND:                -1.015
REMARK SMILES CCCCCCCCCCCCCCCC(=O)[O-]
REMARK SMILES IDX 9 1 10 2 11 3 12 4 13 5 14 6 15 7 16 8 17 9 18 10 8 11 7 12
REMARK SMILES IDX 6 13 5 14 4 15 3 16 2 17 1 18
REMARK H PARENT
REMARK Flexibility Score: inf
ROOT
ATOM      1  C   UNL     1     -38.352  23.246   8.107  1.00  0.00     0.000 C 
ENDROOT
BRANCH   1   2
ATOM      2  C   UNL     1     -37.781  24.219   7.055  1.00  0.00     0.000 C 
BRANCH   2   3
ATOM      3  C   UNL     1     -36.846  25.311   7.611  1.00  0.00     0.000 C 
BRANCH   3   4
ATOM      4  C   UNL     1     -35.679  25.707   6.689  1.00  0.00     0.000 C 
BRANCH   4   5
ATOM      5  C   UNL     1     -34.427  26.148   7.468  1.00  0.00     0.000 C 
BRANCH   5   6
ATOM      6  C   UNL     1     -33.440  24.991   7.709  1.00  0.00     0.006 C 
BRANCH   6   7
ATOM      7  C   UNL     1     -32.235  25.356   8.592  1.00  0.00     0.053 C 
BRANCH   7   8
ATOM      8  C   UNL     1     -30.985  25.547   7.789  1.00  0.00     0.041 C 
ATOM      9  O   UNL     1     -30.386  26.654   7.801  1.00  0.00    -0.550 OA
ATOM     10  O   UNL     1     -30.501  24.511   7.000  1.00  0.00    -0.550 OA
ENDBRANCH   7   8
ENDBRANCH   6   7
ENDBRANCH   5   6
ENDBRANCH   4   5
ENDBRANCH   3   4
ENDBRANCH   2   3
ENDBRANCH   1   2
BRANCH   1  11
ATOM     11  C   UNL     1     -39.711  23.656   8.701  1.00  0.00     0.000 C 
BRANCH  11  12
ATOM     12  C   UNL     1     -40.720  22.499   8.738  1.00  0.00    -0.000 C 
BRANCH  12  13
ATOM     13  C   UNL     1     -41.990  22.853   7.949  1.00  0.00    -0.000 C 
BRANCH  13  14
ATOM     14  C   UNL     1     -42.110  22.065   6.634  1.00  0.00    -0.000 C 
BRANCH  14  15
ATOM     15  C   UNL     1     -42.110  22.975   5.396  1.00  0.00    -0.000 C 
BRANCH  15  16
ATOM     16  C   UNL     1     -41.159  24.165   5.591  1.00  0.00    -0.000 C 
BRANCH  16  17
ATOM     17  C   UNL     1     -41.877  25.518   5.492  1.00  0.00    -0.003 C 
ATOM     18  C   UNL     1     -42.124  26.158   6.858  1.00  0.00     0.004 C 
ENDBRANCH  16  17
ENDBRANCH  15  16
ENDBRANCH  14  15
ENDBRANCH  13  14
ENDBRANCH  12  13
ENDBRANCH  11  12
ENDBRANCH   1  11
TORSDOF 14
ENDMDL
MODEL 3
REMARK VINA RESULT:     5.051      0.922      1.777
REMARK INTER + INTRA:           8.170
REMARK INTER:                   9.215
REMARK INTRA:                  -1.045
REMARK UNBOUND:                -1.015
REMARK SMILES CCCCCCCCCCCCCCCC(=O)[O-]
REMARK SMILES IDX 9 1 10 2 11 3 12 4 13 5 14 6 15 7 16 8 17 9 18 10 8 11 7 12
REMARK SMILES IDX 6 13 5 14 4 15 3 16 2 17 1 18
REMARK H PARENT
REMARK Flexibility Score: inf
ROOT
ATOM      1  C   UNL     1     -39.006  22.978   8.876  1.00  0.00     0.000 C 
ENDROOT
BRANCH   1   2
ATOM      2  C   UNL     1     -40.536  22.794   8.959  1.00  0.00     0.000 C 
BRANCH   2   3
ATOM      3  C   UNL     1     -41.064  21.447   8.428  1.00  0.00     0.000 C 
BRANCH   3   4
ATOM      4  C   UNL     1     -41.927  21.536   7.156  1.00  0.00     0.000 C 
BRANCH   4   5
ATOM      5  C   UNL     1     -41.117  21.956   5.916  1.00  0.00     0.000 C 
BRANCH   5   6
ATOM      6  C   UNL     1     -41.440  23.388   5.452  1.00  0.00     0.006 C 
BRANCH   6   7
ATOM      7  C   UNL     1     -42.093  24.273   6.528  1.00  0.00     0.053 C 
BRANCH   7   8
ATOM      8  C   UNL     1     -42.028  25.727   6.175  1.00  0.00     0.041 C 
ATOM      9  O   UNL     1     -42.125  26.094   4.975  1.00  0.00    -0.550 OA
ATOM     10  O   UNL     1     -41.828  26.676   7.170  1.00  0.00    -0.550 OA
ENDBRANCH   7   8
ENDBRANCH   6   7
ENDBRANCH   5   6
ENDBRANCH   4   5
ENDBRANCH   3   4
ENDBRANCH   2   3
ENDBRANCH   1   2
BRANCH   1  11
ATOM     11  C   UNL     1     -38.544  24.261   8.162  1.00  0.00     0.000 C 
BRANCH  11  12
ATOM     12  C   UNL     1     -38.000  23.996   6.751  1.00  0.00    -0.000 C 
BRANCH  12  13
ATOM     13  C   UNL     1     -36.482  24.227   6.695  1.00  0.00    -0.000 C 
BRANCH  13  14
ATOM     14  C   UNL     1     -36.057  25.539   7.376  1.00  0.00    -0.000 C 
BRANCH  14  15
ATOM     15  C   UNL     1     -34.741  26.098   6.815  1.00  0.00    -0.000 C 
BRANCH  15  16
ATOM     16  C   UNL     1     -33.647  26.107   7.893  1.00  0.00    -0.000 C 
BRANCH  16  17
ATOM     17  C   UNL     1     -32.894  24.772   7.983  1.00  0.00    -0.003 C 
ATOM     18  C   UNL     1     -31.499  24.836   7.362  1.00  0.00     0.004 C 
ENDBRANCH  16  17
ENDBRANCH  15  16
ENDBRANCH  14  15
ENDBRANCH  13  14
ENDBRANCH  12  13
ENDBRANCH  11  12
ENDBRANCH   1  11
TORSDOF 14
ENDMDL
MODEL 4
REMARK VINA RESULT:     6.916     16.784     18.603
REMARK INTER + INTRA:          11.561
REMARK INTER:                  12.386
REMARK INTRA:                  -0.824
REMARK UNBOUND:                -1.015
REMARK SMILES CCCCCCCCCCCCCCCC(=O)[O-]
REMARK SMILES IDX 9 1 10 2 11 3 12 4 13 5 14 6 15 7 16 8 17 9 18 10 8 11 7 12
REMARK SMILES IDX 6 13 5 14 4 15 3 16 2 17 1 18
REMARK H PARENT
REMARK Flexibility Score: inf
ROOT
ATOM      1  C   UNL     1     -41.756  31.863 -10.542  1.00  0.00     0.000 C 
ENDROOT
BRANCH   1   2
ATOM      2  C   UNL     1     -42.087  30.557  -9.790  1.00  0.00     0.000 C 
BRANCH   2   3
ATOM      3  C   UNL     1     -42.124  29.287 -10.665  1.00  0.00     0.000 C 
BRANCH   3   4
ATOM      4  C   UNL     1     -41.678  27.993  -9.960  1.00  0.00     0.000 C 
BRANCH   4   5
ATOM      5  C   UNL     1     -42.029  27.980  -8.462  1.00  0.00     0.000 C 
BRANCH   5   6
ATOM      6  C   UNL     1     -41.921  26.576  -7.839  1.00  0.00     0.006 C 
BRANCH   6   7
ATOM      7  C   UNL     1     -40.484  26.133  -7.515  1.00  0.00     0.053 C 
BRANCH   7   8
ATOM      8  C   UNL     1     -40.449  24.811  -6.810  1.00  0.00     0.041 C 
ATOM      9  O   UNL     1     -41.372  24.491  -6.017  1.00  0.00    -0.550 OA
ATOM     10  O   UNL     1     -39.378  23.948  -7.005  1.00  0.00    -0.550 OA
ENDBRANCH   7   8
ENDBRANCH   6   7
ENDBRANCH   5   6
ENDBRANCH   4   5
ENDBRANCH   3   4
ENDBRANCH   2   3
ENDBRANCH   1   2
BRANCH   1  11
ATOM     11  C   UNL     1     -41.761  33.132  -9.672  1.00  0.00     0.000 C 
BRANCH  11  12
ATOM     12  C   UNL     1     -41.447  34.405 -10.472  1.00  0.00    -0.000 C 
BRANCH  12  13
ATOM     13  C   UNL     1     -40.927  35.518  -9.550  1.00  0.00    -0.000 C 
BRANCH  13  14
ATOM     14  C   UNL     1     -39.602  36.125 -10.042  1.00  0.00    -0.000 C 
BRANCH  14  15
ATOM     15  C   UNL     1     -38.920  35.264 -11.116  1.00  0.00    -0.000 C 
BRANCH  15  16
ATOM     16  C   UNL     1     -37.519  34.828 -10.660  1.00  0.00    -0.000 C 
BRANCH  16  17
ATOM     17  C   UNL     1     -37.235  33.348 -10.955  1.00  0.00    -0.003 C 
ATOM     18  C   UNL     1     -38.396  32.433 -10.564  1.00  0.00     0.004 C 
ENDBRANCH  16  17
ENDBRANCH  15  16
ENDBRANCH  14  15
ENDBRANCH  13  14
ENDBRANCH  12  13
ENDBRANCH  11  12
ENDBRANCH   1  11
TORSDOF 14
ENDMDL
