MODEL 1
REMARK VINA RESULT:    -3.282      0.000      0.000
REMARK INTER + INTRA:          -3.673
REMARK INTER:                  -3.665
REMARK INTRA:                  -0.008
REMARK UNBOUND:                -0.008
REMARK SMILES CCCC(=O)[O-]
REMARK SMILES IDX 3 1 4 2 5 3 6 4 2 5 1 6
REMARK H PARENT
REMARK Flexibility Score: inf
ROOT
ATOM      1  C   UNL     1     -16.294  57.875   1.252  1.00  0.00     0.052 C 
ENDROOT
BRANCH   1   2
ATOM      2  C   UNL     1     -17.448  57.384   0.432  1.00  0.00     0.041 C 
ATOM      3  O   UNL     1     -18.626  57.496   0.861  1.00  0.00    -0.550 OA
ATOM      4  O   UNL     1     -17.224  56.832  -0.822  1.00  0.00    -0.550 OA
ENDBRANCH   1   2
BRANCH   1   5
ATOM      5  C   UNL     1     -15.416  58.855   0.466  1.00  0.00     0.003 C 
ATOM      6  C   UNL     1     -14.068  59.102   1.145  1.00  0.00     0.004 C 
ENDBRANCH   1   5
TORSDOF 2
ENDMDL
MODEL 2
REMARK VINA RESULT:    -3.051      3.255      4.675
REMARK INTER + INTRA:          -3.415
REMARK INTER:                  -3.346
REMARK INTRA:                  -0.069
REMARK UNBOUND:                -0.008
REMARK SMILES CCCC(=O)[O-]
REMARK SMILES IDX 3 1 4 2 5 3 6 4 2 5 1 6
REMARK H PARENT
REMARK Flexibility Score: inf
ROOT
ATOM      1  C   UNL     1     -16.973  56.744  -2.992  1.00  0.00     0.052 C 
ENDROOT
BRANCH   1   2
ATOM      2  C   UNL     1     -17.138  56.129  -1.636  1.00  0.00     0.041 C 
ATOM      3  O   UNL     1     -16.958  54.894  -1.473  1.00  0.00    -0.550 OA
ATOM      4  O   UNL     1     -17.459  56.927  -0.546  1.00  0.00    -0.550 OA
ENDBRANCH   1   2
BRANCH   1   5
ATOM      5  C   UNL     1     -18.051  56.260  -3.970  1.00  0.00     0.003 C 
ATOM      6  C   UNL     1     -19.465  56.508  -3.444  1.00  0.00     0.004 C 
ENDBRANCH   1   5
TORSDOF 2
ENDMDL
MODEL 3
REMARK VINA RESULT:    -2.979      4.452      5.321
REMARK INTER + INTRA:          -3.335
REMARK INTER:                  -3.297
REMARK INTRA:                  -0.038
REMARK UNBOUND:                -0.008
REMARK SMILES CCCC(=O)[O-]
REMARK SMILES IDX 3 1 4 2 5 3 6 4 2 5 1 6
REMARK H PARENT
REMARK Flexibility Score: inf
ROOT
ATOM      1  C   UNL     1     -19.469  56.632  -3.530  1.00  0.00     0.052 C 
ENDROOT
BRANCH   1   2
ATOM      2  C   UNL     1     -20.340  55.544  -2.979  1.00  0.00     0.041 C 
ATOM      3  O   UNL     1     -19.873  54.715  -2.154  1.00  0.00    -0.550 OA
ATOM      4  O   UNL     1     -21.674  55.465  -3.353  1.00  0.00    -0.550 OA
ENDBRANCH   1   2
BRANCH   1   5
ATOM      5  C   UNL     1     -18.078  56.109  -3.909  1.00  0.00     0.003 C 
ATOM      6  C   UNL     1     -16.968  56.761  -3.086  1.00  0.00     0.004 C 
ENDBRANCH   1   5
TORSDOF 2
ENDMDL
MODEL 4
REMARK VINA RESULT:    -2.976      5.139      5.995
REMARK INTER + INTRA:          -3.332
REMARK INTER:                  -3.299
REMARK INTRA:                  -0.033
REMARK UNBOUND:                -0.008
REMARK SMILES CCCC(=O)[O-]
REMARK SMILES IDX 3 1 4 2 5 3 6 4 2 5 1 6
REMARK H PARENT
REMARK Flexibility Score: inf
ROOT
ATOM      1  C   UNL     1     -18.151  54.915  -2.921  1.00  0.00     0.052 C 
ENDROOT
BRANCH   1   2
ATOM      2  C   UNL     1     -18.619  56.258  -3.391  1.00  0.00     0.041 C 
ATOM      3  O   UNL     1     -17.786  57.128  -3.757  1.00  0.00    -0.550 OA
ATOM      4  O   UNL     1     -19.977  56.537  -3.456  1.00  0.00    -0.550 OA
ENDBRANCH   1   2
BRANCH   1   5
ATOM      5  C   UNL     1     -19.136  53.804  -3.306  1.00  0.00     0.003 C 
ATOM      6  C   UNL     1     -19.610  53.002  -2.094  1.00  0.00     0.004 C 
ENDBRANCH   1   5
TORSDOF 2
ENDMDL
MODEL 5
REMARK VINA RESULT:    -2.934      5.260      5.850
REMARK INTER + INTRA:          -3.284
REMARK INTER:                  -3.274
REMARK INTRA:                  -0.010
REMARK UNBOUND:                -0.008
REMARK SMILES CCCC(=O)[O-]
REMARK SMILES IDX 3 1 4 2 5 3 6 4 2 5 1 6
REMARK H PARENT
REMARK Flexibility Score: inf
ROOT
ATOM      1  C   UNL     1     -18.864  53.962  -3.229  1.00  0.00     0.052 C 
ENDROOT
BRANCH   1   2
ATOM      2  C   UNL     1     -19.361  53.281  -1.990  1.00  0.00     0.041 C 
ATOM      3  O   UNL     1     -20.330  52.479  -2.052  1.00  0.00    -0.550 OA
ATOM      4  O   UNL     1     -18.733  53.508  -0.773  1.00  0.00    -0.550 OA
ENDBRANCH   1   2
BRANCH   1   5
ATOM      5  C   UNL     1     -19.034  55.484  -3.146  1.00  0.00     0.003 C 
ATOM      6  C   UNL     1     -17.977  56.232  -3.959  1.00  0.00     0.004 C 
ENDBRANCH   1   5
TORSDOF 2
ENDMDL
MODEL 6
REMARK VINA RESULT:    -2.926      5.054      5.584
REMARK INTER + INTRA:          -3.276
REMARK INTER:                  -3.234
REMARK INTRA:                  -0.041
REMARK UNBOUND:                -0.008
REMARK SMILES CCCC(=O)[O-]
REMARK SMILES IDX 3 1 4 2 5 3 6 4 2 5 1 6
REMARK H PARENT
REMARK Flexibility Score: inf
ROOT
ATOM      1  C   UNL     1     -18.105  55.322  -3.824  1.00  0.00     0.052 C 
ENDROOT
BRANCH   1   2
ATOM      2  C   UNL     1     -17.844  54.411  -2.663  1.00  0.00     0.041 C 
ATOM      3  O   UNL     1     -16.763  54.494  -2.022  1.00  0.00    -0.550 OA
ATOM      4  O   UNL     1     -18.808  53.494  -2.268  1.00  0.00    -0.550 OA
ENDBRANCH   1   2
BRANCH   1   5
ATOM      5  C   UNL     1     -18.760  56.635  -3.379  1.00  0.00     0.003 C 
ATOM      6  C   UNL     1     -20.287  56.548  -3.367  1.00  0.00     0.004 C 
ENDBRANCH   1   5
TORSDOF 2
ENDMDL
MODEL 7
REMARK VINA RESULT:    -2.845     15.251     16.203
REMARK INTER + INTRA:          -3.185
REMARK INTER:                  -3.146
REMARK INTRA:                  -0.039
REMARK UNBOUND:                -0.008
REMARK SMILES CCCC(=O)[O-]
REMARK SMILES IDX 3 1 4 2 5 3 6 4 2 5 1 6
REMARK H PARENT
REMARK Flexibility Score: inf
ROOT
ATOM      1  C   UNL     1     -25.410  46.086   4.365  1.00  0.00     0.052 C 
ENDROOT
BRANCH   1   2
ATOM      2  C   UNL     1     -26.542  46.831   5.004  1.00  0.00     0.041 C 
ATOM      3  O   UNL     1     -27.124  46.357   6.015  1.00  0.00    -0.550 OA
ATOM      4  O   UNL     1     -26.932  48.066   4.502  1.00  0.00    -0.550 OA
ENDBRANCH   1   2
BRANCH   1   5
ATOM      5  C   UNL     1     -25.252  44.680   4.956  1.00  0.00     0.003 C 
ATOM      6  C   UNL     1     -25.884  43.603   4.073  1.00  0.00     0.004 C 
ENDBRANCH   1   5
TORSDOF 2
ENDMDL
MODEL 8
REMARK VINA RESULT:    -2.805      4.018      4.458
REMARK INTER + INTRA:          -3.141
REMARK INTER:                  -3.080
REMARK INTRA:                  -0.061
REMARK UNBOUND:                -0.008
REMARK SMILES CCCC(=O)[O-]
REMARK SMILES IDX 3 1 4 2 5 3 6 4 2 5 1 6
REMARK H PARENT
REMARK Flexibility Score: inf
ROOT
ATOM      1  C   UNL     1     -19.310  56.075  -2.846  1.00  0.00     0.052 C 
ENDROOT
BRANCH   1   2
ATOM      2  C   UNL     1     -18.828  55.753  -1.464  1.00  0.00     0.041 C 
ATOM      3  O   UNL     1     -18.533  56.679  -0.663  1.00  0.00    -0.550 OA
ATOM      4  O   UNL     1     -18.737  54.431  -1.050  1.00  0.00    -0.550 OA
ENDBRANCH   1   2
BRANCH   1   5
ATOM      5  C   UNL     1     -18.218  56.751  -3.684  1.00  0.00     0.003 C 
ATOM      6  C   UNL     1     -16.912  55.956  -3.687  1.00  0.00     0.004 C 
ENDBRANCH   1   5
TORSDOF 2
ENDMDL
MODEL 9
REMARK VINA RESULT:    -2.788      5.422      6.316
REMARK INTER + INTRA:          -3.121
REMARK INTER:                  -3.110
REMARK INTRA:                  -0.011
REMARK UNBOUND:                -0.008
REMARK SMILES CCCC(=O)[O-]
REMARK SMILES IDX 3 1 4 2 5 3 6 4 2 5 1 6
REMARK H PARENT
REMARK Flexibility Score: inf
ROOT
ATOM      1  C   UNL     1     -18.861  54.040  -3.308  1.00  0.00     0.052 C 
ENDROOT
BRANCH   1   2
ATOM      2  C   UNL     1     -18.567  55.494  -3.521  1.00  0.00     0.041 C 
ATOM      3  O   UNL     1     -19.491  56.346  -3.448  1.00  0.00    -0.550 OA
ATOM      4  O   UNL     1     -17.266  55.911  -3.769  1.00  0.00    -0.550 OA
ENDBRANCH   1   2
BRANCH   1   5
ATOM      5  C   UNL     1     -20.185  53.833  -2.562  1.00  0.00     0.003 C 
ATOM      6  C   UNL     1     -20.210  52.523  -1.774  1.00  0.00     0.004 C 
ENDBRANCH   1   5
TORSDOF 2
ENDMDL
