MODEL 1
REMARK VINA RESULT:    -2.756      0.000      0.000
REMARK INTER + INTRA:          -3.203
REMARK INTER:                  -2.998
REMARK INTRA:                  -0.205
REMARK UNBOUND:                -0.205
REMARK SMILES O=C([O-])c1ccccc1O
REMARK SMILES IDX 4 1 9 2 5 3 8 4 6 5 7 6 2 7 1 8 3 9 10 10
REMARK H PARENT 10 11
REMARK Flexibility Score: inf
ROOT
ATOM      1  C   UNL     1      22.918 -10.774 -17.956  1.00  0.00     0.039 A 
ATOM      2  C   UNL     1      22.679 -11.974 -17.237  1.00  0.00     0.124 A 
ATOM      3  C   UNL     1      22.574 -10.718 -19.319  1.00  0.00     0.014 A 
ATOM      4  C   UNL     1      22.167 -13.092 -17.907  1.00  0.00     0.047 A 
ATOM      5  C   UNL     1      22.045 -11.836 -19.967  1.00  0.00     0.001 A 
ATOM      6  C   UNL     1      21.850 -13.024 -19.264  1.00  0.00     0.004 A 
ENDROOT
BRANCH   1   7
ATOM      7  C   UNL     1      23.548  -9.583 -17.342  1.00  0.00     0.075 C 
ATOM      8  O   UNL     1      24.690  -9.652 -16.819  1.00  0.00    -0.545 OA
ATOM      9  O   UNL     1      22.906  -8.351 -17.400  1.00  0.00    -0.545 OA
ENDBRANCH   1   7
BRANCH   2  10
ATOM     10  O   UNL     1      22.901 -12.086 -15.862  1.00  0.00    -0.507 OA
ATOM     11  H   UNL     1      23.601 -11.556 -15.364  1.00  0.00     0.293 HD
ENDBRANCH   2  10
TORSDOF 2
ENDMDL
MODEL 2
REMARK VINA RESULT:    -2.411      2.241      3.991
REMARK INTER + INTRA:          -2.827
REMARK INTER:                  -2.634
REMARK INTRA:                  -0.193
REMARK UNBOUND:                -0.205
REMARK SMILES O=C([O-])c1ccccc1O
REMARK SMILES IDX 4 1 9 2 5 3 8 4 6 5 7 6 2 7 1 8 3 9 10 10
REMARK H PARENT 10 11
REMARK Flexibility Score: inf
ROOT
ATOM      1  C   UNL     1      22.257 -11.862 -17.868  1.00  0.00     0.039 A 
ATOM      2  C   UNL     1      22.903 -10.905 -18.693  1.00  0.00     0.124 A 
ATOM      3  C   UNL     1      22.757 -12.093 -16.573  1.00  0.00     0.014 A 
ATOM      4  C   UNL     1      24.055 -10.258 -18.230  1.00  0.00     0.047 A 
ATOM      5  C   UNL     1      23.895 -11.423 -16.119  1.00  0.00     0.001 A 
ATOM      6  C   UNL     1      24.548 -10.514 -16.950  1.00  0.00     0.004 A 
ENDROOT
BRANCH   1   7
ATOM      7  C   UNL     1      21.094 -12.659 -18.323  1.00  0.00     0.075 C 
ATOM      8  O   UNL     1      21.185 -13.427 -19.316  1.00  0.00    -0.545 OA
ATOM      9  O   UNL     1      19.902 -12.617 -17.609  1.00  0.00    -0.545 OA
ENDBRANCH   1   7
BRANCH   2  10
ATOM     10  O   UNL     1      22.419 -10.546 -19.953  1.00  0.00    -0.507 OA
ATOM     11  H   UNL     1      22.998 -10.480 -20.777  1.00  0.00     0.293 HD
ENDBRANCH   2  10
TORSDOF 2
ENDMDL
MODEL 3
REMARK VINA RESULT:    -1.848      1.032      2.160
REMARK INTER + INTRA:          -2.216
REMARK INTER:                  -1.963
REMARK INTRA:                  -0.252
REMARK UNBOUND:                -0.205
REMARK SMILES O=C([O-])c1ccccc1O
REMARK SMILES IDX 4 1 9 2 5 3 8 4 6 5 7 6 2 7 1 8 3 9 10 10
REMARK H PARENT 10 11
REMARK Flexibility Score: inf
ROOT
ATOM      1  C   UNL     1      23.119 -10.848 -18.040  1.00  0.00     0.039 A 
ATOM      2  C   UNL     1      22.388 -10.637 -19.238  1.00  0.00     0.124 A 
ATOM      3  C   UNL     1      23.282 -12.162 -17.564  1.00  0.00     0.014 A 
ATOM      4  C   UNL     1      21.794 -11.727 -19.886  1.00  0.00     0.047 A 
ATOM      5  C   UNL     1      22.700 -13.240 -18.235  1.00  0.00     0.001 A 
ATOM      6  C   UNL     1      21.949 -13.021 -19.389  1.00  0.00     0.004 A 
ENDROOT
BRANCH   1   7
ATOM      7  C   UNL     1      23.693  -9.738 -17.244  1.00  0.00     0.075 C 
ATOM      8  O   UNL     1      24.811  -9.858 -16.680  1.00  0.00    -0.545 OA
ATOM      9  O   UNL     1      23.026  -8.521 -17.169  1.00  0.00    -0.545 OA
ENDBRANCH   1   7
BRANCH   2  10
ATOM     10  O   UNL     1      22.259  -9.379 -19.831  1.00  0.00    -0.507 OA
ATOM     11  H   UNL     1      22.680  -9.132 -20.715  1.00  0.00     0.293 HD
ENDBRANCH   2  10
TORSDOF 2
ENDMDL
MODEL 4
REMARK VINA RESULT:    -1.708      2.279      3.457
REMARK INTER + INTRA:          -2.063
REMARK INTER:                  -1.811
REMARK INTRA:                  -0.251
REMARK UNBOUND:                -0.205
REMARK SMILES O=C([O-])c1ccccc1O
REMARK SMILES IDX 4 1 9 2 5 3 8 4 6 5 7 6 2 7 1 8 3 9 10 10
REMARK H PARENT 10 11
REMARK Flexibility Score: inf
ROOT
ATOM      1  C   UNL     1      22.358 -12.007 -17.917  1.00  0.00     0.039 A 
ATOM      2  C   UNL     1      22.577 -11.858 -16.523  1.00  0.00     0.124 A 
ATOM      3  C   UNL     1      23.296 -11.464 -18.814  1.00  0.00     0.014 A 
ATOM      4  C   UNL     1      23.681 -11.125 -16.070  1.00  0.00     0.047 A 
ATOM      5  C   UNL     1      24.403 -10.753 -18.345  1.00  0.00     0.001 A 
ATOM      6  C   UNL     1      24.590 -10.576 -16.975  1.00  0.00     0.004 A 
ENDROOT
BRANCH   1   7
ATOM      7  C   UNL     1      21.164 -12.683 -18.474  1.00  0.00     0.075 C 
ATOM      8  O   UNL     1      21.247 -13.390 -19.512  1.00  0.00    -0.545 OA
ATOM      9  O   UNL     1      19.945 -12.595 -17.812  1.00  0.00    -0.545 OA
ENDBRANCH   1   7
BRANCH   2  10
ATOM     10  O   UNL     1      21.750 -12.446 -15.563  1.00  0.00    -0.507 OA
ATOM     11  H   UNL     1      22.095 -12.992 -14.786  1.00  0.00     0.293 HD
ENDBRANCH   2  10
TORSDOF 2
ENDMDL
MODEL 5
REMARK VINA RESULT:    -1.073      1.292      1.999
REMARK INTER + INTRA:          -1.372
REMARK INTER:                  -1.139
REMARK INTRA:                  -0.233
REMARK UNBOUND:                -0.205
REMARK SMILES O=C([O-])c1ccccc1O
REMARK SMILES IDX 4 1 9 2 5 3 8 4 6 5 7 6 2 7 1 8 3 9 10 10
REMARK H PARENT 10 11
REMARK Flexibility Score: inf
ROOT
ATOM      1  C   UNL     1      22.533 -10.201 -18.639  1.00  0.00     0.039 A 
ATOM      2  C   UNL     1      23.346 -10.719 -17.596  1.00  0.00     0.124 A 
ATOM      3  C   UNL     1      21.902 -11.099 -19.520  1.00  0.00     0.014 A 
ATOM      4  C   UNL     1      23.552 -12.101 -17.503  1.00  0.00     0.047 A 
ATOM      5  C   UNL     1      22.103 -12.476 -19.399  1.00  0.00     0.001 A 
ATOM      6  C   UNL     1      22.934 -12.975 -18.398  1.00  0.00     0.004 A 
ENDROOT
BRANCH   1   7
ATOM      7  C   UNL     1      22.346  -8.750 -18.863  1.00  0.00     0.075 C 
ATOM      8  O   UNL     1      22.005  -8.308 -19.991  1.00  0.00    -0.545 OA
ATOM      9  O   UNL     1      22.479  -7.860 -17.803  1.00  0.00    -0.545 OA
ENDBRANCH   1   7
BRANCH   2  10
ATOM     10  O   UNL     1      23.931  -9.908 -16.622  1.00  0.00    -0.507 OA
ATOM     11  H   UNL     1      24.882 -10.018 -16.300  1.00  0.00     0.293 HD
ENDBRANCH   2  10
TORSDOF 2
ENDMDL
MODEL 6
REMARK VINA RESULT:    -0.752      2.010      2.837
REMARK INTER + INTRA:          -1.023
REMARK INTER:                  -0.795
REMARK INTRA:                  -0.228
REMARK UNBOUND:                -0.205
REMARK SMILES O=C([O-])c1ccccc1O
REMARK SMILES IDX 4 1 9 2 5 3 8 4 6 5 7 6 2 7 1 8 3 9 10 10
REMARK H PARENT 10 11
REMARK Flexibility Score: inf
ROOT
ATOM      1  C   UNL     1      22.718  -9.962 -18.306  1.00  0.00     0.039 A 
ATOM      2  C   UNL     1      22.301 -11.217 -18.821  1.00  0.00     0.124 A 
ATOM      3  C   UNL     1      23.525  -9.934 -17.153  1.00  0.00     0.014 A 
ATOM      4  C   UNL     1      22.646 -12.392 -18.142  1.00  0.00     0.047 A 
ATOM      5  C   UNL     1      23.877 -11.117 -16.501  1.00  0.00     0.001 A 
ATOM      6  C   UNL     1      23.430 -12.344 -16.989  1.00  0.00     0.004 A 
ENDROOT
BRANCH   1   7
ATOM      7  C   UNL     1      22.313  -8.672 -18.909  1.00  0.00     0.075 C 
ATOM      8  O   UNL     1      21.948  -8.607 -20.112  1.00  0.00    -0.545 OA
ATOM      9  O   UNL     1      22.266  -7.524 -18.127  1.00  0.00    -0.545 OA
ENDBRANCH   1   7
BRANCH   2  10
ATOM     10  O   UNL     1      21.580 -11.341 -20.010  1.00  0.00    -0.507 OA
ATOM     11  H   UNL     1      20.573 -11.418 -20.049  1.00  0.00     0.293 HD
ENDBRANCH   2  10
TORSDOF 2
ENDMDL
MODEL 7
REMARK VINA RESULT:    -0.556      1.641      3.072
REMARK INTER + INTRA:          -0.810
REMARK INTER:                  -0.585
REMARK INTRA:                  -0.225
REMARK UNBOUND:                -0.205
REMARK SMILES O=C([O-])c1ccccc1O
REMARK SMILES IDX 4 1 9 2 5 3 8 4 6 5 7 6 2 7 1 8 3 9 10 10
REMARK H PARENT 10 11
REMARK Flexibility Score: inf
ROOT
ATOM      1  C   UNL     1      21.745 -12.079 -17.117  1.00  0.00     0.039 A 
ATOM      2  C   UNL     1      23.016 -11.477 -16.922  1.00  0.00     0.124 A 
ATOM      3  C   UNL     1      21.300 -12.317 -18.430  1.00  0.00     0.014 A 
ATOM      4  C   UNL     1      23.769 -11.078 -18.033  1.00  0.00     0.047 A 
ATOM      5  C   UNL     1      22.074 -11.931 -19.527  1.00  0.00     0.001 A 
ATOM      6  C   UNL     1      23.303 -11.304 -19.328  1.00  0.00     0.004 A 
ENDROOT
BRANCH   1   7
ATOM      7  C   UNL     1      20.848 -12.439 -15.996  1.00  0.00     0.075 C 
ATOM      8  O   UNL     1      21.297 -12.592 -14.830  1.00  0.00    -0.545 OA
ATOM      9  O   UNL     1      19.478 -12.545 -16.209  1.00  0.00    -0.545 OA
ENDBRANCH   1   7
BRANCH   2  10
ATOM     10  O   UNL     1      23.576 -11.292 -15.656  1.00  0.00    -0.507 OA
ATOM     11  H   UNL     1      24.090 -10.465 -15.388  1.00  0.00     0.293 HD
ENDBRANCH   2  10
TORSDOF 2
ENDMDL
MODEL 8
REMARK VINA RESULT:    -0.019      1.808      3.383
REMARK INTER + INTRA:          -0.225
REMARK INTER:                  -0.014
REMARK INTRA:                  -0.212
REMARK UNBOUND:                -0.205
REMARK SMILES O=C([O-])c1ccccc1O
REMARK SMILES IDX 4 1 9 2 5 3 8 4 6 5 7 6 2 7 1 8 3 9 10 10
REMARK H PARENT 10 11
REMARK Flexibility Score: inf
ROOT
ATOM      1  C   UNL     1      22.751 -11.121 -18.317  1.00  0.00     0.039 A 
ATOM      2  C   UNL     1      23.364 -10.629 -17.135  1.00  0.00     0.124 A 
ATOM      3  C   UNL     1      22.247 -10.201 -19.255  1.00  0.00     0.014 A 
ATOM      4  C   UNL     1      23.400  -9.249 -16.897  1.00  0.00     0.047 A 
ATOM      5  C   UNL     1      22.310  -8.827 -19.011  1.00  0.00     0.001 A 
ATOM      6  C   UNL     1      22.877  -8.353 -17.830  1.00  0.00     0.004 A 
ENDROOT
BRANCH   1   7
ATOM      7  C   UNL     1      22.586 -12.566 -18.593  1.00  0.00     0.075 C 
ATOM      8  O   UNL     1      22.936 -13.430 -17.748  1.00  0.00    -0.545 OA
ATOM      9  O   UNL     1      21.976 -12.982 -19.771  1.00  0.00    -0.545 OA
ENDBRANCH   1   7
BRANCH   2  10
ATOM     10  O   UNL     1      23.974 -11.465 -16.198  1.00  0.00    -0.507 OA
ATOM     11  H   UNL     1      24.957 -11.424 -15.967  1.00  0.00     0.293 HD
ENDBRANCH   2  10
TORSDOF 2
ENDMDL
MODEL 9
REMARK VINA RESULT:     0.144      1.973      2.670
REMARK INTER + INTRA:          -0.049
REMARK INTER:                   0.200
REMARK INTRA:                  -0.249
REMARK UNBOUND:                -0.205
REMARK SMILES O=C([O-])c1ccccc1O
REMARK SMILES IDX 4 1 9 2 5 3 8 4 6 5 7 6 2 7 1 8 3 9 10 10
REMARK H PARENT 10 11
REMARK Flexibility Score: inf
ROOT
ATOM      1  C   UNL     1      22.816 -11.555 -17.518  1.00  0.00     0.039 A 
ATOM      2  C   UNL     1      21.965 -11.838 -18.618  1.00  0.00     0.124 A 
ATOM      3  C   UNL     1      22.380 -11.877 -16.220  1.00  0.00     0.014 A 
ATOM      4  C   UNL     1      20.691 -12.372 -18.387  1.00  0.00     0.047 A 
ATOM      5  C   UNL     1      21.114 -12.429 -16.009  1.00  0.00     0.001 A 
ATOM      6  C   UNL     1      20.268 -12.667 -17.091  1.00  0.00     0.004 A 
ENDROOT
BRANCH   1   7
ATOM      7  C   UNL     1      24.135 -10.900 -17.673  1.00  0.00     0.075 C 
ATOM      8  O   UNL     1      24.946 -11.280 -18.557  1.00  0.00    -0.545 OA
ATOM      9  O   UNL     1      24.465  -9.807 -16.880  1.00  0.00    -0.545 OA
ENDBRANCH   1   7
BRANCH   2  10
ATOM     10  O   UNL     1      22.355 -11.640 -19.944  1.00  0.00    -0.507 OA
ATOM     11  H   UNL     1      23.310 -11.714 -20.263  1.00  0.00     0.293 HD
ENDBRANCH   2  10
TORSDOF 2
ENDMDL
