MODEL 1
REMARK VINA RESULT:    -3.376      0.000      0.000
REMARK INTER + INTRA:          -3.703
REMARK INTER:                  -3.672
REMARK INTRA:                  -0.031
REMARK UNBOUND:                -0.031
REMARK SMILES O=C([O-])c1ccc(O)cc1
REMARK SMILES IDX 4 1 5 2 10 3 6 4 9 5 7 6 2 7 1 8 3 9 8 10
REMARK H PARENT 8 11
REMARK Flexibility Score: inf
ROOT
ATOM      1  C   UNL     1     134.853 125.656  98.245  1.00  0.00    -0.003 A 
ATOM      2  C   UNL     1     134.639 125.106  99.521  1.00  0.00     0.014 A 
ATOM      3  C   UNL     1     134.750 127.050  98.078  1.00  0.00     0.014 A 
ATOM      4  C   UNL     1     134.328 125.932 100.606  1.00  0.00     0.047 A 
ATOM      5  C   UNL     1     134.440 127.872  99.165  1.00  0.00     0.047 A 
ATOM      6  C   UNL     1     134.228 127.317 100.430  1.00  0.00     0.115 A 
ENDROOT
BRANCH   1   7
ATOM      7  C   UNL     1     135.182 124.781  97.099  1.00  0.00     0.071 C 
ATOM      8  O   UNL     1     134.636 124.961  95.977  1.00  0.00    -0.545 OA
ATOM      9  O   UNL     1     136.099 123.745  97.244  1.00  0.00    -0.545 OA
ENDBRANCH   1   7
BRANCH   6  10
ATOM     10  O   UNL     1     133.920 128.149 101.504  1.00  0.00    -0.508 OA
ATOM     11  H   UNL     1     134.018 129.155 101.441  1.00  0.00     0.293 HD
ENDBRANCH   6  10
TORSDOF 2
ENDMDL
MODEL 2
REMARK VINA RESULT:    -3.359      0.069      1.841
REMARK INTER + INTRA:          -3.685
REMARK INTER:                  -3.654
REMARK INTRA:                  -0.031
REMARK UNBOUND:                -0.031
REMARK SMILES O=C([O-])c1ccc(O)cc1
REMARK SMILES IDX 4 1 5 2 10 3 6 4 9 5 7 6 2 7 1 8 3 9 8 10
REMARK H PARENT 8 11
REMARK Flexibility Score: inf
ROOT
ATOM      1  C   UNL     1     134.867 125.634  98.259  1.00  0.00    -0.003 A 
ATOM      2  C   UNL     1     134.759 127.023  98.065  1.00  0.00     0.014 A 
ATOM      3  C   UNL     1     134.646 125.106  99.545  1.00  0.00     0.014 A 
ATOM      4  C   UNL     1     134.438 127.864  99.135  1.00  0.00     0.047 A 
ATOM      5  C   UNL     1     134.324 125.951 100.612  1.00  0.00     0.047 A 
ATOM      6  C   UNL     1     134.219 127.329 100.411  1.00  0.00     0.115 A 
ENDROOT
BRANCH   1   7
ATOM      7  C   UNL     1     135.207 124.745  97.126  1.00  0.00     0.071 C 
ATOM      8  O   UNL     1     136.107 123.871  97.245  1.00  0.00    -0.545 OA
ATOM      9  O   UNL     1     134.537 124.863  95.914  1.00  0.00    -0.545 OA
ENDBRANCH   1   7
BRANCH   6  10
ATOM     10  O   UNL     1     133.898 128.159 101.483  1.00  0.00    -0.508 OA
ATOM     11  H   UNL     1     133.456 127.798 102.319  1.00  0.00     0.293 HD
ENDBRANCH   6  10
TORSDOF 2
ENDMDL
MODEL 3
REMARK VINA RESULT:    -3.335     17.689     18.057
REMARK INTER + INTRA:          -3.659
REMARK INTER:                  -3.625
REMARK INTRA:                  -0.034
REMARK UNBOUND:                -0.031
REMARK SMILES O=C([O-])c1ccc(O)cc1
REMARK SMILES IDX 4 1 5 2 10 3 6 4 9 5 7 6 2 7 1 8 3 9 8 10
REMARK H PARENT 8 11
REMARK Flexibility Score: inf
ROOT
ATOM      1  C   UNL     1     116.790 125.722  98.340  1.00  0.00    -0.003 A 
ATOM      2  C   UNL     1     116.999 126.308  99.601  1.00  0.00     0.014 A 
ATOM      3  C   UNL     1     116.838 124.321  98.223  1.00  0.00     0.014 A 
ATOM      4  C   UNL     1     117.251 125.509 100.721  1.00  0.00     0.047 A 
ATOM      5  C   UNL     1     117.090 123.525  99.345  1.00  0.00     0.047 A 
ATOM      6  C   UNL     1     117.297 124.115 100.594  1.00  0.00     0.115 A 
ENDROOT
BRANCH   1   7
ATOM      7  C   UNL     1     116.524 126.570  97.156  1.00  0.00     0.071 C 
ATOM      8  O   UNL     1     116.811 126.163  95.999  1.00  0.00    -0.545 OA
ATOM      9  O   UNL     1     115.953 127.829  97.306  1.00  0.00    -0.545 OA
ENDBRANCH   1   7
BRANCH   6  10
ATOM     10  O   UNL     1     117.546 123.310 101.704  1.00  0.00    -0.508 OA
ATOM     11  H   UNL     1     117.594 123.696 102.639  1.00  0.00     0.293 HD
ENDBRANCH   6  10
TORSDOF 2
ENDMDL
MODEL 4
REMARK VINA RESULT:    -3.306     17.599     17.890
REMARK INTER + INTRA:          -3.627
REMARK INTER:                  -3.593
REMARK INTRA:                  -0.034
REMARK UNBOUND:                -0.031
REMARK SMILES O=C([O-])c1ccc(O)cc1
REMARK SMILES IDX 4 1 5 2 10 3 6 4 9 5 7 6 2 7 1 8 3 9 8 10
REMARK H PARENT 8 11
REMARK Flexibility Score: inf
ROOT
ATOM      1  C   UNL     1     116.850 124.720  98.529  1.00  0.00    -0.003 A 
ATOM      2  C   UNL     1     116.830 126.033  99.033  1.00  0.00     0.014 A 
ATOM      3  C   UNL     1     117.109 123.655  99.412  1.00  0.00     0.014 A 
ATOM      4  C   UNL     1     117.065 126.274 100.390  1.00  0.00     0.047 A 
ATOM      5  C   UNL     1     117.342 123.900 100.768  1.00  0.00     0.047 A 
ATOM      6  C   UNL     1     117.321 125.208 101.261  1.00  0.00     0.115 A 
ENDROOT
BRANCH   1   7
ATOM      7  C   UNL     1     116.602 124.467  97.093  1.00  0.00     0.071 C 
ATOM      8  O   UNL     1     115.876 125.247  96.420  1.00  0.00    -0.545 OA
ATOM      9  O   UNL     1     117.168 123.363  96.464  1.00  0.00    -0.545 OA
ENDBRANCH   1   7
BRANCH   6  10
ATOM     10  O   UNL     1     117.555 125.438 102.615  1.00  0.00    -0.508 OA
ATOM     11  H   UNL     1     117.209 126.268 103.079  1.00  0.00     0.293 HD
ENDBRANCH   6  10
TORSDOF 2
ENDMDL
MODEL 5
REMARK VINA RESULT:    -3.300      1.500      1.972
REMARK INTER + INTRA:          -3.620
REMARK INTER:                  -3.588
REMARK INTRA:                  -0.032
REMARK UNBOUND:                -0.031
REMARK SMILES O=C([O-])c1ccc(O)cc1
REMARK SMILES IDX 4 1 5 2 10 3 6 4 9 5 7 6 2 7 1 8 3 9 8 10
REMARK H PARENT 8 11
REMARK Flexibility Score: inf
ROOT
ATOM      1  C   UNL     1     134.691 126.827  98.323  1.00  0.00    -0.003 A 
ATOM      2  C   UNL     1     134.714 125.492  98.762  1.00  0.00     0.014 A 
ATOM      3  C   UNL     1     134.452 127.849  99.260  1.00  0.00     0.014 A 
ATOM      4  C   UNL     1     134.502 125.186 100.110  1.00  0.00     0.047 A 
ATOM      5  C   UNL     1     134.241 127.539 100.608  1.00  0.00     0.047 A 
ATOM      6  C   UNL     1     134.266 126.210 101.036  1.00  0.00     0.115 A 
ENDROOT
BRANCH   1   7
ATOM      7  C   UNL     1     134.915 127.149  96.896  1.00  0.00     0.071 C 
ATOM      8  O   UNL     1     134.275 128.082  96.341  1.00  0.00    -0.545 OA
ATOM      9  O   UNL     1     135.836 126.425  96.148  1.00  0.00    -0.545 OA
ENDBRANCH   1   7
BRANCH   6  10
ATOM     10  O   UNL     1     134.054 125.916 102.381  1.00  0.00    -0.508 OA
ATOM     11  H   UNL     1     133.882 124.969 102.696  1.00  0.00     0.293 HD
ENDBRANCH   6  10
TORSDOF 2
ENDMDL
MODEL 6
REMARK VINA RESULT:    -3.285     17.666     17.996
REMARK INTER + INTRA:          -3.605
REMARK INTER:                  -3.569
REMARK INTRA:                  -0.036
REMARK UNBOUND:                -0.031
REMARK SMILES O=C([O-])c1ccc(O)cc1
REMARK SMILES IDX 4 1 5 2 10 3 6 4 9 5 7 6 2 7 1 8 3 9 8 10
REMARK H PARENT 8 11
REMARK Flexibility Score: inf
ROOT
ATOM      1  C   UNL     1     116.790 125.565  98.226  1.00  0.00    -0.003 A 
ATOM      2  C   UNL     1     116.958 124.170  98.166  1.00  0.00     0.014 A 
ATOM      3  C   UNL     1     116.914 126.214  99.469  1.00  0.00     0.014 A 
ATOM      4  C   UNL     1     117.243 123.440  99.325  1.00  0.00     0.047 A 
ATOM      5  C   UNL     1     117.200 125.481 100.625  1.00  0.00     0.047 A 
ATOM      6  C   UNL     1     117.365 124.095 100.557  1.00  0.00     0.115 A 
ENDROOT
BRANCH   1   7
ATOM      7  C   UNL     1     116.488 126.335  96.999  1.00  0.00     0.071 C 
ATOM      8  O   UNL     1     116.177 127.554  97.068  1.00  0.00    -0.545 OA
ATOM      9  O   UNL     1     116.543 125.723  95.752  1.00  0.00    -0.545 OA
ENDBRANCH   1   7
BRANCH   6  10
ATOM     10  O   UNL     1     117.650 123.378 101.716  1.00  0.00    -0.508 OA
ATOM     11  H   UNL     1     117.098 123.490 102.558  1.00  0.00     0.293 HD
ENDBRANCH   6  10
TORSDOF 2
ENDMDL
MODEL 7
REMARK VINA RESULT:    -3.204     17.353     18.223
REMARK INTER + INTRA:          -3.517
REMARK INTER:                  -3.487
REMARK INTRA:                  -0.029
REMARK UNBOUND:                -0.031
REMARK SMILES O=C([O-])c1ccc(O)cc1
REMARK SMILES IDX 4 1 5 2 10 3 6 4 9 5 7 6 2 7 1 8 3 9 8 10
REMARK H PARENT 8 11
REMARK Flexibility Score: inf
ROOT
ATOM      1  C   UNL     1     117.203 125.553 100.522  1.00  0.00    -0.003 A 
ATOM      2  C   UNL     1     116.834 126.295  99.386  1.00  0.00     0.014 A 
ATOM      3  C   UNL     1     117.338 124.157 100.410  1.00  0.00     0.014 A 
ATOM      4  C   UNL     1     116.605 125.653  98.164  1.00  0.00     0.047 A 
ATOM      5  C   UNL     1     117.109 123.519  99.187  1.00  0.00     0.047 A 
ATOM      6  C   UNL     1     116.743 124.263  98.063  1.00  0.00     0.115 A 
ENDROOT
BRANCH   1   7
ATOM      7  C   UNL     1     117.444 126.233 101.813  1.00  0.00     0.071 C 
ATOM      8  O   UNL     1     118.552 126.116 102.403  1.00  0.00    -0.545 OA
ATOM      9  O   UNL     1     116.450 127.013 102.395  1.00  0.00    -0.545 OA
ENDBRANCH   1   7
BRANCH   6  10
ATOM     10  O   UNL     1     116.518 123.614  96.851  1.00  0.00    -0.508 OA
ATOM     11  H   UNL     1     116.784 124.033  95.968  1.00  0.00     0.293 HD
ENDBRANCH   6  10
TORSDOF 2
ENDMDL
MODEL 8
REMARK VINA RESULT:    -3.196      1.986      3.741
REMARK INTER + INTRA:          -3.507
REMARK INTER:                  -3.478
REMARK INTRA:                  -0.029
REMARK UNBOUND:                -0.031
REMARK SMILES O=C([O-])c1ccc(O)cc1
REMARK SMILES IDX 4 1 5 2 10 3 6 4 9 5 7 6 2 7 1 8 3 9 8 10
REMARK H PARENT 8 11
REMARK Flexibility Score: inf
ROOT
ATOM      1  C   UNL     1     134.397 125.777 100.237  1.00  0.00    -0.003 A 
ATOM      2  C   UNL     1     134.781 125.083  99.077  1.00  0.00     0.014 A 
ATOM      3  C   UNL     1     134.240 127.174 100.176  1.00  0.00     0.014 A 
ATOM      4  C   UNL     1     135.003 125.772  97.880  1.00  0.00     0.047 A 
ATOM      5  C   UNL     1     134.461 127.859  98.978  1.00  0.00     0.047 A 
ATOM      6  C   UNL     1     134.843 127.163  97.828  1.00  0.00     0.115 A 
ENDROOT
BRANCH   1   7
ATOM      7  C   UNL     1     134.163 125.046 101.503  1.00  0.00     0.071 C 
ATOM      8  O   UNL     1     134.801 125.351 102.546  1.00  0.00    -0.545 OA
ATOM      9  O   UNL     1     133.236 124.012 101.557  1.00  0.00    -0.545 OA
ENDBRANCH   1   7
BRANCH   6  10
ATOM     10  O   UNL     1     135.061 127.858  96.641  1.00  0.00    -0.508 OA
ATOM     11  H   UNL     1     135.838 127.635  96.031  1.00  0.00     0.293 HD
ENDBRANCH   6  10
TORSDOF 2
ENDMDL
MODEL 9
REMARK VINA RESULT:    -3.104      2.240      3.243
REMARK INTER + INTRA:          -3.407
REMARK INTER:                  -3.377
REMARK INTRA:                  -0.030
REMARK UNBOUND:                -0.031
REMARK SMILES O=C([O-])c1ccc(O)cc1
REMARK SMILES IDX 4 1 5 2 10 3 6 4 9 5 7 6 2 7 1 8 3 9 8 10
REMARK H PARENT 8 11
REMARK Flexibility Score: inf
ROOT
ATOM      1  C   UNL     1     135.145 125.137  98.402  1.00  0.00    -0.003 A 
ATOM      2  C   UNL     1     135.676 125.192  97.101  1.00  0.00     0.014 A 
ATOM      3  C   UNL     1     134.476 126.265  98.913  1.00  0.00     0.014 A 
ATOM      4  C   UNL     1     135.541 126.350  96.329  1.00  0.00     0.047 A 
ATOM      5  C   UNL     1     134.342 127.420  98.138  1.00  0.00     0.047 A 
ATOM      6  C   UNL     1     134.872 127.467  96.846  1.00  0.00     0.115 A 
ENDROOT
BRANCH   1   7
ATOM      7  C   UNL     1     135.290 123.911  99.218  1.00  0.00     0.071 C 
ATOM      8  O   UNL     1     135.785 123.966 100.375  1.00  0.00    -0.545 OA
ATOM      9  O   UNL     1     134.880 122.680  98.718  1.00  0.00    -0.545 OA
ENDBRANCH   1   7
BRANCH   6  10
ATOM     10  O   UNL     1     134.731 128.625  96.085  1.00  0.00    -0.508 OA
ATOM     11  H   UNL     1     133.851 128.867  95.646  1.00  0.00     0.293 HD
ENDBRANCH   6  10
TORSDOF 2
ENDMDL
