MODEL 1
REMARK VINA RESULT:    14.471      0.000      0.000
REMARK INTER + INTRA:          39.900
REMARK INTER:                  38.157
REMARK INTRA:                   1.743
REMARK UNBOUND:                 1.743
REMARK SMILES CCCCCCCCCCCCCCCCCCCCCCCCCCCCCC(=O)[O-]
REMARK SMILES IDX 16 1 17 2 18 3 19 4 20 5 21 6 22 7 23 8 24 9 25 10 26 11
REMARK SMILES IDX 27 12 28 13 29 14 30 15 31 16 32 17 15 18 14 19 13 20 12 21
REMARK SMILES IDX 11 22 10 23 9 24 8 25 7 26 6 27 5 28 4 29 3 30 2 31 1 32
REMARK H PARENT
REMARK Flexibility Score: inf
ROOT
ATOM      1  C   UNL     1      -4.224  -6.230 -16.740  1.00  0.00     0.000 C 
ENDROOT
BRANCH   1   2
ATOM      2  C   UNL     1      -4.444  -6.735 -15.304  1.00  0.00     0.000 C 
BRANCH   2   3
ATOM      3  C   UNL     1      -3.927  -5.747 -14.241  1.00  0.00     0.000 C 
BRANCH   3   4
ATOM      4  C   UNL     1      -4.964  -5.519 -13.130  1.00  0.00     0.000 C 
BRANCH   4   5
ATOM      5  C   UNL     1      -4.956  -6.647 -12.076  1.00  0.00     0.000 C 
BRANCH   5   6
ATOM      6  C   UNL     1      -6.050  -6.462 -11.010  1.00  0.00     0.000 C 
BRANCH   6   7
ATOM      7  C   UNL     1      -6.182  -7.702 -10.107  1.00  0.00     0.000 C 
BRANCH   7   8
ATOM      8  C   UNL     1      -4.835  -8.154  -9.518  1.00  0.00     0.000 C 
BRANCH   8   9
ATOM      9  C   UNL     1      -4.968  -9.398  -8.627  1.00  0.00     0.000 C 
BRANCH   9  10
ATOM     10  C   UNL     1      -3.722  -9.578  -7.745  1.00  0.00     0.000 C 
BRANCH  10  11
ATOM     11  C   UNL     1      -3.535  -8.417  -6.754  1.00  0.00     0.000 C 
BRANCH  11  12
ATOM     12  C   UNL     1      -3.463  -8.894  -5.294  1.00  0.00     0.000 C 
BRANCH  12  13
ATOM     13  C   UNL     1      -4.511  -9.976  -4.972  1.00  0.00     0.006 C 
BRANCH  13  14
ATOM     14  C   UNL     1      -5.104 -10.673  -6.207  1.00  0.00     0.053 C 
BRANCH  14  15
ATOM     15  C   UNL     1      -4.844 -12.150  -6.199  1.00  0.00     0.041 C 
ATOM     16  O   UNL     1      -4.154 -12.667  -5.280  1.00  0.00    -0.550 OA
ATOM     17  O   UNL     1      -5.389 -12.956  -7.192  1.00  0.00    -0.550 OA
ENDBRANCH  14  15
ENDBRANCH  13  14
ENDBRANCH  12  13
ENDBRANCH  11  12
ENDBRANCH  10  11
ENDBRANCH   9  10
ENDBRANCH   8   9
ENDBRANCH   7   8
ENDBRANCH   6   7
ENDBRANCH   5   6
ENDBRANCH   4   5
ENDBRANCH   3   4
ENDBRANCH   2   3
ENDBRANCH   1   2
BRANCH   1  18
ATOM     18  C   UNL     1      -2.777  -6.436 -17.221  1.00  0.00     0.000 C 
BRANCH  18  19
ATOM     19  C   UNL     1      -1.909  -7.168 -16.185  1.00  0.00     0.000 C 
BRANCH  19  20
ATOM     20  C   UNL     1      -0.527  -6.512 -16.001  1.00  0.00     0.000 C 
BRANCH  20  21
ATOM     21  C   UNL     1       0.543  -7.126 -16.919  1.00  0.00     0.000 C 
BRANCH  21  22
ATOM     22  C   UNL     1       1.961  -7.005 -16.332  1.00  0.00     0.000 C 
BRANCH  22  23
ATOM     23  C   UNL     1       2.751  -5.830 -16.931  1.00  0.00     0.000 C 
BRANCH  23  24
ATOM     24  C   UNL     1       4.258  -6.124 -17.036  1.00  0.00    -0.000 C 
BRANCH  24  25
ATOM     25  C   UNL     1       4.550  -7.392 -17.853  1.00  0.00    -0.000 C 
BRANCH  25  26
ATOM     26  C   UNL     1       5.943  -7.363 -18.500  1.00  0.00    -0.000 C 
BRANCH  26  27
ATOM     27  C   UNL     1       6.567  -8.766 -18.522  1.00  0.00    -0.000 C 
BRANCH  27  28
ATOM     28  C   UNL     1       7.617  -8.922 -19.642  1.00  0.00    -0.000 C 
BRANCH  28  29
ATOM     29  C   UNL     1       7.222  -8.240 -20.968  1.00  0.00    -0.000 C 
BRANCH  29  30
ATOM     30  C   UNL     1       8.393  -7.642 -21.770  1.00  0.00    -0.000 C 
BRANCH  30  31
ATOM     31  C   UNL     1       8.152  -6.181 -22.181  1.00  0.00    -0.003 C 
ATOM     32  C   UNL     1       6.819  -6.030 -22.913  1.00  0.00     0.004 C 
ENDBRANCH  30  31
ENDBRANCH  29  30
ENDBRANCH  28  29
ENDBRANCH  27  28
ENDBRANCH  26  27
ENDBRANCH  25  26
ENDBRANCH  24  25
ENDBRANCH  23  24
ENDBRANCH  22  23
ENDBRANCH  21  22
ENDBRANCH  20  21
ENDBRANCH  19  20
ENDBRANCH  18  19
ENDBRANCH   1  18
TORSDOF 28
ENDMDL
MODEL 2
REMARK VINA RESULT:    16.821      4.862     13.425
REMARK INTER + INTRA:          46.098
REMARK INTER:                  47.820
REMARK INTRA:                  -1.723
REMARK UNBOUND:                 1.743
REMARK SMILES CCCCCCCCCCCCCCCCCCCCCCCCCCCCCC(=O)[O-]
REMARK SMILES IDX 16 1 17 2 18 3 19 4 20 5 21 6 22 7 23 8 24 9 25 10 26 11
REMARK SMILES IDX 27 12 28 13 29 14 30 15 31 16 32 17 15 18 14 19 13 20 12 21
REMARK SMILES IDX 11 22 10 23 9 24 8 25 7 26 6 27 5 28 4 29 3 30 2 31 1 32
REMARK H PARENT
REMARK Flexibility Score: inf
ROOT
ATOM      1  C   UNL     1      -5.224  -8.492  -9.604  1.00  0.00     0.000 C 
ENDROOT
BRANCH   1   2
ATOM      2  C   UNL     1      -5.850  -7.197 -10.146  1.00  0.00     0.000 C 
BRANCH   2   3
ATOM      3  C   UNL     1      -5.320  -6.820 -11.543  1.00  0.00     0.000 C 
BRANCH   3   4
ATOM      4  C   UNL     1      -5.480  -5.317 -11.821  1.00  0.00     0.000 C 
BRANCH   4   5
ATOM      5  C   UNL     1      -5.297  -4.971 -13.314  1.00  0.00     0.000 C 
BRANCH   5   6
ATOM      6  C   UNL     1      -3.894  -5.332 -13.832  1.00  0.00     0.000 C 
BRANCH   6   7
ATOM      7  C   UNL     1      -3.902  -6.653 -14.624  1.00  0.00     0.000 C 
BRANCH   7   8
ATOM      8  C   UNL     1      -4.801  -6.594 -15.869  1.00  0.00     0.000 C 
BRANCH   8   9
ATOM      9  C   UNL     1      -4.034  -6.179 -17.134  1.00  0.00     0.000 C 
BRANCH   9  10
ATOM     10  C   UNL     1      -2.517  -6.289 -16.917  1.00  0.00     0.000 C 
BRANCH  10  11
ATOM     11  C   UNL     1      -1.993  -7.714 -17.167  1.00  0.00     0.000 C 
BRANCH  11  12
ATOM     12  C   UNL     1      -0.472  -7.751 -17.392  1.00  0.00     0.000 C 
BRANCH  12  13
ATOM     13  C   UNL     1       0.315  -7.129 -16.223  1.00  0.00     0.006 C 
BRANCH  13  14
ATOM     14  C   UNL     1       0.882  -5.730 -16.512  1.00  0.00     0.053 C 
BRANCH  14  15
ATOM     15  C   UNL     1       2.361  -5.761 -16.761  1.00  0.00     0.041 C 
ATOM     16  O   UNL     1       2.823  -5.391 -17.873  1.00  0.00    -0.550 OA
ATOM     17  O   UNL     1       3.226  -6.171 -15.754  1.00  0.00    -0.550 OA
ENDBRANCH  14  15
ENDBRANCH  13  14
ENDBRANCH  12  13
ENDBRANCH  11  12
ENDBRANCH  10  11
ENDBRANCH   9  10
ENDBRANCH   8   9
ENDBRANCH   7   8
ENDBRANCH   6   7
ENDBRANCH   5   6
ENDBRANCH   4   5
ENDBRANCH   3   4
ENDBRANCH   2   3
ENDBRANCH   1   2
BRANCH   1  18
ATOM     18  C   UNL     1      -4.309  -8.240  -8.392  1.00  0.00     0.000 C 
BRANCH  18  19
ATOM     19  C   UNL     1      -4.300  -9.418  -7.404  1.00  0.00     0.000 C 
BRANCH  19  20
ATOM     20  C   UNL     1      -3.681  -9.046  -6.044  1.00  0.00     0.000 C 
BRANCH  20  21
ATOM     21  C   UNL     1      -4.208  -9.922  -4.896  1.00  0.00     0.000 C 
BRANCH  21  22
ATOM     22  C   UNL     1      -5.744 -10.027  -4.894  1.00  0.00     0.000 C 
BRANCH  22  23
ATOM     23  C   UNL     1      -6.242 -11.449  -5.199  1.00  0.00     0.000 C 
BRANCH  23  24
ATOM     24  C   UNL     1      -5.191 -12.525  -4.875  1.00  0.00    -0.000 C 
BRANCH  24  25
ATOM     25  C   UNL     1      -4.686 -13.245  -6.135  1.00  0.00    -0.000 C 
BRANCH  25  26
ATOM     26  C   UNL     1      -5.533 -12.919  -7.374  1.00  0.00    -0.000 C 
BRANCH  26  27
ATOM     27  C   UNL     1      -4.745 -13.186  -8.664  1.00  0.00    -0.000 C 
BRANCH  27  28
ATOM     28  C   UNL     1      -5.501 -14.122  -9.630  1.00  0.00    -0.000 C 
BRANCH  28  29
ATOM     29  C   UNL     1      -6.789 -14.726  -9.033  1.00  0.00    -0.000 C 
BRANCH  29  30
ATOM     30  C   UNL     1      -8.000 -14.753  -9.985  1.00  0.00    -0.000 C 
BRANCH  30  31
ATOM     31  C   UNL     1      -8.148 -16.090 -10.727  1.00  0.00    -0.003 C 
ATOM     32  C   UNL     1      -9.362 -16.869 -10.220  1.00  0.00     0.004 C 
ENDBRANCH  30  31
ENDBRANCH  29  30
ENDBRANCH  28  29
ENDBRANCH  27  28
ENDBRANCH  26  27
ENDBRANCH  25  26
ENDBRANCH  24  25
ENDBRANCH  23  24
ENDBRANCH  22  23
ENDBRANCH  21  22
ENDBRANCH  20  21
ENDBRANCH  19  20
ENDBRANCH  18  19
ENDBRANCH   1  18
TORSDOF 28
ENDMDL
MODEL 3
REMARK VINA RESULT:    16.874      1.444      2.067
REMARK INTER + INTRA:          46.238
REMARK INTER:                  45.562
REMARK INTRA:                   0.676
REMARK UNBOUND:                 1.743
REMARK SMILES CCCCCCCCCCCCCCCCCCCCCCCCCCCCCC(=O)[O-]
REMARK SMILES IDX 16 1 17 2 18 3 19 4 20 5 21 6 22 7 23 8 24 9 25 10 26 11
REMARK SMILES IDX 27 12 28 13 29 14 30 15 31 16 32 17 15 18 14 19 13 20 12 21
REMARK SMILES IDX 11 22 10 23 9 24 8 25 7 26 6 27 5 28 4 29 3 30 2 31 1 32
REMARK H PARENT
REMARK Flexibility Score: inf
ROOT
ATOM      1  C   UNL     1      -3.887  -6.802 -15.043  1.00  0.00     0.000 C 
ENDROOT
BRANCH   1   2
ATOM      2  C   UNL     1      -4.133  -5.573 -14.154  1.00  0.00     0.000 C 
BRANCH   2   3
ATOM      3  C   UNL     1      -4.351  -5.943 -12.674  1.00  0.00     0.000 C 
BRANCH   3   4
ATOM      4  C   UNL     1      -5.847  -6.018 -12.326  1.00  0.00     0.000 C 
BRANCH   4   5
ATOM      5  C   UNL     1      -6.093  -6.538 -10.893  1.00  0.00     0.000 C 
BRANCH   5   6
ATOM      6  C   UNL     1      -5.295  -7.817 -10.589  1.00  0.00     0.000 C 
BRANCH   6   7
ATOM      7  C   UNL     1      -5.538  -8.312  -9.151  1.00  0.00     0.000 C 
BRANCH   7   8
ATOM      8  C   UNL     1      -4.371  -9.150  -8.604  1.00  0.00     0.000 C 
BRANCH   8   9
ATOM      9  C   UNL     1      -3.849  -8.629  -7.257  1.00  0.00     0.000 C 
BRANCH   9  10
ATOM     10  C   UNL     1      -3.203  -9.762  -6.443  1.00  0.00     0.000 C 
BRANCH  10  11
ATOM     11  C   UNL     1      -3.719  -9.809  -4.995  1.00  0.00     0.000 C 
BRANCH  11  12
ATOM     12  C   UNL     1      -5.113 -10.448  -4.887  1.00  0.00     0.000 C 
BRANCH  12  13
ATOM     13  C   UNL     1      -5.166 -11.863  -5.493  1.00  0.00     0.006 C 
BRANCH  13  14
ATOM     14  C   UNL     1      -6.569 -12.314  -5.932  1.00  0.00     0.053 C 
BRANCH  14  15
ATOM     15  C   UNL     1      -7.651 -11.529  -5.253  1.00  0.00     0.041 C 
ATOM     16  O   UNL     1      -7.503 -10.295  -5.044  1.00  0.00    -0.550 OA
ATOM     17  O   UNL     1      -8.833 -12.157  -4.878  1.00  0.00    -0.550 OA
ENDBRANCH  14  15
ENDBRANCH  13  14
ENDBRANCH  12  13
ENDBRANCH  11  12
ENDBRANCH  10  11
ENDBRANCH   9  10
ENDBRANCH   8   9
ENDBRANCH   7   8
ENDBRANCH   6   7
ENDBRANCH   5   6
ENDBRANCH   4   5
ENDBRANCH   3   4
ENDBRANCH   2   3
ENDBRANCH   1   2
BRANCH   1  18
ATOM     18  C   UNL     1      -3.784  -6.437 -16.535  1.00  0.00     0.000 C 
BRANCH  18  19
ATOM     19  C   UNL     1      -2.361  -6.613 -17.089  1.00  0.00     0.000 C 
BRANCH  19  20
ATOM     20  C   UNL     1      -1.321  -6.863 -15.980  1.00  0.00     0.000 C 
BRANCH  20  21
ATOM     21  C   UNL     1       0.124  -6.707 -16.482  1.00  0.00     0.000 C 
BRANCH  21  22
ATOM     22  C   UNL     1       0.790  -5.419 -15.965  1.00  0.00     0.000 C 
BRANCH  22  23
ATOM     23  C   UNL     1       2.113  -5.108 -16.683  1.00  0.00     0.000 C 
BRANCH  23  24
ATOM     24  C   UNL     1       2.753  -6.358 -17.312  1.00  0.00    -0.000 C 
BRANCH  24  25
ATOM     25  C   UNL     1       4.265  -6.436 -17.045  1.00  0.00    -0.000 C 
BRANCH  25  26
ATOM     26  C   UNL     1       5.071  -6.691 -18.327  1.00  0.00    -0.000 C 
BRANCH  26  27
ATOM     27  C   UNL     1       5.637  -8.119 -18.345  1.00  0.00    -0.000 C 
BRANCH  27  28
ATOM     28  C   UNL     1       7.151  -8.146 -18.637  1.00  0.00    -0.000 C 
BRANCH  28  29
ATOM     29  C   UNL     1       7.718  -9.562 -18.867  1.00  0.00    -0.000 C 
BRANCH  29  30
ATOM     30  C   UNL     1       7.827  -9.992 -20.343  1.00  0.00    -0.000 C 
BRANCH  30  31
ATOM     31  C   UNL     1       7.058  -9.061 -21.294  1.00  0.00    -0.003 C 
ATOM     32  C   UNL     1       7.662  -7.657 -21.296  1.00  0.00     0.004 C 
ENDBRANCH  30  31
ENDBRANCH  29  30
ENDBRANCH  28  29
ENDBRANCH  27  28
ENDBRANCH  26  27
ENDBRANCH  25  26
ENDBRANCH  24  25
ENDBRANCH  23  24
ENDBRANCH  22  23
ENDBRANCH  21  22
ENDBRANCH  20  21
ENDBRANCH  19  20
ENDBRANCH  18  19
ENDBRANCH   1  18
TORSDOF 28
ENDMDL
MODEL 4
REMARK VINA RESULT:    16.876      5.070      6.832
REMARK INTER + INTRA:          46.243
REMARK INTER:                  47.574
REMARK INTRA:                  -1.332
REMARK UNBOUND:                 1.743
REMARK SMILES CCCCCCCCCCCCCCCCCCCCCCCCCCCCCC(=O)[O-]
REMARK SMILES IDX 16 1 17 2 18 3 19 4 20 5 21 6 22 7 23 8 24 9 25 10 26 11
REMARK SMILES IDX 27 12 28 13 29 14 30 15 31 16 32 17 15 18 14 19 13 20 12 21
REMARK SMILES IDX 11 22 10 23 9 24 8 25 7 26 6 27 5 28 4 29 3 30 2 31 1 32
REMARK H PARENT
REMARK Flexibility Score: inf
ROOT
ATOM      1  C   UNL     1      -2.820  -6.359 -16.750  1.00  0.00     0.000 C 
ENDROOT
BRANCH   1   2
ATOM      2  C   UNL     1      -3.924  -6.487 -15.688  1.00  0.00     0.000 C 
BRANCH   2   3
ATOM      3  C   UNL     1      -3.501  -5.923 -14.319  1.00  0.00     0.000 C 
BRANCH   3   4
ATOM      4  C   UNL     1      -4.719  -5.498 -13.482  1.00  0.00     0.000 C 
BRANCH   4   5
ATOM      5  C   UNL     1      -4.924  -6.395 -12.242  1.00  0.00     0.000 C 
BRANCH   5   6
ATOM      6  C   UNL     1      -6.167  -5.994 -11.428  1.00  0.00     0.000 C 
BRANCH   6   7
ATOM      7  C   UNL     1      -6.497  -7.036 -10.344  1.00  0.00     0.000 C 
BRANCH   7   8
ATOM      8  C   UNL     1      -5.454  -8.162 -10.262  1.00  0.00     0.000 C 
BRANCH   8   9
ATOM      9  C   UNL     1      -4.602  -8.089  -8.986  1.00  0.00     0.000 C 
BRANCH   9  10
ATOM     10  C   UNL     1      -4.939  -9.248  -8.034  1.00  0.00     0.000 C 
BRANCH  10  11
ATOM     11  C   UNL     1      -3.696  -9.787  -7.306  1.00  0.00     0.000 C 
BRANCH  11  12
ATOM     12  C   UNL     1      -3.680  -9.416  -5.814  1.00  0.00     0.000 C 
BRANCH  12  13
ATOM     13  C   UNL     1      -4.840 -10.059  -5.031  1.00  0.00     0.006 C 
BRANCH  13  14
ATOM     14  C   UNL     1      -4.890 -11.594  -5.115  1.00  0.00     0.053 C 
BRANCH  14  15
ATOM     15  C   UNL     1      -6.008 -12.074  -5.991  1.00  0.00     0.041 C 
ATOM     16  O   UNL     1      -7.206 -11.850  -5.669  1.00  0.00    -0.550 OA
ATOM     17  O   UNL     1      -5.724 -12.743  -7.175  1.00  0.00    -0.550 OA
ENDBRANCH  14  15
ENDBRANCH  13  14
ENDBRANCH  12  13
ENDBRANCH  11  12
ENDBRANCH  10  11
ENDBRANCH   9  10
ENDBRANCH   8   9
ENDBRANCH   7   8
ENDBRANCH   6   7
ENDBRANCH   5   6
ENDBRANCH   4   5
ENDBRANCH   3   4
ENDBRANCH   2   3
ENDBRANCH   1   2
BRANCH   1  18
ATOM     18  C   UNL     1      -1.921  -7.606 -16.818  1.00  0.00     0.000 C 
BRANCH  18  19
ATOM     19  C   UNL     1      -0.566  -7.395 -16.122  1.00  0.00     0.000 C 
BRANCH  19  20
ATOM     20  C   UNL     1       0.494  -8.418 -16.571  1.00  0.00     0.000 C 
BRANCH  20  21
ATOM     21  C   UNL     1       0.577  -9.632 -15.630  1.00  0.00     0.000 C 
BRANCH  21  22
ATOM     22  C   UNL     1       2.009 -10.184 -15.508  1.00  0.00     0.000 C 
BRANCH  22  23
ATOM     23  C   UNL     1       2.141 -11.614 -16.056  1.00  0.00     0.000 C 
BRANCH  23  24
ATOM     24  C   UNL     1       1.197 -12.607 -15.354  1.00  0.00    -0.000 C 
BRANCH  24  25
ATOM     25  C   UNL     1       1.492 -14.064 -15.740  1.00  0.00    -0.000 C 
BRANCH  25  26
ATOM     26  C   UNL     1       1.080 -14.381 -17.185  1.00  0.00    -0.000 C 
BRANCH  26  27
ATOM     27  C   UNL     1       0.908 -15.894 -17.388  1.00  0.00    -0.000 C 
BRANCH  27  28
ATOM     28  C   UNL     1       0.545 -16.623 -16.078  1.00  0.00    -0.000 C 
BRANCH  28  29
ATOM     29  C   UNL     1       0.305 -18.137 -16.252  1.00  0.00    -0.000 C 
BRANCH  29  30
ATOM     30  C   UNL     1      -0.863 -18.714 -15.429  1.00  0.00    -0.000 C 
BRANCH  30  31
ATOM     31  C   UNL     1      -1.743 -17.624 -14.797  1.00  0.00    -0.003 C 
ATOM     32  C   UNL     1      -2.064 -17.954 -13.339  1.00  0.00     0.004 C 
ENDBRANCH  30  31
ENDBRANCH  29  30
ENDBRANCH  28  29
ENDBRANCH  27  28
ENDBRANCH  26  27
ENDBRANCH  25  26
ENDBRANCH  24  25
ENDBRANCH  23  24
ENDBRANCH  22  23
ENDBRANCH  21  22
ENDBRANCH  20  21
ENDBRANCH  19  20
ENDBRANCH  18  19
ENDBRANCH   1  18
TORSDOF 28
ENDMDL
MODEL 5
REMARK VINA RESULT:    17.050      4.827     13.020
REMARK INTER + INTRA:          46.701
REMARK INTER:                  47.726
REMARK INTRA:                  -1.025
REMARK UNBOUND:                 1.743
REMARK SMILES CCCCCCCCCCCCCCCCCCCCCCCCCCCCCC(=O)[O-]
REMARK SMILES IDX 16 1 17 2 18 3 19 4 20 5 21 6 22 7 23 8 24 9 25 10 26 11
REMARK SMILES IDX 27 12 28 13 29 14 30 15 31 16 32 17 15 18 14 19 13 20 12 21
REMARK SMILES IDX 11 22 10 23 9 24 8 25 7 26 6 27 5 28 4 29 3 30 2 31 1 32
REMARK H PARENT
REMARK Flexibility Score: inf
ROOT
ATOM      1  C   UNL     1      -5.524  -8.400  -9.768  1.00  0.00     0.000 C 
ENDROOT
BRANCH   1   2
ATOM      2  C   UNL     1      -5.812  -7.059 -10.461  1.00  0.00     0.000 C 
BRANCH   2   3
ATOM      3  C   UNL     1      -5.119  -6.936 -11.831  1.00  0.00     0.000 C 
BRANCH   3   4
ATOM      4  C   UNL     1      -5.137  -5.487 -12.346  1.00  0.00     0.000 C 
BRANCH   4   5
ATOM      5  C   UNL     1      -4.538  -5.357 -13.762  1.00  0.00     0.000 C 
BRANCH   5   6
ATOM      6  C   UNL     1      -4.633  -6.669 -14.561  1.00  0.00     0.000 C 
BRANCH   6   7
ATOM      7  C   UNL     1      -4.616  -6.413 -16.080  1.00  0.00     0.000 C 
BRANCH   7   8
ATOM      8  C   UNL     1      -3.241  -5.949 -16.589  1.00  0.00     0.000 C 
BRANCH   8   9
ATOM      9  C   UNL     1      -2.282  -7.120 -16.853  1.00  0.00     0.000 C 
BRANCH   9  10
ATOM     10  C   UNL     1      -1.124  -7.121 -15.842  1.00  0.00     0.000 C 
BRANCH  10  11
ATOM     11  C   UNL     1       0.101  -7.895 -16.357  1.00  0.00     0.000 C 
BRANCH  11  12
ATOM     12  C   UNL     1      -0.093  -9.419 -16.286  1.00  0.00     0.000 C 
BRANCH  12  13
ATOM     13  C   UNL     1       0.821 -10.085 -15.240  1.00  0.00     0.006 C 
BRANCH  13  14
ATOM     14  C   UNL     1       2.155 -10.604 -15.801  1.00  0.00     0.053 C 
BRANCH  14  15
ATOM     15  C   UNL     1       2.158 -12.096 -15.959  1.00  0.00     0.041 C 
ATOM     16  O   UNL     1       2.951 -12.645 -16.768  1.00  0.00    -0.550 OA
ATOM     17  O   UNL     1       1.303 -12.876 -15.189  1.00  0.00    -0.550 OA
ENDBRANCH  14  15
ENDBRANCH  13  14
ENDBRANCH  12  13
ENDBRANCH  11  12
ENDBRANCH  10  11
ENDBRANCH   9  10
ENDBRANCH   8   9
ENDBRANCH   7   8
ENDBRANCH   6   7
ENDBRANCH   5   6
ENDBRANCH   4   5
ENDBRANCH   3   4
ENDBRANCH   2   3
ENDBRANCH   1   2
BRANCH   1  18
ATOM     18  C   UNL     1      -4.335  -8.315  -8.794  1.00  0.00     0.000 C 
BRANCH  18  19
ATOM     19  C   UNL     1      -4.376  -9.410  -7.715  1.00  0.00     0.000 C 
BRANCH  19  20
ATOM     20  C   UNL     1      -3.470  -9.089  -6.512  1.00  0.00     0.000 C 
BRANCH  20  21
ATOM     21  C   UNL     1      -4.062  -9.581  -5.181  1.00  0.00     0.000 C 
BRANCH  21  22
ATOM     22  C   UNL     1      -5.387 -10.341  -5.372  1.00  0.00     0.000 C 
BRANCH  22  23
ATOM     23  C   UNL     1      -5.313 -11.794  -4.875  1.00  0.00     0.000 C 
BRANCH  23  24
ATOM     24  C   UNL     1      -5.331 -12.815  -6.027  1.00  0.00    -0.000 C 
BRANCH  24  25
ATOM     25  C   UNL     1      -4.884 -12.196  -7.361  1.00  0.00    -0.000 C 
BRANCH  25  26
ATOM     26  C   UNL     1      -5.080 -13.156  -8.545  1.00  0.00    -0.000 C 
BRANCH  26  27
ATOM     27  C   UNL     1      -6.153 -14.207  -8.227  1.00  0.00    -0.000 C 
BRANCH  27  28
ATOM     28  C   UNL     1      -6.736 -14.853  -9.501  1.00  0.00    -0.000 C 
BRANCH  28  29
ATOM     29  C   UNL     1      -8.206 -14.472  -9.777  1.00  0.00    -0.000 C 
BRANCH  29  30
ATOM     30  C   UNL     1      -8.848 -15.176 -10.988  1.00  0.00    -0.000 C 
BRANCH  30  31
ATOM     31  C   UNL     1      -8.858 -16.707 -10.852  1.00  0.00    -0.003 C 
ATOM     32  C   UNL     1      -8.098 -17.365 -12.004  1.00  0.00     0.004 C 
ENDBRANCH  30  31
ENDBRANCH  29  30
ENDBRANCH  28  29
ENDBRANCH  27  28
ENDBRANCH  26  27
ENDBRANCH  25  26
ENDBRANCH  24  25
ENDBRANCH  23  24
ENDBRANCH  22  23
ENDBRANCH  21  22
ENDBRANCH  20  21
ENDBRANCH  19  20
ENDBRANCH  18  19
ENDBRANCH   1  18
TORSDOF 28
ENDMDL
MODEL 6
REMARK VINA RESULT:    17.069      4.619      7.919
REMARK INTER + INTRA:          46.751
REMARK INTER:                  48.510
REMARK INTRA:                  -1.759
REMARK UNBOUND:                 1.743
REMARK SMILES CCCCCCCCCCCCCCCCCCCCCCCCCCCCCC(=O)[O-]
REMARK SMILES IDX 16 1 17 2 18 3 19 4 20 5 21 6 22 7 23 8 24 9 25 10 26 11
REMARK SMILES IDX 27 12 28 13 29 14 30 15 31 16 32 17 15 18 14 19 13 20 12 21
REMARK SMILES IDX 11 22 10 23 9 24 8 25 7 26 6 27 5 28 4 29 3 30 2 31 1 32
REMARK H PARENT
REMARK Flexibility Score: inf
ROOT
ATOM      1  C   UNL     1      -4.056 -11.984 -11.959  1.00  0.00     0.000 C 
ENDROOT
BRANCH   1   2
ATOM      2  C   UNL     1      -3.694 -11.496 -10.547  1.00  0.00     0.000 C 
BRANCH   2   3
ATOM      3  C   UNL     1      -4.561 -10.308 -10.088  1.00  0.00     0.000 C 
BRANCH   3   4
ATOM      4  C   UNL     1      -3.984  -9.641  -8.829  1.00  0.00     0.000 C 
BRANCH   4   5
ATOM      5  C   UNL     1      -4.307 -10.431  -7.543  1.00  0.00     0.000 C 
BRANCH   5   6
ATOM      6  C   UNL     1      -3.828  -9.705  -6.273  1.00  0.00     0.000 C 
BRANCH   6   7
ATOM      7  C   UNL     1      -4.473 -10.291  -5.004  1.00  0.00     0.000 C 
BRANCH   7   8
ATOM      8  C   UNL     1      -4.713 -11.807  -5.104  1.00  0.00     0.000 C 
BRANCH   8   9
ATOM      9  C   UNL     1      -6.197 -12.161  -5.280  1.00  0.00     0.000 C 
BRANCH   9  10
ATOM     10  C   UNL     1      -6.509 -12.511  -6.744  1.00  0.00     0.000 C 
BRANCH  10  11
ATOM     11  C   UNL     1      -5.485 -13.491  -7.342  1.00  0.00     0.000 C 
BRANCH  11  12
ATOM     12  C   UNL     1      -5.752 -13.788  -8.827  1.00  0.00     0.000 C 
BRANCH  12  13
ATOM     13  C   UNL     1      -7.142 -14.406  -9.068  1.00  0.00     0.006 C 
BRANCH  13  14
ATOM     14  C   UNL     1      -7.131 -15.673  -9.938  1.00  0.00     0.053 C 
BRANCH  14  15
ATOM     15  C   UNL     1      -8.379 -15.802 -10.761  1.00  0.00     0.041 C 
ATOM     16  O   UNL     1      -9.158 -14.821 -10.887  1.00  0.00    -0.550 OA
ATOM     17  O   UNL     1      -8.661 -16.999 -11.410  1.00  0.00    -0.550 OA
ENDBRANCH  14  15
ENDBRANCH  13  14
ENDBRANCH  12  13
ENDBRANCH  11  12
ENDBRANCH  10  11
ENDBRANCH   9  10
ENDBRANCH   8   9
ENDBRANCH   7   8
ENDBRANCH   6   7
ENDBRANCH   5   6
ENDBRANCH   4   5
ENDBRANCH   3   4
ENDBRANCH   2   3
ENDBRANCH   1   2
BRANCH   1  18
ATOM     18  C   UNL     1      -2.919 -12.790 -12.612  1.00  0.00     0.000 C 
BRANCH  18  19
ATOM     19  C   UNL     1      -1.565 -12.065 -12.541  1.00  0.00     0.000 C 
BRANCH  19  20
ATOM     20  C   UNL     1      -0.563 -12.578 -13.591  1.00  0.00     0.000 C 
BRANCH  20  21
ATOM     21  C   UNL     1      -0.403 -11.611 -14.776  1.00  0.00     0.000 C 
BRANCH  21  22
ATOM     22  C   UNL     1       1.052 -11.522 -15.271  1.00  0.00     0.000 C 
BRANCH  22  23
ATOM     23  C   UNL     1       1.387 -10.152 -15.883  1.00  0.00     0.000 C 
BRANCH  23  24
ATOM     24  C   UNL     1       0.304  -9.096 -15.597  1.00  0.00    -0.000 C 
BRANCH  24  25
ATOM     25  C   UNL     1       0.065  -8.167 -16.797  1.00  0.00    -0.000 C 
BRANCH  25  26
ATOM     26  C   UNL     1      -1.353  -7.577 -16.805  1.00  0.00    -0.000 C 
BRANCH  26  27
ATOM     27  C   UNL     1      -1.702  -6.968 -15.439  1.00  0.00    -0.000 C 
BRANCH  27  28
ATOM     28  C   UNL     1      -2.944  -6.055 -15.504  1.00  0.00    -0.000 C 
BRANCH  28  29
ATOM     29  C   UNL     1      -4.223  -6.699 -14.930  1.00  0.00    -0.000 C 
BRANCH  29  30
ATOM     30  C   UNL     1      -5.443  -6.681 -15.871  1.00  0.00    -0.000 C 
BRANCH  30  31
ATOM     31  C   UNL     1      -5.228  -5.798 -17.111  1.00  0.00    -0.003 C 
ATOM     32  C   UNL     1      -6.548  -5.543 -17.838  1.00  0.00     0.004 C 
ENDBRANCH  30  31
ENDBRANCH  29  30
ENDBRANCH  28  29
ENDBRANCH  27  28
ENDBRANCH  26  27
ENDBRANCH  25  26
ENDBRANCH  24  25
ENDBRANCH  23  24
ENDBRANCH  22  23
ENDBRANCH  21  22
ENDBRANCH  20  21
ENDBRANCH  19  20
ENDBRANCH  18  19
ENDBRANCH   1  18
TORSDOF 28
ENDMDL
MODEL 7
REMARK VINA RESULT:    17.071      4.806     12.998
REMARK INTER + INTRA:          46.756
REMARK INTER:                  45.679
REMARK INTRA:                   1.077
REMARK UNBOUND:                 1.743
REMARK SMILES CCCCCCCCCCCCCCCCCCCCCCCCCCCCCC(=O)[O-]
REMARK SMILES IDX 16 1 17 2 18 3 19 4 20 5 21 6 22 7 23 8 24 9 25 10 26 11
REMARK SMILES IDX 27 12 28 13 29 14 30 15 31 16 32 17 15 18 14 19 13 20 12 21
REMARK SMILES IDX 11 22 10 23 9 24 8 25 7 26 6 27 5 28 4 29 3 30 2 31 1 32
REMARK H PARENT
REMARK Flexibility Score: inf
ROOT
ATOM      1  C   UNL     1      -5.416  -7.111 -11.774  1.00  0.00     0.000 C 
ENDROOT
BRANCH   1   2
ATOM      2  C   UNL     1      -4.999  -5.644 -11.964  1.00  0.00     0.000 C 
BRANCH   2   3
ATOM      3  C   UNL     1      -4.921  -5.236 -13.447  1.00  0.00     0.000 C 
BRANCH   3   4
ATOM      4  C   UNL     1      -4.339  -6.364 -14.314  1.00  0.00     0.000 C 
BRANCH   4   5
ATOM      5  C   UNL     1      -5.426  -7.117 -15.110  1.00  0.00     0.000 C 
BRANCH   5   6
ATOM      6  C   UNL     1      -5.746  -6.438 -16.453  1.00  0.00     0.000 C 
BRANCH   6   7
ATOM      7  C   UNL     1      -4.539  -6.470 -17.409  1.00  0.00     0.000 C 
BRANCH   7   8
ATOM      8  C   UNL     1      -3.408  -5.525 -16.971  1.00  0.00     0.000 C 
BRANCH   8   9
ATOM      9  C   UNL     1      -2.014  -6.138 -17.173  1.00  0.00     0.000 C 
BRANCH   9  10
ATOM     10  C   UNL     1      -1.716  -7.192 -16.095  1.00  0.00     0.000 C 
BRANCH  10  11
ATOM     11  C   UNL     1      -0.608  -8.169 -16.523  1.00  0.00     0.000 C 
BRANCH  11  12
ATOM     12  C   UNL     1       0.800  -7.636 -16.213  1.00  0.00     0.000 C 
BRANCH  12  13
ATOM     13  C   UNL     1       1.332  -6.692 -17.309  1.00  0.00     0.006 C 
BRANCH  13  14
ATOM     14  C   UNL     1       1.852  -5.343 -16.787  1.00  0.00     0.053 C 
BRANCH  14  15
ATOM     15  C   UNL     1       3.302  -5.405 -16.413  1.00  0.00     0.041 C 
ATOM     16  O   UNL     1       4.176  -5.612 -17.296  1.00  0.00    -0.550 OA
ATOM     17  O   UNL     1       3.687  -5.204 -15.092  1.00  0.00    -0.550 OA
ENDBRANCH  14  15
ENDBRANCH  13  14
ENDBRANCH  12  13
ENDBRANCH  11  12
ENDBRANCH  10  11
ENDBRANCH   9  10
ENDBRANCH   8   9
ENDBRANCH   7   8
ENDBRANCH   6   7
ENDBRANCH   5   6
ENDBRANCH   4   5
ENDBRANCH   3   4
ENDBRANCH   2   3
ENDBRANCH   1   2
BRANCH   1  18
ATOM     18  C   UNL     1      -5.858  -7.415 -10.331  1.00  0.00     0.000 C 
BRANCH  18  19
ATOM     19  C   UNL     1      -4.696  -7.892  -9.446  1.00  0.00     0.000 C 
BRANCH  19  20
ATOM     20  C   UNL     1      -5.015  -9.205  -8.707  1.00  0.00     0.000 C 
BRANCH  20  21
ATOM     21  C   UNL     1      -3.951  -9.564  -7.657  1.00  0.00     0.000 C 
BRANCH  21  22
ATOM     22  C   UNL     1      -3.439  -8.329  -6.892  1.00  0.00     0.000 C 
BRANCH  22  23
ATOM     23  C   UNL     1      -3.310  -8.581  -5.381  1.00  0.00     0.000 C 
BRANCH  23  24
ATOM     24  C   UNL     1      -4.280  -9.663  -4.876  1.00  0.00    -0.000 C 
BRANCH  24  25
ATOM     25  C   UNL     1      -4.484 -10.788  -5.902  1.00  0.00    -0.000 C 
BRANCH  25  26
ATOM     26  C   UNL     1      -4.330 -12.183  -5.277  1.00  0.00    -0.000 C 
BRANCH  26  27
ATOM     27  C   UNL     1      -5.088 -13.238  -6.096  1.00  0.00    -0.000 C 
BRANCH  27  28
ATOM     28  C   UNL     1      -5.705 -12.650  -7.382  1.00  0.00    -0.000 C 
BRANCH  28  29
ATOM     29  C   UNL     1      -5.244 -13.356  -8.675  1.00  0.00    -0.000 C 
BRANCH  29  30
ATOM     30  C   UNL     1      -5.942 -14.697  -8.972  1.00  0.00    -0.000 C 
BRANCH  30  31
ATOM     31  C   UNL     1      -7.397 -14.523  -9.437  1.00  0.00    -0.003 C 
ATOM     32  C   UNL     1      -7.812 -15.657 -10.375  1.00  0.00     0.004 C 
ENDBRANCH  30  31
ENDBRANCH  29  30
ENDBRANCH  28  29
ENDBRANCH  27  28
ENDBRANCH  26  27
ENDBRANCH  25  26
ENDBRANCH  24  25
ENDBRANCH  23  24
ENDBRANCH  22  23
ENDBRANCH  21  22
ENDBRANCH  20  21
ENDBRANCH  19  20
ENDBRANCH  18  19
ENDBRANCH   1  18
TORSDOF 28
ENDMDL
MODEL 8
REMARK VINA RESULT:    17.212      5.440     13.295
REMARK INTER + INTRA:          47.128
REMARK INTER:                  48.132
REMARK INTRA:                  -1.004
REMARK UNBOUND:                 1.743
REMARK SMILES CCCCCCCCCCCCCCCCCCCCCCCCCCCCCC(=O)[O-]
REMARK SMILES IDX 16 1 17 2 18 3 19 4 20 5 21 6 22 7 23 8 24 9 25 10 26 11
REMARK SMILES IDX 27 12 28 13 29 14 30 15 31 16 32 17 15 18 14 19 13 20 12 21
REMARK SMILES IDX 11 22 10 23 9 24 8 25 7 26 6 27 5 28 4 29 3 30 2 31 1 32
REMARK H PARENT
REMARK Flexibility Score: inf
ROOT
ATOM      1  C   UNL     1      -4.261 -12.155 -11.653  1.00  0.00     0.000 C 
ENDROOT
BRANCH   1   2
ATOM      2  C   UNL     1      -3.355 -13.002 -12.562  1.00  0.00     0.000 C 
BRANCH   2   3
ATOM      3  C   UNL     1      -1.962 -12.376 -12.764  1.00  0.00     0.000 C 
BRANCH   3   4
ATOM      4  C   UNL     1      -1.505 -12.474 -14.229  1.00  0.00     0.000 C 
BRANCH   4   5
ATOM      5  C   UNL     1      -0.043 -12.950 -14.359  1.00  0.00     0.000 C 
BRANCH   5   6
ATOM      6  C   UNL     1       0.610 -12.485 -15.673  1.00  0.00     0.000 C 
BRANCH   6   7
ATOM      7  C   UNL     1       1.592 -11.322 -15.440  1.00  0.00     0.000 C 
BRANCH   7   8
ATOM      8  C   UNL     1       0.880  -9.993 -15.140  1.00  0.00     0.000 C 
BRANCH   8   9
ATOM      9  C   UNL     1       0.557  -9.194 -16.411  1.00  0.00     0.000 C 
BRANCH   9  10
ATOM     10  C   UNL     1      -0.188  -7.894 -16.069  1.00  0.00     0.000 C 
BRANCH  10  11
ATOM     11  C   UNL     1      -1.493  -7.739 -16.868  1.00  0.00     0.000 C 
BRANCH  11  12
ATOM     12  C   UNL     1      -2.330  -6.537 -16.401  1.00  0.00     0.000 C 
BRANCH  12  13
ATOM     13  C   UNL     1      -3.294  -6.895 -15.254  1.00  0.00     0.006 C 
BRANCH  13  14
ATOM     14  C   UNL     1      -4.561  -6.026 -15.196  1.00  0.00     0.053 C 
BRANCH  14  15
ATOM     15  C   UNL     1      -5.292  -6.007 -16.505  1.00  0.00     0.041 C 
ATOM     16  O   UNL     1      -4.897  -6.725 -17.462  1.00  0.00    -0.550 OA
ATOM     17  O   UNL     1      -6.426  -5.217 -16.655  1.00  0.00    -0.550 OA
ENDBRANCH  14  15
ENDBRANCH  13  14
ENDBRANCH  12  13
ENDBRANCH  11  12
ENDBRANCH  10  11
ENDBRANCH   9  10
ENDBRANCH   8   9
ENDBRANCH   7   8
ENDBRANCH   6   7
ENDBRANCH   5   6
ENDBRANCH   4   5
ENDBRANCH   3   4
ENDBRANCH   2   3
ENDBRANCH   1   2
BRANCH   1  18
ATOM     18  C   UNL     1      -3.477 -11.461 -10.525  1.00  0.00     0.000 C 
BRANCH  18  19
ATOM     19  C   UNL     1      -4.347 -10.485  -9.717  1.00  0.00     0.000 C 
BRANCH  19  20
ATOM     20  C   UNL     1      -4.065 -10.554  -8.204  1.00  0.00     0.000 C 
BRANCH  20  21
ATOM     21  C   UNL     1      -4.354  -9.224  -7.489  1.00  0.00     0.000 C 
BRANCH  21  22
ATOM     22  C   UNL     1      -3.745  -9.172  -6.076  1.00  0.00     0.000 C 
BRANCH  22  23
ATOM     23  C   UNL     1      -4.144 -10.380  -5.214  1.00  0.00     0.000 C 
BRANCH  23  24
ATOM     24  C   UNL     1      -5.669 -10.515  -5.054  1.00  0.00    -0.000 C 
BRANCH  24  25
ATOM     25  C   UNL     1      -6.192 -11.863  -5.571  1.00  0.00    -0.000 C 
BRANCH  25  26
ATOM     26  C   UNL     1      -5.059 -12.862  -5.852  1.00  0.00    -0.000 C 
BRANCH  26  27
ATOM     27  C   UNL     1      -4.957 -13.168  -7.353  1.00  0.00    -0.000 C 
BRANCH  27  28
ATOM     28  C   UNL     1      -6.337 -13.416  -7.996  1.00  0.00    -0.000 C 
BRANCH  28  29
ATOM     29  C   UNL     1      -6.392 -14.673  -8.889  1.00  0.00    -0.000 C 
BRANCH  29  30
ATOM     30  C   UNL     1      -7.651 -14.795  -9.769  1.00  0.00    -0.000 C 
BRANCH  30  31
ATOM     31  C   UNL     1      -7.590 -15.989 -10.736  1.00  0.00    -0.003 C 
ATOM     32  C   UNL     1      -8.872 -16.819 -10.663  1.00  0.00     0.004 C 
ENDBRANCH  30  31
ENDBRANCH  29  30
ENDBRANCH  28  29
ENDBRANCH  27  28
ENDBRANCH  26  27
ENDBRANCH  25  26
ENDBRANCH  24  25
ENDBRANCH  23  24
ENDBRANCH  22  23
ENDBRANCH  21  22
ENDBRANCH  20  21
ENDBRANCH  19  20
ENDBRANCH  18  19
ENDBRANCH   1  18
TORSDOF 28
ENDMDL
MODEL 9
REMARK VINA RESULT:    17.375      4.855     12.686
REMARK INTER + INTRA:          47.559
REMARK INTER:                  48.965
REMARK INTRA:                  -1.407
REMARK UNBOUND:                 1.743
REMARK SMILES CCCCCCCCCCCCCCCCCCCCCCCCCCCCCC(=O)[O-]
REMARK SMILES IDX 16 1 17 2 18 3 19 4 20 5 21 6 22 7 23 8 24 9 25 10 26 11
REMARK SMILES IDX 27 12 28 13 29 14 30 15 31 16 32 17 15 18 14 19 13 20 12 21
REMARK SMILES IDX 11 22 10 23 9 24 8 25 7 26 6 27 5 28 4 29 3 30 2 31 1 32
REMARK H PARENT
REMARK Flexibility Score: inf
ROOT
ATOM      1  C   UNL     1      -2.571 -13.837 -13.214  1.00  0.00     0.000 C 
ENDROOT
BRANCH   1   2
ATOM      2  C   UNL     1      -1.044 -13.786 -13.390  1.00  0.00     0.000 C 
BRANCH   2   3
ATOM      3  C   UNL     1      -0.496 -14.993 -14.176  1.00  0.00     0.000 C 
BRANCH   3   4
ATOM      4  C   UNL     1       0.675 -14.589 -15.087  1.00  0.00     0.000 C 
BRANCH   4   5
ATOM      5  C   UNL     1       1.076 -13.109 -14.911  1.00  0.00     0.000 C 
BRANCH   5   6
ATOM      6  C   UNL     1       1.736 -12.526 -16.173  1.00  0.00     0.000 C 
BRANCH   6   7
ATOM      7  C   UNL     1       2.619 -11.308 -15.843  1.00  0.00     0.000 C 
BRANCH   7   8
ATOM      8  C   UNL     1       1.911  -9.970 -16.112  1.00  0.00     0.000 C 
BRANCH   8   9
ATOM      9  C   UNL     1       0.440  -9.980 -15.671  1.00  0.00     0.000 C 
BRANCH   9  10
ATOM     10  C   UNL     1      -0.367  -8.909 -16.423  1.00  0.00     0.000 C 
BRANCH  10  11
ATOM     11  C   UNL     1      -0.536  -7.620 -15.602  1.00  0.00     0.000 C 
BRANCH  11  12
ATOM     12  C   UNL     1      -0.912  -6.411 -16.475  1.00  0.00     0.000 C 
BRANCH  12  13
ATOM     13  C   UNL     1      -2.436  -6.244 -16.632  1.00  0.00     0.006 C 
BRANCH  13  14
ATOM     14  C   UNL     1      -3.180  -5.950 -15.320  1.00  0.00     0.053 C 
BRANCH  14  15
ATOM     15  C   UNL     1      -4.492  -6.674 -15.242  1.00  0.00     0.041 C 
ATOM     16  O   UNL     1      -5.037  -7.111 -16.291  1.00  0.00    -0.550 OA
ATOM     17  O   UNL     1      -5.094  -6.888 -14.008  1.00  0.00    -0.550 OA
ENDBRANCH  14  15
ENDBRANCH  13  14
ENDBRANCH  12  13
ENDBRANCH  11  12
ENDBRANCH  10  11
ENDBRANCH   9  10
ENDBRANCH   8   9
ENDBRANCH   7   8
ENDBRANCH   6   7
ENDBRANCH   5   6
ENDBRANCH   4   5
ENDBRANCH   3   4
ENDBRANCH   2   3
ENDBRANCH   1   2
BRANCH   1  18
ATOM     18  C   UNL     1      -3.159 -12.480 -12.789  1.00  0.00     0.000 C 
BRANCH  18  19
ATOM     19  C   UNL     1      -3.938 -12.562 -11.466  1.00  0.00     0.000 C 
BRANCH  19  20
ATOM     20  C   UNL     1      -4.041 -11.201 -10.754  1.00  0.00     0.000 C 
BRANCH  20  21
ATOM     21  C   UNL     1      -3.984 -11.332  -9.223  1.00  0.00     0.000 C 
BRANCH  21  22
ATOM     22  C   UNL     1      -4.847 -12.495  -8.700  1.00  0.00     0.000 C 
BRANCH  22  23
ATOM     23  C   UNL     1      -5.867 -12.046  -7.641  1.00  0.00     0.000 C 
BRANCH  23  24
ATOM     24  C   UNL     1      -5.613 -12.688  -6.265  1.00  0.00    -0.000 C 
BRANCH  24  25
ATOM     25  C   UNL     1      -4.721 -11.815  -5.370  1.00  0.00    -0.000 C 
BRANCH  25  26
ATOM     26  C   UNL     1      -4.852 -10.320  -5.695  1.00  0.00    -0.000 C 
BRANCH  26  27
ATOM     27  C   UNL     1      -3.849  -9.491  -4.879  1.00  0.00    -0.000 C 
BRANCH  27  28
ATOM     28  C   UNL     1      -2.913  -8.655  -5.776  1.00  0.00    -0.000 C 
BRANCH  28  29
ATOM     29  C   UNL     1      -1.900  -7.795  -4.991  1.00  0.00    -0.000 C 
BRANCH  29  30
ATOM     30  C   UNL     1      -0.661  -7.350  -5.791  1.00  0.00    -0.000 C 
BRANCH  30  31
ATOM     31  C   UNL     1       0.522  -6.957  -4.891  1.00  0.00    -0.003 C 
ATOM     32  C   UNL     1       1.840  -7.012  -5.663  1.00  0.00     0.004 C 
ENDBRANCH  30  31
ENDBRANCH  29  30
ENDBRANCH  28  29
ENDBRANCH  27  28
ENDBRANCH  26  27
ENDBRANCH  25  26
ENDBRANCH  24  25
ENDBRANCH  23  24
ENDBRANCH  22  23
ENDBRANCH  21  22
ENDBRANCH  20  21
ENDBRANCH  19  20
ENDBRANCH  18  19
ENDBRANCH   1  18
TORSDOF 28
ENDMDL
