MODEL 1
REMARK VINA RESULT:    -3.424      0.000      0.000
REMARK INTER + INTRA:          -4.750
REMARK INTER:                  -4.425
REMARK INTRA:                  -0.325
REMARK UNBOUND:                -0.325
REMARK SMILES CCCCCCC(=O)[O-]
REMARK SMILES IDX 5 1 6 2 7 3 8 4 9 5 4 6 3 7 2 8 1 9
REMARK H PARENT
REMARK Flexibility Score: inf
ROOT
ATOM      1  C   UNL     1     174.686 175.985 182.252  1.00  0.00     0.006 C 
ENDROOT
BRANCH   1   2
ATOM      2  C   UNL     1     173.409 176.785 182.539  1.00  0.00     0.053 C 
BRANCH   2   3
ATOM      3  C   UNL     1     172.862 177.424 181.300  1.00  0.00     0.041 C 
ATOM      4  O   UNL     1     171.747 178.009 181.328  1.00  0.00    -0.550 OA
ATOM      5  O   UNL     1     173.598 177.403 180.123  1.00  0.00    -0.550 OA
ENDBRANCH   2   3
ENDBRANCH   1   2
BRANCH   1   6
ATOM      6  C   UNL     1     175.814 176.313 183.242  1.00  0.00     0.000 C 
BRANCH   6   7
ATOM      7  C   UNL     1     177.008 176.956 182.521  1.00  0.00    -0.000 C 
BRANCH   7   8
ATOM      8  C   UNL     1     177.003 176.680 181.010  1.00  0.00    -0.003 C 
ATOM      9  C   UNL     1     177.146 177.953 180.176  1.00  0.00     0.004 C 
ENDBRANCH   7   8
ENDBRANCH   6   7
ENDBRANCH   1   6
TORSDOF 5
ENDMDL
MODEL 2
REMARK VINA RESULT:    -3.401      1.921      3.054
REMARK INTER + INTRA:          -4.721
REMARK INTER:                  -4.372
REMARK INTRA:                  -0.348
REMARK UNBOUND:                -0.325
REMARK SMILES CCCCCCC(=O)[O-]
REMARK SMILES IDX 5 1 6 2 7 3 8 4 9 5 4 6 3 7 2 8 1 9
REMARK H PARENT
REMARK Flexibility Score: inf
ROOT
ATOM      1  C   UNL     1     177.012 176.803 180.859  1.00  0.00     0.006 C 
ENDROOT
BRANCH   1   2
ATOM      2  C   UNL     1     176.339 177.717 179.826  1.00  0.00     0.053 C 
BRANCH   2   3
ATOM      3  C   UNL     1     174.928 177.298 179.548  1.00  0.00     0.041 C 
ATOM      4  O   UNL     1     174.432 176.308 180.147  1.00  0.00    -0.550 OA
ATOM      5  O   UNL     1     174.152 178.020 178.652  1.00  0.00    -0.550 OA
ENDBRANCH   2   3
ENDBRANCH   1   2
BRANCH   1   6
ATOM      6  C   UNL     1     177.067 177.444 182.255  1.00  0.00     0.000 C 
BRANCH   6   7
ATOM      7  C   UNL     1     176.245 176.630 183.265  1.00  0.00    -0.000 C 
BRANCH   7   8
ATOM      8  C   UNL     1     176.292 175.120 182.985  1.00  0.00    -0.003 C 
ATOM      9  C   UNL     1     174.916 174.460 183.064  1.00  0.00     0.004 C 
ENDBRANCH   7   8
ENDBRANCH   6   7
ENDBRANCH   1   6
TORSDOF 5
ENDMDL
MODEL 3
REMARK VINA RESULT:    -3.360      1.705      3.510
REMARK INTER + INTRA:          -4.668
REMARK INTER:                  -4.299
REMARK INTRA:                  -0.369
REMARK UNBOUND:                -0.325
REMARK SMILES CCCCCCC(=O)[O-]
REMARK SMILES IDX 5 1 6 2 7 3 8 4 9 5 4 6 3 7 2 8 1 9
REMARK H PARENT
REMARK Flexibility Score: inf
ROOT
ATOM      1  C   UNL     1     177.021 176.133 181.865  1.00  0.00     0.006 C 
ENDROOT
BRANCH   1   2
ATOM      2  C   UNL     1     177.036 177.516 181.202  1.00  0.00     0.053 C 
BRANCH   2   3
ATOM      3  C   UNL     1     176.562 177.458 179.783  1.00  0.00     0.041 C 
ATOM      4  O   UNL     1     175.377 177.777 179.497  1.00  0.00    -0.550 OA
ATOM      5  O   UNL     1     177.436 177.083 178.772  1.00  0.00    -0.550 OA
ENDBRANCH   2   3
ENDBRANCH   1   2
BRANCH   1   6
ATOM      6  C   UNL     1     176.150 176.103 183.130  1.00  0.00     0.000 C 
BRANCH   6   7
ATOM      7  C   UNL     1     175.012 175.080 182.989  1.00  0.00    -0.000 C 
BRANCH   7   8
ATOM      8  C   UNL     1     173.812 175.637 182.208  1.00  0.00    -0.003 C 
ATOM      9  C   UNL     1     173.480 177.081 182.583  1.00  0.00     0.004 C 
ENDBRANCH   7   8
ENDBRANCH   6   7
ENDBRANCH   1   6
TORSDOF 5
ENDMDL
MODEL 4
REMARK VINA RESULT:    -3.345      2.157      3.548
REMARK INTER + INTRA:          -4.648
REMARK INTER:                  -4.305
REMARK INTRA:                  -0.343
REMARK UNBOUND:                -0.325
REMARK SMILES CCCCCCC(=O)[O-]
REMARK SMILES IDX 5 1 6 2 7 3 8 4 9 5 4 6 3 7 2 8 1 9
REMARK H PARENT
REMARK Flexibility Score: inf
ROOT
ATOM      1  C   UNL     1     175.892 176.987 182.494  1.00  0.00     0.006 C 
ENDROOT
BRANCH   1   2
ATOM      2  C   UNL     1     176.995 177.439 181.527  1.00  0.00     0.053 C 
BRANCH   2   3
ATOM      3  C   UNL     1     176.572 177.299 180.097  1.00  0.00     0.041 C 
ATOM      4  O   UNL     1     177.369 176.827 179.244  1.00  0.00    -0.550 OA
ATOM      5  O   UNL     1     175.288 177.660 179.712  1.00  0.00    -0.550 OA
ENDBRANCH   2   3
ENDBRANCH   1   2
BRANCH   1   6
ATOM      6  C   UNL     1     176.268 175.700 183.244  1.00  0.00     0.000 C 
BRANCH   6   7
ATOM      7  C   UNL     1     175.373 174.530 182.809  1.00  0.00    -0.000 C 
BRANCH   7   8
ATOM      8  C   UNL     1     176.048 173.626 181.767  1.00  0.00    -0.003 C 
ATOM      9  C   UNL     1     177.573 173.720 181.802  1.00  0.00     0.004 C 
ENDBRANCH   7   8
ENDBRANCH   6   7
ENDBRANCH   1   6
TORSDOF 5
ENDMDL
MODEL 5
REMARK VINA RESULT:    -3.287      3.402      4.198
REMARK INTER + INTRA:          -4.573
REMARK INTER:                  -4.235
REMARK INTRA:                  -0.338
REMARK UNBOUND:                -0.325
REMARK SMILES CCCCCCC(=O)[O-]
REMARK SMILES IDX 5 1 6 2 7 3 8 4 9 5 4 6 3 7 2 8 1 9
REMARK H PARENT
REMARK Flexibility Score: inf
ROOT
ATOM      1  C   UNL     1     175.538 174.692 183.170  1.00  0.00     0.006 C 
ENDROOT
BRANCH   1   2
ATOM      2  C   UNL     1     175.576 173.665 182.031  1.00  0.00     0.053 C 
BRANCH   2   3
ATOM      3  C   UNL     1     176.966 173.167 181.777  1.00  0.00     0.041 C 
ATOM      4  O   UNL     1     177.901 173.983 181.562  1.00  0.00    -0.550 OA
ATOM      5  O   UNL     1     177.235 171.806 181.811  1.00  0.00    -0.550 OA
ENDBRANCH   2   3
ENDBRANCH   1   2
BRANCH   1   6
ATOM      6  C   UNL     1     175.447 176.135 182.650  1.00  0.00     0.000 C 
BRANCH   6   7
ATOM      7  C   UNL     1     176.653 176.964 183.116  1.00  0.00    -0.000 C 
BRANCH   7   8
ATOM      8  C   UNL     1     177.270 177.796 181.983  1.00  0.00    -0.003 C 
ATOM      9  C   UNL     1     176.917 177.261 180.595  1.00  0.00     0.004 C 
ENDBRANCH   7   8
ENDBRANCH   6   7
ENDBRANCH   1   6
TORSDOF 5
ENDMDL
MODEL 6
REMARK VINA RESULT:    -3.270      2.698      3.602
REMARK INTER + INTRA:          -4.551
REMARK INTER:                  -4.081
REMARK INTRA:                  -0.471
REMARK UNBOUND:                -0.325
REMARK SMILES CCCCCCC(=O)[O-]
REMARK SMILES IDX 5 1 6 2 7 3 8 4 9 5 4 6 3 7 2 8 1 9
REMARK H PARENT
REMARK Flexibility Score: inf
ROOT
ATOM      1  C   UNL     1     174.387 176.556 180.172  1.00  0.00     0.006 C 
ENDROOT
BRANCH   1   2
ATOM      2  C   UNL     1     175.314 177.395 179.281  1.00  0.00     0.053 C 
BRANCH   2   3
ATOM      3  C   UNL     1     176.724 176.893 179.318  1.00  0.00     0.041 C 
ATOM      4  O   UNL     1     177.677 177.696 179.503  1.00  0.00    -0.550 OA
ATOM      5  O   UNL     1     176.985 175.536 179.180  1.00  0.00    -0.550 OA
ENDBRANCH   2   3
ENDBRANCH   1   2
BRANCH   1   6
ATOM      6  C   UNL     1     174.526 176.918 181.659  1.00  0.00     0.000 C 
BRANCH   6   7
ATOM      7  C   UNL     1     174.951 175.695 182.484  1.00  0.00    -0.000 C 
BRANCH   7   8
ATOM      8  C   UNL     1     176.420 175.762 182.927  1.00  0.00    -0.003 C 
ATOM      9  C   UNL     1     176.949 177.195 183.008  1.00  0.00     0.004 C 
ENDBRANCH   7   8
ENDBRANCH   6   7
ENDBRANCH   1   6
TORSDOF 5
ENDMDL
MODEL 7
REMARK VINA RESULT:    -3.242      1.316      2.062
REMARK INTER + INTRA:          -4.515
REMARK INTER:                  -4.395
REMARK INTRA:                  -0.120
REMARK UNBOUND:                -0.325
REMARK SMILES CCCCCCC(=O)[O-]
REMARK SMILES IDX 5 1 6 2 7 3 8 4 9 5 4 6 3 7 2 8 1 9
REMARK H PARENT
REMARK Flexibility Score: inf
ROOT
ATOM      1  C   UNL     1     172.576 176.534 182.441  1.00  0.00     0.006 C 
ENDROOT
BRANCH   1   2
ATOM      2  C   UNL     1     171.553 177.663 182.256  1.00  0.00     0.053 C 
BRANCH   2   3
ATOM      3  C   UNL     1     171.017 177.705 180.858  1.00  0.00     0.041 C 
ATOM      4  O   UNL     1     169.774 177.748 180.658  1.00  0.00    -0.550 OA
ATOM      5  O   UNL     1     171.889 177.730 179.779  1.00  0.00    -0.550 OA
ENDBRANCH   2   3
ENDBRANCH   1   2
BRANCH   1   6
ATOM      6  C   UNL     1     174.010 177.066 182.586  1.00  0.00     0.000 C 
BRANCH   6   7
ATOM      7  C   UNL     1     175.015 175.911 182.704  1.00  0.00    -0.000 C 
BRANCH   7   8
ATOM      8  C   UNL     1     176.426 176.391 183.077  1.00  0.00    -0.003 C 
ATOM      9  C   UNL     1     177.007 177.371 182.057  1.00  0.00     0.004 C 
ENDBRANCH   7   8
ENDBRANCH   6   7
ENDBRANCH   1   6
TORSDOF 5
ENDMDL
MODEL 8
REMARK VINA RESULT:    -3.237      1.284      2.342
REMARK INTER + INTRA:          -4.509
REMARK INTER:                  -4.109
REMARK INTRA:                  -0.400
REMARK UNBOUND:                -0.325
REMARK SMILES CCCCCCC(=O)[O-]
REMARK SMILES IDX 5 1 6 2 7 3 8 4 9 5 4 6 3 7 2 8 1 9
REMARK H PARENT
REMARK Flexibility Score: inf
ROOT
ATOM      1  C   UNL     1     175.099 177.237 180.186  1.00  0.00     0.006 C 
ENDROOT
BRANCH   1   2
ATOM      2  C   UNL     1     173.770 176.543 180.516  1.00  0.00     0.053 C 
BRANCH   2   3
ATOM      3  C   UNL     1     172.976 177.313 181.525  1.00  0.00     0.041 C 
ATOM      4  O   UNL     1     173.311 177.298 182.739  1.00  0.00    -0.550 OA
ATOM      5  O   UNL     1     171.886 178.072 181.121  1.00  0.00    -0.550 OA
ENDBRANCH   2   3
ENDBRANCH   1   2
BRANCH   1   6
ATOM      6  C   UNL     1     176.304 176.508 180.799  1.00  0.00     0.000 C 
BRANCH   6   7
ATOM      7  C   UNL     1     176.938 177.342 181.922  1.00  0.00    -0.000 C 
BRANCH   7   8
ATOM      8  C   UNL     1     176.665 176.759 183.316  1.00  0.00    -0.003 C 
ATOM      9  C   UNL     1     176.113 175.335 183.265  1.00  0.00     0.004 C 
ENDBRANCH   7   8
ENDBRANCH   6   7
ENDBRANCH   1   6
TORSDOF 5
ENDMDL
MODEL 9
REMARK VINA RESULT:    -3.205      1.095      1.518
REMARK INTER + INTRA:          -4.467
REMARK INTER:                  -4.169
REMARK INTRA:                  -0.298
REMARK UNBOUND:                -0.325
REMARK SMILES CCCCCCC(=O)[O-]
REMARK SMILES IDX 5 1 6 2 7 3 8 4 9 5 4 6 3 7 2 8 1 9
REMARK H PARENT
REMARK Flexibility Score: inf
ROOT
ATOM      1  C   UNL     1     174.498 175.954 182.586  1.00  0.00     0.006 C 
ENDROOT
BRANCH   1   2
ATOM      2  C   UNL     1     173.377 177.003 182.562  1.00  0.00     0.053 C 
BRANCH   2   3
ATOM      3  C   UNL     1     173.009 177.392 181.164  1.00  0.00     0.041 C 
ATOM      4  O   UNL     1     171.830 177.743 180.894  1.00  0.00    -0.550 OA
ATOM      5  O   UNL     1     173.974 177.399 180.166  1.00  0.00    -0.550 OA
ENDBRANCH   2   3
ENDBRANCH   1   2
BRANCH   1   6
ATOM      6  C   UNL     1     175.818 176.527 183.123  1.00  0.00     0.000 C 
BRANCH   6   7
ATOM      7  C   UNL     1     176.911 176.491 182.044  1.00  0.00    -0.000 C 
BRANCH   7   8
ATOM      8  C   UNL     1     176.781 175.276 181.112  1.00  0.00    -0.003 C 
ATOM      9  C   UNL     1     177.519 174.045 181.638  1.00  0.00     0.004 C 
ENDBRANCH   7   8
ENDBRANCH   6   7
ENDBRANCH   1   6
TORSDOF 5
ENDMDL
