MODEL 1
REMARK VINA RESULT:    -3.383      0.000      0.000
REMARK INTER + INTRA:          -3.845
REMARK INTER:                  -3.778
REMARK INTRA:                  -0.067
REMARK UNBOUND:                -0.067
REMARK SMILES CCCC(=O)[O-]
REMARK SMILES IDX 3 1 4 2 5 3 6 4 2 5 1 6
REMARK H PARENT
REMARK Flexibility Score: inf
ROOT
ATOM      1  C   UNL     1      14.439 -23.030  20.292  1.00  0.00     0.052 C 
ENDROOT
BRANCH   1   2
ATOM      2  C   UNL     1      14.847 -23.008  21.733  1.00  0.00     0.041 C 
ATOM      3  O   UNL     1      15.649 -23.872  22.178  1.00  0.00    -0.550 OA
ATOM      4  O   UNL     1      14.315 -22.056  22.593  1.00  0.00    -0.550 OA
ENDBRANCH   1   2
BRANCH   1   5
ATOM      5  C   UNL     1      12.915 -22.963  20.131  1.00  0.00     0.003 C 
ATOM      6  C   UNL     1      12.216 -24.204  20.686  1.00  0.00     0.004 C 
ENDBRANCH   1   5
TORSDOF 2
ENDMDL
MODEL 2
REMARK VINA RESULT:    -3.367      1.973      2.868
REMARK INTER + INTRA:          -3.828
REMARK INTER:                  -3.792
REMARK INTRA:                  -0.036
REMARK UNBOUND:                -0.067
REMARK SMILES CCCC(=O)[O-]
REMARK SMILES IDX 3 1 4 2 5 3 6 4 2 5 1 6
REMARK H PARENT
REMARK Flexibility Score: inf
ROOT
ATOM      1  C   UNL     1      12.443 -23.980  20.745  1.00  0.00     0.052 C 
ENDROOT
BRANCH   1   2
ATOM      2  C   UNL     1      11.840 -23.528  22.039  1.00  0.00     0.041 C 
ATOM      3  O   UNL     1      10.941 -24.215  22.594  1.00  0.00    -0.550 OA
ATOM      4  O   UNL     1      12.244 -22.331  22.615  1.00  0.00    -0.550 OA
ENDBRANCH   1   2
BRANCH   1   5
ATOM      5  C   UNL     1      13.303 -22.884  20.104  1.00  0.00     0.003 C 
ATOM      6  C   UNL     1      14.778 -23.274  20.020  1.00  0.00     0.004 C 
ENDBRANCH   1   5
TORSDOF 2
ENDMDL
MODEL 3
REMARK VINA RESULT:    -3.351      1.397      1.754
REMARK INTER + INTRA:          -3.811
REMARK INTER:                  -3.789
REMARK INTRA:                  -0.022
REMARK UNBOUND:                -0.067
REMARK SMILES CCCC(=O)[O-]
REMARK SMILES IDX 3 1 4 2 5 3 6 4 2 5 1 6
REMARK H PARENT
REMARK Flexibility Score: inf
ROOT
ATOM      1  C   UNL     1      13.205 -22.909  20.114  1.00  0.00     0.052 C 
ENDROOT
BRANCH   1   2
ATOM      2  C   UNL     1      14.672 -23.177  20.240  1.00  0.00     0.041 C 
ATOM      3  O   UNL     1      15.334 -23.567  19.241  1.00  0.00    -0.550 OA
ATOM      4  O   UNL     1      15.305 -23.030  21.468  1.00  0.00    -0.550 OA
ENDBRANCH   1   2
BRANCH   1   5
ATOM      5  C   UNL     1      12.401 -23.609  21.217  1.00  0.00     0.003 C 
ATOM      6  C   UNL     1      11.628 -24.819  20.695  1.00  0.00     0.004 C 
ENDBRANCH   1   5
TORSDOF 2
ENDMDL
MODEL 4
REMARK VINA RESULT:    -3.331      2.071      2.835
REMARK INTER + INTRA:          -3.787
REMARK INTER:                  -3.715
REMARK INTRA:                  -0.072
REMARK UNBOUND:                -0.067
REMARK SMILES CCCC(=O)[O-]
REMARK SMILES IDX 3 1 4 2 5 3 6 4 2 5 1 6
REMARK H PARENT
REMARK Flexibility Score: inf
ROOT
ATOM      1  C   UNL     1      13.073 -22.935  20.119  1.00  0.00     0.052 C 
ENDROOT
BRANCH   1   2
ATOM      2  C   UNL     1      12.363 -23.979  20.923  1.00  0.00     0.041 C 
ATOM      3  O   UNL     1      12.278 -25.160  20.495  1.00  0.00    -0.550 OA
ATOM      4  O   UNL     1      11.765 -23.640  22.130  1.00  0.00    -0.550 OA
ENDBRANCH   1   2
BRANCH   1   5
ATOM      5  C   UNL     1      14.576 -23.223  20.012  1.00  0.00     0.003 C 
ATOM      6  C   UNL     1      15.260 -23.261  21.378  1.00  0.00     0.004 C 
ENDBRANCH   1   5
TORSDOF 2
ENDMDL
MODEL 5
REMARK VINA RESULT:    -3.329      2.692      3.045
REMARK INTER + INTRA:          -3.786
REMARK INTER:                  -3.723
REMARK INTRA:                  -0.063
REMARK UNBOUND:                -0.067
REMARK SMILES CCCC(=O)[O-]
REMARK SMILES IDX 3 1 4 2 5 3 6 4 2 5 1 6
REMARK H PARENT
REMARK Flexibility Score: inf
ROOT
ATOM      1  C   UNL     1      14.743 -24.400  20.987  1.00  0.00     0.052 C 
ENDROOT
BRANCH   1   2
ATOM      2  C   UNL     1      14.489 -25.552  20.066  1.00  0.00     0.041 C 
ATOM      3  O   UNL     1      15.267 -25.775  19.100  1.00  0.00    -0.550 OA
ATOM      4  O   UNL     1      13.375 -26.361  20.251  1.00  0.00    -0.550 OA
ENDBRANCH   1   2
BRANCH   1   5
ATOM      5  C   UNL     1      14.504 -23.053  20.294  1.00  0.00     0.003 C 
ATOM      6  C   UNL     1      13.019 -22.767  20.072  1.00  0.00     0.004 C 
ENDBRANCH   1   5
TORSDOF 2
ENDMDL
MODEL 6
REMARK VINA RESULT:    -3.245      2.373      3.348
REMARK INTER + INTRA:          -3.692
REMARK INTER:                  -3.656
REMARK INTRA:                  -0.036
REMARK UNBOUND:                -0.067
REMARK SMILES CCCC(=O)[O-]
REMARK SMILES IDX 3 1 4 2 5 3 6 4 2 5 1 6
REMARK H PARENT
REMARK Flexibility Score: inf
ROOT
ATOM      1  C   UNL     1      12.736 -23.287  20.369  1.00  0.00     0.052 C 
ENDROOT
BRANCH   1   2
ATOM      2  C   UNL     1      12.285 -24.679  20.687  1.00  0.00     0.041 C 
ATOM      3  O   UNL     1      11.197 -24.870  21.292  1.00  0.00    -0.550 OA
ATOM      4  O   UNL     1      13.082 -25.764  20.346  1.00  0.00    -0.550 OA
ENDBRANCH   1   2
BRANCH   1   5
ATOM      5  C   UNL     1      14.225 -23.241  20.001  1.00  0.00     0.003 C 
ATOM      6  C   UNL     1      15.120 -23.027  21.221  1.00  0.00     0.004 C 
ENDBRANCH   1   5
TORSDOF 2
ENDMDL
MODEL 7
REMARK VINA RESULT:    -3.204      2.083      2.859
REMARK INTER + INTRA:          -3.647
REMARK INTER:                  -3.635
REMARK INTRA:                  -0.012
REMARK UNBOUND:                -0.067
REMARK SMILES CCCC(=O)[O-]
REMARK SMILES IDX 3 1 4 2 5 3 6 4 2 5 1 6
REMARK H PARENT
REMARK Flexibility Score: inf
ROOT
ATOM      1  C   UNL     1      14.743 -22.989  21.829  1.00  0.00     0.052 C 
ENDROOT
BRANCH   1   2
ATOM      2  C   UNL     1      14.389 -23.024  20.374  1.00  0.00     0.041 C 
ATOM      3  O   UNL     1      15.246 -23.380  19.522  1.00  0.00    -0.550 OA
ATOM      4  O   UNL     1      13.125 -22.630  19.955  1.00  0.00    -0.550 OA
ENDBRANCH   1   2
BRANCH   1   5
ATOM      5  C   UNL     1      13.641 -22.328  22.667  1.00  0.00     0.003 C 
ATOM      6  C   UNL     1      14.199 -21.590  23.883  1.00  0.00     0.004 C 
ENDBRANCH   1   5
TORSDOF 2
ENDMDL
MODEL 8
REMARK VINA RESULT:    -3.172     10.389     10.980
REMARK INTER + INTRA:          -3.610
REMARK INTER:                  -3.572
REMARK INTRA:                  -0.038
REMARK UNBOUND:                -0.067
REMARK SMILES CCCC(=O)[O-]
REMARK SMILES IDX 3 1 4 2 5 3 6 4 2 5 1 6
REMARK H PARENT
REMARK Flexibility Score: inf
ROOT
ATOM      1  C   UNL     1      14.823 -31.306  14.807  1.00  0.00     0.052 C 
ENDROOT
BRANCH   1   2
ATOM      2  C   UNL     1      13.687 -31.850  15.616  1.00  0.00     0.041 C 
ATOM      3  O   UNL     1      13.529 -33.094  15.732  1.00  0.00    -0.550 OA
ATOM      4  O   UNL     1      12.781 -30.983  16.215  1.00  0.00    -0.550 OA
ENDBRANCH   1   2
BRANCH   1   5
ATOM      5  C   UNL     1      16.157 -31.962  15.186  1.00  0.00     0.003 C 
ATOM      6  C   UNL     1      16.780 -32.729  14.020  1.00  0.00     0.004 C 
ENDBRANCH   1   5
TORSDOF 2
ENDMDL
MODEL 9
REMARK VINA RESULT:    -3.005      1.484      2.082
REMARK INTER + INTRA:          -3.424
REMARK INTER:                  -3.356
REMARK INTRA:                  -0.068
REMARK UNBOUND:                -0.067
REMARK SMILES CCCC(=O)[O-]
REMARK SMILES IDX 3 1 4 2 5 3 6 4 2 5 1 6
REMARK H PARENT
REMARK Flexibility Score: inf
ROOT
ATOM      1  C   UNL     1      14.937 -23.506  22.053  1.00  0.00     0.052 C 
ENDROOT
BRANCH   1   2
ATOM      2  C   UNL     1      14.062 -22.749  23.003  1.00  0.00     0.041 C 
ATOM      3  O   UNL     1      14.289 -21.533  23.243  1.00  0.00    -0.550 OA
ATOM      4  O   UNL     1      13.016 -23.393  23.651  1.00  0.00    -0.550 OA
ENDBRANCH   1   2
BRANCH   1   5
ATOM      5  C   UNL     1      14.818 -22.971  20.620  1.00  0.00     0.003 C 
ATOM      6  C   UNL     1      13.372 -22.943  20.127  1.00  0.00     0.004 C 
ENDBRANCH   1   5
TORSDOF 2
ENDMDL
