MODEL 1
REMARK VINA RESULT:    -3.996      0.000      0.000
REMARK INTER + INTRA:          -8.814
REMARK INTER:                  -7.033
REMARK INTRA:                  -1.781
REMARK UNBOUND:                -1.781
REMARK SMILES CCCCCCCCCCCCCCC(=O)[O-]
REMARK SMILES IDX 9 1 10 2 11 3 12 4 13 5 14 6 15 7 16 8 17 9 8 10 7 11 6 12
REMARK SMILES IDX 5 13 4 14 3 15 2 16 1 17
REMARK H PARENT
REMARK Flexibility Score: inf
ROOT
ATOM      1  C   UNL     1      47.407   0.872  73.639  1.00  0.00     0.000 C 
ENDROOT
BRANCH   1   2
ATOM      2  C   UNL     1      48.631   0.601  72.739  1.00  0.00     0.000 C 
BRANCH   2   3
ATOM      3  C   UNL     1      48.436  -0.526  71.708  1.00  0.00     0.000 C 
BRANCH   3   4
ATOM      4  C   UNL     1      49.562  -1.586  71.729  1.00  0.00     0.000 C 
BRANCH   4   5
ATOM      5  C   UNL     1      50.880  -1.057  72.323  1.00  0.00     0.006 C 
BRANCH   5   6
ATOM      6  C   UNL     1      51.840  -2.171  72.772  1.00  0.00     0.053 C 
BRANCH   6   7
ATOM      7  C   UNL     1      53.198  -2.016  72.159  1.00  0.00     0.041 C 
ATOM      8  O   UNL     1      53.999  -2.987  72.141  1.00  0.00    -0.550 OA
ATOM      9  O   UNL     1      53.571  -0.807  71.584  1.00  0.00    -0.550 OA
ENDBRANCH   6   7
ENDBRANCH   5   6
ENDBRANCH   4   5
ENDBRANCH   3   4
ENDBRANCH   2   3
ENDBRANCH   1   2
BRANCH   1  10
ATOM     10  C   UNL     1      47.501   0.301  75.068  1.00  0.00     0.000 C 
BRANCH  10  11
ATOM     11  C   UNL     1      48.597  -0.764  75.277  1.00  0.00    -0.000 C 
BRANCH  11  12
ATOM     12  C   UNL     1      48.093  -2.118  75.808  1.00  0.00    -0.000 C 
BRANCH  12  13
ATOM     13  C   UNL     1      49.162  -3.220  75.740  1.00  0.00    -0.000 C 
BRANCH  13  14
ATOM     14  C   UNL     1      49.086  -3.979  74.408  1.00  0.00    -0.000 C 
BRANCH  14  15
ATOM     15  C   UNL     1      47.656  -4.067  73.850  1.00  0.00    -0.000 C 
BRANCH  15  16
ATOM     16  C   UNL     1      47.587  -4.605  72.405  1.00  0.00    -0.003 C 
ATOM     17  C   UNL     1      47.038  -6.029  72.340  1.00  0.00     0.004 C 
ENDBRANCH  15  16
ENDBRANCH  14  15
ENDBRANCH  13  14
ENDBRANCH  12  13
ENDBRANCH  11  12
ENDBRANCH  10  11
ENDBRANCH   1  10
TORSDOF 13
ENDMDL
MODEL 2
REMARK VINA RESULT:    -3.847      3.644      6.087
REMARK INTER + INTRA:          -8.551
REMARK INTER:                  -6.653
REMARK INTRA:                  -1.898
REMARK UNBOUND:                -1.781
REMARK SMILES CCCCCCCCCCCCCCC(=O)[O-]
REMARK SMILES IDX 9 1 10 2 11 3 12 4 13 5 14 6 15 7 16 8 17 9 8 10 7 11 6 12
REMARK SMILES IDX 5 13 4 14 3 15 2 16 1 17
REMARK H PARENT
REMARK Flexibility Score: inf
ROOT
ATOM      1  C   UNL     1      52.182  -3.237  72.502  1.00  0.00     0.000 C 
ENDROOT
BRANCH   1   2
ATOM      2  C   UNL     1      50.910  -3.873  73.103  1.00  0.00     0.000 C 
BRANCH   2   3
ATOM      3  C   UNL     1      49.805  -4.193  72.079  1.00  0.00     0.000 C 
BRANCH   3   4
ATOM      4  C   UNL     1      48.809  -5.273  72.562  1.00  0.00     0.000 C 
BRANCH   4   5
ATOM      5  C   UNL     1      47.348  -4.786  72.580  1.00  0.00     0.006 C 
BRANCH   5   6
ATOM      6  C   UNL     1      46.650  -4.991  73.933  1.00  0.00     0.053 C 
BRANCH   6   7
ATOM      7  C   UNL     1      45.459  -5.892  73.814  1.00  0.00     0.041 C 
ATOM      8  O   UNL     1      44.304  -5.447  74.041  1.00  0.00    -0.550 OA
ATOM      9  O   UNL     1      45.621  -7.217  73.428  1.00  0.00    -0.550 OA
ENDBRANCH   6   7
ENDBRANCH   5   6
ENDBRANCH   4   5
ENDBRANCH   3   4
ENDBRANCH   2   3
ENDBRANCH   1   2
BRANCH   1  10
ATOM     10  C   UNL     1      52.415  -1.758  72.870  1.00  0.00     0.000 C 
BRANCH  10  11
ATOM     11  C   UNL     1      51.879  -0.735  71.847  1.00  0.00    -0.000 C 
BRANCH  11  12
ATOM     12  C   UNL     1      50.612   0.020  72.288  1.00  0.00    -0.000 C 
BRANCH  12  13
ATOM     13  C   UNL     1      49.333  -0.530  71.637  1.00  0.00    -0.000 C 
BRANCH  13  14
ATOM     14  C   UNL     1      48.234  -0.753  72.685  1.00  0.00    -0.000 C 
BRANCH  14  15
ATOM     15  C   UNL     1      48.771  -0.742  74.126  1.00  0.00    -0.000 C 
BRANCH  15  16
ATOM     16  C   UNL     1      48.240  -1.904  74.993  1.00  0.00    -0.003 C 
ATOM     17  C   UNL     1      48.693  -1.798  76.448  1.00  0.00     0.004 C 
ENDBRANCH  15  16
ENDBRANCH  14  15
ENDBRANCH  13  14
ENDBRANCH  12  13
ENDBRANCH  11  12
ENDBRANCH  10  11
ENDBRANCH   1  10
TORSDOF 13
ENDMDL
MODEL 3
REMARK VINA RESULT:    -3.822      2.739      5.194
REMARK INTER + INTRA:          -8.508
REMARK INTER:                  -6.759
REMARK INTRA:                  -1.749
REMARK UNBOUND:                -1.781
REMARK SMILES CCCCCCCCCCCCCCC(=O)[O-]
REMARK SMILES IDX 9 1 10 2 11 3 12 4 13 5 14 6 15 7 16 8 17 9 8 10 7 11 6 12
REMARK SMILES IDX 5 13 4 14 3 15 2 16 1 17
REMARK H PARENT
REMARK Flexibility Score: inf
ROOT
ATOM      1  C   UNL     1      48.616   0.059  75.148  1.00  0.00     0.000 C 
ENDROOT
BRANCH   1   2
ATOM      2  C   UNL     1      49.041  -1.411  75.351  1.00  0.00     0.000 C 
BRANCH   2   3
ATOM      3  C   UNL     1      48.041  -2.451  74.812  1.00  0.00     0.000 C 
BRANCH   3   4
ATOM      4  C   UNL     1      48.715  -3.635  74.079  1.00  0.00     0.000 C 
BRANCH   4   5
ATOM      5  C   UNL     1      47.921  -4.118  72.852  1.00  0.00     0.006 C 
BRANCH   5   6
ATOM      6  C   UNL     1      47.041  -5.346  73.136  1.00  0.00     0.053 C 
BRANCH   6   7
ATOM      7  C   UNL     1      47.773  -6.627  72.877  1.00  0.00     0.041 C 
ATOM      8  O   UNL     1      47.561  -7.273  71.817  1.00  0.00    -0.550 OA
ATOM      9  O   UNL     1      48.707  -7.096  73.792  1.00  0.00    -0.550 OA
ENDBRANCH   6   7
ENDBRANCH   5   6
ENDBRANCH   4   5
ENDBRANCH   3   4
ENDBRANCH   2   3
ENDBRANCH   1   2
BRANCH   1  10
ATOM     10  C   UNL     1      47.615   0.303  74.001  1.00  0.00     0.000 C 
BRANCH  10  11
ATOM     11  C   UNL     1      48.249   0.687  72.648  1.00  0.00    -0.000 C 
BRANCH  11  12
ATOM     12  C   UNL     1      48.356  -0.463  71.631  1.00  0.00    -0.000 C 
BRANCH  12  13
ATOM     13  C   UNL     1      49.720  -1.170  71.672  1.00  0.00    -0.000 C 
BRANCH  13  14
ATOM     14  C   UNL     1      50.837  -0.189  72.053  1.00  0.00    -0.000 C 
BRANCH  14  15
ATOM     15  C   UNL     1      52.234  -0.831  72.018  1.00  0.00    -0.000 C 
BRANCH  15  16
ATOM     16  C   UNL     1      52.349  -2.106  72.881  1.00  0.00    -0.003 C 
ATOM     17  C   UNL     1      53.440  -3.052  72.379  1.00  0.00     0.004 C 
ENDBRANCH  15  16
ENDBRANCH  14  15
ENDBRANCH  13  14
ENDBRANCH  12  13
ENDBRANCH  11  12
ENDBRANCH  10  11
ENDBRANCH   1  10
TORSDOF 13
ENDMDL
MODEL 4
REMARK VINA RESULT:    -3.767      2.866      5.374
REMARK INTER + INTRA:          -8.412
REMARK INTER:                  -6.138
REMARK INTRA:                  -2.274
REMARK UNBOUND:                -1.781
REMARK SMILES CCCCCCCCCCCCCCC(=O)[O-]
REMARK SMILES IDX 9 1 10 2 11 3 12 4 13 5 14 6 15 7 16 8 17 9 8 10 7 11 6 12
REMARK SMILES IDX 5 13 4 14 3 15 2 16 1 17
REMARK H PARENT
REMARK Flexibility Score: inf
ROOT
ATOM      1  C   UNL     1      48.961  -4.876  72.331  1.00  0.00     0.000 C 
ENDROOT
BRANCH   1   2
ATOM      2  C   UNL     1      47.750  -4.159  72.966  1.00  0.00     0.000 C 
BRANCH   2   3
ATOM      3  C   UNL     1      47.607  -4.360  74.486  1.00  0.00     0.000 C 
BRANCH   3   4
ATOM      4  C   UNL     1      48.138  -3.170  75.320  1.00  0.00     0.000 C 
BRANCH   4   5
ATOM      5  C   UNL     1      49.068  -3.601  76.468  1.00  0.00     0.006 C 
BRANCH   5   6
ATOM      6  C   UNL     1      49.920  -4.836  76.135  1.00  0.00     0.053 C 
BRANCH   6   7
ATOM      7  C   UNL     1      50.873  -5.170  77.241  1.00  0.00     0.041 C 
ATOM      8  O   UNL     1      51.071  -4.349  78.175  1.00  0.00    -0.550 OA
ATOM      9  O   UNL     1      51.523  -6.398  77.257  1.00  0.00    -0.550 OA
ENDBRANCH   6   7
ENDBRANCH   5   6
ENDBRANCH   4   5
ENDBRANCH   3   4
ENDBRANCH   2   3
ENDBRANCH   1   2
BRANCH   1  10
ATOM     10  C   UNL     1      50.096  -3.951  71.851  1.00  0.00     0.000 C 
BRANCH  10  11
ATOM     11  C   UNL     1      51.295  -3.830  72.814  1.00  0.00    -0.000 C 
BRANCH  11  12
ATOM     12  C   UNL     1      51.537  -2.418  73.376  1.00  0.00    -0.000 C 
BRANCH  12  13
ATOM     13  C   UNL     1      51.875  -1.391  72.285  1.00  0.00    -0.000 C 
BRANCH  13  14
ATOM     14  C   UNL     1      50.760  -0.345  72.149  1.00  0.00    -0.000 C 
BRANCH  14  15
ATOM     15  C   UNL     1      49.706  -0.447  73.264  1.00  0.00    -0.000 C 
BRANCH  15  16
ATOM     16  C   UNL     1      48.259  -0.566  72.738  1.00  0.00    -0.003 C 
ATOM     17  C   UNL     1      48.202  -0.691  71.216  1.00  0.00     0.004 C 
ENDBRANCH  15  16
ENDBRANCH  14  15
ENDBRANCH  13  14
ENDBRANCH  12  13
ENDBRANCH  11  12
ENDBRANCH  10  11
ENDBRANCH   1  10
TORSDOF 13
ENDMDL
MODEL 5
REMARK VINA RESULT:    -3.766     13.628     15.745
REMARK INTER + INTRA:          -8.408
REMARK INTER:                  -7.367
REMARK INTRA:                  -1.041
REMARK UNBOUND:                -1.781
REMARK SMILES CCCCCCCCCCCCCCC(=O)[O-]
REMARK SMILES IDX 9 1 10 2 11 3 12 4 13 5 14 6 15 7 16 8 17 9 8 10 7 11 6 12
REMARK SMILES IDX 5 13 4 14 3 15 2 16 1 17
REMARK H PARENT
REMARK Flexibility Score: inf
ROOT
ATOM      1  C   UNL     1      61.294  -7.144  81.350  1.00  0.00     0.000 C 
ENDROOT
BRANCH   1   2
ATOM      2  C   UNL     1      61.645  -8.610  81.020  1.00  0.00     0.000 C 
BRANCH   2   3
ATOM      3  C   UNL     1      60.449  -9.474  80.575  1.00  0.00     0.000 C 
BRANCH   3   4
ATOM      4  C   UNL     1      60.017 -10.521  81.628  1.00  0.00     0.000 C 
BRANCH   4   5
ATOM      5  C   UNL     1      61.158 -10.933  82.577  1.00  0.00     0.006 C 
BRANCH   5   6
ATOM      6  C   UNL     1      61.980 -12.125  82.064  1.00  0.00     0.053 C 
BRANCH   6   7
ATOM      7  C   UNL     1      61.109 -13.289  81.703  1.00  0.00     0.041 C 
ATOM      8  O   UNL     1      61.073 -13.709  80.517  1.00  0.00    -0.550 OA
ATOM      9  O   UNL     1      60.355 -13.927  82.681  1.00  0.00    -0.550 OA
ENDBRANCH   6   7
ENDBRANCH   5   6
ENDBRANCH   4   5
ENDBRANCH   3   4
ENDBRANCH   2   3
ENDBRANCH   1   2
BRANCH   1  10
ATOM     10  C   UNL     1      60.618  -6.920  82.718  1.00  0.00     0.000 C 
BRANCH  10  11
ATOM     11  C   UNL     1      59.077  -6.868  82.686  1.00  0.00    -0.000 C 
BRANCH  11  12
ATOM     12  C   UNL     1      58.468  -5.482  82.962  1.00  0.00    -0.000 C 
BRANCH  12  13
ATOM     13  C   UNL     1      59.341  -4.332  82.437  1.00  0.00    -0.000 C 
BRANCH  13  14
ATOM     14  C   UNL     1      58.476  -3.198  81.869  1.00  0.00    -0.000 C 
BRANCH  14  15
ATOM     15  C   UNL     1      56.970  -3.496  81.955  1.00  0.00    -0.000 C 
BRANCH  15  16
ATOM     16  C   UNL     1      56.203  -2.539  82.893  1.00  0.00    -0.003 C 
ATOM     17  C   UNL     1      57.011  -1.287  83.234  1.00  0.00     0.004 C 
ENDBRANCH  15  16
ENDBRANCH  14  15
ENDBRANCH  13  14
ENDBRANCH  12  13
ENDBRANCH  11  12
ENDBRANCH  10  11
ENDBRANCH   1  10
TORSDOF 13
ENDMDL
MODEL 6
REMARK VINA RESULT:    -3.756      1.887      3.194
REMARK INTER + INTRA:          -8.391
REMARK INTER:                  -6.870
REMARK INTRA:                  -1.521
REMARK UNBOUND:                -1.781
REMARK SMILES CCCCCCCCCCCCCCC(=O)[O-]
REMARK SMILES IDX 9 1 10 2 11 3 12 4 13 5 14 6 15 7 16 8 17 9 8 10 7 11 6 12
REMARK SMILES IDX 5 13 4 14 3 15 2 16 1 17
REMARK H PARENT
REMARK Flexibility Score: inf
ROOT
ATOM      1  C   UNL     1      48.669   0.321  74.070  1.00  0.00     0.000 C 
ENDROOT
BRANCH   1   2
ATOM      2  C   UNL     1      48.052   0.032  72.685  1.00  0.00     0.000 C 
BRANCH   2   3
ATOM      3  C   UNL     1      49.022  -0.593  71.666  1.00  0.00     0.000 C 
BRANCH   3   4
ATOM      4  C   UNL     1      49.360  -2.074  71.960  1.00  0.00     0.000 C 
BRANCH   4   5
ATOM      5  C   UNL     1      50.839  -2.297  72.325  1.00  0.00     0.006 C 
BRANCH   5   6
ATOM      6  C   UNL     1      51.683  -1.014  72.269  1.00  0.00     0.053 C 
BRANCH   6   7
ATOM      7  C   UNL     1      53.107  -1.301  71.901  1.00  0.00     0.041 C 
ATOM      8  O   UNL     1      53.643  -2.387  72.245  1.00  0.00    -0.550 OA
ATOM      9  O   UNL     1      53.835  -0.381  71.156  1.00  0.00    -0.550 OA
ENDBRANCH   6   7
ENDBRANCH   5   6
ENDBRANCH   4   5
ENDBRANCH   3   4
ENDBRANCH   2   3
ENDBRANCH   1   2
BRANCH   1  10
ATOM     10  C   UNL     1      47.920  -0.297  75.267  1.00  0.00     0.000 C 
BRANCH  10  11
ATOM     11  C   UNL     1      48.153  -1.808  75.477  1.00  0.00    -0.000 C 
BRANCH  11  12
ATOM     12  C   UNL     1      49.609  -2.204  75.780  1.00  0.00    -0.000 C 
BRANCH  12  13
ATOM     13  C   UNL     1      50.113  -1.645  77.119  1.00  0.00    -0.000 C 
BRANCH  13  14
ATOM     14  C   UNL     1      49.236  -2.130  78.283  1.00  0.00    -0.000 C 
BRANCH  14  15
ATOM     15  C   UNL     1      49.448  -3.616  78.612  1.00  0.00    -0.000 C 
BRANCH  15  16
ATOM     16  C   UNL     1      50.901  -3.963  79.001  1.00  0.00    -0.003 C 
ATOM     17  C   UNL     1      51.343  -5.319  78.453  1.00  0.00     0.004 C 
ENDBRANCH  15  16
ENDBRANCH  14  15
ENDBRANCH  13  14
ENDBRANCH  12  13
ENDBRANCH  11  12
ENDBRANCH  10  11
ENDBRANCH   1  10
TORSDOF 13
ENDMDL
MODEL 7
REMARK VINA RESULT:    -3.753      3.432      5.957
REMARK INTER + INTRA:          -8.387
REMARK INTER:                  -6.207
REMARK INTRA:                  -2.180
REMARK UNBOUND:                -1.781
REMARK SMILES CCCCCCCCCCCCCCC(=O)[O-]
REMARK SMILES IDX 9 1 10 2 11 3 12 4 13 5 14 6 15 7 16 8 17 9 8 10 7 11 6 12
REMARK SMILES IDX 5 13 4 14 3 15 2 16 1 17
REMARK H PARENT
REMARK Flexibility Score: inf
ROOT
ATOM      1  C   UNL     1      48.744  -3.813  75.000  1.00  0.00     0.000 C 
ENDROOT
BRANCH   1   2
ATOM      2  C   UNL     1      49.629  -4.608  74.017  1.00  0.00     0.000 C 
BRANCH   2   3
ATOM      3  C   UNL     1      49.021  -4.802  72.615  1.00  0.00     0.000 C 
BRANCH   3   4
ATOM      4  C   UNL     1      47.486  -4.620  72.576  1.00  0.00     0.000 C 
BRANCH   4   5
ATOM      5  C   UNL     1      46.745  -5.847  72.015  1.00  0.00     0.006 C 
BRANCH   5   6
ATOM      6  C   UNL     1      46.458  -6.926  73.072  1.00  0.00     0.053 C 
BRANCH   6   7
ATOM      7  C   UNL     1      45.758  -6.360  74.269  1.00  0.00     0.041 C 
ATOM      8  O   UNL     1      46.339  -6.329  75.386  1.00  0.00    -0.550 OA
ATOM      9  O   UNL     1      44.474  -5.843  74.149  1.00  0.00    -0.550 OA
ENDBRANCH   6   7
ENDBRANCH   5   6
ENDBRANCH   4   5
ENDBRANCH   3   4
ENDBRANCH   2   3
ENDBRANCH   1   2
BRANCH   1  10
ATOM     10  C   UNL     1      49.178  -2.355  75.248  1.00  0.00     0.000 C 
BRANCH  10  11
ATOM     11  C   UNL     1      48.133  -1.286  74.869  1.00  0.00    -0.000 C 
BRANCH  11  12
ATOM     12  C   UNL     1      48.533  -0.375  73.694  1.00  0.00    -0.000 C 
BRANCH  12  13
ATOM     13  C   UNL     1      48.299  -1.030  72.325  1.00  0.00    -0.000 C 
BRANCH  13  14
ATOM     14  C   UNL     1      49.631  -1.336  71.626  1.00  0.00    -0.000 C 
BRANCH  14  15
ATOM     15  C   UNL     1      50.839  -0.710  72.342  1.00  0.00    -0.000 C 
BRANCH  15  16
ATOM     16  C   UNL     1      52.136  -1.536  72.206  1.00  0.00    -0.003 C 
ATOM     17  C   UNL     1      52.462  -2.321  73.477  1.00  0.00     0.004 C 
ENDBRANCH  15  16
ENDBRANCH  14  15
ENDBRANCH  13  14
ENDBRANCH  12  13
ENDBRANCH  11  12
ENDBRANCH  10  11
ENDBRANCH   1  10
TORSDOF 13
ENDMDL
MODEL 8
REMARK VINA RESULT:    -3.709      3.182      4.636
REMARK INTER + INTRA:          -8.309
REMARK INTER:                  -6.553
REMARK INTRA:                  -1.756
REMARK UNBOUND:                -1.781
REMARK SMILES CCCCCCCCCCCCCCC(=O)[O-]
REMARK SMILES IDX 9 1 10 2 11 3 12 4 13 5 14 6 15 7 16 8 17 9 8 10 7 11 6 12
REMARK SMILES IDX 5 13 4 14 3 15 2 16 1 17
REMARK H PARENT
REMARK Flexibility Score: inf
ROOT
ATOM      1  C   UNL     1      49.387  -0.675  71.660  1.00  0.00     0.000 C 
ENDROOT
BRANCH   1   2
ATOM      2  C   UNL     1      50.740  -0.936  72.356  1.00  0.00     0.000 C 
BRANCH   2   3
ATOM      3  C   UNL     1      51.098  -2.424  72.530  1.00  0.00     0.000 C 
BRANCH   3   4
ATOM      4  C   UNL     1      50.145  -3.382  71.777  1.00  0.00     0.000 C 
BRANCH   4   5
ATOM      5  C   UNL     1      49.315  -4.273  72.719  1.00  0.00     0.006 C 
BRANCH   5   6
ATOM      6  C   UNL     1      47.800  -4.047  72.599  1.00  0.00     0.053 C 
BRANCH   6   7
ATOM      7  C   UNL     1      47.020  -5.244  73.051  1.00  0.00     0.041 C 
ATOM      8  O   UNL     1      46.724  -5.385  74.267  1.00  0.00    -0.550 OA
ATOM      9  O   UNL     1      46.598  -6.192  72.127  1.00  0.00    -0.550 OA
ENDBRANCH   6   7
ENDBRANCH   5   6
ENDBRANCH   4   5
ENDBRANCH   3   4
ENDBRANCH   2   3
ENDBRANCH   1   2
BRANCH   1  10
ATOM     10  C   UNL     1      48.225  -0.296  72.600  1.00  0.00     0.000 C 
BRANCH  10  11
ATOM     11  C   UNL     1      48.600  -0.180  74.092  1.00  0.00    -0.000 C 
BRANCH  11  12
ATOM     12  C   UNL     1      48.028  -1.289  74.993  1.00  0.00    -0.000 C 
BRANCH  12  13
ATOM     13  C   UNL     1      49.002  -1.718  76.101  1.00  0.00    -0.000 C 
BRANCH  13  14
ATOM     14  C   UNL     1      49.026  -3.246  76.252  1.00  0.00    -0.000 C 
BRANCH  14  15
ATOM     15  C   UNL     1      48.252  -3.737  77.486  1.00  0.00    -0.000 C 
BRANCH  15  16
ATOM     16  C   UNL     1      49.099  -4.600  78.445  1.00  0.00    -0.003 C 
ATOM     17  C   UNL     1      48.568  -6.027  78.567  1.00  0.00     0.004 C 
ENDBRANCH  15  16
ENDBRANCH  14  15
ENDBRANCH  13  14
ENDBRANCH  12  13
ENDBRANCH  11  12
ENDBRANCH  10  11
ENDBRANCH   1  10
TORSDOF 13
ENDMDL
MODEL 9
REMARK VINA RESULT:    -3.667      3.109      4.531
REMARK INTER + INTRA:          -8.235
REMARK INTER:                  -6.092
REMARK INTRA:                  -2.143
REMARK UNBOUND:                -1.781
REMARK SMILES CCCCCCCCCCCCCCC(=O)[O-]
REMARK SMILES IDX 9 1 10 2 11 3 12 4 13 5 14 6 15 7 16 8 17 9 8 10 7 11 6 12
REMARK SMILES IDX 5 13 4 14 3 15 2 16 1 17
REMARK H PARENT
REMARK Flexibility Score: inf
ROOT
ATOM      1  C   UNL     1      49.408  -0.905  71.708  1.00  0.00     0.000 C 
ENDROOT
BRANCH   1   2
ATOM      2  C   UNL     1      48.241  -0.151  72.379  1.00  0.00     0.000 C 
BRANCH   2   3
ATOM      3  C   UNL     1      48.362  -0.006  73.908  1.00  0.00     0.000 C 
BRANCH   3   4
ATOM      4  C   UNL     1      48.268  -1.350  74.667  1.00  0.00     0.000 C 
BRANCH   4   5
ATOM      5  C   UNL     1      49.344  -1.507  75.757  1.00  0.00     0.006 C 
BRANCH   5   6
ATOM      6  C   UNL     1      49.218  -2.811  76.559  1.00  0.00     0.053 C 
BRANCH   6   7
ATOM      7  C   UNL     1      49.008  -2.549  78.019  1.00  0.00     0.041 C 
ATOM      8  O   UNL     1      48.587  -1.428  78.406  1.00  0.00    -0.550 OA
ATOM      9  O   UNL     1      49.252  -3.550  78.951  1.00  0.00    -0.550 OA
ENDBRANCH   6   7
ENDBRANCH   5   6
ENDBRANCH   4   5
ENDBRANCH   3   4
ENDBRANCH   2   3
ENDBRANCH   1   2
BRANCH   1  10
ATOM     10  C   UNL     1      50.812  -0.340  72.001  1.00  0.00     0.000 C 
BRANCH  10  11
ATOM     11  C   UNL     1      51.806  -1.344  72.621  1.00  0.00    -0.000 C 
BRANCH  11  12
ATOM     12  C   UNL     1      51.494  -2.825  72.339  1.00  0.00    -0.000 C 
BRANCH  12  13
ATOM     13  C   UNL     1      51.420  -3.673  73.618  1.00  0.00    -0.000 C 
BRANCH  13  14
ATOM     14  C   UNL     1      50.385  -4.797  73.474  1.00  0.00    -0.000 C 
BRANCH  14  15
ATOM     15  C   UNL     1      49.444  -4.593  72.275  1.00  0.00    -0.000 C 
BRANCH  15  16
ATOM     16  C   UNL     1      47.982  -4.303  72.678  1.00  0.00    -0.003 C 
ATOM     17  C   UNL     1      47.036  -5.440  72.293  1.00  0.00     0.004 C 
ENDBRANCH  15  16
ENDBRANCH  14  15
ENDBRANCH  13  14
ENDBRANCH  12  13
ENDBRANCH  11  12
ENDBRANCH  10  11
ENDBRANCH   1  10
TORSDOF 13
ENDMDL
