MODEL 1
REMARK VINA RESULT:    -2.902      0.000      0.000
REMARK INTER + INTRA:          -3.526
REMARK INTER:                  -3.411
REMARK INTRA:                  -0.115
REMARK UNBOUND:                -0.115
REMARK SMILES O=C([O-])CCC(=O)[O-]
REMARK SMILES IDX 4 1 2 2 1 3 3 4 5 5 6 6 7 7 8 8
REMARK H PARENT
REMARK Flexibility Score: inf
ROOT
ATOM      1  C   UNL     1      -2.533   1.533 -21.907  1.00  0.00     0.059 C 
ENDROOT
BRANCH   1   2
ATOM      2  C   UNL     1      -2.986   2.937 -22.166  1.00  0.00     0.042 C 
ATOM      3  O   UNL     1      -2.148   3.827 -22.469  1.00  0.00    -0.550 OA
ATOM      4  O   UNL     1      -4.338   3.253 -22.117  1.00  0.00    -0.550 OA
ENDBRANCH   1   2
BRANCH   1   5
ATOM      5  C   UNL     1      -2.539   0.691 -23.188  1.00  0.00     0.059 C 
BRANCH   5   6
ATOM      6  C   UNL     1      -1.150   0.329 -23.616  1.00  0.00     0.042 C 
ATOM      7  O   UNL     1      -0.733  -0.851 -23.482  1.00  0.00    -0.550 OA
ATOM      8  O   UNL     1      -0.303   1.305 -24.125  1.00  0.00    -0.550 OA
ENDBRANCH   5   6
ENDBRANCH   1   5
TORSDOF 3
ENDMDL
MODEL 2
REMARK VINA RESULT:    -2.887      0.038      3.989
REMARK INTER + INTRA:          -3.508
REMARK INTER:                  -3.392
REMARK INTRA:                  -0.116
REMARK UNBOUND:                -0.115
REMARK SMILES O=C([O-])CCC(=O)[O-]
REMARK SMILES IDX 4 1 2 2 1 3 3 4 5 5 6 6 7 7 8 8
REMARK H PARENT
REMARK Flexibility Score: inf
ROOT
ATOM      1  C   UNL     1      -2.544   0.655 -23.139  1.00  0.00     0.059 C 
ENDROOT
BRANCH   1   2
ATOM      2  C   UNL     1      -1.154   0.305 -23.571  1.00  0.00     0.042 C 
ATOM      3  O   UNL     1      -0.738  -0.880 -23.469  1.00  0.00    -0.550 OA
ATOM      4  O   UNL     1      -0.331   1.278 -24.125  1.00  0.00    -0.550 OA
ENDBRANCH   1   2
BRANCH   1   5
ATOM      5  C   UNL     1      -2.542   1.532 -21.881  1.00  0.00     0.059 C 
BRANCH   5   6
ATOM      6  C   UNL     1      -2.990   2.929 -22.183  1.00  0.00     0.042 C 
ATOM      7  O   UNL     1      -2.147   3.813 -22.486  1.00  0.00    -0.550 OA
ATOM      8  O   UNL     1      -4.335   3.263 -22.091  1.00  0.00    -0.550 OA
ENDBRANCH   5   6
ENDBRANCH   1   5
TORSDOF 3
ENDMDL
MODEL 3
REMARK VINA RESULT:    -2.832      1.452      1.763
REMARK INTER + INTRA:          -3.443
REMARK INTER:                  -3.321
REMARK INTRA:                  -0.122
REMARK UNBOUND:                -0.115
REMARK SMILES O=C([O-])CCC(=O)[O-]
REMARK SMILES IDX 4 1 2 2 1 3 3 4 5 5 6 6 7 7 8 8
REMARK H PARENT
REMARK Flexibility Score: inf
ROOT
ATOM      1  C   UNL     1      -2.788   2.488 -23.297  1.00  0.00     0.059 C 
ENDROOT
BRANCH   1   2
ATOM      2  C   UNL     1      -3.949   2.844 -22.421  1.00  0.00     0.042 C 
ATOM      3  O   UNL     1      -3.914   2.589 -21.188  1.00  0.00    -0.550 OA
ATOM      4  O   UNL     1      -5.052   3.496 -22.957  1.00  0.00    -0.550 OA
ENDBRANCH   1   2
BRANCH   1   5
ATOM      5  C   UNL     1      -2.931   1.077 -23.879  1.00  0.00     0.059 C 
BRANCH   5   6
ATOM      6  C   UNL     1      -2.000   0.110 -23.215  1.00  0.00     0.042 C 
ATOM      7  O   UNL     1      -1.021  -0.364 -23.849  1.00  0.00    -0.550 OA
ATOM      8  O   UNL     1      -2.238  -0.300 -21.910  1.00  0.00    -0.550 OA
ENDBRANCH   5   6
ENDBRANCH   1   5
TORSDOF 3
ENDMDL
MODEL 4
REMARK VINA RESULT:    -2.825     11.186     12.305
REMARK INTER + INTRA:          -3.435
REMARK INTER:                  -3.313
REMARK INTRA:                  -0.121
REMARK UNBOUND:                -0.115
REMARK SMILES O=C([O-])CCC(=O)[O-]
REMARK SMILES IDX 4 1 2 2 1 3 3 4 5 5 6 6 7 7 8 8
REMARK H PARENT
REMARK Flexibility Score: inf
ROOT
ATOM      1  C   UNL     1     -10.923   8.979 -19.705  1.00  0.00     0.059 C 
ENDROOT
BRANCH   1   2
ATOM      2  C   UNL     1     -12.174   8.219 -19.394  1.00  0.00     0.042 C 
ATOM      3  O   UNL     1     -12.124   6.979 -19.174  1.00  0.00    -0.550 OA
ATOM      4  O   UNL     1     -13.391   8.884 -19.306  1.00  0.00    -0.550 OA
ENDBRANCH   1   2
BRANCH   1   5
ATOM      5  C   UNL     1     -10.417   9.759 -18.485  1.00  0.00     0.059 C 
BRANCH   5   6
ATOM      6  C   UNL     1      -9.461   8.945 -17.669  1.00  0.00     0.042 C 
ATOM      7  O   UNL     1      -9.130   9.326 -16.515  1.00  0.00    -0.550 OA
ATOM      8  O   UNL     1      -8.903   7.789 -18.198  1.00  0.00    -0.550 OA
ENDBRANCH   5   6
ENDBRANCH   1   5
TORSDOF 3
ENDMDL
MODEL 5
REMARK VINA RESULT:    -2.825     11.174     12.370
REMARK INTER + INTRA:          -3.434
REMARK INTER:                  -3.314
REMARK INTRA:                  -0.120
REMARK UNBOUND:                -0.115
REMARK SMILES O=C([O-])CCC(=O)[O-]
REMARK SMILES IDX 4 1 2 2 1 3 3 4 5 5 6 6 7 7 8 8
REMARK H PARENT
REMARK Flexibility Score: inf
ROOT
ATOM      1  C   UNL     1     -10.433   9.730 -18.487  1.00  0.00     0.059 C 
ENDROOT
BRANCH   1   2
ATOM      2  C   UNL     1      -9.433   8.958 -17.684  1.00  0.00     0.042 C 
ATOM      3  O   UNL     1      -9.112   9.346 -16.529  1.00  0.00    -0.550 OA
ATOM      4  O   UNL     1      -8.886   7.786 -18.192  1.00  0.00    -0.550 OA
ENDBRANCH   1   2
BRANCH   1   5
ATOM      5  C   UNL     1     -10.938   8.923 -19.688  1.00  0.00     0.059 C 
BRANCH   5   6
ATOM      6  C   UNL     1     -12.196   8.178 -19.362  1.00  0.00     0.042 C 
ATOM      7  O   UNL     1     -12.167   6.931 -19.188  1.00  0.00    -0.550 OA
ATOM      8  O   UNL     1     -13.407   8.854 -19.292  1.00  0.00    -0.550 OA
ENDBRANCH   5   6
ENDBRANCH   1   5
TORSDOF 3
ENDMDL
MODEL 6
REMARK VINA RESULT:    -2.814     11.384     12.450
REMARK INTER + INTRA:          -3.422
REMARK INTER:                  -3.304
REMARK INTRA:                  -0.117
REMARK UNBOUND:                -0.115
REMARK SMILES O=C([O-])CCC(=O)[O-]
REMARK SMILES IDX 4 1 2 2 1 3 3 4 5 5 6 6 7 7 8 8
REMARK H PARENT
REMARK Flexibility Score: inf
ROOT
ATOM      1  C   UNL     1     -12.097   6.976 -19.684  1.00  0.00     0.059 C 
ENDROOT
BRANCH   1   2
ATOM      2  C   UNL     1     -12.433   6.586 -21.090  1.00  0.00     0.042 C 
ATOM      3  O   UNL     1     -12.031   5.487 -21.556  1.00  0.00    -0.550 OA
ATOM      4  O   UNL     1     -13.225   7.417 -21.874  1.00  0.00    -0.550 OA
ENDBRANCH   1   2
BRANCH   1   5
ATOM      5  C   UNL     1     -12.512   8.421 -19.384  1.00  0.00     0.059 C 
BRANCH   5   6
ATOM      6  C   UNL     1     -11.340   9.353 -19.433  1.00  0.00     0.042 C 
ATOM      7  O   UNL     1     -10.681   9.596 -18.388  1.00  0.00    -0.550 OA
ATOM      8  O   UNL     1     -11.002   9.983 -20.623  1.00  0.00    -0.550 OA
ENDBRANCH   5   6
ENDBRANCH   1   5
TORSDOF 3
ENDMDL
MODEL 7
REMARK VINA RESULT:    -2.776     11.442     12.142
REMARK INTER + INTRA:          -3.377
REMARK INTER:                  -3.269
REMARK INTRA:                  -0.108
REMARK UNBOUND:                -0.115
REMARK SMILES O=C([O-])CCC(=O)[O-]
REMARK SMILES IDX 4 1 2 2 1 3 3 4 5 5 6 6 7 7 8 8
REMARK H PARENT
REMARK Flexibility Score: inf
ROOT
ATOM      1  C   UNL     1     -12.410   8.442 -19.336  1.00  0.00     0.059 C 
ENDROOT
BRANCH   1   2
ATOM      2  C   UNL     1     -11.208   9.334 -19.384  1.00  0.00     0.042 C 
ATOM      3  O   UNL     1     -10.978  10.032 -20.408  1.00  0.00    -0.550 OA
ATOM      4  O   UNL     1     -10.364   9.427 -18.284  1.00  0.00    -0.550 OA
ENDBRANCH   1   2
BRANCH   1   5
ATOM      5  C   UNL     1     -12.048   6.987 -19.652  1.00  0.00     0.059 C 
BRANCH   5   6
ATOM      6  C   UNL     1     -12.476   6.601 -21.035  1.00  0.00     0.042 C 
ATOM      7  O   UNL     1     -12.091   5.511 -21.536  1.00  0.00    -0.550 OA
ATOM      8  O   UNL     1     -13.265   7.462 -21.784  1.00  0.00    -0.550 OA
ENDBRANCH   5   6
ENDBRANCH   1   5
TORSDOF 3
ENDMDL
MODEL 8
REMARK VINA RESULT:    -2.747      1.410      3.665
REMARK INTER + INTRA:          -3.344
REMARK INTER:                  -3.270
REMARK INTRA:                  -0.073
REMARK UNBOUND:                -0.115
REMARK SMILES O=C([O-])CCC(=O)[O-]
REMARK SMILES IDX 4 1 2 2 1 3 3 4 5 5 6 6 7 7 8 8
REMARK H PARENT
REMARK Flexibility Score: inf
ROOT
ATOM      1  C   UNL     1      -2.900   1.245 -23.699  1.00  0.00     0.059 C 
ENDROOT
BRANCH   1   2
ATOM      2  C   UNL     1      -2.069   0.167 -23.074  1.00  0.00     0.042 C 
ATOM      3  O   UNL     1      -2.254  -0.157 -21.871  1.00  0.00    -0.550 OA
ATOM      4  O   UNL     1      -1.121  -0.509 -23.831  1.00  0.00    -0.550 OA
ENDBRANCH   1   2
BRANCH   1   5
ATOM      5  C   UNL     1      -2.049   2.458 -24.092  1.00  0.00     0.059 C 
BRANCH   5   6
ATOM      6  C   UNL     1      -1.977   3.463 -22.984  1.00  0.00     0.042 C 
ATOM      7  O   UNL     1      -2.625   3.280 -21.920  1.00  0.00    -0.550 OA
ATOM      8  O   UNL     1      -1.226   4.620 -23.142  1.00  0.00    -0.550 OA
ENDBRANCH   5   6
ENDBRANCH   1   5
TORSDOF 3
ENDMDL
MODEL 9
REMARK VINA RESULT:    -2.731     10.896     11.927
REMARK INTER + INTRA:          -3.325
REMARK INTER:                  -3.217
REMARK INTRA:                  -0.108
REMARK UNBOUND:                -0.115
REMARK SMILES O=C([O-])CCC(=O)[O-]
REMARK SMILES IDX 4 1 2 2 1 3 3 4 5 5 6 6 7 7 8 8
REMARK H PARENT
REMARK Flexibility Score: inf
ROOT
ATOM      1  C   UNL     1     -12.375   8.025 -19.636  1.00  0.00     0.059 C 
ENDROOT
BRANCH   1   2
ATOM      2  C   UNL     1     -12.439   8.008 -21.132  1.00  0.00     0.042 C 
ATOM      3  O   UNL     1     -11.509   8.519 -21.812  1.00  0.00    -0.550 OA
ATOM      4  O   UNL     1     -13.504   7.392 -21.777  1.00  0.00    -0.550 OA
ENDBRANCH   1   2
BRANCH   1   5
ATOM      5  C   UNL     1     -11.205   8.876 -19.130  1.00  0.00     0.059 C 
BRANCH   5   6
ATOM      6  C   UNL     1     -10.122   8.027 -18.538  1.00  0.00     0.042 C 
ATOM      7  O   UNL     1      -9.922   6.862 -18.972  1.00  0.00    -0.550 OA
ATOM      8  O   UNL     1      -9.361   8.507 -17.480  1.00  0.00    -0.550 OA
ENDBRANCH   5   6
ENDBRANCH   1   5
TORSDOF 3
ENDMDL
