MODEL 1
REMARK VINA RESULT:    -3.600      0.000      0.000
REMARK INTER + INTRA:          -4.999
REMARK INTER:                  -4.652
REMARK INTRA:                  -0.347
REMARK UNBOUND:                -0.347
REMARK SMILES CO[C@]1(CO)O[C@H](CO)[C@@H](O)[C@H]1O
REMARK SMILES IDX 3 1 12 2 10 3 7 4 6 5 2 6 1 7 4 8 5 9 13 11 11 13 8 15 9 16
REMARK H PARENT 5 10 13 12 11 14 9 17
REMARK Flexibility Score: inf
ROOT
ATOM      1  C   UNL     1      30.395   0.416  39.674  1.00  0.00     0.221 C 
ATOM      2  C   UNL     1      31.333  -0.224  40.724  1.00  0.00     0.207 C 
ATOM      3  C   UNL     1      30.364  -0.606  41.817  1.00  0.00     0.180 C 
ATOM      4  C   UNL     1      29.080  -0.889  41.036  1.00  0.00     0.179 C 
ATOM      5  O   UNL     1      29.169  -0.283  39.761  1.00  0.00    -0.337 OA
ENDROOT
BRANCH   1   6
ATOM      6  O   UNL     1      30.104   1.773  40.017  1.00  0.00    -0.349 OA
ATOM      7  C   UNL     1      31.229   2.629  40.044  1.00  0.00     0.198 C 
ENDBRANCH   1   6
BRANCH   1   8
ATOM      8  C   UNL     1      30.898   0.254  38.210  1.00  0.00     0.224 C 
BRANCH   8   9
ATOM      9  O   UNL     1      30.022   0.855  37.295  1.00  0.00    -0.391 OA
ATOM     10  H   UNL     1      30.190   0.413  36.422  1.00  0.00     0.210 HD
ENDBRANCH   8   9
ENDBRANCH   1   8
BRANCH   2  11
ATOM     11  O   UNL     1      32.021  -1.349  40.221  1.00  0.00    -0.385 OA
ATOM     12  H   UNL     1      32.756  -1.031  39.632  1.00  0.00     0.211 HD
ENDBRANCH   2  11
BRANCH   3  13
ATOM     13  O   UNL     1      30.784  -1.739  42.532  1.00  0.00    -0.387 OA
ATOM     14  H   UNL     1      31.738  -1.882  42.296  1.00  0.00     0.211 HD
ENDBRANCH   3  13
BRANCH   4  15
ATOM     15  C   UNL     1      27.825  -0.384  41.760  1.00  0.00     0.191 C 
BRANCH  15  16
ATOM     16  O   UNL     1      27.939  -0.579  43.144  1.00  0.00    -0.394 OA
ATOM     17  H   UNL     1      28.327   0.253  43.521  1.00  0.00     0.210 HD
ENDBRANCH  15  16
ENDBRANCH   4  15
TORSDOF 7
ENDMDL
MODEL 2
REMARK VINA RESULT:    -2.980     15.438     17.310
REMARK INTER + INTRA:          -4.199
REMARK INTER:                  -3.645
REMARK INTRA:                  -0.554
REMARK UNBOUND:                -0.347
REMARK SMILES CO[C@]1(CO)O[C@H](CO)[C@@H](O)[C@H]1O
REMARK SMILES IDX 3 1 12 2 10 3 7 4 6 5 2 6 1 7 4 8 5 9 13 11 11 13 8 15 9 16
REMARK H PARENT 5 10 13 12 11 14 9 17
REMARK Flexibility Score: inf
ROOT
ATOM      1  C   UNL     1      29.975  15.862  48.795  1.00  0.00     0.221 C 
ATOM      2  C   UNL     1      28.813  15.212  48.009  1.00  0.00     0.207 C 
ATOM      3  C   UNL     1      29.466  13.967  47.457  1.00  0.00     0.180 C 
ATOM      4  C   UNL     1      30.511  13.641  48.526  1.00  0.00     0.179 C 
ATOM      5  O   UNL     1      30.749  14.795  49.309  1.00  0.00    -0.337 OA
ENDROOT
BRANCH   1   6
ATOM      6  O   UNL     1      30.835  16.590  47.916  1.00  0.00    -0.349 OA
ATOM      7  C   UNL     1      31.902  17.262  48.558  1.00  0.00     0.198 C 
ENDBRANCH   1   6
BRANCH   1   8
ATOM      8  C   UNL     1      29.505  16.700  50.019  1.00  0.00     0.224 C 
BRANCH   8   9
ATOM      9  O   UNL     1      28.431  17.538  49.689  1.00  0.00    -0.391 OA
ATOM     10  H   UNL     1      27.664  17.233  50.239  1.00  0.00     0.210 HD
ENDBRANCH   8   9
ENDBRANCH   1   8
BRANCH   2  11
ATOM     11  O   UNL     1      27.709  14.901  48.832  1.00  0.00    -0.385 OA
ATOM     12  H   UNL     1      28.050  14.527  49.687  1.00  0.00     0.211 HD
ENDBRANCH   2  11
BRANCH   3  13
ATOM     13  O   UNL     1      28.555  12.910  47.299  1.00  0.00    -0.387 OA
ATOM     14  H   UNL     1      28.151  13.021  46.400  1.00  0.00     0.211 HD
ENDBRANCH   3  13
BRANCH   4  15
ATOM     15  C   UNL     1      31.833  13.142  47.927  1.00  0.00     0.191 C 
BRANCH  15  16
ATOM     16  O   UNL     1      31.610  12.048  47.079  1.00  0.00    -0.394 OA
ATOM     17  H   UNL     1      31.819  11.231  47.602  1.00  0.00     0.210 HD
ENDBRANCH  15  16
ENDBRANCH   4  15
TORSDOF 7
ENDMDL
MODEL 3
REMARK VINA RESULT:    -2.883     15.215     16.925
REMARK INTER + INTRA:          -4.073
REMARK INTER:                  -3.568
REMARK INTRA:                  -0.505
REMARK UNBOUND:                -0.347
REMARK SMILES CO[C@]1(CO)O[C@H](CO)[C@@H](O)[C@H]1O
REMARK SMILES IDX 3 1 12 2 10 3 7 4 6 5 2 6 1 7 4 8 5 9 13 11 11 13 8 15 9 16
REMARK H PARENT 5 10 13 12 11 14 9 17
REMARK Flexibility Score: inf
ROOT
ATOM      1  C   UNL     1      29.929  14.254  48.543  1.00  0.00     0.221 C 
ATOM      2  C   UNL     1      29.272  15.588  48.119  1.00  0.00     0.207 C 
ATOM      3  C   UNL     1      27.802  15.257  48.216  1.00  0.00     0.180 C 
ATOM      4  C   UNL     1      27.771  14.217  49.337  1.00  0.00     0.179 C 
ATOM      5  O   UNL     1      29.068  13.678  49.506  1.00  0.00    -0.337 OA
ENDROOT
BRANCH   1   6
ATOM      6  O   UNL     1      29.967  13.338  47.446  1.00  0.00    -0.349 OA
ATOM      7  C   UNL     1      30.965  12.340  47.546  1.00  0.00     0.198 C 
ENDBRANCH   1   6
BRANCH   1   8
ATOM      8  C   UNL     1      31.312  14.433  49.234  1.00  0.00     0.224 C 
BRANCH   8   9
ATOM      9  O   UNL     1      32.104  15.376  48.564  1.00  0.00    -0.391 OA
ATOM     10  H   UNL     1      32.586  14.877  47.855  1.00  0.00     0.210 HD
ENDBRANCH   8   9
ENDBRANCH   1   8
BRANCH   2  11
ATOM     11  O   UNL     1      29.624  16.659  48.969  1.00  0.00    -0.385 OA
ATOM     12  H   UNL     1      30.450  16.411  49.462  1.00  0.00     0.211 HD
ENDBRANCH   2  11
BRANCH   3  13
ATOM     13  O   UNL     1      27.022  16.378  48.542  1.00  0.00    -0.387 OA
ATOM     14  H   UNL     1      27.504  17.169  48.183  1.00  0.00     0.211 HD
ENDBRANCH   3  13
BRANCH   4  15
ATOM     15  C   UNL     1      26.773  13.084  49.064  1.00  0.00     0.191 C 
BRANCH  15  16
ATOM     16  O   UNL     1      25.693  13.549  48.301  1.00  0.00    -0.394 OA
ATOM     17  H   UNL     1      25.701  14.539  48.363  1.00  0.00     0.210 HD
ENDBRANCH  15  16
ENDBRANCH   4  15
TORSDOF 7
ENDMDL
MODEL 4
REMARK VINA RESULT:    -2.876     15.120     16.940
REMARK INTER + INTRA:          -4.064
REMARK INTER:                  -3.965
REMARK INTRA:                  -0.099
REMARK UNBOUND:                -0.347
REMARK SMILES CO[C@]1(CO)O[C@H](CO)[C@@H](O)[C@H]1O
REMARK SMILES IDX 3 1 12 2 10 3 7 4 6 5 2 6 1 7 4 8 5 9 13 11 11 13 8 15 9 16
REMARK H PARENT 5 10 13 12 11 14 9 17
REMARK Flexibility Score: inf
ROOT
ATOM      1  C   UNL     1      30.213  13.910  48.314  1.00  0.00     0.221 C 
ATOM      2  C   UNL     1      29.353  14.205  49.566  1.00  0.00     0.207 C 
ATOM      3  C   UNL     1      28.822  15.585  49.261  1.00  0.00     0.180 C 
ATOM      4  C   UNL     1      28.741  15.579  47.734  1.00  0.00     0.179 C 
ATOM      5  O   UNL     1      29.563  14.544  47.230  1.00  0.00    -0.337 OA
ENDROOT
BRANCH   1   6
ATOM      6  O   UNL     1      31.497  14.530  48.426  1.00  0.00    -0.349 OA
ATOM      7  C   UNL     1      32.120  14.371  49.685  1.00  0.00     0.198 C 
ENDBRANCH   1   6
BRANCH   1   8
ATOM      8  C   UNL     1      30.297  12.397  47.960  1.00  0.00     0.224 C 
BRANCH   8   9
ATOM      9  O   UNL     1      31.393  12.121  47.130  1.00  0.00    -0.391 OA
ATOM     10  H   UNL     1      32.202  12.280  47.681  1.00  0.00     0.210 HD
ENDBRANCH   8   9
ENDBRANCH   1   8
BRANCH   2  11
ATOM     11  O   UNL     1      28.309  13.270  49.737  1.00  0.00    -0.385 OA
ATOM     12  H   UNL     1      28.711  12.375  49.895  1.00  0.00     0.211 HD
ENDBRANCH   2  11
BRANCH   3  13
ATOM     13  O   UNL     1      27.561  15.812  49.836  1.00  0.00    -0.387 OA
ATOM     14  H   UNL     1      27.719  15.974  50.803  1.00  0.00     0.211 HD
ENDBRANCH   3  13
BRANCH   4  15
ATOM     15  C   UNL     1      29.161  16.919  47.115  1.00  0.00     0.191 C 
BRANCH  15  16
ATOM     16  O   UNL     1      28.751  16.994  45.776  1.00  0.00    -0.394 OA
ATOM     17  H   UNL     1      28.448  16.086  45.515  1.00  0.00     0.210 HD
ENDBRANCH  15  16
ENDBRANCH   4  15
TORSDOF 7
ENDMDL
MODEL 5
REMARK VINA RESULT:    -2.812     15.302     17.123
REMARK INTER + INTRA:          -3.981
REMARK INTER:                  -3.392
REMARK INTRA:                  -0.589
REMARK UNBOUND:                -0.347
REMARK SMILES CO[C@]1(CO)O[C@H](CO)[C@@H](O)[C@H]1O
REMARK SMILES IDX 3 1 12 2 10 3 7 4 6 5 2 6 1 7 4 8 5 9 13 11 11 13 8 15 9 16
REMARK H PARENT 5 10 13 12 11 14 9 17
REMARK Flexibility Score: inf
ROOT
ATOM      1  C   UNL     1      28.866  15.268  48.173  1.00  0.00     0.221 C 
ATOM      2  C   UNL     1      29.029  13.857  47.561  1.00  0.00     0.207 C 
ATOM      3  C   UNL     1      30.475  13.549  47.867  1.00  0.00     0.180 C 
ATOM      4  C   UNL     1      30.708  14.317  49.169  1.00  0.00     0.179 C 
ATOM      5  O   UNL     1      29.704  15.304  49.311  1.00  0.00    -0.337 OA
ENDROOT
BRANCH   1   6
ATOM      6  O   UNL     1      29.365  16.267  47.279  1.00  0.00    -0.349 OA
ATOM      7  C   UNL     1      28.406  17.221  46.868  1.00  0.00     0.198 C 
ENDBRANCH   1   6
BRANCH   1   8
ATOM      8  C   UNL     1      27.423  15.565  48.674  1.00  0.00     0.224 C 
BRANCH   8   9
ATOM      9  O   UNL     1      27.192  15.009  49.939  1.00  0.00    -0.391 OA
ATOM     10  H   UNL     1      27.316  14.030  49.838  1.00  0.00     0.210 HD
ENDBRANCH   8   9
ENDBRANCH   1   8
BRANCH   2  11
ATOM     11  O   UNL     1      28.159  12.910  48.144  1.00  0.00    -0.385 OA
ATOM     12  H   UNL     1      28.707  12.227  48.613  1.00  0.00     0.211 HD
ENDBRANCH   2  11
BRANCH   3  13
ATOM     13  O   UNL     1      30.704  12.174  48.042  1.00  0.00    -0.387 OA
ATOM     14  H   UNL     1      31.689  12.057  48.082  1.00  0.00     0.211 HD
ENDBRANCH   3  13
BRANCH   4  15
ATOM     15  C   UNL     1      32.092  14.978  49.225  1.00  0.00     0.191 C 
BRANCH  15  16
ATOM     16  O   UNL     1      32.122  16.132  48.430  1.00  0.00    -0.394 OA
ATOM     17  H   UNL     1      31.357  16.697  48.712  1.00  0.00     0.210 HD
ENDBRANCH  15  16
ENDBRANCH   4  15
TORSDOF 7
ENDMDL
MODEL 6
REMARK VINA RESULT:    -2.322     16.212     18.046
REMARK INTER + INTRA:          -3.347
REMARK INTER:                  -3.088
REMARK INTRA:                  -0.259
REMARK UNBOUND:                -0.347
REMARK SMILES CO[C@]1(CO)O[C@H](CO)[C@@H](O)[C@H]1O
REMARK SMILES IDX 3 1 12 2 10 3 7 4 6 5 2 6 1 7 4 8 5 9 13 11 11 13 8 15 9 16
REMARK H PARENT 5 10 13 12 11 14 9 17
REMARK Flexibility Score: inf
ROOT
ATOM      1  C   UNL     1      28.950  14.997  48.740  1.00  0.00     0.221 C 
ATOM      2  C   UNL     1      29.547  15.930  47.660  1.00  0.00     0.207 C 
ATOM      3  C   UNL     1      28.343  16.745  47.252  1.00  0.00     0.180 C 
ATOM      4  C   UNL     1      27.520  16.787  48.540  1.00  0.00     0.179 C 
ATOM      5  O   UNL     1      27.946  15.745  49.397  1.00  0.00    -0.337 OA
ENDROOT
BRANCH   1   6
ATOM      6  O   UNL     1      28.285  13.885  48.135  1.00  0.00    -0.349 OA
ATOM      7  C   UNL     1      29.034  13.225  47.133  1.00  0.00     0.198 C 
ENDBRANCH   1   6
BRANCH   1   8
ATOM      8  C   UNL     1      29.975  14.573  49.831  1.00  0.00     0.224 C 
BRANCH   8   9
ATOM      9  O   UNL     1      31.254  14.379  49.290  1.00  0.00    -0.391 OA
ATOM     10  H   UNL     1      31.695  13.698  49.861  1.00  0.00     0.210 HD
ENDBRANCH   8   9
ENDBRANCH   1   8
BRANCH   2  11
ATOM     11  O   UNL     1      30.584  16.745  48.163  1.00  0.00    -0.385 OA
ATOM     12  H   UNL     1      30.335  17.696  48.017  1.00  0.00     0.211 HD
ENDBRANCH   2  11
BRANCH   3  13
ATOM     13  O   UNL     1      28.692  18.038  46.830  1.00  0.00    -0.387 OA
ATOM     14  H   UNL     1      27.848  18.478  46.546  1.00  0.00     0.211 HD
ENDBRANCH   3  13
BRANCH   4  15
ATOM     15  C   UNL     1      26.013  16.659  48.282  1.00  0.00     0.191 C 
BRANCH  15  16
ATOM     16  O   UNL     1      25.445  17.917  48.033  1.00  0.00    -0.394 OA
ATOM     17  H   UNL     1      25.632  18.481  48.828  1.00  0.00     0.210 HD
ENDBRANCH  15  16
ENDBRANCH   4  15
TORSDOF 7
ENDMDL
MODEL 7
REMARK VINA RESULT:    -2.202     15.940     17.596
REMARK INTER + INTRA:          -3.192
REMARK INTER:                  -2.651
REMARK INTRA:                  -0.541
REMARK UNBOUND:                -0.347
REMARK SMILES CO[C@]1(CO)O[C@H](CO)[C@@H](O)[C@H]1O
REMARK SMILES IDX 3 1 12 2 10 3 7 4 6 5 2 6 1 7 4 8 5 9 13 11 11 13 8 15 9 16
REMARK H PARENT 5 10 13 12 11 14 9 17
REMARK Flexibility Score: inf
ROOT
ATOM      1  C   UNL     1      26.776  14.453  49.044  1.00  0.00     0.221 C 
ATOM      2  C   UNL     1      27.904  13.837  48.182  1.00  0.00     0.207 C 
ATOM      3  C   UNL     1      29.014  14.847  48.353  1.00  0.00     0.180 C 
ATOM      4  C   UNL     1      28.750  15.393  49.757  1.00  0.00     0.179 C 
ATOM      5  O   UNL     1      27.416  15.103  50.125  1.00  0.00    -0.337 OA
ENDROOT
BRANCH   1   6
ATOM      6  O   UNL     1      26.086  15.474  48.318  1.00  0.00    -0.349 OA
ATOM      7  C   UNL     1      24.820  15.818  48.846  1.00  0.00     0.198 C 
ENDBRANCH   1   6
BRANCH   1   8
ATOM      8  C   UNL     1      25.820  13.394  49.664  1.00  0.00     0.224 C 
BRANCH   8   9
ATOM      9  O   UNL     1      25.357  12.489  48.699  1.00  0.00    -0.391 OA
ATOM     10  H   UNL     1      25.928  11.681  48.782  1.00  0.00     0.210 HD
ENDBRANCH   8   9
ENDBRANCH   1   8
BRANCH   2  11
ATOM     11  O   UNL     1      28.290  12.556  48.631  1.00  0.00    -0.385 OA
ATOM     12  H   UNL     1      28.265  12.550  49.624  1.00  0.00     0.211 HD
ENDBRANCH   2  11
BRANCH   3  13
ATOM     13  O   UNL     1      30.287  14.261  48.267  1.00  0.00    -0.387 OA
ATOM     14  H   UNL     1      30.746  14.698  47.503  1.00  0.00     0.211 HD
ENDBRANCH   3  13
BRANCH   4  15
ATOM     15  C   UNL     1      28.996  16.905  49.858  1.00  0.00     0.191 C 
BRANCH  15  16
ATOM     16  O   UNL     1      27.784  17.608  49.803  1.00  0.00    -0.394 OA
ATOM     17  H   UNL     1      27.259  17.340  50.602  1.00  0.00     0.210 HD
ENDBRANCH  15  16
ENDBRANCH   4  15
TORSDOF 7
ENDMDL
MODEL 8
REMARK VINA RESULT:    -2.197     16.503     18.327
REMARK INTER + INTRA:          -3.187
REMARK INTER:                  -2.773
REMARK INTRA:                  -0.414
REMARK UNBOUND:                -0.347
REMARK SMILES CO[C@]1(CO)O[C@H](CO)[C@@H](O)[C@H]1O
REMARK SMILES IDX 3 1 12 2 10 3 7 4 6 5 2 6 1 7 4 8 5 9 13 11 11 13 8 15 9 16
REMARK H PARENT 5 10 13 12 11 14 9 17
REMARK Flexibility Score: inf
ROOT
ATOM      1  C   UNL     1      27.761  14.931  48.967  1.00  0.00     0.221 C 
ATOM      2  C   UNL     1      26.666  16.021  49.046  1.00  0.00     0.207 C 
ATOM      3  C   UNL     1      27.372  17.217  48.455  1.00  0.00     0.180 C 
ATOM      4  C   UNL     1      28.341  16.572  47.464  1.00  0.00     0.179 C 
ATOM      5  O   UNL     1      28.510  15.208  47.800  1.00  0.00    -0.337 OA
ENDROOT
BRANCH   1   6
ATOM      6  O   UNL     1      28.673  15.051  50.062  1.00  0.00    -0.349 OA
ATOM      7  C   UNL     1      29.770  14.160  50.015  1.00  0.00     0.198 C 
ENDBRANCH   1   6
BRANCH   1   8
ATOM      8  C   UNL     1      27.195  13.492  48.802  1.00  0.00     0.224 C 
BRANCH   8   9
ATOM      9  O   UNL     1      26.130  13.252  49.681  1.00  0.00    -0.391 OA
ATOM     10  H   UNL     1      25.376  12.933  49.121  1.00  0.00     0.210 HD
ENDBRANCH   8   9
ENDBRANCH   1   8
BRANCH   2  11
ATOM     11  O   UNL     1      25.510  15.681  48.311  1.00  0.00    -0.385 OA
ATOM     12  H   UNL     1      24.727  16.122  48.734  1.00  0.00     0.211 HD
ENDBRANCH   2  11
BRANCH   3  13
ATOM     13  O   UNL     1      26.488  18.092  47.804  1.00  0.00    -0.387 OA
ATOM     14  H   UNL     1      25.593  17.938  48.206  1.00  0.00     0.211 HD
ENDBRANCH   3  13
BRANCH   4  15
ATOM     15  C   UNL     1      29.709  17.268  47.435  1.00  0.00     0.191 C 
BRANCH  15  16
ATOM     16  O   UNL     1      29.810  18.116  46.323  1.00  0.00    -0.394 OA
ATOM     17  H   UNL     1      28.954  18.042  45.826  1.00  0.00     0.210 HD
ENDBRANCH  15  16
ENDBRANCH   4  15
TORSDOF 7
ENDMDL
