MODEL 1
REMARK VINA RESULT:    -4.505      0.000      0.000
REMARK INTER + INTRA:          -4.897
REMARK INTER:                  -4.768
REMARK INTRA:                  -0.129
REMARK UNBOUND:                -0.129
REMARK SMILES C=C(C)[C@H]1CC=C(C)CC1
REMARK SMILES IDX 8 1 7 2 6 3 5 4 4 5 10 6 9 7 2 8 1 9 3 10
REMARK H PARENT
REMARK Flexibility Score: inf
ROOT
ATOM      1  C   UNL     1      17.131  14.712  36.329  1.00  0.00     0.039 C 
ATOM      2  C   UNL     1      15.664  14.482  36.566  1.00  0.00    -0.077 C 
ATOM      3  C   UNL     1      15.197  13.215  36.600  1.00  0.00    -0.027 C 
ATOM      4  C   UNL     1      13.735  12.884  36.778  1.00  0.00     0.035 C 
ATOM      5  C   UNL     1      12.957  14.026  37.453  1.00  0.00     0.018 C 
ATOM      6  C   UNL     1      13.284  15.359  36.762  1.00  0.00     0.013 C 
ATOM      7  C   UNL     1      14.780  15.671  36.892  1.00  0.00     0.031 C 
ENDROOT
BRANCH   5   8
ATOM      8  C   UNL     1      11.459  13.752  37.470  1.00  0.00    -0.077 C 
ATOM      9  C   UNL     1      10.899  12.875  36.619  1.00  0.00     0.008 C 
ATOM     10  C   UNL     1      10.569  14.472  38.450  1.00  0.00     0.039 C 
ENDBRANCH   5   8
TORSDOF 1
ENDMDL
MODEL 2
REMARK VINA RESULT:    -4.267      1.153      4.604
REMARK INTER + INTRA:          -4.645
REMARK INTER:                  -4.516
REMARK INTRA:                  -0.129
REMARK UNBOUND:                -0.129
REMARK SMILES C=C(C)[C@H]1CC=C(C)CC1
REMARK SMILES IDX 8 1 7 2 6 3 5 4 4 5 10 6 9 7 2 8 1 9 3 10
REMARK H PARENT
REMARK Flexibility Score: inf
ROOT
ATOM      1  C   UNL     1       9.373  15.698  39.027  1.00  0.00     0.039 C 
ATOM      2  C   UNL     1      10.663  15.299  38.364  1.00  0.00    -0.077 C 
ATOM      3  C   UNL     1      11.608  16.239  38.149  1.00  0.00    -0.027 C 
ATOM      4  C   UNL     1      12.911  15.948  37.444  1.00  0.00     0.035 C 
ATOM      5  C   UNL     1      13.285  14.457  37.505  1.00  0.00     0.018 C 
ATOM      6  C   UNL     1      12.076  13.599  37.105  1.00  0.00     0.013 C 
ATOM      7  C   UNL     1      10.915  13.830  38.079  1.00  0.00     0.031 C 
ENDROOT
BRANCH   5   8
ATOM      8  C   UNL     1      14.505  14.149  36.647  1.00  0.00    -0.077 C 
ATOM      9  C   UNL     1      14.879  12.883  36.391  1.00  0.00     0.008 C 
ATOM     10  C   UNL     1      15.326  15.273  36.068  1.00  0.00     0.039 C 
ENDBRANCH   5   8
TORSDOF 1
ENDMDL
MODEL 3
REMARK VINA RESULT:    -4.238     14.624     15.744
REMARK INTER + INTRA:          -4.615
REMARK INTER:                  -4.486
REMARK INTRA:                  -0.128
REMARK UNBOUND:                -0.129
REMARK SMILES C=C(C)[C@H]1CC=C(C)CC1
REMARK SMILES IDX 8 1 7 2 6 3 5 4 4 5 10 6 9 7 2 8 1 9 3 10
REMARK H PARENT
REMARK Flexibility Score: inf
ROOT
ATOM      1  C   UNL     1       5.051  19.158  22.503  1.00  0.00     0.039 C 
ATOM      2  C   UNL     1       6.485  19.139  22.956  1.00  0.00    -0.077 C 
ATOM      3  C   UNL     1       7.425  18.626  22.133  1.00  0.00    -0.027 C 
ATOM      4  C   UNL     1       8.880  18.513  22.519  1.00  0.00     0.035 C 
ATOM      5  C   UNL     1       9.266  19.501  23.633  1.00  0.00     0.018 C 
ATOM      6  C   UNL     1       8.241  19.425  24.774  1.00  0.00     0.013 C 
ATOM      7  C   UNL     1       6.848  19.815  24.264  1.00  0.00     0.031 C 
ENDROOT
BRANCH   5   8
ATOM      8  C   UNL     1      10.685  19.260  24.131  1.00  0.00    -0.077 C 
ATOM      9  C   UNL     1      11.668  18.894  23.290  1.00  0.00     0.008 C 
ATOM     10  C   UNL     1      11.011  19.424  25.593  1.00  0.00     0.039 C 
ENDBRANCH   5   8
TORSDOF 1
ENDMDL
MODEL 4
REMARK VINA RESULT:    -4.173     13.430     14.212
REMARK INTER + INTRA:          -4.546
REMARK INTER:                  -4.422
REMARK INTRA:                  -0.124
REMARK UNBOUND:                -0.129
REMARK SMILES C=C(C)[C@H]1CC=C(C)CC1
REMARK SMILES IDX 8 1 7 2 6 3 5 4 4 5 10 6 9 7 2 8 1 9 3 10
REMARK H PARENT
REMARK Flexibility Score: inf
ROOT
ATOM      1  C   UNL     1      11.084  19.021  27.511  1.00  0.00     0.039 C 
ATOM      2  C   UNL     1       9.940  19.209  26.552  1.00  0.00    -0.077 C 
ATOM      3  C   UNL     1      10.207  19.510  25.263  1.00  0.00    -0.027 C 
ATOM      4  C   UNL     1       9.129  19.770  24.239  1.00  0.00     0.035 C 
ATOM      5  C   UNL     1       7.786  19.133  24.635  1.00  0.00     0.018 C 
ATOM      6  C   UNL     1       7.452  19.482  26.093  1.00  0.00     0.013 C 
ATOM      7  C   UNL     1       8.529  18.924  27.032  1.00  0.00     0.031 C 
ENDROOT
BRANCH   5   8
ATOM      8  C   UNL     1       6.668  19.546  23.686  1.00  0.00    -0.077 C 
ATOM      9  C   UNL     1       6.012  20.709  23.841  1.00  0.00     0.008 C 
ATOM     10  C   UNL     1       6.271  18.643  22.546  1.00  0.00     0.039 C 
ENDBRANCH   5   8
TORSDOF 1
ENDMDL
MODEL 5
REMARK VINA RESULT:    -4.090      1.263      4.461
REMARK INTER + INTRA:          -4.459
REMARK INTER:                  -4.333
REMARK INTRA:                  -0.125
REMARK UNBOUND:                -0.129
REMARK SMILES C=C(C)[C@H]1CC=C(C)CC1
REMARK SMILES IDX 8 1 7 2 6 3 5 4 4 5 10 6 9 7 2 8 1 9 3 10
REMARK H PARENT
REMARK Flexibility Score: inf
ROOT
ATOM      1  C   UNL     1       9.844  15.156  38.659  1.00  0.00     0.039 C 
ATOM      2  C   UNL     1      11.274  15.260  38.207  1.00  0.00    -0.077 C 
ATOM      3  C   UNL     1      11.904  14.151  37.764  1.00  0.00    -0.027 C 
ATOM      4  C   UNL     1      13.353  14.142  37.340  1.00  0.00     0.035 C 
ATOM      5  C   UNL     1      13.850  15.541  36.936  1.00  0.00     0.018 C 
ATOM      6  C   UNL     1      13.449  16.566  38.008  1.00  0.00     0.013 C 
ATOM      7  C   UNL     1      11.922  16.630  38.137  1.00  0.00     0.031 C 
ENDROOT
BRANCH   5   8
ATOM      8  C   UNL     1      15.350  15.551  36.678  1.00  0.00    -0.077 C 
ATOM      9  C   UNL     1      15.905  14.763  35.741  1.00  0.00     0.008 C 
ATOM     10  C   UNL     1      16.250  16.454  37.483  1.00  0.00     0.039 C 
ENDBRANCH   5   8
TORSDOF 1
ENDMDL
MODEL 6
REMARK VINA RESULT:    -4.041     15.272     16.008
REMARK INTER + INTRA:          -4.406
REMARK INTER:                  -4.282
REMARK INTRA:                  -0.124
REMARK UNBOUND:                -0.129
REMARK SMILES C=C(C)[C@H]1CC=C(C)CC1
REMARK SMILES IDX 8 1 7 2 6 3 5 4 4 5 10 6 9 7 2 8 1 9 3 10
REMARK H PARENT
REMARK Flexibility Score: inf
ROOT
ATOM      1  C   UNL     1      10.860  19.402  24.959  1.00  0.00     0.039 C 
ATOM      2  C   UNL     1       9.537  19.332  24.248  1.00  0.00    -0.077 C 
ATOM      3  C   UNL     1       8.415  19.678  24.916  1.00  0.00    -0.027 C 
ATOM      4  C   UNL     1       7.036  19.590  24.308  1.00  0.00     0.035 C 
ATOM      5  C   UNL     1       7.076  19.619  22.770  1.00  0.00     0.018 C 
ATOM      6  C   UNL     1       8.123  18.619  22.257  1.00  0.00     0.013 C 
ATOM      7  C   UNL     1       9.517  19.002  22.767  1.00  0.00     0.031 C 
ENDROOT
BRANCH   5   8
ATOM      8  C   UNL     1       5.701  19.356  22.169  1.00  0.00    -0.077 C 
ATOM      9  C   UNL     1       5.134  18.138  22.226  1.00  0.00     0.008 C 
ATOM     10  C   UNL     1       4.948  20.469  21.487  1.00  0.00     0.039 C 
ENDBRANCH   5   8
TORSDOF 1
ENDMDL
MODEL 7
REMARK VINA RESULT:    -4.028     15.215     16.414
REMARK INTER + INTRA:          -4.393
REMARK INTER:                  -4.272
REMARK INTRA:                  -0.121
REMARK UNBOUND:                -0.129
REMARK SMILES C=C(C)[C@H]1CC=C(C)CC1
REMARK SMILES IDX 8 1 7 2 6 3 5 4 4 5 10 6 9 7 2 8 1 9 3 10
REMARK H PARENT
REMARK Flexibility Score: inf
ROOT
ATOM      1  C   UNL     1       4.192  19.460  21.057  1.00  0.00     0.039 C 
ATOM      2  C   UNL     1       5.251  19.492  22.125  1.00  0.00    -0.077 C 
ATOM      3  C   UNL     1       5.342  20.576  22.925  1.00  0.00    -0.027 C 
ATOM      4  C   UNL     1       6.403  20.725  23.988  1.00  0.00     0.035 C 
ATOM      5  C   UNL     1       6.974  19.369  24.436  1.00  0.00     0.018 C 
ATOM      6  C   UNL     1       7.343  18.527  23.204  1.00  0.00     0.013 C 
ATOM      7  C   UNL     1       6.095  18.253  22.356  1.00  0.00     0.031 C 
ENDROOT
BRANCH   5   8
ATOM      8  C   UNL     1       8.158  19.541  25.377  1.00  0.00    -0.077 C 
ATOM      9  C   UNL     1       8.044  19.304  26.696  1.00  0.00     0.008 C 
ATOM     10  C   UNL     1       9.493  19.990  24.840  1.00  0.00     0.039 C 
ENDBRANCH   5   8
TORSDOF 1
ENDMDL
MODEL 8
REMARK VINA RESULT:    -3.982      1.197      2.270
REMARK INTER + INTRA:          -4.343
REMARK INTER:                  -4.216
REMARK INTRA:                  -0.127
REMARK UNBOUND:                -0.129
REMARK SMILES C=C(C)[C@H]1CC=C(C)CC1
REMARK SMILES IDX 8 1 7 2 6 3 5 4 4 5 10 6 9 7 2 8 1 9 3 10
REMARK H PARENT
REMARK Flexibility Score: inf
ROOT
ATOM      1  C   UNL     1      16.360  14.724  36.111  1.00  0.00     0.039 C 
ATOM      2  C   UNL     1      14.999  14.891  36.729  1.00  0.00    -0.077 C 
ATOM      3  C   UNL     1      14.598  16.124  37.107  1.00  0.00    -0.027 C 
ATOM      4  C   UNL     1      13.274  16.385  37.784  1.00  0.00     0.035 C 
ATOM      5  C   UNL     1      12.246  15.278  37.499  1.00  0.00     0.018 C 
ATOM      6  C   UNL     1      12.883  13.900  37.736  1.00  0.00     0.013 C 
ATOM      7  C   UNL     1      14.069  13.693  36.786  1.00  0.00     0.031 C 
ENDROOT
BRANCH   5   8
ATOM      8  C   UNL     1      10.978  15.463  38.323  1.00  0.00    -0.077 C 
ATOM      9  C   UNL     1      10.463  14.456  39.050  1.00  0.00     0.008 C 
ATOM     10  C   UNL     1      10.270  16.793  38.332  1.00  0.00     0.039 C 
ENDBRANCH   5   8
TORSDOF 1
ENDMDL
MODEL 9
REMARK VINA RESULT:    -3.963     12.969     13.715
REMARK INTER + INTRA:          -4.323
REMARK INTER:                  -4.201
REMARK INTRA:                  -0.122
REMARK UNBOUND:                -0.129
REMARK SMILES C=C(C)[C@H]1CC=C(C)CC1
REMARK SMILES IDX 8 1 7 2 6 3 5 4 4 5 10 6 9 7 2 8 1 9 3 10
REMARK H PARENT
REMARK Flexibility Score: inf
ROOT
ATOM      1  C   UNL     1      11.911  19.202  27.768  1.00  0.00     0.039 C 
ATOM      2  C   UNL     1      10.784  19.241  26.773  1.00  0.00    -0.077 C 
ATOM      3  C   UNL     1       9.515  19.100  27.212  1.00  0.00    -0.027 C 
ATOM      4  C   UNL     1       8.323  19.071  26.286  1.00  0.00     0.035 C 
ATOM      5  C   UNL     1       8.616  19.752  24.939  1.00  0.00     0.018 C 
ATOM      6  C   UNL     1       9.946  19.233  24.370  1.00  0.00     0.013 C 
ATOM      7  C   UNL     1      11.098  19.569  25.324  1.00  0.00     0.031 C 
ENDROOT
BRANCH   5   8
ATOM      8  C   UNL     1       7.470  19.565  23.954  1.00  0.00    -0.077 C 
ATOM      9  C   UNL     1       6.385  20.359  23.985  1.00  0.00     0.008 C 
ATOM     10  C   UNL     1       7.532  18.471  22.920  1.00  0.00     0.039 C 
ENDBRANCH   5   8
TORSDOF 1
ENDMDL
