MODEL 1
REMARK VINA RESULT:    -5.028      0.000      0.000
REMARK INTER + INTRA:          -6.916
REMARK INTER:                  -6.645
REMARK INTRA:                  -0.271
REMARK UNBOUND:                -0.271
REMARK SMILES C=C[C@H](O)CCCCC
REMARK SMILES IDX 6 1 7 2 8 3 9 4 5 5 3 6 2 7 1 8 4 9
REMARK H PARENT 4 10
REMARK Flexibility Score: inf
ROOT
ATOM      1  C   UNL     1     133.925 132.467 137.372  1.00  0.00     0.003 C 
ENDROOT
BRANCH   1   2
ATOM      2  C   UNL     1     132.454 132.631 137.783  1.00  0.00    -0.000 C 
BRANCH   2   3
ATOM      3  C   UNL     1     131.552 131.528 137.209  1.00  0.00    -0.003 C 
ATOM      4  C   UNL     1     131.929 130.134 137.711  1.00  0.00     0.004 C 
ENDBRANCH   2   3
ENDBRANCH   1   2
BRANCH   1   5
ATOM      5  C   UNL     1     134.618 133.835 137.257  1.00  0.00     0.036 C 
BRANCH   5   6
ATOM      6  C   UNL     1     135.418 134.214 138.518  1.00  0.00     0.136 C 
BRANCH   6   7
ATOM      7  C   UNL     1     134.731 135.300 139.315  1.00  0.00    -0.004 C 
ATOM      8  C   UNL     1     133.682 135.971 138.829  1.00  0.00     0.007 C 
ENDBRANCH   6   7
BRANCH   6   9
ATOM      9  O   UNL     1     136.706 134.633 138.149  1.00  0.00    -0.389 OA
ATOM     10  H   UNL     1     136.592 135.331 137.451  1.00  0.00     0.211 HD
ENDBRANCH   6   9
ENDBRANCH   5   6
ENDBRANCH   1   5
TORSDOF 6
ENDMDL
MODEL 2
REMARK VINA RESULT:    -4.759      1.466      2.401
REMARK INTER + INTRA:          -6.560
REMARK INTER:                  -6.394
REMARK INTRA:                  -0.166
REMARK UNBOUND:                -0.271
REMARK SMILES C=C[C@H](O)CCCCC
REMARK SMILES IDX 6 1 7 2 8 3 9 4 5 5 3 6 2 7 1 8 4 9
REMARK H PARENT 4 10
REMARK Flexibility Score: inf
ROOT
ATOM      1  C   UNL     1     133.373 134.710 138.793  1.00  0.00     0.003 C 
ENDROOT
BRANCH   1   2
ATOM      2  C   UNL     1     133.519 133.503 137.854  1.00  0.00    -0.000 C 
BRANCH   2   3
ATOM      3  C   UNL     1     132.217 132.701 137.714  1.00  0.00    -0.003 C 
ATOM      4  C   UNL     1     132.452 131.265 137.246  1.00  0.00     0.004 C 
ENDBRANCH   2   3
ENDBRANCH   1   2
BRANCH   1   5
ATOM      5  C   UNL     1     134.749 135.207 139.266  1.00  0.00     0.036 C 
BRANCH   5   6
ATOM      6  C   UNL     1     135.873 134.178 139.039  1.00  0.00     0.136 C 
BRANCH   6   7
ATOM      7  C   UNL     1     136.634 133.886 140.312  1.00  0.00    -0.004 C 
ATOM      8  C   UNL     1     137.953 133.668 140.308  1.00  0.00     0.007 C 
ENDBRANCH   6   7
BRANCH   6   9
ATOM      9  O   UNL     1     136.752 134.653 138.053  1.00  0.00    -0.389 OA
ATOM     10  H   UNL     1     137.551 135.005 138.526  1.00  0.00     0.211 HD
ENDBRANCH   6   9
ENDBRANCH   5   6
ENDBRANCH   1   5
TORSDOF 6
ENDMDL
MODEL 3
REMARK VINA RESULT:    -4.629      1.659      4.600
REMARK INTER + INTRA:          -6.389
REMARK INTER:                  -6.117
REMARK INTRA:                  -0.272
REMARK UNBOUND:                -0.271
REMARK SMILES C=C[C@H](O)CCCCC
REMARK SMILES IDX 6 1 7 2 8 3 9 4 5 5 3 6 2 7 1 8 4 9
REMARK H PARENT 4 10
REMARK Flexibility Score: inf
ROOT
ATOM      1  C   UNL     1     134.645 133.890 137.372  1.00  0.00     0.003 C 
ENDROOT
BRANCH   1   2
ATOM      2  C   UNL     1     135.416 134.089 138.686  1.00  0.00    -0.000 C 
BRANCH   2   3
ATOM      3  C   UNL     1     134.741 135.106 139.619  1.00  0.00    -0.003 C 
ATOM      4  C   UNL     1     133.887 136.125 138.866  1.00  0.00     0.004 C 
ENDBRANCH   2   3
ENDBRANCH   1   2
BRANCH   1   5
ATOM      5  C   UNL     1     133.995 132.497 137.323  1.00  0.00     0.036 C 
BRANCH   5   6
ATOM      6  C   UNL     1     132.526 132.500 137.786  1.00  0.00     0.136 C 
BRANCH   6   7
ATOM      7  C   UNL     1     131.757 131.324 137.229  1.00  0.00    -0.004 C 
ATOM      8  C   UNL     1     131.850 130.104 137.769  1.00  0.00     0.007 C 
ENDBRANCH   6   7
BRANCH   6   9
ATOM      9  O   UNL     1     131.913 133.701 137.396  1.00  0.00    -0.389 OA
ATOM     10  H   UNL     1     131.248 133.470 136.695  1.00  0.00     0.211 HD
ENDBRANCH   6   9
ENDBRANCH   5   6
ENDBRANCH   1   5
TORSDOF 6
ENDMDL
MODEL 4
REMARK VINA RESULT:    -4.606      1.506      1.954
REMARK INTER + INTRA:          -6.358
REMARK INTER:                  -6.130
REMARK INTRA:                  -0.228
REMARK UNBOUND:                -0.271
REMARK SMILES C=C[C@H](O)CCCCC
REMARK SMILES IDX 6 1 7 2 8 3 9 4 5 5 3 6 2 7 1 8 4 9
REMARK H PARENT 4 10
REMARK Flexibility Score: inf
ROOT
ATOM      1  C   UNL     1     133.817 132.766 137.200  1.00  0.00     0.003 C 
ENDROOT
BRANCH   1   2
ATOM      2  C   UNL     1     133.043 131.491 136.832  1.00  0.00    -0.000 C 
BRANCH   2   3
ATOM      3  C   UNL     1     131.801 131.279 137.710  1.00  0.00    -0.003 C 
ATOM      4  C   UNL     1     131.564 129.810 138.058  1.00  0.00     0.004 C 
ENDBRANCH   2   3
ENDBRANCH   1   2
BRANCH   1   5
ATOM      5  C   UNL     1     133.075 133.564 138.285  1.00  0.00     0.036 C 
BRANCH   5   6
ATOM      6  C   UNL     1     133.905 134.734 138.847  1.00  0.00     0.136 C 
BRANCH   6   7
ATOM      7  C   UNL     1     135.369 134.609 138.493  1.00  0.00    -0.004 C 
ATOM      8  C   UNL     1     136.281 134.234 139.395  1.00  0.00     0.007 C 
ENDBRANCH   6   7
BRANCH   6   9
ATOM      9  O   UNL     1     133.752 134.790 140.242  1.00  0.00    -0.389 OA
ATOM     10  H   UNL     1     133.105 134.078 140.489  1.00  0.00     0.211 HD
ENDBRANCH   6   9
ENDBRANCH   5   6
ENDBRANCH   1   5
TORSDOF 6
ENDMDL
MODEL 5
REMARK VINA RESULT:    -4.538      2.202      4.650
REMARK INTER + INTRA:          -6.269
REMARK INTER:                  -6.019
REMARK INTRA:                  -0.250
REMARK UNBOUND:                -0.271
REMARK SMILES C=C[C@H](O)CCCCC
REMARK SMILES IDX 6 1 7 2 8 3 9 4 5 5 3 6 2 7 1 8 4 9
REMARK H PARENT 4 10
REMARK Flexibility Score: inf
ROOT
ATOM      1  C   UNL     1     135.186 133.979 137.687  1.00  0.00     0.003 C 
ENDROOT
BRANCH   1   2
ATOM      2  C   UNL     1     136.506 134.361 138.373  1.00  0.00    -0.000 C 
BRANCH   2   3
ATOM      3  C   UNL     1     136.529 133.987 139.863  1.00  0.00    -0.003 C 
ATOM      4  C   UNL     1     137.936 133.686 140.377  1.00  0.00     0.004 C 
ENDBRANCH   2   3
ENDBRANCH   1   2
BRANCH   1   5
ATOM      5  C   UNL     1     133.984 134.309 138.589  1.00  0.00     0.036 C 
BRANCH   5   6
ATOM      6  C   UNL     1     132.741 133.455 138.274  1.00  0.00     0.136 C 
BRANCH   6   7
ATOM      7  C   UNL     1     133.097 132.202 137.507  1.00  0.00    -0.004 C 
ATOM      8  C   UNL     1     132.223 131.204 137.346  1.00  0.00     0.007 C 
ENDBRANCH   6   7
BRANCH   6   9
ATOM      9  O   UNL     1     131.820 134.220 137.541  1.00  0.00    -0.389 OA
ATOM     10  H   UNL     1     131.008 134.312 138.106  1.00  0.00     0.211 HD
ENDBRANCH   6   9
ENDBRANCH   5   6
ENDBRANCH   1   5
TORSDOF 6
ENDMDL
MODEL 6
REMARK VINA RESULT:    -4.391      2.102      2.745
REMARK INTER + INTRA:          -6.074
REMARK INTER:                  -5.972
REMARK INTRA:                  -0.102
REMARK UNBOUND:                -0.271
REMARK SMILES C=C[C@H](O)CCCCC
REMARK SMILES IDX 6 1 7 2 8 3 9 4 5 5 3 6 2 7 1 8 4 9
REMARK H PARENT 4 10
REMARK Flexibility Score: inf
ROOT
ATOM      1  C   UNL     1     131.793 131.421 137.723  1.00  0.00     0.003 C 
ENDROOT
BRANCH   1   2
ATOM      2  C   UNL     1     131.828 129.887 137.663  1.00  0.00    -0.000 C 
BRANCH   2   3
ATOM      3  C   UNL     1     131.034 129.232 138.804  1.00  0.00    -0.003 C 
ATOM      4  C   UNL     1     130.684 127.772 138.520  1.00  0.00     0.004 C 
ENDBRANCH   2   3
ENDBRANCH   1   2
BRANCH   1   5
ATOM      5  C   UNL     1     133.206 132.009 137.568  1.00  0.00     0.036 C 
BRANCH   5   6
ATOM      6  C   UNL     1     133.220 133.550 137.553  1.00  0.00     0.136 C 
BRANCH   6   7
ATOM      7  C   UNL     1     133.946 134.118 138.751  1.00  0.00    -0.004 C 
ATOM      8  C   UNL     1     133.790 135.391 139.127  1.00  0.00     0.007 C 
ENDBRANCH   6   7
BRANCH   6   9
ATOM      9  O   UNL     1     131.902 134.031 137.518  1.00  0.00    -0.389 OA
ATOM     10  H   UNL     1     131.311 133.269 137.758  1.00  0.00     0.211 HD
ENDBRANCH   6   9
ENDBRANCH   5   6
ENDBRANCH   1   5
TORSDOF 6
ENDMDL
MODEL 7
REMARK VINA RESULT:    -4.357      2.214      4.205
REMARK INTER + INTRA:          -6.030
REMARK INTER:                  -5.630
REMARK INTRA:                  -0.400
REMARK UNBOUND:                -0.271
REMARK SMILES C=C[C@H](O)CCCCC
REMARK SMILES IDX 6 1 7 2 8 3 9 4 5 5 3 6 2 7 1 8 4 9
REMARK H PARENT 4 10
REMARK Flexibility Score: inf
ROOT
ATOM      1  C   UNL     1     132.950 134.394 138.180  1.00  0.00     0.003 C 
ENDROOT
BRANCH   1   2
ATOM      2  C   UNL     1     133.499 134.592 139.602  1.00  0.00    -0.000 C 
BRANCH   2   3
ATOM      3  C   UNL     1     134.894 135.234 139.613  1.00  0.00    -0.003 C 
ATOM      4  C   UNL     1     136.021 134.201 139.613  1.00  0.00     0.004 C 
ENDBRANCH   2   3
ENDBRANCH   1   2
BRANCH   1   5
ATOM      5  C   UNL     1     132.641 132.912 137.913  1.00  0.00     0.036 C 
BRANCH   5   6
ATOM      6  C   UNL     1     133.770 132.187 137.155  1.00  0.00     0.136 C 
BRANCH   6   7
ATOM      7  C   UNL     1     134.701 133.158 136.467  1.00  0.00    -0.004 C 
ATOM      8  C   UNL     1     135.175 132.927 135.239  1.00  0.00     0.007 C 
ENDBRANCH   6   7
BRANCH   6   9
ATOM      9  O   UNL     1     133.212 131.308 136.213  1.00  0.00    -0.389 OA
ATOM     10  H   UNL     1     133.789 130.499 136.197  1.00  0.00     0.211 HD
ENDBRANCH   6   9
ENDBRANCH   5   6
ENDBRANCH   1   5
TORSDOF 6
ENDMDL
MODEL 8
REMARK VINA RESULT:    -4.321      1.447      4.344
REMARK INTER + INTRA:          -5.982
REMARK INTER:                  -5.680
REMARK INTRA:                  -0.302
REMARK UNBOUND:                -0.271
REMARK SMILES C=C[C@H](O)CCCCC
REMARK SMILES IDX 6 1 7 2 8 3 9 4 5 5 3 6 2 7 1 8 4 9
REMARK H PARENT 4 10
REMARK Flexibility Score: inf
ROOT
ATOM      1  C   UNL     1     133.292 135.231 138.505  1.00  0.00     0.003 C 
ENDROOT
BRANCH   1   2
ATOM      2  C   UNL     1     134.592 135.659 139.204  1.00  0.00    -0.000 C 
BRANCH   2   3
ATOM      3  C   UNL     1     135.338 134.476 139.838  1.00  0.00    -0.003 C 
ATOM      4  C   UNL     1     136.702 134.223 139.197  1.00  0.00     0.004 C 
ENDBRANCH   2   3
ENDBRANCH   1   2
BRANCH   1   5
ATOM      5  C   UNL     1     133.098 133.708 138.593  1.00  0.00     0.036 C 
BRANCH   5   6
ATOM      6  C   UNL     1     133.175 133.010 137.221  1.00  0.00     0.136 C 
BRANCH   6   7
ATOM      7  C   UNL     1     132.914 131.525 137.329  1.00  0.00    -0.004 C 
ATOM      8  C   UNL     1     131.683 131.041 137.524  1.00  0.00     0.007 C 
ENDBRANCH   6   7
BRANCH   6   9
ATOM      9  O   UNL     1     134.438 133.235 136.651  1.00  0.00    -0.389 OA
ATOM     10  H   UNL     1     134.379 132.952 135.701  1.00  0.00     0.211 HD
ENDBRANCH   6   9
ENDBRANCH   5   6
ENDBRANCH   1   5
TORSDOF 6
ENDMDL
MODEL 9
REMARK VINA RESULT:    -4.277      2.496      4.866
REMARK INTER + INTRA:          -5.923
REMARK INTER:                  -5.774
REMARK INTRA:                  -0.150
REMARK UNBOUND:                -0.271
REMARK SMILES C=C[C@H](O)CCCCC
REMARK SMILES IDX 6 1 7 2 8 3 9 4 5 5 3 6 2 7 1 8 4 9
REMARK H PARENT 4 10
REMARK Flexibility Score: inf
ROOT
ATOM      1  C   UNL     1     136.663 134.279 139.131  1.00  0.00     0.003 C 
ENDROOT
BRANCH   1   2
ATOM      2  C   UNL     1     137.135 133.575 140.412  1.00  0.00    -0.000 C 
BRANCH   2   3
ATOM      3  C   UNL     1     138.632 133.783 140.684  1.00  0.00    -0.003 C 
ATOM      4  C   UNL     1     139.404 132.468 140.787  1.00  0.00     0.004 C 
ENDBRANCH   2   3
ENDBRANCH   1   2
BRANCH   1   5
ATOM      5  C   UNL     1     135.191 134.707 139.250  1.00  0.00     0.036 C 
BRANCH   5   6
ATOM      6  C   UNL     1     134.372 134.415 137.978  1.00  0.00     0.136 C 
BRANCH   6   7
ATOM      7  C   UNL     1     133.093 133.674 138.289  1.00  0.00    -0.004 C 
ATOM      8  C   UNL     1     132.841 132.463 137.781  1.00  0.00     0.007 C 
ENDBRANCH   6   7
BRANCH   6   9
ATOM      9  O   UNL     1     135.152 133.671 137.079  1.00  0.00    -0.389 OA
ATOM     10  H   UNL     1     135.203 132.747 137.440  1.00  0.00     0.211 HD
ENDBRANCH   6   9
ENDBRANCH   5   6
ENDBRANCH   1   5
TORSDOF 6
ENDMDL
