MODEL 1
REMARK VINA RESULT:    -3.884      0.000      0.000
REMARK INTER + INTRA:         -10.013
REMARK INTER:                  -7.517
REMARK INTRA:                  -2.496
REMARK UNBOUND:                -2.496
REMARK SMILES CCCCCCCCCCCCCCCCCC(=O)[O-]
REMARK SMILES IDX 10 1 11 2 12 3 13 4 14 5 15 6 16 7 17 8 18 9 19 10 20 11
REMARK SMILES IDX 9 12 8 13 7 14 6 15 5 16 4 17 3 18 2 19 1 20
REMARK H PARENT
REMARK Flexibility Score: inf
ROOT
ATOM      1  C   UNL     1      20.635  12.908 -19.061  1.00  0.00     0.000 C 
ENDROOT
BRANCH   1   2
ATOM      2  C   UNL     1      19.173  13.366 -18.938  1.00  0.00     0.000 C 
BRANCH   2   3
ATOM      3  C   UNL     1      18.672  13.334 -17.486  1.00  0.00     0.000 C 
BRANCH   3   4
ATOM      4  C   UNL     1      17.873  12.053 -17.213  1.00  0.00     0.000 C 
BRANCH   4   5
ATOM      5  C   UNL     1      18.684  11.055 -16.371  1.00  0.00     0.000 C 
BRANCH   5   6
ATOM      6  C   UNL     1      19.135   9.835 -17.194  1.00  0.00     0.000 C 
BRANCH   6   7
ATOM      7  C   UNL     1      19.450   8.621 -16.304  1.00  0.00     0.006 C 
BRANCH   7   8
ATOM      8  C   UNL     1      20.107   7.495 -17.112  1.00  0.00     0.053 C 
BRANCH   8   9
ATOM      9  C   UNL     1      19.145   6.373 -17.366  1.00  0.00     0.041 C 
ATOM     10  O   UNL     1      19.450   5.194 -17.039  1.00  0.00    -0.550 OA
ATOM     11  O   UNL     1      17.940   6.612 -18.021  1.00  0.00    -0.550 OA
ENDBRANCH   8   9
ENDBRANCH   7   8
ENDBRANCH   6   7
ENDBRANCH   5   6
ENDBRANCH   4   5
ENDBRANCH   3   4
ENDBRANCH   2   3
ENDBRANCH   1   2
BRANCH   1  12
ATOM     12  C   UNL     1      21.428  13.024 -17.740  1.00  0.00     0.000 C 
BRANCH  12  13
ATOM     13  C   UNL     1      22.733  13.823 -17.889  1.00  0.00    -0.000 C 
BRANCH  13  14
ATOM     14  C   UNL     1      22.713  15.129 -17.081  1.00  0.00    -0.000 C 
BRANCH  14  15
ATOM     15  C   UNL     1      21.409  15.306 -16.285  1.00  0.00    -0.000 C 
BRANCH  15  16
ATOM     16  C   UNL     1      20.630  16.590 -16.653  1.00  0.00    -0.000 C 
BRANCH  16  17
ATOM     17  C   UNL     1      20.972  17.136 -18.049  1.00  0.00    -0.000 C 
BRANCH  17  18
ATOM     18  C   UNL     1      19.868  16.832 -19.075  1.00  0.00    -0.000 C 
BRANCH  18  19
ATOM     19  C   UNL     1      20.468  16.587 -20.465  1.00  0.00    -0.003 C 
ATOM     20  C   UNL     1      21.991  16.503 -20.402  1.00  0.00     0.004 C 
ENDBRANCH  18  19
ENDBRANCH  17  18
ENDBRANCH  16  17
ENDBRANCH  15  16
ENDBRANCH  14  15
ENDBRANCH  13  14
ENDBRANCH  12  13
ENDBRANCH   1  12
TORSDOF 16
ENDMDL
MODEL 2
REMARK VINA RESULT:    -3.743      3.813      7.056
REMARK INTER + INTRA:          -9.740
REMARK INTER:                  -6.450
REMARK INTRA:                  -3.290
REMARK UNBOUND:                -2.496
REMARK SMILES CCCCCCCCCCCCCCCCCC(=O)[O-]
REMARK SMILES IDX 10 1 11 2 12 3 13 4 14 5 15 6 16 7 17 8 18 9 19 10 20 11
REMARK SMILES IDX 9 12 8 13 7 14 6 15 5 16 4 17 3 18 2 19 1 20
REMARK H PARENT
REMARK Flexibility Score: inf
ROOT
ATOM      1  C   UNL     1      21.362  12.397 -19.270  1.00  0.00     0.000 C 
ENDROOT
BRANCH   1   2
ATOM      2  C   UNL     1      22.333  13.236 -18.426  1.00  0.00     0.000 C 
BRANCH   2   3
ATOM      3  C   UNL     1      21.893  13.337 -16.958  1.00  0.00     0.000 C 
BRANCH   3   4
ATOM      4  C   UNL     1      21.938  14.793 -16.474  1.00  0.00     0.000 C 
BRANCH   4   5
ATOM      5  C   UNL     1      20.535  15.313 -16.124  1.00  0.00     0.000 C 
BRANCH   5   6
ATOM      6  C   UNL     1      19.950  16.198 -17.238  1.00  0.00     0.000 C 
BRANCH   6   7
ATOM      7  C   UNL     1      21.034  17.031 -17.944  1.00  0.00     0.006 C 
BRANCH   7   8
ATOM      8  C   UNL     1      20.946  16.882 -19.468  1.00  0.00     0.053 C 
BRANCH   8   9
ATOM      9  C   UNL     1      22.278  16.524 -20.058  1.00  0.00     0.041 C 
ATOM     10  O   UNL     1      23.331  16.690 -19.385  1.00  0.00    -0.550 OA
ATOM     11  O   UNL     1      22.367  16.068 -21.370  1.00  0.00    -0.550 OA
ENDBRANCH   8   9
ENDBRANCH   7   8
ENDBRANCH   6   7
ENDBRANCH   5   6
ENDBRANCH   4   5
ENDBRANCH   3   4
ENDBRANCH   2   3
ENDBRANCH   1   2
BRANCH   1  12
ATOM     12  C   UNL     1      20.568  13.229 -20.302  1.00  0.00     0.000 C 
BRANCH  12  13
ATOM     13  C   UNL     1      19.212  13.717 -19.766  1.00  0.00    -0.000 C 
BRANCH  13  14
ATOM     14  C   UNL     1      18.439  12.608 -19.037  1.00  0.00    -0.000 C 
BRANCH  14  15
ATOM     15  C   UNL     1      18.050  13.009 -17.604  1.00  0.00    -0.000 C 
BRANCH  15  16
ATOM     16  C   UNL     1      17.939  11.810 -16.635  1.00  0.00    -0.000 C 
BRANCH  16  17
ATOM     17  C   UNL     1      19.263  11.051 -16.444  1.00  0.00    -0.000 C 
BRANCH  17  18
ATOM     18  C   UNL     1      19.160   9.586 -16.899  1.00  0.00    -0.000 C 
BRANCH  18  19
ATOM     19  C   UNL     1      20.299   9.234 -17.866  1.00  0.00    -0.003 C 
ATOM     20  C   UNL     1      19.772   9.026 -19.284  1.00  0.00     0.004 C 
ENDBRANCH  18  19
ENDBRANCH  17  18
ENDBRANCH  16  17
ENDBRANCH  15  16
ENDBRANCH  14  15
ENDBRANCH  13  14
ENDBRANCH  12  13
ENDBRANCH   1  12
TORSDOF 16
ENDMDL
MODEL 3
REMARK VINA RESULT:    -3.714      1.268      2.983
REMARK INTER + INTRA:          -9.684
REMARK INTER:                  -6.980
REMARK INTRA:                  -2.704
REMARK UNBOUND:                -2.496
REMARK SMILES CCCCCCCCCCCCCCCCCC(=O)[O-]
REMARK SMILES IDX 10 1 11 2 12 3 13 4 14 5 15 6 16 7 17 8 18 9 19 10 20 11
REMARK SMILES IDX 9 12 8 13 7 14 6 15 5 16 4 17 3 18 2 19 1 20
REMARK H PARENT
REMARK Flexibility Score: inf
ROOT
ATOM      1  C   UNL     1      21.826  14.522 -16.727  1.00  0.00     0.000 C 
ENDROOT
BRANCH   1   2
ATOM      2  C   UNL     1      21.050  13.241 -16.383  1.00  0.00     0.000 C 
BRANCH   2   3
ATOM      3  C   UNL     1      19.650  13.539 -15.827  1.00  0.00     0.000 C 
BRANCH   3   4
ATOM      4  C   UNL     1      18.565  13.116 -16.826  1.00  0.00     0.000 C 
BRANCH   4   5
ATOM      5  C   UNL     1      18.020  11.715 -16.504  1.00  0.00     0.000 C 
BRANCH   5   6
ATOM      6  C   UNL     1      18.497  10.661 -17.519  1.00  0.00     0.000 C 
BRANCH   6   7
ATOM      7  C   UNL     1      19.733   9.895 -17.020  1.00  0.00     0.006 C 
BRANCH   7   8
ATOM      8  C   UNL     1      19.344   8.535 -16.428  1.00  0.00     0.053 C 
BRANCH   8   9
ATOM      9  C   UNL     1      19.474   7.440 -17.445  1.00  0.00     0.041 C 
ATOM     10  O   UNL     1      18.884   6.340 -17.266  1.00  0.00    -0.550 OA
ATOM     11  O   UNL     1      20.295   7.604 -18.557  1.00  0.00    -0.550 OA
ENDBRANCH   8   9
ENDBRANCH   7   8
ENDBRANCH   6   7
ENDBRANCH   5   6
ENDBRANCH   4   5
ENDBRANCH   3   4
ENDBRANCH   2   3
ENDBRANCH   1   2
BRANCH   1  12
ATOM     12  C   UNL     1      21.108  15.814 -16.278  1.00  0.00     0.000 C 
BRANCH  12  13
ATOM     13  C   UNL     1      20.989  16.857 -17.401  1.00  0.00    -0.000 C 
BRANCH  13  14
ATOM     14  C   UNL     1      19.860  16.526 -18.388  1.00  0.00    -0.000 C 
BRANCH  14  15
ATOM     15  C   UNL     1      20.302  16.671 -19.854  1.00  0.00    -0.000 C 
BRANCH  15  16
ATOM     16  C   UNL     1      20.430  15.321 -20.597  1.00  0.00    -0.000 C 
BRANCH  16  17
ATOM     17  C   UNL     1      19.523  14.218 -20.027  1.00  0.00    -0.000 C 
BRANCH  17  18
ATOM     18  C   UNL     1      20.199  12.838 -20.063  1.00  0.00    -0.000 C 
BRANCH  18  19
ATOM     19  C   UNL     1      21.723  12.979 -20.162  1.00  0.00    -0.003 C 
ATOM     20  C   UNL     1      22.430  11.790 -19.513  1.00  0.00     0.004 C 
ENDBRANCH  18  19
ENDBRANCH  17  18
ENDBRANCH  16  17
ENDBRANCH  15  16
ENDBRANCH  14  15
ENDBRANCH  13  14
ENDBRANCH  12  13
ENDBRANCH   1  12
TORSDOF 16
ENDMDL
MODEL 4
REMARK VINA RESULT:    -3.712      2.872      5.887
REMARK INTER + INTRA:          -9.679
REMARK INTER:                  -6.690
REMARK INTRA:                  -2.989
REMARK UNBOUND:                -2.496
REMARK SMILES CCCCCCCCCCCCCCCCCC(=O)[O-]
REMARK SMILES IDX 10 1 11 2 12 3 13 4 14 5 15 6 16 7 17 8 18 9 19 10 20 11
REMARK SMILES IDX 9 12 8 13 7 14 6 15 5 16 4 17 3 18 2 19 1 20
REMARK H PARENT
REMARK Flexibility Score: inf
ROOT
ATOM      1  C   UNL     1      20.653  16.378 -19.817  1.00  0.00     0.000 C 
ENDROOT
BRANCH   1   2
ATOM      2  C   UNL     1      21.326  16.993 -18.580  1.00  0.00     0.000 C 
BRANCH   2   3
ATOM      3  C   UNL     1      20.494  16.797 -17.304  1.00  0.00     0.000 C 
BRANCH   3   4
ATOM      4  C   UNL     1      21.207  15.849 -16.330  1.00  0.00     0.000 C 
BRANCH   4   5
ATOM      5  C   UNL     1      20.286  14.700 -15.889  1.00  0.00     0.000 C 
BRANCH   5   6
ATOM      6  C   UNL     1      20.893  13.320 -16.201  1.00  0.00     0.000 C 
BRANCH   6   7
ATOM      7  C   UNL     1      22.137  13.425 -17.098  1.00  0.00     0.006 C 
BRANCH   7   8
ATOM      8  C   UNL     1      22.338  12.148 -17.923  1.00  0.00     0.053 C 
BRANCH   8   9
ATOM      9  C   UNL     1      23.709  12.099 -18.529  1.00  0.00     0.041 C 
ATOM     10  O   UNL     1      23.932  12.669 -19.631  1.00  0.00    -0.550 OA
ATOM     11  O   UNL     1      24.726  11.374 -17.915  1.00  0.00    -0.550 OA
ENDBRANCH   8   9
ENDBRANCH   7   8
ENDBRANCH   6   7
ENDBRANCH   5   6
ENDBRANCH   4   5
ENDBRANCH   3   4
ENDBRANCH   2   3
ENDBRANCH   1   2
BRANCH   1  12
ATOM     12  C   UNL     1      21.416  15.163 -20.390  1.00  0.00     0.000 C 
BRANCH  12  13
ATOM     13  C   UNL     1      20.563  13.885 -20.438  1.00  0.00    -0.000 C 
BRANCH  13  14
ATOM     14  C   UNL     1      19.228  14.046 -19.696  1.00  0.00    -0.000 C 
BRANCH  14  15
ATOM     15  C   UNL     1      18.659  12.700 -19.214  1.00  0.00    -0.000 C 
BRANCH  15  16
ATOM     16  C   UNL     1      17.780  12.819 -17.948  1.00  0.00    -0.000 C 
BRANCH  16  17
ATOM     17  C   UNL     1      17.777  11.548 -17.081  1.00  0.00    -0.000 C 
BRANCH  17  18
ATOM     18  C   UNL     1      18.528  10.388 -17.753  1.00  0.00    -0.000 C 
BRANCH  18  19
ATOM     19  C   UNL     1      19.665   9.882 -16.857  1.00  0.00    -0.003 C 
ATOM     20  C   UNL     1      19.330   8.517 -16.259  1.00  0.00     0.004 C 
ENDBRANCH  18  19
ENDBRANCH  17  18
ENDBRANCH  16  17
ENDBRANCH  15  16
ENDBRANCH  14  15
ENDBRANCH  13  14
ENDBRANCH  12  13
ENDBRANCH   1  12
TORSDOF 16
ENDMDL
MODEL 5
REMARK VINA RESULT:    -3.697      0.987      2.657
REMARK INTER + INTRA:          -9.650
REMARK INTER:                  -7.276
REMARK INTRA:                  -2.374
REMARK UNBOUND:                -2.496
REMARK SMILES CCCCCCCCCCCCCCCCCC(=O)[O-]
REMARK SMILES IDX 10 1 11 2 12 3 13 4 14 5 15 6 16 7 17 8 18 9 19 10 20 11
REMARK SMILES IDX 9 12 8 13 7 14 6 15 5 16 4 17 3 18 2 19 1 20
REMARK H PARENT
REMARK Flexibility Score: inf
ROOT
ATOM      1  C   UNL     1      19.875  14.142 -20.300  1.00  0.00     0.000 C 
ENDROOT
BRANCH   1   2
ATOM      2  C   UNL     1      18.544  13.484 -19.906  1.00  0.00     0.000 C 
BRANCH   2   3
ATOM      3  C   UNL     1      18.740  12.285 -18.967  1.00  0.00     0.000 C 
BRANCH   3   4
ATOM      4  C   UNL     1      17.834  12.405 -17.734  1.00  0.00     0.000 C 
BRANCH   4   5
ATOM      5  C   UNL     1      18.095  11.268 -16.733  1.00  0.00     0.000 C 
BRANCH   5   6
ATOM      6  C   UNL     1      19.000  10.172 -17.324  1.00  0.00     0.000 C 
BRANCH   6   7
ATOM      7  C   UNL     1      19.200   9.000 -16.349  1.00  0.00     0.006 C 
BRANCH   7   8
ATOM      8  C   UNL     1      20.159   7.952 -16.928  1.00  0.00     0.053 C 
BRANCH   8   9
ATOM      9  C   UNL     1      19.453   6.655 -17.193  1.00  0.00     0.041 C 
ATOM     10  O   UNL     1      20.097   5.571 -17.168  1.00  0.00    -0.550 OA
ATOM     11  O   UNL     1      18.103   6.643 -17.530  1.00  0.00    -0.550 OA
ENDBRANCH   8   9
ENDBRANCH   7   8
ENDBRANCH   6   7
ENDBRANCH   5   6
ENDBRANCH   4   5
ENDBRANCH   3   4
ENDBRANCH   2   3
ENDBRANCH   1   2
BRANCH   1  12
ATOM     12  C   UNL     1      19.732  15.629 -20.693  1.00  0.00     0.000 C 
BRANCH  12  13
ATOM     13  C   UNL     1      20.381  16.586 -19.680  1.00  0.00    -0.000 C 
BRANCH  13  14
ATOM     14  C   UNL     1      19.843  16.380 -18.256  1.00  0.00    -0.000 C 
BRANCH  14  15
ATOM     15  C   UNL     1      20.827  16.873 -17.181  1.00  0.00    -0.000 C 
BRANCH  15  16
ATOM     16  C   UNL     1      21.439  15.734 -16.334  1.00  0.00    -0.000 C 
BRANCH  16  17
ATOM     17  C   UNL     1      20.478  14.556 -16.103  1.00  0.00    -0.000 C 
BRANCH  17  18
ATOM     18  C   UNL     1      21.154  13.199 -16.361  1.00  0.00    -0.000 C 
BRANCH  18  19
ATOM     19  C   UNL     1      22.362  13.360 -17.293  1.00  0.00    -0.003 C 
ATOM     20  C   UNL     1      22.391  12.261 -18.352  1.00  0.00     0.004 C 
ENDBRANCH  18  19
ENDBRANCH  17  18
ENDBRANCH  16  17
ENDBRANCH  15  16
ENDBRANCH  14  15
ENDBRANCH  13  14
ENDBRANCH  12  13
ENDBRANCH   1  12
TORSDOF 16
ENDMDL
MODEL 6
REMARK VINA RESULT:    -3.674      3.742      7.068
REMARK INTER + INTRA:          -9.606
REMARK INTER:                  -6.862
REMARK INTRA:                  -2.744
REMARK UNBOUND:                -2.496
REMARK SMILES CCCCCCCCCCCCCCCCCC(=O)[O-]
REMARK SMILES IDX 10 1 11 2 12 3 13 4 14 5 15 6 16 7 17 8 18 9 19 10 20 11
REMARK SMILES IDX 9 12 8 13 7 14 6 15 5 16 4 17 3 18 2 19 1 20
REMARK H PARENT
REMARK Flexibility Score: inf
ROOT
ATOM      1  C   UNL     1      17.950  11.653 -17.441  1.00  0.00     0.000 C 
ENDROOT
BRANCH   1   2
ATOM      2  C   UNL     1      18.342  12.034 -16.005  1.00  0.00     0.000 C 
BRANCH   2   3
ATOM      3  C   UNL     1      19.723  12.703 -15.936  1.00  0.00     0.000 C 
BRANCH   3   4
ATOM      4  C   UNL     1      19.651  14.025 -15.161  1.00  0.00     0.000 C 
BRANCH   4   5
ATOM      5  C   UNL     1      20.416  15.144 -15.886  1.00  0.00     0.000 C 
BRANCH   5   6
ATOM      6  C   UNL     1      21.674  14.616 -16.600  1.00  0.00     0.000 C 
BRANCH   6   7
ATOM      7  C   UNL     1      22.278  15.660 -17.554  1.00  0.00     0.006 C 
BRANCH   7   8
ATOM      8  C   UNL     1      21.299  16.813 -17.810  1.00  0.00     0.053 C 
BRANCH   8   9
ATOM      9  C   UNL     1      20.795  16.796 -19.223  1.00  0.00     0.041 C 
ATOM     10  O   UNL     1      19.557  16.866 -19.451  1.00  0.00    -0.550 OA
ATOM     11  O   UNL     1      21.680  16.640 -20.285  1.00  0.00    -0.550 OA
ENDBRANCH   8   9
ENDBRANCH   7   8
ENDBRANCH   6   7
ENDBRANCH   5   6
ENDBRANCH   4   5
ENDBRANCH   3   4
ENDBRANCH   2   3
ENDBRANCH   1   2
BRANCH   1  12
ATOM     12  C   UNL     1      17.968  12.847 -18.420  1.00  0.00     0.000 C 
BRANCH  12  13
ATOM     13  C   UNL     1      18.785  12.570 -19.692  1.00  0.00    -0.000 C 
BRANCH  13  14
ATOM     14  C   UNL     1      20.194  13.179 -19.626  1.00  0.00    -0.000 C 
BRANCH  14  15
ATOM     15  C   UNL     1      21.298  12.123 -19.803  1.00  0.00    -0.000 C 
BRANCH  15  16
ATOM     16  C   UNL     1      21.598  11.320 -18.517  1.00  0.00    -0.000 C 
BRANCH  16  17
ATOM     17  C   UNL     1      21.640   9.799 -18.739  1.00  0.00    -0.000 C 
BRANCH  17  18
ATOM     18  C   UNL     1      20.250   9.156 -18.605  1.00  0.00    -0.000 C 
BRANCH  18  19
ATOM     19  C   UNL     1      20.262   8.047 -17.545  1.00  0.00    -0.003 C 
ATOM     20  C   UNL     1      19.475   8.463 -16.304  1.00  0.00     0.004 C 
ENDBRANCH  18  19
ENDBRANCH  17  18
ENDBRANCH  16  17
ENDBRANCH  15  16
ENDBRANCH  14  15
ENDBRANCH  13  14
ENDBRANCH  12  13
ENDBRANCH   1  12
TORSDOF 16
ENDMDL
MODEL 7
REMARK VINA RESULT:    -3.665      1.230      2.503
REMARK INTER + INTRA:          -9.588
REMARK INTER:                  -7.256
REMARK INTRA:                  -2.333
REMARK UNBOUND:                -2.496
REMARK SMILES CCCCCCCCCCCCCCCCCC(=O)[O-]
REMARK SMILES IDX 10 1 11 2 12 3 13 4 14 5 15 6 16 7 17 8 18 9 19 10 20 11
REMARK SMILES IDX 9 12 8 13 7 14 6 15 5 16 4 17 3 18 2 19 1 20
REMARK H PARENT
REMARK Flexibility Score: inf
ROOT
ATOM      1  C   UNL     1      19.934  14.037 -15.690  1.00  0.00     0.000 C 
ENDROOT
BRANCH   1   2
ATOM      2  C   UNL     1      19.281  12.650 -15.787  1.00  0.00     0.000 C 
BRANCH   2   3
ATOM      3  C   UNL     1      18.326  12.536 -16.984  1.00  0.00     0.000 C 
BRANCH   3   4
ATOM      4  C   UNL     1      18.162  11.072 -17.413  1.00  0.00     0.000 C 
BRANCH   4   5
ATOM      5  C   UNL     1      19.136  10.153 -16.658  1.00  0.00     0.000 C 
BRANCH   5   6
ATOM      6  C   UNL     1      20.122   9.450 -17.609  1.00  0.00     0.000 C 
BRANCH   6   7
ATOM      7  C   UNL     1      19.447   8.327 -18.414  1.00  0.00     0.006 C 
BRANCH   7   8
ATOM      8  C   UNL     1      18.764   7.312 -17.490  1.00  0.00     0.053 C 
BRANCH   8   9
ATOM      9  C   UNL     1      19.561   6.045 -17.388  1.00  0.00     0.041 C 
ATOM     10  O   UNL     1      18.983   4.956 -17.127  1.00  0.00    -0.550 OA
ATOM     11  O   UNL     1      20.947   6.072 -17.515  1.00  0.00    -0.550 OA
ENDBRANCH   8   9
ENDBRANCH   7   8
ENDBRANCH   6   7
ENDBRANCH   5   6
ENDBRANCH   4   5
ENDBRANCH   3   4
ENDBRANCH   2   3
ENDBRANCH   1   2
BRANCH   1  12
ATOM     12  C   UNL     1      21.339  14.101 -16.330  1.00  0.00     0.000 C 
BRANCH  12  13
ATOM     13  C   UNL     1      21.742  15.521 -16.759  1.00  0.00    -0.000 C 
BRANCH  13  14
ATOM     14  C   UNL     1      20.552  16.492 -16.754  1.00  0.00    -0.000 C 
BRANCH  14  15
ATOM     15  C   UNL     1      19.975  16.718 -18.162  1.00  0.00    -0.000 C 
BRANCH  15  16
ATOM     16  C   UNL     1      21.026  16.596 -19.288  1.00  0.00    -0.000 C 
BRANCH  16  17
ATOM     17  C   UNL     1      20.612  15.632 -20.413  1.00  0.00    -0.000 C 
BRANCH  17  18
ATOM     18  C   UNL     1      19.901  14.383 -19.871  1.00  0.00    -0.000 C 
BRANCH  18  19
ATOM     19  C   UNL     1      20.860  13.186 -19.821  1.00  0.00    -0.003 C 
ATOM     20  C   UNL     1      20.191  11.921 -20.354  1.00  0.00     0.004 C 
ENDBRANCH  18  19
ENDBRANCH  17  18
ENDBRANCH  16  17
ENDBRANCH  15  16
ENDBRANCH  14  15
ENDBRANCH  13  14
ENDBRANCH  12  13
ENDBRANCH   1  12
TORSDOF 16
ENDMDL
MODEL 8
REMARK VINA RESULT:    -3.645      1.644      3.823
REMARK INTER + INTRA:          -9.550
REMARK INTER:                  -6.553
REMARK INTRA:                  -2.997
REMARK UNBOUND:                -2.496
REMARK SMILES CCCCCCCCCCCCCCCCCC(=O)[O-]
REMARK SMILES IDX 10 1 11 2 12 3 13 4 14 5 15 6 16 7 17 8 18 9 19 10 20 11
REMARK SMILES IDX 9 12 8 13 7 14 6 15 5 16 4 17 3 18 2 19 1 20
REMARK H PARENT
REMARK Flexibility Score: inf
ROOT
ATOM      1  C   UNL     1      21.064  16.424 -17.111  1.00  0.00     0.000 C 
ENDROOT
BRANCH   1   2
ATOM      2  C   UNL     1      21.353  15.167 -16.277  1.00  0.00     0.000 C 
BRANCH   2   3
ATOM      3  C   UNL     1      20.083  14.581 -15.644  1.00  0.00     0.000 C 
BRANCH   3   4
ATOM      4  C   UNL     1      19.947  13.088 -15.976  1.00  0.00     0.000 C 
BRANCH   4   5
ATOM      5  C   UNL     1      18.482  12.700 -16.230  1.00  0.00     0.000 C 
BRANCH   5   6
ATOM      6  C   UNL     1      18.358  11.350 -16.960  1.00  0.00     0.000 C 
BRANCH   6   7
ATOM      7  C   UNL     1      19.665  10.543 -16.906  1.00  0.00     0.006 C 
BRANCH   7   8
ATOM      8  C   UNL     1      19.406   9.091 -16.483  1.00  0.00     0.053 C 
BRANCH   8   9
ATOM      9  C   UNL     1      19.161   8.212 -17.674  1.00  0.00     0.041 C 
ATOM     10  O   UNL     1      18.782   7.021 -17.509  1.00  0.00    -0.550 OA
ATOM     11  O   UNL     1      19.413   8.680 -18.960  1.00  0.00    -0.550 OA
ENDBRANCH   8   9
ENDBRANCH   7   8
ENDBRANCH   6   7
ENDBRANCH   5   6
ENDBRANCH   4   5
ENDBRANCH   3   4
ENDBRANCH   2   3
ENDBRANCH   1   2
BRANCH   1  12
ATOM     12  C   UNL     1      19.772  16.319 -17.952  1.00  0.00     0.000 C 
BRANCH  12  13
ATOM     13  C   UNL     1      20.010  15.726 -19.350  1.00  0.00    -0.000 C 
BRANCH  13  14
ATOM     14  C   UNL     1      19.547  14.265 -19.451  1.00  0.00    -0.000 C 
BRANCH  14  15
ATOM     15  C   UNL     1      20.726  13.277 -19.467  1.00  0.00    -0.000 C 
BRANCH  15  16
ATOM     16  C   UNL     1      22.085  13.941 -19.787  1.00  0.00    -0.000 C 
BRANCH  16  17
ATOM     17  C   UNL     1      23.284  13.229 -19.139  1.00  0.00    -0.000 C 
BRANCH  17  18
ATOM     18  C   UNL     1      22.856  12.315 -17.980  1.00  0.00    -0.000 C 
BRANCH  18  19
ATOM     19  C   UNL     1      23.451  10.910 -18.145  1.00  0.00    -0.003 C 
ATOM     20  C   UNL     1      22.647  10.085 -19.147  1.00  0.00     0.004 C 
ENDBRANCH  18  19
ENDBRANCH  17  18
ENDBRANCH  16  17
ENDBRANCH  15  16
ENDBRANCH  14  15
ENDBRANCH  13  14
ENDBRANCH  12  13
ENDBRANCH   1  12
TORSDOF 16
ENDMDL
MODEL 9
REMARK VINA RESULT:    -3.581      2.436      3.935
REMARK INTER + INTRA:          -9.426
REMARK INTER:                  -6.360
REMARK INTRA:                  -3.066
REMARK UNBOUND:                -2.496
REMARK SMILES CCCCCCCCCCCCCCCCCC(=O)[O-]
REMARK SMILES IDX 10 1 11 2 12 3 13 4 14 5 15 6 16 7 17 8 18 9 19 10 20 11
REMARK SMILES IDX 9 12 8 13 7 14 6 15 5 16 4 17 3 18 2 19 1 20
REMARK H PARENT
REMARK Flexibility Score: inf
ROOT
ATOM      1  C   UNL     1      21.354  10.506 -19.771  1.00  0.00     0.000 C 
ENDROOT
BRANCH   1   2
ATOM      2  C   UNL     1      21.061  10.230 -18.288  1.00  0.00     0.000 C 
BRANCH   2   3
ATOM      3  C   UNL     1      19.821   9.345 -18.093  1.00  0.00     0.000 C 
BRANCH   3   4
ATOM      4  C   UNL     1      19.107   9.690 -16.779  1.00  0.00     0.000 C 
BRANCH   4   5
ATOM      5  C   UNL     1      19.339  11.156 -16.382  1.00  0.00     0.000 C 
BRANCH   5   6
ATOM      6  C   UNL     1      18.043  11.985 -16.446  1.00  0.00     0.000 C 
BRANCH   6   7
ATOM      7  C   UNL     1      17.988  12.877 -17.697  1.00  0.00     0.006 C 
BRANCH   7   8
ATOM      8  C   UNL     1      17.263  12.175 -18.851  1.00  0.00     0.053 C 
BRANCH   8   9
ATOM      9  C   UNL     1      17.964  12.404 -20.157  1.00  0.00     0.041 C 
ATOM     10  O   UNL     1      18.177  11.436 -20.936  1.00  0.00    -0.550 OA
ATOM     11  O   UNL     1      18.441  13.669 -20.488  1.00  0.00    -0.550 OA
ENDBRANCH   8   9
ENDBRANCH   7   8
ENDBRANCH   6   7
ENDBRANCH   5   6
ENDBRANCH   4   5
ENDBRANCH   3   4
ENDBRANCH   2   3
ENDBRANCH   1   2
BRANCH   1  12
ATOM     12  C   UNL     1      21.712  11.981 -20.062  1.00  0.00     0.000 C 
BRANCH  12  13
ATOM     13  C   UNL     1      21.491  12.904 -18.852  1.00  0.00    -0.000 C 
BRANCH  13  14
ATOM     14  C   UNL     1      22.803  13.514 -18.337  1.00  0.00    -0.000 C 
BRANCH  14  15
ATOM     15  C   UNL     1      22.575  14.498 -17.176  1.00  0.00    -0.000 C 
BRANCH  15  16
ATOM     16  C   UNL     1      21.291  14.210 -16.365  1.00  0.00    -0.000 C 
BRANCH  16  17
ATOM     17  C   UNL     1      20.513  15.479 -15.976  1.00  0.00    -0.000 C 
BRANCH  17  18
ATOM     18  C   UNL     1      20.692  16.606 -17.006  1.00  0.00    -0.000 C 
BRANCH  18  19
ATOM     19  C   UNL     1      19.679  16.467 -18.149  1.00  0.00    -0.003 C 
ATOM     20  C   UNL     1      20.369  16.536 -19.509  1.00  0.00     0.004 C 
ENDBRANCH  18  19
ENDBRANCH  17  18
ENDBRANCH  16  17
ENDBRANCH  15  16
ENDBRANCH  14  15
ENDBRANCH  13  14
ENDBRANCH  12  13
ENDBRANCH   1  12
TORSDOF 16
ENDMDL
