MODEL 1
REMARK VINA RESULT:    -4.363      0.000      0.000
REMARK INTER + INTRA:          -5.217
REMARK INTER:                  -5.128
REMARK INTRA:                  -0.089
REMARK UNBOUND:                -0.089
REMARK SMILES O=C([O-])CCC(=O)[O-]
REMARK SMILES IDX 4 1 2 2 1 3 3 4 5 5 6 6 7 7 8 8
REMARK H PARENT
REMARK Flexibility Score: inf
ROOT
ATOM      1  C   UNL     1       6.864  -3.216  20.656  1.00  0.00     0.059 C 
ENDROOT
BRANCH   1   2
ATOM      2  C   UNL     1       6.174  -2.251  21.569  1.00  0.00     0.042 C 
ATOM      3  O   UNL     1       6.233  -1.013  21.345  1.00  0.00    -0.550 OA
ATOM      4  O   UNL     1       5.424  -2.722  22.640  1.00  0.00    -0.550 OA
ENDBRANCH   1   2
BRANCH   1   5
ATOM      5  C   UNL     1       6.190  -4.586  20.719  1.00  0.00     0.059 C 
BRANCH   5   6
ATOM      6  C   UNL     1       7.175  -5.635  21.131  1.00  0.00     0.042 C 
ATOM      7  O   UNL     1       8.346  -5.309  21.462  1.00  0.00    -0.550 OA
ATOM      8  O   UNL     1       6.815  -6.977  21.103  1.00  0.00    -0.550 OA
ENDBRANCH   5   6
ENDBRANCH   1   5
TORSDOF 3
ENDMDL
MODEL 2
REMARK VINA RESULT:    -4.340      0.056      3.915
REMARK INTER + INTRA:          -5.191
REMARK INTER:                  -5.111
REMARK INTRA:                  -0.080
REMARK UNBOUND:                -0.089
REMARK SMILES O=C([O-])CCC(=O)[O-]
REMARK SMILES IDX 4 1 2 2 1 3 3 4 5 5 6 6 7 7 8 8
REMARK H PARENT
REMARK Flexibility Score: inf
ROOT
ATOM      1  C   UNL     1       6.206  -4.600  20.786  1.00  0.00     0.059 C 
ENDROOT
BRANCH   1   2
ATOM      2  C   UNL     1       7.198  -5.671  21.114  1.00  0.00     0.042 C 
ATOM      3  O   UNL     1       8.365  -5.365  21.478  1.00  0.00    -0.550 OA
ATOM      4  O   UNL     1       6.820  -7.007  21.066  1.00  0.00    -0.550 OA
ENDBRANCH   1   2
BRANCH   1   5
ATOM      5  C   UNL     1       6.894  -3.236  20.722  1.00  0.00     0.059 C 
BRANCH   5   6
ATOM      6  C   UNL     1       6.157  -2.239  21.561  1.00  0.00     0.042 C 
ATOM      7  O   UNL     1       6.234  -1.010  21.298  1.00  0.00    -0.550 OA
ATOM      8  O   UNL     1       5.424  -2.663  22.662  1.00  0.00    -0.550 OA
ENDBRANCH   5   6
ENDBRANCH   1   5
TORSDOF 3
ENDMDL
MODEL 3
REMARK VINA RESULT:    -4.293      1.404      2.018
REMARK INTER + INTRA:          -5.135
REMARK INTER:                  -5.015
REMARK INTRA:                  -0.121
REMARK UNBOUND:                -0.089
REMARK SMILES O=C([O-])CCC(=O)[O-]
REMARK SMILES IDX 4 1 2 2 1 3 3 4 5 5 6 6 7 7 8 8
REMARK H PARENT
REMARK Flexibility Score: inf
ROOT
ATOM      1  C   UNL     1       6.460  -2.156  21.544  1.00  0.00     0.059 C 
ENDROOT
BRANCH   1   2
ATOM      2  C   UNL     1       5.828  -1.173  20.609  1.00  0.00     0.042 C 
ATOM      3  O   UNL     1       6.339  -0.033  20.448  1.00  0.00    -0.550 OA
ATOM      4  O   UNL     1       4.703  -1.532  19.878  1.00  0.00    -0.550 OA
ENDBRANCH   1   2
BRANCH   1   5
ATOM      5  C   UNL     1       7.035  -3.339  20.766  1.00  0.00     0.059 C 
BRANCH   5   6
ATOM      6  C   UNL     1       6.298  -4.597  21.106  1.00  0.00     0.042 C 
ATOM      7  O   UNL     1       5.058  -4.566  21.322  1.00  0.00    -0.550 OA
ATOM      8  O   UNL     1       6.990  -5.795  21.233  1.00  0.00    -0.550 OA
ENDBRANCH   5   6
ENDBRANCH   1   5
TORSDOF 3
ENDMDL
MODEL 4
REMARK VINA RESULT:    -4.293      1.819      2.313
REMARK INTER + INTRA:          -5.135
REMARK INTER:                  -5.039
REMARK INTRA:                  -0.096
REMARK UNBOUND:                -0.089
REMARK SMILES O=C([O-])CCC(=O)[O-]
REMARK SMILES IDX 4 1 2 2 1 3 3 4 5 5 6 6 7 7 8 8
REMARK H PARENT
REMARK Flexibility Score: inf
ROOT
ATOM      1  C   UNL     1       5.418  -2.718  22.382  1.00  0.00     0.059 C 
ENDROOT
BRANCH   1   2
ATOM      2  C   UNL     1       4.159  -2.235  21.732  1.00  0.00     0.042 C 
ATOM      3  O   UNL     1       3.182  -1.869  22.438  1.00  0.00    -0.550 OA
ATOM      4  O   UNL     1       4.082  -2.142  20.348  1.00  0.00    -0.550 OA
ENDBRANCH   1   2
BRANCH   1   5
ATOM      5  C   UNL     1       6.596  -2.602  21.415  1.00  0.00     0.059 C 
BRANCH   5   6
ATOM      6  C   UNL     1       7.006  -3.955  20.924  1.00  0.00     0.042 C 
ATOM      7  O   UNL     1       8.001  -4.079  20.163  1.00  0.00    -0.550 OA
ATOM      8  O   UNL     1       6.258  -5.075  21.268  1.00  0.00    -0.550 OA
ENDBRANCH   5   6
ENDBRANCH   1   5
TORSDOF 3
ENDMDL
MODEL 5
REMARK VINA RESULT:    -4.237      1.425      4.136
REMARK INTER + INTRA:          -5.070
REMARK INTER:                  -4.956
REMARK INTRA:                  -0.114
REMARK UNBOUND:                -0.089
REMARK SMILES O=C([O-])CCC(=O)[O-]
REMARK SMILES IDX 4 1 2 2 1 3 3 4 5 5 6 6 7 7 8 8
REMARK H PARENT
REMARK Flexibility Score: inf
ROOT
ATOM      1  C   UNL     1       5.712  -3.881  21.510  1.00  0.00     0.059 C 
ENDROOT
BRANCH   1   2
ATOM      2  C   UNL     1       6.512  -4.877  20.730  1.00  0.00     0.042 C 
ATOM      3  O   UNL     1       6.818  -5.985  21.244  1.00  0.00    -0.550 OA
ATOM      4  O   UNL     1       6.878  -4.600  19.419  1.00  0.00    -0.550 OA
ENDBRANCH   1   2
BRANCH   1   5
ATOM      5  C   UNL     1       6.477  -2.564  21.640  1.00  0.00     0.059 C 
BRANCH   5   6
ATOM      6  C   UNL     1       5.849  -1.507  20.786  1.00  0.00     0.042 C 
ATOM      7  O   UNL     1       6.320  -0.339  20.775  1.00  0.00    -0.550 OA
ATOM      8  O   UNL     1       4.714  -1.799  20.041  1.00  0.00    -0.550 OA
ENDBRANCH   5   6
ENDBRANCH   1   5
TORSDOF 3
ENDMDL
MODEL 6
REMARK VINA RESULT:    -4.145      1.873      4.056
REMARK INTER + INTRA:          -4.961
REMARK INTER:                  -4.832
REMARK INTRA:                  -0.129
REMARK UNBOUND:                -0.089
REMARK SMILES O=C([O-])CCC(=O)[O-]
REMARK SMILES IDX 4 1 2 2 1 3 3 4 5 5 6 6 7 7 8 8
REMARK H PARENT
REMARK Flexibility Score: inf
ROOT
ATOM      1  C   UNL     1       6.476  -2.970  21.882  1.00  0.00     0.059 C 
ENDROOT
BRANCH   1   2
ATOM      2  C   UNL     1       6.895  -4.154  21.069  1.00  0.00     0.042 C 
ATOM      3  O   UNL     1       6.261  -5.239  21.156  1.00  0.00    -0.550 OA
ATOM      4  O   UNL     1       7.956  -4.046  20.178  1.00  0.00    -0.550 OA
ENDBRANCH   1   2
BRANCH   1   5
ATOM      5  C   UNL     1       5.770  -1.939  21.002  1.00  0.00     0.059 C 
BRANCH   5   6
ATOM      6  C   UNL     1       4.312  -2.258  20.890  1.00  0.00     0.042 C 
ATOM      7  O   UNL     1       3.844  -2.719  19.815  1.00  0.00    -0.550 OA
ATOM      8  O   UNL     1       3.460  -2.000  21.957  1.00  0.00    -0.550 OA
ENDBRANCH   5   6
ENDBRANCH   1   5
TORSDOF 3
ENDMDL
MODEL 7
REMARK VINA RESULT:    -4.089      1.972      4.374
REMARK INTER + INTRA:          -4.895
REMARK INTER:                  -4.787
REMARK INTRA:                  -0.108
REMARK UNBOUND:                -0.089
REMARK SMILES O=C([O-])CCC(=O)[O-]
REMARK SMILES IDX 4 1 2 2 1 3 3 4 5 5 6 6 7 7 8 8
REMARK H PARENT
REMARK Flexibility Score: inf
ROOT
ATOM      1  C   UNL     1       6.303  -2.686  20.466  1.00  0.00     0.059 C 
ENDROOT
BRANCH   1   2
ATOM      2  C   UNL     1       5.636  -3.558  21.483  1.00  0.00     0.042 C 
ATOM      3  O   UNL     1       5.637  -4.810  21.343  1.00  0.00    -0.550 OA
ATOM      4  O   UNL     1       5.054  -2.992  22.610  1.00  0.00    -0.550 OA
ENDBRANCH   1   2
BRANCH   1   5
ATOM      5  C   UNL     1       6.246  -1.221  20.898  1.00  0.00     0.059 C 
BRANCH   5   6
ATOM      6  C   UNL     1       5.348  -0.442  19.989  1.00  0.00     0.042 C 
ATOM      7  O   UNL     1       5.708   0.685  19.557  1.00  0.00    -0.550 OA
ATOM      8  O   UNL     1       4.094  -0.939  19.657  1.00  0.00    -0.550 OA
ENDBRANCH   5   6
ENDBRANCH   1   5
TORSDOF 3
ENDMDL
MODEL 8
REMARK VINA RESULT:    -4.071      2.423      3.006
REMARK INTER + INTRA:          -4.874
REMARK INTER:                  -4.754
REMARK INTRA:                  -0.120
REMARK UNBOUND:                -0.089
REMARK SMILES O=C([O-])CCC(=O)[O-]
REMARK SMILES IDX 4 1 2 2 1 3 3 4 5 5 6 6 7 7 8 8
REMARK H PARENT
REMARK Flexibility Score: inf
ROOT
ATOM      1  C   UNL     1       4.419  -3.363  19.604  1.00  0.00     0.059 C 
ENDROOT
BRANCH   1   2
ATOM      2  C   UNL     1       3.536  -2.201  19.936  1.00  0.00     0.042 C 
ATOM      3  O   UNL     1       3.074  -1.473  19.017  1.00  0.00    -0.550 OA
ATOM      4  O   UNL     1       3.183  -1.950  21.256  1.00  0.00    -0.550 OA
ENDBRANCH   1   2
BRANCH   1   5
ATOM      5  C   UNL     1       5.104  -3.890  20.865  1.00  0.00     0.059 C 
BRANCH   5   6
ATOM      6  C   UNL     1       6.442  -3.242  21.043  1.00  0.00     0.042 C 
ATOM      7  O   UNL     1       6.566  -2.243  21.801  1.00  0.00    -0.550 OA
ATOM      8  O   UNL     1       7.541  -3.710  20.335  1.00  0.00    -0.550 OA
ENDBRANCH   5   6
ENDBRANCH   1   5
TORSDOF 3
ENDMDL
MODEL 9
REMARK VINA RESULT:    -1.680     10.214     11.218
REMARK INTER + INTRA:          -2.064
REMARK INTER:                  -1.902
REMARK INTRA:                  -0.162
REMARK UNBOUND:                -0.089
REMARK SMILES O=C([O-])CCC(=O)[O-]
REMARK SMILES IDX 4 1 2 2 1 3 3 4 5 5 6 6 7 7 8 8
REMARK H PARENT
REMARK Flexibility Score: inf
ROOT
ATOM      1  C   UNL     1      17.984  -8.312  22.639  1.00  0.00     0.059 C 
ENDROOT
BRANCH   1   2
ATOM      2  C   UNL     1      16.954  -7.999  23.679  1.00  0.00     0.042 C 
ATOM      3  O   UNL     1      16.834  -6.826  24.120  1.00  0.00    -0.550 OA
ATOM      4  O   UNL     1      16.092  -8.994  24.125  1.00  0.00    -0.550 OA
ENDBRANCH   1   2
BRANCH   1   5
ATOM      5  C   UNL     1      17.314  -8.743  21.335  1.00  0.00     0.059 C 
BRANCH   5   6
ATOM      6  C   UNL     1      16.443  -7.646  20.807  1.00  0.00     0.042 C 
ATOM      7  O   UNL     1      15.240  -7.878  20.515  1.00  0.00    -0.550 OA
ATOM      8  O   UNL     1      16.973  -6.380  20.592  1.00  0.00    -0.550 OA
ENDBRANCH   5   6
ENDBRANCH   1   5
TORSDOF 3
ENDMDL
