MODEL 1
REMARK VINA RESULT:    -5.329      0.000      0.000
REMARK INTER + INTRA:          -8.212
REMARK INTER:                  -7.510
REMARK INTRA:                  -0.702
REMARK UNBOUND:                -0.702
REMARK SMILES COc1ccc(-c2cc(=O)c3c(OC)c(OC)c(OC)c(OC)c3o2)cc1OC
REMARK SMILES IDX 7 1 8 2 9 3 10 4 11 5 24 6 25 7 21 8 18 9 15 10 12 11 6 12
REMARK SMILES IDX 3 13 27 14 4 15 26 16 5 17 2 18 1 19 28 20 29 21 22 22 23 23
REMARK SMILES IDX 13 24 14 25 19 26 20 27 16 28 17 29
REMARK H PARENT
REMARK Flexibility Score: inf
ROOT
ATOM      1  C   UNL     1      15.197  49.653  31.660  1.00  0.00     0.138 A 
ATOM      2  C   UNL     1      16.253  49.379  30.778  1.00  0.00     0.100 A 
ATOM      3  C   UNL     1      16.401  48.093  30.263  1.00  0.00     0.197 A 
ATOM      4  O   UNL     1      17.362  47.865  29.480  1.00  0.00    -0.289 OA
ATOM      5  C   UNL     1      15.480  47.082  30.623  1.00  0.00     0.115 A 
ATOM      6  C   UNL     1      14.425  47.442  31.487  1.00  0.00     0.188 A 
ATOM      7  O   UNL     1      14.337  48.683  31.961  1.00  0.00    -0.452 OA
ATOM      8  C   UNL     1      13.464  46.496  31.869  1.00  0.00     0.209 A 
ATOM      9  C   UNL     1      13.584  45.148  31.457  1.00  0.00     0.211 A 
ATOM     10  C   UNL     1      14.638  44.779  30.578  1.00  0.00     0.208 A 
ATOM     11  C   UNL     1      15.570  45.755  30.141  1.00  0.00     0.179 A 
ENDROOT
BRANCH   1  12
ATOM     12  C   UNL     1      14.998  51.000  32.261  1.00  0.00     0.021 A 
ATOM     13  C   UNL     1      14.685  53.561  33.416  1.00  0.00     0.160 A 
ATOM     14  C   UNL     1      13.751  53.100  32.478  1.00  0.00     0.161 A 
ATOM     15  C   UNL     1      15.773  52.745  33.769  1.00  0.00     0.051 A 
ATOM     16  C   UNL     1      13.915  51.826  31.898  1.00  0.00     0.062 A 
ATOM     17  C   UNL     1      15.927  51.483  33.195  1.00  0.00     0.016 A 
BRANCH  13  18
ATOM     18  O   UNL     1      14.499  54.837  33.972  1.00  0.00    -0.493 OA
ATOM     19  C   UNL     1      15.122  56.024  33.495  1.00  0.00     0.278 C 
ENDBRANCH  13  18
BRANCH  14  20
ATOM     20  O   UNL     1      12.672  53.936  32.150  1.00  0.00    -0.493 OA
ATOM     21  C   UNL     1      11.384  53.866  32.748  1.00  0.00     0.278 C 
ENDBRANCH  14  20
ENDBRANCH   1  12
BRANCH   8  22
ATOM     22  O   UNL     1      12.400  46.904  32.678  1.00  0.00    -0.490 OA
ATOM     23  C   UNL     1      11.094  47.121  32.156  1.00  0.00     0.278 C 
ENDBRANCH   8  22
BRANCH  11  24
ATOM     24  O   UNL     1      16.613  45.442  29.246  1.00  0.00    -0.492 OA
ATOM     25  C   UNL     1      16.481  45.231  27.842  1.00  0.00     0.278 C 
ENDBRANCH  11  24
BRANCH   9  26
ATOM     26  O   UNL     1      12.694  44.149  31.895  1.00  0.00    -0.490 OA
ATOM     27  C   UNL     1      12.793  43.368  33.079  1.00  0.00     0.279 C 
ENDBRANCH   9  26
BRANCH  10  28
ATOM     28  O   UNL     1      14.828  43.456  30.133  1.00  0.00    -0.490 OA
ATOM     29  C   UNL     1      14.089  42.760  29.136  1.00  0.00     0.278 C 
ENDBRANCH  10  28
TORSDOF 7
ENDMDL
MODEL 2
REMARK VINA RESULT:    -4.907      1.488      3.741
REMARK INTER + INTRA:          -7.617
REMARK INTER:                  -6.971
REMARK INTRA:                  -0.645
REMARK UNBOUND:                -0.702
REMARK SMILES COc1ccc(-c2cc(=O)c3c(OC)c(OC)c(OC)c(OC)c3o2)cc1OC
REMARK SMILES IDX 7 1 8 2 9 3 10 4 11 5 24 6 25 7 21 8 18 9 15 10 12 11 6 12
REMARK SMILES IDX 3 13 27 14 4 15 26 16 5 17 2 18 1 19 28 20 29 21 22 22 23 23
REMARK SMILES IDX 13 24 14 25 19 26 20 27 16 28 17 29
REMARK H PARENT
REMARK Flexibility Score: inf
ROOT
ATOM      1  C   UNL     1      15.043  49.727  31.593  1.00  0.00     0.138 A 
ATOM      2  C   UNL     1      14.445  48.601  32.178  1.00  0.00     0.100 A 
ATOM      3  C   UNL     1      14.570  47.359  31.560  1.00  0.00     0.197 A 
ATOM      4  O   UNL     1      14.018  46.361  32.096  1.00  0.00    -0.289 OA
ATOM      5  C   UNL     1      15.309  47.243  30.359  1.00  0.00     0.115 A 
ATOM      6  C   UNL     1      15.910  48.413  29.850  1.00  0.00     0.188 A 
ATOM      7  O   UNL     1      15.748  49.579  30.474  1.00  0.00    -0.452 OA
ATOM      8  C   UNL     1      16.673  48.369  28.676  1.00  0.00     0.209 A 
ATOM      9  C   UNL     1      16.785  47.165  27.942  1.00  0.00     0.211 A 
ATOM     10  C   UNL     1      16.191  45.978  28.452  1.00  0.00     0.208 A 
ATOM     11  C   UNL     1      15.476  46.015  29.676  1.00  0.00     0.179 A 
ENDROOT
BRANCH   1  12
ATOM     12  C   UNL     1      14.928  51.085  32.194  1.00  0.00     0.021 A 
ATOM     13  C   UNL     1      14.774  53.662  33.343  1.00  0.00     0.160 A 
ATOM     14  C   UNL     1      13.776  53.233  32.459  1.00  0.00     0.161 A 
ATOM     15  C   UNL     1      15.847  52.806  33.647  1.00  0.00     0.051 A 
ATOM     16  C   UNL     1      13.860  51.951  31.880  1.00  0.00     0.062 A 
ATOM     17  C   UNL     1      15.922  51.536  33.075  1.00  0.00     0.016 A 
BRANCH  13  18
ATOM     18  O   UNL     1      14.666  54.947  33.899  1.00  0.00    -0.493 OA
ATOM     19  C   UNL     1      15.210  56.127  33.317  1.00  0.00     0.278 C 
ENDBRANCH  13  18
BRANCH  14  20
ATOM     20  O   UNL     1      12.715  54.109  32.179  1.00  0.00    -0.493 OA
ATOM     21  C   UNL     1      11.419  54.020  32.760  1.00  0.00     0.278 C 
ENDBRANCH  14  20
ENDBRANCH   1  12
BRANCH   8  22
ATOM     22  O   UNL     1      17.302  49.536  28.236  1.00  0.00    -0.490 OA
ATOM     23  C   UNL     1      16.656  50.464  27.372  1.00  0.00     0.278 C 
ENDBRANCH   8  22
BRANCH  11  24
ATOM     24  O   UNL     1      14.896  44.859  30.236  1.00  0.00    -0.492 OA
ATOM     25  C   UNL     1      13.775  44.146  29.718  1.00  0.00     0.278 C 
ENDBRANCH  11  24
BRANCH   9  26
ATOM     26  O   UNL     1      17.462  47.100  26.709  1.00  0.00    -0.490 OA
ATOM     27  C   UNL     1      16.910  47.289  25.413  1.00  0.00     0.279 C 
ENDBRANCH   9  26
BRANCH  10  28
ATOM     28  O   UNL     1      16.251  44.745  27.773  1.00  0.00    -0.490 OA
ATOM     29  C   UNL     1      17.276  43.761  27.848  1.00  0.00     0.278 C 
ENDBRANCH  10  28
TORSDOF 7
ENDMDL
MODEL 3
REMARK VINA RESULT:    -4.885      2.236      8.948
REMARK INTER + INTRA:          -7.586
REMARK INTER:                  -6.869
REMARK INTRA:                  -0.717
REMARK UNBOUND:                -0.702
REMARK SMILES COc1ccc(-c2cc(=O)c3c(OC)c(OC)c(OC)c(OC)c3o2)cc1OC
REMARK SMILES IDX 7 1 8 2 9 3 10 4 11 5 24 6 25 7 21 8 18 9 15 10 12 11 6 12
REMARK SMILES IDX 3 13 27 14 4 15 26 16 5 17 2 18 1 19 28 20 29 21 22 22 23 23
REMARK SMILES IDX 13 24 14 25 19 26 20 27 16 28 17 29
REMARK H PARENT
REMARK Flexibility Score: inf
ROOT
ATOM      1  C   UNL     1      15.222  50.474  31.514  1.00  0.00     0.138 A 
ATOM      2  C   UNL     1      15.088  50.706  32.891  1.00  0.00     0.100 A 
ATOM      3  C   UNL     1      14.817  51.995  33.346  1.00  0.00     0.197 A 
ATOM      4  O   UNL     1      14.709  52.185  34.588  1.00  0.00    -0.289 OA
ATOM      5  C   UNL     1      14.667  53.050  32.417  1.00  0.00     0.115 A 
ATOM      6  C   UNL     1      14.781  52.733  31.048  1.00  0.00     0.188 A 
ATOM      7  O   UNL     1      15.054  51.486  30.667  1.00  0.00    -0.452 OA
ATOM      8  C   UNL     1      14.623  53.725  30.072  1.00  0.00     0.209 A 
ATOM      9  C   UNL     1      14.426  55.074  30.448  1.00  0.00     0.211 A 
ATOM     10  C   UNL     1      14.298  55.402  31.826  1.00  0.00     0.208 A 
ATOM     11  C   UNL     1      14.392  54.383  32.808  1.00  0.00     0.179 A 
ENDROOT
BRANCH   1  12
ATOM     12  C   UNL     1      15.533  49.125  30.967  1.00  0.00     0.021 A 
ATOM     13  C   UNL     1      16.187  46.583  29.919  1.00  0.00     0.160 A 
ATOM     14  C   UNL     1      15.076  46.725  30.761  1.00  0.00     0.161 A 
ATOM     15  C   UNL     1      16.969  47.708  29.607  1.00  0.00     0.051 A 
ATOM     16  C   UNL     1      14.758  47.992  31.290  1.00  0.00     0.062 A 
ATOM     17  C   UNL     1      16.646  48.960  30.128  1.00  0.00     0.016 A 
BRANCH  13  18
ATOM     18  O   UNL     1      16.482  45.306  29.412  1.00  0.00    -0.493 OA
ATOM     19  C   UNL     1      17.018  45.056  28.118  1.00  0.00     0.278 C 
ENDBRANCH  13  18
BRANCH  14  20
ATOM     20  O   UNL     1      14.312  45.583  31.050  1.00  0.00    -0.493 OA
ATOM     21  C   UNL     1      14.069  45.084  32.360  1.00  0.00     0.278 C 
ENDBRANCH  14  20
ENDBRANCH   1  12
BRANCH   8  22
ATOM     22  O   UNL     1      14.684  53.361  28.724  1.00  0.00    -0.490 OA
ATOM     23  C   UNL     1      15.908  53.350  27.998  1.00  0.00     0.278 C 
ENDBRANCH   8  22
BRANCH  11  24
ATOM     24  O   UNL     1      14.243  54.655  34.182  1.00  0.00    -0.492 OA
ATOM     25  C   UNL     1      13.013  54.891  34.864  1.00  0.00     0.278 C 
ENDBRANCH  11  24
BRANCH   9  26
ATOM     26  O   UNL     1      14.357  56.114  29.502  1.00  0.00    -0.490 OA
ATOM     27  C   UNL     1      15.440  56.868  28.972  1.00  0.00     0.279 C 
ENDBRANCH   9  26
BRANCH  10  28
ATOM     28  O   UNL     1      14.110  56.723  32.278  1.00  0.00    -0.490 OA
ATOM     29  C   UNL     1      15.109  57.660  32.665  1.00  0.00     0.278 C 
ENDBRANCH  10  28
TORSDOF 7
ENDMDL
MODEL 4
REMARK VINA RESULT:    -4.871      2.381      4.525
REMARK INTER + INTRA:          -7.566
REMARK INTER:                  -6.959
REMARK INTRA:                  -0.607
REMARK UNBOUND:                -0.702
REMARK SMILES COc1ccc(-c2cc(=O)c3c(OC)c(OC)c(OC)c(OC)c3o2)cc1OC
REMARK SMILES IDX 7 1 8 2 9 3 10 4 11 5 24 6 25 7 21 8 18 9 15 10 12 11 6 12
REMARK SMILES IDX 3 13 27 14 4 15 26 16 5 17 2 18 1 19 28 20 29 21 22 22 23 23
REMARK SMILES IDX 13 24 14 25 19 26 20 27 16 28 17 29
REMARK H PARENT
REMARK Flexibility Score: inf
ROOT
ATOM      1  C   UNL     1      15.289  49.935  31.228  1.00  0.00     0.138 A 
ATOM      2  C   UNL     1      15.199  48.590  31.614  1.00  0.00     0.100 A 
ATOM      3  C   UNL     1      15.639  47.596  30.742  1.00  0.00     0.197 A 
ATOM      4  O   UNL     1      15.541  46.392  31.103  1.00  0.00    -0.289 OA
ATOM      5  C   UNL     1      16.182  47.953  29.486  1.00  0.00     0.115 A 
ATOM      6  C   UNL     1      16.271  49.327  29.184  1.00  0.00     0.188 A 
ATOM      7  O   UNL     1      15.824  50.237  30.048  1.00  0.00    -0.452 OA
ATOM      8  C   UNL     1      16.817  49.754  27.966  1.00  0.00     0.209 A 
ATOM      9  C   UNL     1      17.214  48.810  26.990  1.00  0.00     0.211 A 
ATOM     10  C   UNL     1      17.137  47.423  27.290  1.00  0.00     0.208 A 
ATOM     11  C   UNL     1      16.646  46.997  28.551  1.00  0.00     0.179 A 
ENDROOT
BRANCH   1  12
ATOM     12  C   UNL     1      14.817  51.042  32.106  1.00  0.00     0.021 A 
ATOM     13  C   UNL     1      13.980  53.141  33.802  1.00  0.00     0.160 A 
ATOM     14  C   UNL     1      13.370  52.970  32.552  1.00  0.00     0.161 A 
ATOM     15  C   UNL     1      15.007  52.268  34.198  1.00  0.00     0.051 A 
ATOM     16  C   UNL     1      13.796  51.928  31.705  1.00  0.00     0.062 A 
ATOM     17  C   UNL     1      15.420  51.235  33.358  1.00  0.00     0.016 A 
BRANCH  13  18
ATOM     18  O   UNL     1      13.538  54.192  34.622  1.00  0.00    -0.493 OA
ATOM     19  C   UNL     1      12.702  54.030  35.763  1.00  0.00     0.278 C 
ENDBRANCH  13  18
BRANCH  14  20
ATOM     20  O   UNL     1      12.343  53.855  32.188  1.00  0.00    -0.493 OA
ATOM     21  C   UNL     1      10.972  53.497  32.067  1.00  0.00     0.278 C 
ENDBRANCH  14  20
ENDBRANCH   1  12
BRANCH   8  22
ATOM     22  O   UNL     1      16.944  51.125  27.727  1.00  0.00    -0.490 OA
ATOM     23  C   UNL     1      15.944  51.869  27.040  1.00  0.00     0.278 C 
ENDBRANCH   8  22
BRANCH  11  24
ATOM     24  O   UNL     1      16.579  45.635  28.905  1.00  0.00    -0.492 OA
ATOM     25  C   UNL     1      15.633  44.685  28.418  1.00  0.00     0.278 C 
ENDBRANCH  11  24
BRANCH   9  26
ATOM     26  O   UNL     1      17.678  49.197  25.719  1.00  0.00    -0.490 OA
ATOM     27  C   UNL     1      18.953  49.738  25.396  1.00  0.00     0.279 C 
ENDBRANCH   9  26
BRANCH  10  28
ATOM     28  O   UNL     1      17.504  46.424  26.367  1.00  0.00    -0.490 OA
ATOM     29  C   UNL     1      16.779  45.989  25.223  1.00  0.00     0.278 C 
ENDBRANCH  10  28
TORSDOF 7
ENDMDL
MODEL 5
REMARK VINA RESULT:    -4.805      3.431     10.592
REMARK INTER + INTRA:          -7.473
REMARK INTER:                  -6.734
REMARK INTRA:                  -0.740
REMARK UNBOUND:                -0.702
REMARK SMILES COc1ccc(-c2cc(=O)c3c(OC)c(OC)c(OC)c(OC)c3o2)cc1OC
REMARK SMILES IDX 7 1 8 2 9 3 10 4 11 5 24 6 25 7 21 8 18 9 15 10 12 11 6 12
REMARK SMILES IDX 3 13 27 14 4 15 26 16 5 17 2 18 1 19 28 20 29 21 22 22 23 23
REMARK SMILES IDX 13 24 14 25 19 26 20 27 16 28 17 29
REMARK H PARENT
REMARK Flexibility Score: inf
ROOT
ATOM      1  C   UNL     1      14.801  54.826  32.146  1.00  0.00     0.138 A 
ATOM      2  C   UNL     1      15.966  55.539  31.826  1.00  0.00     0.100 A 
ATOM      3  C   UNL     1      15.960  56.931  31.902  1.00  0.00     0.197 A 
ATOM      4  O   UNL     1      17.013  57.554  31.601  1.00  0.00    -0.289 OA
ATOM      5  C   UNL     1      14.788  57.607  32.313  1.00  0.00     0.115 A 
ATOM      6  C   UNL     1      13.668  56.820  32.652  1.00  0.00     0.188 A 
ATOM      7  O   UNL     1      13.723  55.493  32.549  1.00  0.00    -0.452 OA
ATOM      8  C   UNL     1      12.480  57.421  33.087  1.00  0.00     0.209 A 
ATOM      9  C   UNL     1      12.362  58.831  33.117  1.00  0.00     0.211 A 
ATOM     10  C   UNL     1      13.489  59.632  32.787  1.00  0.00     0.208 A 
ATOM     11  C   UNL     1      14.710  59.017  32.411  1.00  0.00     0.179 A 
ENDROOT
BRANCH   1  12
ATOM     12  C   UNL     1      14.737  53.341  32.064  1.00  0.00     0.021 A 
ATOM     13  C   UNL     1      14.635  50.518  31.972  1.00  0.00     0.160 A 
ATOM     14  C   UNL     1      13.870  51.273  31.073  1.00  0.00     0.161 A 
ATOM     15  C   UNL     1      15.444  51.174  32.915  1.00  0.00     0.051 A 
ATOM     16  C   UNL     1      13.916  52.680  31.128  1.00  0.00     0.062 A 
ATOM     17  C   UNL     1      15.490  52.567  32.961  1.00  0.00     0.016 A 
BRANCH  13  18
ATOM     18  O   UNL     1      14.564  49.117  31.897  1.00  0.00    -0.493 OA
ATOM     19  C   UNL     1      15.351  48.314  31.024  1.00  0.00     0.278 C 
ENDBRANCH  13  18
BRANCH  14  20
ATOM     20  O   UNL     1      13.075  50.588  30.140  1.00  0.00    -0.493 OA
ATOM     21  C   UNL     1      11.653  50.590  30.133  1.00  0.00     0.278 C 
ENDBRANCH  14  20
ENDBRANCH   1  12
BRANCH   8  22
ATOM     22  O   UNL     1      11.412  56.607  33.471  1.00  0.00    -0.490 OA
ATOM     23  C   UNL     1      11.230  56.183  34.818  1.00  0.00     0.278 C 
ENDBRANCH   8  22
BRANCH  11  24
ATOM     24  O   UNL     1      15.861  59.769  32.105  1.00  0.00    -0.492 OA
ATOM     25  C   UNL     1      16.654  60.508  33.032  1.00  0.00     0.278 C 
ENDBRANCH  11  24
BRANCH   9  26
ATOM     26  O   UNL     1      11.157  59.475  33.457  1.00  0.00    -0.490 OA
ATOM     27  C   UNL     1      10.739  59.892  34.750  1.00  0.00     0.279 C 
ENDBRANCH   9  26
BRANCH  10  28
ATOM     28  O   UNL     1      13.445  61.041  32.784  1.00  0.00    -0.490 OA
ATOM     29  C   UNL     1      13.080  61.897  31.708  1.00  0.00     0.278 C 
ENDBRANCH  10  28
TORSDOF 7
ENDMDL
MODEL 6
REMARK VINA RESULT:    -4.692      2.801      8.886
REMARK INTER + INTRA:          -7.313
REMARK INTER:                  -6.584
REMARK INTRA:                  -0.730
REMARK UNBOUND:                -0.702
REMARK SMILES COc1ccc(-c2cc(=O)c3c(OC)c(OC)c(OC)c(OC)c3o2)cc1OC
REMARK SMILES IDX 7 1 8 2 9 3 10 4 11 5 24 6 25 7 21 8 18 9 15 10 12 11 6 12
REMARK SMILES IDX 3 13 27 14 4 15 26 16 5 17 2 18 1 19 28 20 29 21 22 22 23 23
REMARK SMILES IDX 13 24 14 25 19 26 20 27 16 28 17 29
REMARK H PARENT
REMARK Flexibility Score: inf
ROOT
ATOM      1  C   UNL     1      15.489  50.465  31.340  1.00  0.00     0.138 A 
ATOM      2  C   UNL     1      15.461  50.451  32.742  1.00  0.00     0.100 A 
ATOM      3  C   UNL     1      15.037  51.586  33.431  1.00  0.00     0.197 A 
ATOM      4  O   UNL     1      15.028  51.556  34.691  1.00  0.00    -0.289 OA
ATOM      5  C   UNL     1      14.629  52.733  32.711  1.00  0.00     0.115 A 
ATOM      6  C   UNL     1      14.653  52.659  31.303  1.00  0.00     0.188 A 
ATOM      7  O   UNL     1      15.079  51.554  30.694  1.00  0.00    -0.452 OA
ATOM      8  C   UNL     1      14.242  53.750  30.526  1.00  0.00     0.209 A 
ATOM      9  C   UNL     1      13.874  54.969  31.143  1.00  0.00     0.211 A 
ATOM     10  C   UNL     1      13.837  55.049  32.562  1.00  0.00     0.208 A 
ATOM     11  C   UNL     1      14.189  53.920  33.344  1.00  0.00     0.179 A 
ENDROOT
BRANCH   1  12
ATOM     12  C   UNL     1      15.952  49.293  30.547  1.00  0.00     0.021 A 
ATOM     13  C   UNL     1      16.788  47.028  29.077  1.00  0.00     0.160 A 
ATOM     14  C   UNL     1      16.932  48.309  28.527  1.00  0.00     0.161 A 
ATOM     15  C   UNL     1      16.224  46.883  30.356  1.00  0.00     0.051 A 
ATOM     16  C   UNL     1      16.506  49.435  29.258  1.00  0.00     0.062 A 
ATOM     17  C   UNL     1      15.809  48.001  31.077  1.00  0.00     0.016 A 
BRANCH  13  18
ATOM     18  O   UNL     1      17.217  45.924  28.322  1.00  0.00    -0.493 OA
ATOM     19  C   UNL     1      16.379  44.844  27.925  1.00  0.00     0.278 C 
ENDBRANCH  13  18
BRANCH  14  20
ATOM     20  O   UNL     1      17.504  48.421  27.249  1.00  0.00    -0.493 OA
ATOM     21  C   UNL     1      18.250  49.544  26.795  1.00  0.00     0.278 C 
ENDBRANCH  14  20
ENDBRANCH   1  12
BRANCH   8  22
ATOM     22  O   UNL     1      14.223  53.619  29.135  1.00  0.00    -0.490 OA
ATOM     23  C   UNL     1      15.342  53.963  28.327  1.00  0.00     0.278 C 
ENDBRANCH   8  22
BRANCH  11  24
ATOM     24  O   UNL     1      14.139  53.942  34.752  1.00  0.00    -0.492 OA
ATOM     25  C   UNL     1      12.960  53.899  35.552  1.00  0.00     0.278 C 
ENDBRANCH  11  24
BRANCH   9  26
ATOM     26  O   UNL     1      13.547  56.117  30.397  1.00  0.00    -0.490 OA
ATOM     27  C   UNL     1      14.414  57.184  30.035  1.00  0.00     0.279 C 
ENDBRANCH   9  26
BRANCH  10  28
ATOM     28  O   UNL     1      13.490  56.230  33.247  1.00  0.00    -0.490 OA
ATOM     29  C   UNL     1      12.193  56.792  33.409  1.00  0.00     0.278 C 
ENDBRANCH  10  28
TORSDOF 7
ENDMDL
MODEL 7
REMARK VINA RESULT:    -4.673      1.810      8.542
REMARK INTER + INTRA:          -7.287
REMARK INTER:                  -6.626
REMARK INTRA:                  -0.661
REMARK UNBOUND:                -0.702
REMARK SMILES COc1ccc(-c2cc(=O)c3c(OC)c(OC)c(OC)c(OC)c3o2)cc1OC
REMARK SMILES IDX 7 1 8 2 9 3 10 4 11 5 24 6 25 7 21 8 18 9 15 10 12 11 6 12
REMARK SMILES IDX 3 13 27 14 4 15 26 16 5 17 2 18 1 19 28 20 29 21 22 22 23 23
REMARK SMILES IDX 13 24 14 25 19 26 20 27 16 28 17 29
REMARK H PARENT
REMARK Flexibility Score: inf
ROOT
ATOM      1  C   UNL     1      14.749  50.745  31.801  1.00  0.00     0.138 A 
ATOM      2  C   UNL     1      15.569  51.476  32.672  1.00  0.00     0.100 A 
ATOM      3  C   UNL     1      15.177  52.751  33.075  1.00  0.00     0.197 A 
ATOM      4  O   UNL     1      15.933  53.396  33.851  1.00  0.00    -0.289 OA
ATOM      5  C   UNL     1      13.954  53.288  32.613  1.00  0.00     0.115 A 
ATOM      6  C   UNL     1      13.167  52.480  31.767  1.00  0.00     0.188 A 
ATOM      7  O   UNL     1      13.594  51.272  31.402  1.00  0.00    -0.452 OA
ATOM      8  C   UNL     1      11.933  52.939  31.288  1.00  0.00     0.209 A 
ATOM      9  C   UNL     1      11.496  54.253  31.582  1.00  0.00     0.211 A 
ATOM     10  C   UNL     1      12.277  55.071  32.443  1.00  0.00     0.208 A 
ATOM     11  C   UNL     1      13.494  54.576  32.979  1.00  0.00     0.179 A 
ENDROOT
BRANCH   1  12
ATOM     12  C   UNL     1      15.122  49.387  31.317  1.00  0.00     0.021 A 
ATOM     13  C   UNL     1      15.893  46.831  30.390  1.00  0.00     0.160 A 
ATOM     14  C   UNL     1      14.763  46.964  31.208  1.00  0.00     0.161 A 
ATOM     15  C   UNL     1      16.636  47.972  30.042  1.00  0.00     0.051 A 
ATOM     16  C   UNL     1      14.387  48.239  31.676  1.00  0.00     0.062 A 
ATOM     17  C   UNL     1      16.255  49.232  30.504  1.00  0.00     0.016 A 
BRANCH  13  18
ATOM     18  O   UNL     1      16.247  45.547  29.944  1.00  0.00    -0.493 OA
ATOM     19  C   UNL     1      16.670  45.240  28.620  1.00  0.00     0.278 C 
ENDBRANCH  13  18
BRANCH  14  20
ATOM     20  O   UNL     1      14.040  45.806  31.534  1.00  0.00    -0.493 OA
ATOM     21  C   UNL     1      13.923  45.269  32.846  1.00  0.00     0.278 C 
ENDBRANCH  14  20
ENDBRANCH   1  12
BRANCH   8  22
ATOM     22  O   UNL     1      11.154  52.087  30.501  1.00  0.00    -0.490 OA
ATOM     23  C   UNL     1      11.267  52.054  29.083  1.00  0.00     0.278 C 
ENDBRANCH   8  22
BRANCH  11  24
ATOM     24  O   UNL     1      14.286  55.339  33.859  1.00  0.00    -0.492 OA
ATOM     25  C   UNL     1      15.125  56.435  33.499  1.00  0.00     0.278 C 
ENDBRANCH  11  24
BRANCH   9  26
ATOM     26  O   UNL     1      10.310  54.786  31.043  1.00  0.00    -0.490 OA
ATOM     27  C   UNL     1      10.171  55.540  29.846  1.00  0.00     0.279 C 
ENDBRANCH   9  26
BRANCH  10  28
ATOM     28  O   UNL     1      11.913  56.391  32.773  1.00  0.00    -0.490 OA
ATOM     29  C   UNL     1      11.084  56.821  33.846  1.00  0.00     0.278 C 
ENDBRANCH  10  28
TORSDOF 7
ENDMDL
MODEL 8
REMARK VINA RESULT:    -4.648      2.632      8.860
REMARK INTER + INTRA:          -7.252
REMARK INTER:                  -6.468
REMARK INTRA:                  -0.785
REMARK UNBOUND:                -0.702
REMARK SMILES COc1ccc(-c2cc(=O)c3c(OC)c(OC)c(OC)c(OC)c3o2)cc1OC
REMARK SMILES IDX 7 1 8 2 9 3 10 4 11 5 24 6 25 7 21 8 18 9 15 10 12 11 6 12
REMARK SMILES IDX 3 13 27 14 4 15 26 16 5 17 2 18 1 19 28 20 29 21 22 22 23 23
REMARK SMILES IDX 13 24 14 25 19 26 20 27 16 28 17 29
REMARK H PARENT
REMARK Flexibility Score: inf
ROOT
ATOM      1  C   UNL     1      14.991  50.285  31.482  1.00  0.00     0.138 A 
ATOM      2  C   UNL     1      15.113  50.903  32.736  1.00  0.00     0.100 A 
ATOM      3  C   UNL     1      15.123  52.294  32.817  1.00  0.00     0.197 A 
ATOM      4  O   UNL     1      15.242  52.830  33.951  1.00  0.00    -0.289 OA
ATOM      5  C   UNL     1      14.997  53.067  31.639  1.00  0.00     0.115 A 
ATOM      6  C   UNL     1      14.844  52.375  30.420  1.00  0.00     0.188 A 
ATOM      7  O   UNL     1      14.854  51.043  30.397  1.00  0.00    -0.452 OA
ATOM      8  C   UNL     1      14.693  53.076  29.217  1.00  0.00     0.209 A 
ATOM      9  C   UNL     1      14.771  54.489  29.198  1.00  0.00     0.211 A 
ATOM     10  C   UNL     1      14.915  55.196  30.423  1.00  0.00     0.208 A 
ATOM     11  C   UNL     1      15.000  54.482  31.646  1.00  0.00     0.179 A 
ENDROOT
BRANCH   1  12
ATOM     12  C   UNL     1      14.996  48.805  31.327  1.00  0.00     0.021 A 
ATOM     13  C   UNL     1      14.939  45.993  31.045  1.00  0.00     0.160 A 
ATOM     14  C   UNL     1      15.970  46.733  30.450  1.00  0.00     0.161 A 
ATOM     15  C   UNL     1      13.939  46.660  31.773  1.00  0.00     0.051 A 
ATOM     16  C   UNL     1      15.990  48.135  30.585  1.00  0.00     0.062 A 
ATOM     17  C   UNL     1      13.968  48.047  31.908  1.00  0.00     0.016 A 
BRANCH  13  18
ATOM     18  O   UNL     1      14.942  44.598  30.888  1.00  0.00    -0.493 OA
ATOM     19  C   UNL     1      13.912  43.856  30.244  1.00  0.00     0.278 C 
ENDBRANCH  13  18
BRANCH  14  20
ATOM     20  O   UNL     1      16.957  46.038  29.733  1.00  0.00    -0.493 OA
ATOM     21  C   UNL     1      17.040  45.988  28.314  1.00  0.00     0.278 C 
ENDBRANCH  14  20
ENDBRANCH   1  12
BRANCH   8  22
ATOM     22  O   UNL     1      14.483  52.357  28.037  1.00  0.00    -0.490 OA
ATOM     23  C   UNL     1      15.559  51.943  27.203  1.00  0.00     0.278 C 
ENDBRANCH   8  22
BRANCH  11  24
ATOM     24  O   UNL     1      15.113  55.140  32.887  1.00  0.00    -0.492 OA
ATOM     25  C   UNL     1      14.095  55.905  33.529  1.00  0.00     0.278 C 
ENDBRANCH  11  24
BRANCH   9  26
ATOM     26  O   UNL     1      14.720  55.226  28.000  1.00  0.00    -0.490 OA
ATOM     27  C   UNL     1      15.818  55.659  27.208  1.00  0.00     0.279 C 
ENDBRANCH   9  26
BRANCH  10  28
ATOM     28  O   UNL     1      15.010  56.600  30.483  1.00  0.00    -0.490 OA
ATOM     29  C   UNL     1      16.193  57.390  30.524  1.00  0.00     0.278 C 
ENDBRANCH  10  28
TORSDOF 7
ENDMDL
MODEL 9
REMARK VINA RESULT:    -4.559      3.320     10.821
REMARK INTER + INTRA:          -7.126
REMARK INTER:                  -6.475
REMARK INTRA:                  -0.651
REMARK UNBOUND:                -0.702
REMARK SMILES COc1ccc(-c2cc(=O)c3c(OC)c(OC)c(OC)c(OC)c3o2)cc1OC
REMARK SMILES IDX 7 1 8 2 9 3 10 4 11 5 24 6 25 7 21 8 18 9 15 10 12 11 6 12
REMARK SMILES IDX 3 13 27 14 4 15 26 16 5 17 2 18 1 19 28 20 29 21 22 22 23 23
REMARK SMILES IDX 13 24 14 25 19 26 20 27 16 28 17 29
REMARK H PARENT
REMARK Flexibility Score: inf
ROOT
ATOM      1  C   UNL     1      13.576  54.108  32.449  1.00  0.00     0.138 A 
ATOM      2  C   UNL     1      12.381  54.110  33.183  1.00  0.00     0.100 A 
ATOM      3  C   UNL     1      11.808  55.323  33.558  1.00  0.00     0.197 A 
ATOM      4  O   UNL     1      10.739  55.304  34.225  1.00  0.00    -0.289 OA
ATOM      5  C   UNL     1      12.429  56.538  33.184  1.00  0.00     0.115 A 
ATOM      6  C   UNL     1      13.610  56.456  32.418  1.00  0.00     0.188 A 
ATOM      7  O   UNL     1      14.122  55.269  32.097  1.00  0.00    -0.452 OA
ATOM      8  C   UNL     1      14.267  57.619  31.995  1.00  0.00     0.209 A 
ATOM      9  C   UNL     1      13.798  58.891  32.400  1.00  0.00     0.211 A 
ATOM     10  C   UNL     1      12.603  58.984  33.163  1.00  0.00     0.208 A 
ATOM     11  C   UNL     1      11.905  57.806  33.532  1.00  0.00     0.179 A 
ENDROOT
BRANCH   1  12
ATOM     12  C   UNL     1      14.249  52.845  32.037  1.00  0.00     0.021 A 
ATOM     13  C   UNL     1      15.519  50.425  31.318  1.00  0.00     0.160 A 
ATOM     14  C   UNL     1      14.894  51.204  30.334  1.00  0.00     0.161 A 
ATOM     15  C   UNL     1      15.503  50.855  32.655  1.00  0.00     0.051 A 
ATOM     16  C   UNL     1      14.254  52.405  30.698  1.00  0.00     0.062 A 
ATOM     17  C   UNL     1      14.873  52.048  33.008  1.00  0.00     0.016 A 
BRANCH  13  18
ATOM     18  O   UNL     1      16.144  49.230  30.926  1.00  0.00    -0.493 OA
ATOM     19  C   UNL     1      15.504  47.958  30.892  1.00  0.00     0.278 C 
ENDBRANCH  13  18
BRANCH  14  20
ATOM     20  O   UNL     1      14.931  50.750  29.006  1.00  0.00    -0.493 OA
ATOM     21  C   UNL     1      15.908  51.136  28.047  1.00  0.00     0.278 C 
ENDBRANCH  14  20
ENDBRANCH   1  12
BRANCH   8  22
ATOM     22  O   UNL     1      15.400  57.499  31.187  1.00  0.00    -0.490 OA
ATOM     23  C   UNL     1      16.714  57.446  31.730  1.00  0.00     0.278 C 
ENDBRANCH   8  22
BRANCH  11  24
ATOM     24  O   UNL     1      10.701  57.850  34.263  1.00  0.00    -0.492 OA
ATOM     25  C   UNL     1      10.554  58.279  35.615  1.00  0.00     0.278 C 
ENDBRANCH  11  24
BRANCH   9  26
ATOM     26  O   UNL     1      14.482  60.079  32.077  1.00  0.00    -0.490 OA
ATOM     27  C   UNL     1      15.424  60.776  32.882  1.00  0.00     0.279 C 
ENDBRANCH   9  26
BRANCH  10  28
ATOM     28  O   UNL     1      12.081  60.214  33.611  1.00  0.00    -0.490 OA
ATOM     29  C   UNL     1      11.197  61.087  32.917  1.00  0.00     0.278 C 
ENDBRANCH  10  28
TORSDOF 7
ENDMDL
