MODEL 1
REMARK VINA RESULT:    -2.561      0.000      0.000
REMARK INTER + INTRA:          -4.191
REMARK INTER:                  -3.609
REMARK INTRA:                  -0.582
REMARK UNBOUND:                -0.582
REMARK SMILES CCCCCCCCC(=O)[O-]
REMARK SMILES IDX 6 1 7 2 8 3 9 4 10 5 11 6 5 7 4 8 3 9 2 10 1 11
REMARK H PARENT
REMARK Flexibility Score: inf
ROOT
ATOM      1  C   UNL     1      65.694 127.991  -7.853  1.00  0.00     0.000 C 
ENDROOT
BRANCH   1   2
ATOM      2  C   UNL     1      66.231 129.355  -7.375  1.00  0.00     0.006 C 
BRANCH   2   3
ATOM      3  C   UNL     1      66.643 129.391  -5.894  1.00  0.00     0.053 C 
BRANCH   3   4
ATOM      4  C   UNL     1      65.488 129.106  -4.984  1.00  0.00     0.041 C 
ATOM      5  O   UNL     1      65.401 127.994  -4.401  1.00  0.00    -0.550 OA
ATOM      6  O   UNL     1      64.491 130.056  -4.807  1.00  0.00    -0.550 OA
ENDBRANCH   3   4
ENDBRANCH   2   3
ENDBRANCH   1   2
BRANCH   1   7
ATOM      7  C   UNL     1      64.177 127.947  -8.125  1.00  0.00     0.000 C 
BRANCH   7   8
ATOM      8  C   UNL     1      63.460 129.311  -8.058  1.00  0.00    -0.000 C 
BRANCH   8   9
ATOM      9  C   UNL     1      62.128 129.307  -7.287  1.00  0.00    -0.000 C 
BRANCH   9  10
ATOM     10  C   UNL     1      61.826 127.954  -6.627  1.00  0.00    -0.003 C 
ATOM     11  C   UNL     1      60.371 127.875  -6.176  1.00  0.00     0.004 C 
ENDBRANCH   9  10
ENDBRANCH   8   9
ENDBRANCH   7   8
ENDBRANCH   1   7
TORSDOF 7
ENDMDL
MODEL 2
REMARK VINA RESULT:    -2.227      1.991      2.645
REMARK INTER + INTRA:          -3.720
REMARK INTER:                  -3.298
REMARK INTRA:                  -0.422
REMARK UNBOUND:                -0.582
REMARK SMILES CCCCCCCCC(=O)[O-]
REMARK SMILES IDX 6 1 7 2 8 3 9 4 10 5 11 6 5 7 4 8 3 9 2 10 1 11
REMARK H PARENT
REMARK Flexibility Score: inf
ROOT
ATOM      1  C   UNL     1      64.197 130.235  -5.887  1.00  0.00     0.000 C 
ENDROOT
BRANCH   1   2
ATOM      2  C   UNL     1      65.165 129.073  -5.584  1.00  0.00     0.006 C 
BRANCH   2   3
ATOM      3  C   UNL     1      66.640 129.381  -5.890  1.00  0.00     0.053 C 
BRANCH   3   4
ATOM      4  C   UNL     1      66.905 129.447  -7.362  1.00  0.00     0.041 C 
ATOM      5  O   UNL     1      66.921 130.559  -7.953  1.00  0.00    -0.550 OA
ATOM      6  O   UNL     1      67.101 128.279  -8.088  1.00  0.00    -0.550 OA
ENDBRANCH   3   4
ENDBRANCH   2   3
ENDBRANCH   1   2
BRANCH   1   7
ATOM      7  C   UNL     1      63.261 130.007  -7.090  1.00  0.00     0.000 C 
BRANCH   7   8
ATOM      8  C   UNL     1      63.474 128.678  -7.843  1.00  0.00    -0.000 C 
BRANCH   8   9
ATOM      9  C   UNL     1      62.191 127.875  -8.119  1.00  0.00    -0.000 C 
BRANCH   9  10
ATOM     10  C   UNL     1      60.937 128.537  -7.531  1.00  0.00    -0.003 C 
ATOM     11  C   UNL     1      60.636 128.000  -6.134  1.00  0.00     0.004 C 
ENDBRANCH   9  10
ENDBRANCH   8   9
ENDBRANCH   7   8
ENDBRANCH   1   7
TORSDOF 7
ENDMDL
MODEL 3
REMARK VINA RESULT:    -1.749      2.358      4.491
REMARK INTER + INTRA:          -3.047
REMARK INTER:                  -2.823
REMARK INTRA:                  -0.224
REMARK UNBOUND:                -0.582
REMARK SMILES CCCCCCCCC(=O)[O-]
REMARK SMILES IDX 6 1 7 2 8 3 9 4 10 5 11 6 5 7 4 8 3 9 2 10 1 11
REMARK H PARENT
REMARK Flexibility Score: inf
ROOT
ATOM      1  C   UNL     1      64.163 130.220  -7.081  1.00  0.00     0.000 C 
ENDROOT
BRANCH   1   2
ATOM      2  C   UNL     1      62.764 130.004  -7.691  1.00  0.00     0.006 C 
BRANCH   2   3
ATOM      3  C   UNL     1      62.397 128.530  -7.930  1.00  0.00     0.053 C 
BRANCH   3   4
ATOM      4  C   UNL     1      61.229 128.100  -7.097  1.00  0.00     0.041 C 
ATOM      5  O   UNL     1      60.091 127.972  -7.620  1.00  0.00    -0.550 OA
ATOM      6  O   UNL     1      61.391 127.875  -5.736  1.00  0.00    -0.550 OA
ENDBRANCH   3   4
ENDBRANCH   2   3
ENDBRANCH   1   2
BRANCH   1   7
ATOM      7  C   UNL     1      65.220 130.779  -8.054  1.00  0.00     0.000 C 
BRANCH   7   8
ATOM      8  C   UNL     1      66.660 130.280  -7.816  1.00  0.00    -0.000 C 
BRANCH   8   9
ATOM      9  C   UNL     1      66.814 128.750  -7.756  1.00  0.00    -0.000 C 
BRANCH   9  10
ATOM     10  C   UNL     1      67.114 128.237  -6.341  1.00  0.00    -0.003 C 
ATOM     11  C   UNL     1      65.826 127.897  -5.595  1.00  0.00     0.004 C 
ENDBRANCH   9  10
ENDBRANCH   8   9
ENDBRANCH   7   8
ENDBRANCH   1   7
TORSDOF 7
ENDMDL
MODEL 4
REMARK VINA RESULT:    -1.488     21.485     22.758
REMARK INTER + INTRA:          -2.679
REMARK INTER:                  -2.451
REMARK INTRA:                  -0.229
REMARK UNBOUND:                -0.582
REMARK SMILES CCCCCCCCC(=O)[O-]
REMARK SMILES IDX 6 1 7 2 8 3 9 4 10 5 11 6 5 7 4 8 3 9 2 10 1 11
REMARK H PARENT
REMARK Flexibility Score: inf
ROOT
ATOM      1  C   UNL     1      55.117 147.080  -2.013  1.00  0.00     0.000 C 
ENDROOT
BRANCH   1   2
ATOM      2  C   UNL     1      54.406 148.125  -2.897  1.00  0.00     0.006 C 
BRANCH   2   3
ATOM      3  C   UNL     1      54.510 147.855  -4.406  1.00  0.00     0.053 C 
BRANCH   3   4
ATOM      4  C   UNL     1      53.179 147.950  -5.086  1.00  0.00     0.041 C 
ATOM      5  O   UNL     1      53.107 147.944  -6.343  1.00  0.00    -0.550 OA
ATOM      6  O   UNL     1      52.019 148.079  -4.331  1.00  0.00    -0.550 OA
ENDBRANCH   3   4
ENDBRANCH   2   3
ENDBRANCH   1   2
BRANCH   1   7
ATOM      7  C   UNL     1      54.883 147.240  -0.498  1.00  0.00     0.000 C 
BRANCH   7   8
ATOM      8  C   UNL     1      53.614 148.027  -0.111  1.00  0.00    -0.000 C 
BRANCH   8   9
ATOM      9  C   UNL     1      52.577 147.229   0.699  1.00  0.00    -0.000 C 
BRANCH   9  10
ATOM     10  C   UNL     1      51.685 148.125   1.571  1.00  0.00    -0.003 C 
ATOM     11  C   UNL     1      50.235 148.084   1.096  1.00  0.00     0.004 C 
ENDBRANCH   9  10
ENDBRANCH   8   9
ENDBRANCH   7   8
ENDBRANCH   1   7
TORSDOF 7
ENDMDL
MODEL 5
REMARK VINA RESULT:    -1.472     21.952     22.623
REMARK INTER + INTRA:          -2.657
REMARK INTER:                  -2.455
REMARK INTRA:                  -0.202
REMARK UNBOUND:                -0.582
REMARK SMILES CCCCCCCCC(=O)[O-]
REMARK SMILES IDX 6 1 7 2 8 3 9 4 10 5 11 6 5 7 4 8 3 9 2 10 1 11
REMARK H PARENT
REMARK Flexibility Score: inf
ROOT
ATOM      1  C   UNL     1      53.078 147.507  -5.049  1.00  0.00     0.000 C 
ENDROOT
BRANCH   1   2
ATOM      2  C   UNL     1      52.988 148.125  -3.639  1.00  0.00     0.006 C 
BRANCH   2   3
ATOM      3  C   UNL     1      54.202 147.835  -2.741  1.00  0.00     0.053 C 
BRANCH   3   4
ATOM      4  C   UNL     1      53.857 147.927  -1.286  1.00  0.00     0.041 C 
ATOM      5  O   UNL     1      54.761 148.123  -0.432  1.00  0.00    -0.550 OA
ATOM      6  O   UNL     1      52.542 147.760  -0.870  1.00  0.00    -0.550 OA
ENDBRANCH   3   4
ENDBRANCH   2   3
ENDBRANCH   1   2
BRANCH   1   7
ATOM      7  C   UNL     1      52.128 148.125  -6.093  1.00  0.00     0.000 C 
BRANCH   7   8
ATOM      8  C   UNL     1      52.241 147.532  -7.513  1.00  0.00    -0.000 C 
BRANCH   8   9
ATOM      9  C   UNL     1      50.927 146.981  -8.093  1.00  0.00    -0.000 C 
BRANCH   9  10
ATOM     10  C   UNL     1      49.788 148.011  -8.073  1.00  0.00    -0.003 C 
ATOM     11  C   UNL     1      48.480 147.375  -7.611  1.00  0.00     0.004 C 
ENDBRANCH   9  10
ENDBRANCH   8   9
ENDBRANCH   7   8
ENDBRANCH   1   7
TORSDOF 7
ENDMDL
MODEL 6
REMARK VINA RESULT:    -1.275     22.049     22.836
REMARK INTER + INTRA:          -2.380
REMARK INTER:                  -2.264
REMARK INTRA:                  -0.115
REMARK UNBOUND:                -0.582
REMARK SMILES CCCCCCCCC(=O)[O-]
REMARK SMILES IDX 6 1 7 2 8 3 9 4 10 5 11 6 5 7 4 8 3 9 2 10 1 11
REMARK H PARENT
REMARK Flexibility Score: inf
ROOT
ATOM      1  C   UNL     1      54.390 146.991  -0.975  1.00  0.00     0.000 C 
ENDROOT
BRANCH   1   2
ATOM      2  C   UNL     1      54.184 147.895   0.257  1.00  0.00     0.006 C 
BRANCH   2   3
ATOM      3  C   UNL     1      53.226 147.320   1.313  1.00  0.00     0.053 C 
BRANCH   3   4
ATOM      4  C   UNL     1      51.802 147.695   1.040  1.00  0.00     0.041 C 
ATOM      5  O   UNL     1      51.451 148.053  -0.115  1.00  0.00    -0.550 OA
ATOM      6  O   UNL     1      50.869 147.683   2.070  1.00  0.00    -0.550 OA
ENDBRANCH   3   4
ENDBRANCH   2   3
ENDBRANCH   1   2
BRANCH   1   7
ATOM      7  C   UNL     1      54.745 147.735  -2.278  1.00  0.00     0.000 C 
BRANCH   7   8
ATOM      8  C   UNL     1      53.542 148.105  -3.170  1.00  0.00    -0.000 C 
BRANCH   8   9
ATOM      9  C   UNL     1      53.723 147.793  -4.665  1.00  0.00    -0.000 C 
BRANCH   9  10
ATOM     10  C   UNL     1      52.476 148.125  -5.498  1.00  0.00    -0.003 C 
ATOM     11  C   UNL     1      52.788 148.090  -6.992  1.00  0.00     0.004 C 
ENDBRANCH   9  10
ENDBRANCH   8   9
ENDBRANCH   7   8
ENDBRANCH   1   7
TORSDOF 7
ENDMDL
MODEL 7
REMARK VINA RESULT:    -1.247     22.136     23.163
REMARK INTER + INTRA:          -2.339
REMARK INTER:                  -2.161
REMARK INTRA:                  -0.178
REMARK UNBOUND:                -0.582
REMARK SMILES CCCCCCCCC(=O)[O-]
REMARK SMILES IDX 6 1 7 2 8 3 9 4 10 5 11 6 5 7 4 8 3 9 2 10 1 11
REMARK H PARENT
REMARK Flexibility Score: inf
ROOT
ATOM      1  C   UNL     1      53.682 147.112  -0.439  1.00  0.00     0.000 C 
ENDROOT
BRANCH   1   2
ATOM      2  C   UNL     1      53.444 148.037   0.772  1.00  0.00     0.006 C 
BRANCH   2   3
ATOM      3  C   UNL     1      52.523 147.444   1.851  1.00  0.00     0.053 C 
BRANCH   3   4
ATOM      4  C   UNL     1      51.078 147.725   1.571  1.00  0.00     0.041 C 
ATOM      5  O   UNL     1      50.217 147.577   2.478  1.00  0.00    -0.550 OA
ATOM      6  O   UNL     1      50.679 148.117   0.300  1.00  0.00    -0.550 OA
ENDBRANCH   3   4
ENDBRANCH   2   3
ENDBRANCH   1   2
BRANCH   1   7
ATOM      7  C   UNL     1      54.014 147.838  -1.758  1.00  0.00     0.000 C 
BRANCH   7   8
ATOM      8  C   UNL     1      52.805 148.119  -2.673  1.00  0.00    -0.000 C 
BRANCH   8   9
ATOM      9  C   UNL     1      53.019 147.773  -4.156  1.00  0.00    -0.000 C 
BRANCH   9  10
ATOM     10  C   UNL     1      54.437 148.101  -4.646  1.00  0.00    -0.003 C 
ATOM     11  C   UNL     1      54.542 147.957  -6.161  1.00  0.00     0.004 C 
ENDBRANCH   9  10
ENDBRANCH   8   9
ENDBRANCH   7   8
ENDBRANCH   1   7
TORSDOF 7
ENDMDL
MODEL 8
REMARK VINA RESULT:    -1.181     22.229     23.508
REMARK INTER + INTRA:          -2.246
REMARK INTER:                  -2.040
REMARK INTRA:                  -0.205
REMARK UNBOUND:                -0.582
REMARK SMILES CCCCCCCCC(=O)[O-]
REMARK SMILES IDX 6 1 7 2 8 3 9 4 10 5 11 6 5 7 4 8 3 9 2 10 1 11
REMARK H PARENT
REMARK Flexibility Score: inf
ROOT
ATOM      1  C   UNL     1      53.503 146.881   0.007  1.00  0.00     0.000 C 
ENDROOT
BRANCH   1   2
ATOM      2  C   UNL     1      52.985 147.945  -0.982  1.00  0.00     0.006 C 
BRANCH   2   3
ATOM      3  C   UNL     1      53.821 148.079  -2.265  1.00  0.00     0.053 C 
BRANCH   3   4
ATOM      4  C   UNL     1      52.971 148.028  -3.497  1.00  0.00     0.041 C 
ATOM      5  O   UNL     1      53.507 147.948  -4.633  1.00  0.00    -0.550 OA
ATOM      6  O   UNL     1      51.588 148.102  -3.391  1.00  0.00    -0.550 OA
ENDBRANCH   3   4
ENDBRANCH   2   3
ENDBRANCH   1   2
BRANCH   1   7
ATOM      7  C   UNL     1      53.449 147.290   1.492  1.00  0.00     0.000 C 
BRANCH   7   8
ATOM      8  C   UNL     1      52.194 148.085   1.908  1.00  0.00    -0.000 C 
BRANCH   8   9
ATOM      9  C   UNL     1      50.858 147.359   1.671  1.00  0.00    -0.000 C 
BRANCH   9  10
ATOM     10  C   UNL     1      49.924 148.125   0.724  1.00  0.00    -0.003 C 
ATOM     11  C   UNL     1      48.510 147.550   0.764  1.00  0.00     0.004 C 
ENDBRANCH   9  10
ENDBRANCH   8   9
ENDBRANCH   7   8
ENDBRANCH   1   7
TORSDOF 7
ENDMDL
MODEL 9
REMARK VINA RESULT:    -1.068      2.150      4.672
REMARK INTER + INTRA:          -2.087
REMARK INTER:                  -2.086
REMARK INTRA:                  -0.001
REMARK UNBOUND:                -0.582
REMARK SMILES CCCCCCCCC(=O)[O-]
REMARK SMILES IDX 6 1 7 2 8 3 9 4 10 5 11 6 5 7 4 8 3 9 2 10 1 11
REMARK H PARENT
REMARK Flexibility Score: inf
ROOT
ATOM      1  C   UNL     1      62.665 128.951  -7.918  1.00  0.00     0.000 C 
ENDROOT
BRANCH   1   2
ATOM      2  C   UNL     1      61.134 129.139  -7.915  1.00  0.00     0.006 C 
BRANCH   2   3
ATOM      3  C   UNL     1      60.355 127.978  -7.275  1.00  0.00     0.053 C 
BRANCH   3   4
ATOM      4  C   UNL     1      60.584 127.897  -5.797  1.00  0.00     0.041 C 
ATOM      5  O   UNL     1      59.605 127.876  -5.005  1.00  0.00    -0.550 OA
ATOM      6  O   UNL     1      61.878 127.880  -5.292  1.00  0.00    -0.550 OA
ENDBRANCH   3   4
ENDBRANCH   2   3
ENDBRANCH   1   2
BRANCH   1   7
ATOM      7  C   UNL     1      63.477 130.206  -7.540  1.00  0.00     0.000 C 
BRANCH   7   8
ATOM      8  C   UNL     1      64.997 129.986  -7.401  1.00  0.00    -0.000 C 
BRANCH   8   9
ATOM      9  C   UNL     1      65.458 129.498  -6.016  1.00  0.00    -0.000 C 
BRANCH   9  10
ATOM     10  C   UNL     1      66.498 128.371  -6.098  1.00  0.00    -0.003 C 
ATOM     11  C   UNL     1      66.865 128.067  -7.547  1.00  0.00     0.004 C 
ENDBRANCH   9  10
ENDBRANCH   8   9
ENDBRANCH   7   8
ENDBRANCH   1   7
TORSDOF 7
ENDMDL
