MODEL 1
REMARK VINA RESULT:    -3.495      0.000      0.000
REMARK INTER + INTRA:         -13.497
REMARK INTER:                  -8.806
REMARK INTRA:                  -4.691
REMARK UNBOUND:                -4.691
REMARK SMILES CCCCCCCCCCCCCCCCCCCCCCCCCCCC(=O)[O-]
REMARK SMILES IDX 15 1 16 2 17 3 18 4 19 5 20 6 21 7 22 8 23 9 24 10 25 11
REMARK SMILES IDX 26 12 27 13 28 14 29 15 30 16 14 17 13 18 12 19 11 20 10 21
REMARK SMILES IDX 9 22 8 23 7 24 6 25 5 26 4 27 3 28 2 29 1 30
REMARK H PARENT
REMARK Flexibility Score: inf
ROOT
ATOM      1  C   UNL     1     -44.399 -22.418  28.329  1.00  0.00     0.000 C 
ENDROOT
BRANCH   1   2
ATOM      2  C   UNL     1     -45.884 -22.734  28.575  1.00  0.00     0.000 C 
BRANCH   2   3
ATOM      3  C   UNL     1     -46.819 -22.032  27.574  1.00  0.00     0.000 C 
BRANCH   3   4
ATOM      4  C   UNL     1     -47.625 -20.846  28.143  1.00  0.00     0.000 C 
BRANCH   4   5
ATOM      5  C   UNL     1     -47.407 -19.500  27.429  1.00  0.00     0.000 C 
BRANCH   5   6
ATOM      6  C   UNL     1     -47.101 -19.665  25.931  1.00  0.00     0.000 C 
BRANCH   6   7
ATOM      7  C   UNL     1     -46.684 -18.346  25.254  1.00  0.00     0.000 C 
BRANCH   7   8
ATOM      8  C   UNL     1     -46.732 -17.094  26.155  1.00  0.00     0.000 C 
BRANCH   8   9
ATOM      9  C   UNL     1     -45.362 -16.568  26.619  1.00  0.00     0.000 C 
BRANCH   9  10
ATOM     10  C   UNL     1     -44.193 -17.154  25.815  1.00  0.00     0.000 C 
BRANCH  10  11
ATOM     11  C   UNL     1     -43.399 -16.043  25.117  1.00  0.00     0.000 C 
BRANCH  11  12
ATOM     12  C   UNL     1     -41.940 -16.459  24.898  1.00  0.00     0.006 C 
BRANCH  12  13
ATOM     13  C   UNL     1     -41.002 -15.667  25.816  1.00  0.00     0.053 C 
BRANCH  13  14
ATOM     14  C   UNL     1     -40.870 -14.247  25.357  1.00  0.00     0.041 C 
ATOM     15  O   UNL     1     -40.920 -13.304  26.190  1.00  0.00    -0.550 OA
ATOM     16  O   UNL     1     -40.674 -13.968  24.008  1.00  0.00    -0.550 OA
ENDBRANCH  13  14
ENDBRANCH  12  13
ENDBRANCH  11  12
ENDBRANCH  10  11
ENDBRANCH   9  10
ENDBRANCH   8   9
ENDBRANCH   7   8
ENDBRANCH   6   7
ENDBRANCH   5   6
ENDBRANCH   4   5
ENDBRANCH   3   4
ENDBRANCH   2   3
ENDBRANCH   1   2
BRANCH   1  17
ATOM     17  C   UNL     1     -44.058 -22.239  26.838  1.00  0.00     0.000 C 
BRANCH  17  18
ATOM     18  C   UNL     1     -43.553 -20.840  26.439  1.00  0.00     0.000 C 
BRANCH  18  19
ATOM     19  C   UNL     1     -43.616 -20.585  24.922  1.00  0.00     0.000 C 
BRANCH  19  20
ATOM     20  C   UNL     1     -42.260 -20.159  24.334  1.00  0.00     0.000 C 
BRANCH  20  21
ATOM     21  C   UNL     1     -41.285 -21.339  24.168  1.00  0.00     0.000 C 
BRANCH  21  22
ATOM     22  C   UNL     1     -39.853 -20.979  24.599  1.00  0.00    -0.000 C 
BRANCH  22  23
ATOM     23  C   UNL     1     -39.672 -19.470  24.841  1.00  0.00    -0.000 C 
BRANCH  23  24
ATOM     24  C   UNL     1     -39.224 -19.144  26.278  1.00  0.00    -0.000 C 
BRANCH  24  25
ATOM     25  C   UNL     1     -40.335 -19.206  27.342  1.00  0.00    -0.000 C 
BRANCH  25  26
ATOM     26  C   UNL     1     -40.265 -20.476  28.207  1.00  0.00    -0.000 C 
BRANCH  26  27
ATOM     27  C   UNL     1     -38.821 -20.942  28.470  1.00  0.00    -0.000 C 
BRANCH  27  28
ATOM     28  C   UNL     1     -38.450 -22.315  27.872  1.00  0.00    -0.000 C 
BRANCH  28  29
ATOM     29  C   UNL     1     -37.265 -22.297  26.890  1.00  0.00    -0.003 C 
ATOM     30  C   UNL     1     -37.213 -23.537  25.998  1.00  0.00     0.004 C 
ENDBRANCH  28  29
ENDBRANCH  27  28
ENDBRANCH  26  27
ENDBRANCH  25  26
ENDBRANCH  24  25
ENDBRANCH  23  24
ENDBRANCH  22  23
ENDBRANCH  21  22
ENDBRANCH  20  21
ENDBRANCH  19  20
ENDBRANCH  18  19
ENDBRANCH  17  18
ENDBRANCH   1  17
TORSDOF 26
ENDMDL
MODEL 2
REMARK VINA RESULT:    -3.480      1.711      3.581
REMARK INTER + INTRA:         -13.461
REMARK INTER:                  -8.252
REMARK INTRA:                  -5.208
REMARK UNBOUND:                -4.691
REMARK SMILES CCCCCCCCCCCCCCCCCCCCCCCCCCCC(=O)[O-]
REMARK SMILES IDX 15 1 16 2 17 3 18 4 19 5 20 6 21 7 22 8 23 9 24 10 25 11
REMARK SMILES IDX 26 12 27 13 28 14 29 15 30 16 14 17 13 18 12 19 11 20 10 21
REMARK SMILES IDX 9 22 8 23 7 24 6 25 5 26 4 27 3 28 2 29 1 30
REMARK H PARENT
REMARK Flexibility Score: inf
ROOT
ATOM      1  C   UNL     1     -41.896 -23.595  28.180  1.00  0.00     0.000 C 
ENDROOT
BRANCH   1   2
ATOM      2  C   UNL     1     -42.633 -22.376  28.760  1.00  0.00     0.000 C 
BRANCH   2   3
ATOM      3  C   UNL     1     -43.931 -22.044  28.001  1.00  0.00     0.000 C 
BRANCH   3   4
ATOM      4  C   UNL     1     -45.080 -23.056  28.186  1.00  0.00     0.000 C 
BRANCH   4   5
ATOM      5  C   UNL     1     -46.485 -22.440  28.305  1.00  0.00     0.000 C 
BRANCH   5   6
ATOM      6  C   UNL     1     -47.266 -22.480  26.981  1.00  0.00     0.000 C 
BRANCH   6   7
ATOM      7  C   UNL     1     -48.036 -21.176  26.697  1.00  0.00     0.000 C 
BRANCH   7   8
ATOM      8  C   UNL     1     -47.580 -19.946  27.510  1.00  0.00     0.000 C 
BRANCH   8   9
ATOM      9  C   UNL     1     -46.794 -18.889  26.715  1.00  0.00     0.000 C 
BRANCH   9  10
ATOM     10  C   UNL     1     -45.787 -19.506  25.734  1.00  0.00     0.000 C 
BRANCH  10  11
ATOM     11  C   UNL     1     -44.372 -18.975  25.998  1.00  0.00     0.000 C 
BRANCH  11  12
ATOM     12  C   UNL     1     -43.984 -17.901  24.975  1.00  0.00     0.006 C 
BRANCH  12  13
ATOM     13  C   UNL     1     -42.880 -16.992  25.528  1.00  0.00     0.053 C 
BRANCH  13  14
ATOM     14  C   UNL     1     -41.771 -16.826  24.535  1.00  0.00     0.041 C 
ATOM     15  O   UNL     1     -41.861 -17.346  23.391  1.00  0.00    -0.550 OA
ATOM     16  O   UNL     1     -40.644 -16.082  24.868  1.00  0.00    -0.550 OA
ENDBRANCH  13  14
ENDBRANCH  12  13
ENDBRANCH  11  12
ENDBRANCH  10  11
ENDBRANCH   9  10
ENDBRANCH   8   9
ENDBRANCH   7   8
ENDBRANCH   6   7
ENDBRANCH   5   6
ENDBRANCH   4   5
ENDBRANCH   3   4
ENDBRANCH   2   3
ENDBRANCH   1   2
BRANCH   1  17
ATOM     17  C   UNL     1     -41.618 -23.472  26.671  1.00  0.00     0.000 C 
BRANCH  17  18
ATOM     18  C   UNL     1     -40.142 -23.625  26.255  1.00  0.00     0.000 C 
BRANCH  18  19
ATOM     19  C   UNL     1     -39.164 -23.470  27.433  1.00  0.00     0.000 C 
BRANCH  19  20
ATOM     20  C   UNL     1     -37.961 -22.575  27.092  1.00  0.00     0.000 C 
BRANCH  20  21
ATOM     21  C   UNL     1     -37.832 -21.366  28.039  1.00  0.00     0.000 C 
BRANCH  21  22
ATOM     22  C   UNL     1     -39.198 -20.876  28.551  1.00  0.00    -0.000 C 
BRANCH  22  23
ATOM     23  C   UNL     1     -39.643 -19.565  27.881  1.00  0.00    -0.000 C 
BRANCH  23  24
ATOM     24  C   UNL     1     -40.821 -19.759  26.908  1.00  0.00    -0.000 C 
BRANCH  24  25
ATOM     25  C   UNL     1     -40.424 -20.018  25.442  1.00  0.00    -0.000 C 
BRANCH  25  26
ATOM     26  C   UNL     1     -39.062 -19.408  25.074  1.00  0.00    -0.000 C 
BRANCH  26  27
ATOM     27  C   UNL     1     -38.281 -20.258  24.053  1.00  0.00    -0.000 C 
BRANCH  27  28
ATOM     28  C   UNL     1     -39.036 -21.485  23.501  1.00  0.00    -0.000 C 
BRANCH  28  29
ATOM     29  C   UNL     1     -38.169 -22.739  23.290  1.00  0.00    -0.003 C 
ATOM     30  C   UNL     1     -36.671 -22.437  23.309  1.00  0.00     0.004 C 
ENDBRANCH  28  29
ENDBRANCH  27  28
ENDBRANCH  26  27
ENDBRANCH  25  26
ENDBRANCH  24  25
ENDBRANCH  23  24
ENDBRANCH  22  23
ENDBRANCH  21  22
ENDBRANCH  20  21
ENDBRANCH  19  20
ENDBRANCH  18  19
ENDBRANCH  17  18
ENDBRANCH   1  17
TORSDOF 26
ENDMDL
MODEL 3
REMARK VINA RESULT:    -3.475      1.644      3.495
REMARK INTER + INTRA:         -13.449
REMARK INTER:                  -8.291
REMARK INTRA:                  -5.157
REMARK UNBOUND:                -4.691
REMARK SMILES CCCCCCCCCCCCCCCCCCCCCCCCCCCC(=O)[O-]
REMARK SMILES IDX 15 1 16 2 17 3 18 4 19 5 20 6 21 7 22 8 23 9 24 10 25 11
REMARK SMILES IDX 26 12 27 13 28 14 29 15 30 16 14 17 13 18 12 19 11 20 10 21
REMARK SMILES IDX 9 22 8 23 7 24 6 25 5 26 4 27 3 28 2 29 1 30
REMARK H PARENT
REMARK Flexibility Score: inf
ROOT
ATOM      1  C   UNL     1     -43.127 -20.443  25.185  1.00  0.00     0.000 C 
ENDROOT
BRANCH   1   2
ATOM      2  C   UNL     1     -43.750 -20.669  26.573  1.00  0.00     0.000 C 
BRANCH   2   3
ATOM      3  C   UNL     1     -44.418 -22.048  26.713  1.00  0.00     0.000 C 
BRANCH   3   4
ATOM      4  C   UNL     1     -45.007 -22.358  28.105  1.00  0.00     0.000 C 
BRANCH   4   5
ATOM      5  C   UNL     1     -46.543 -22.321  28.191  1.00  0.00     0.000 C 
BRANCH   5   6
ATOM      6  C   UNL     1     -47.214 -22.240  26.810  1.00  0.00     0.000 C 
BRANCH   6   7
ATOM      7  C   UNL     1     -48.119 -21.004  26.653  1.00  0.00     0.000 C 
BRANCH   7   8
ATOM      8  C   UNL     1     -47.759 -19.800  27.549  1.00  0.00     0.000 C 
BRANCH   8   9
ATOM      9  C   UNL     1     -46.935 -18.696  26.863  1.00  0.00     0.000 C 
BRANCH   9  10
ATOM     10  C   UNL     1     -46.742 -18.940  25.359  1.00  0.00     0.000 C 
BRANCH  10  11
ATOM     11  C   UNL     1     -45.787 -17.904  24.756  1.00  0.00     0.000 C 
BRANCH  11  12
ATOM     12  C   UNL     1     -45.211 -16.985  25.840  1.00  0.00     0.006 C 
BRANCH  12  13
ATOM     13  C   UNL     1     -43.690 -16.853  25.694  1.00  0.00     0.053 C 
BRANCH  13  14
ATOM     14  C   UNL     1     -43.310 -15.478  25.238  1.00  0.00     0.041 C 
ATOM     15  O   UNL     1     -44.007 -14.483  25.573  1.00  0.00    -0.550 OA
ATOM     16  O   UNL     1     -42.175 -15.292  24.455  1.00  0.00    -0.550 OA
ENDBRANCH  13  14
ENDBRANCH  12  13
ENDBRANCH  11  12
ENDBRANCH  10  11
ENDBRANCH   9  10
ENDBRANCH   8   9
ENDBRANCH   7   8
ENDBRANCH   6   7
ENDBRANCH   5   6
ENDBRANCH   4   5
ENDBRANCH   3   4
ENDBRANCH   2   3
ENDBRANCH   1   2
BRANCH   1  17
ATOM     17  C   UNL     1     -42.873 -21.753  24.417  1.00  0.00     0.000 C 
BRANCH  17  18
ATOM     18  C   UNL     1     -41.502 -22.410  24.664  1.00  0.00     0.000 C 
BRANCH  18  19
ATOM     19  C   UNL     1     -41.572 -23.946  24.731  1.00  0.00     0.000 C 
BRANCH  19  20
ATOM     20  C   UNL     1     -41.569 -24.478  26.174  1.00  0.00     0.000 C 
BRANCH  20  21
ATOM     21  C   UNL     1     -40.891 -23.513  27.164  1.00  0.00     0.000 C 
BRANCH  21  22
ATOM     22  C   UNL     1     -41.475 -23.625  28.583  1.00  0.00    -0.000 C 
BRANCH  22  23
ATOM     23  C   UNL     1     -41.490 -22.277  29.323  1.00  0.00    -0.000 C 
BRANCH  23  24
ATOM     24  C   UNL     1     -40.975 -21.112  28.455  1.00  0.00    -0.000 C 
BRANCH  24  25
ATOM     25  C   UNL     1     -39.597 -20.554  28.858  1.00  0.00    -0.000 C 
BRANCH  25  26
ATOM     26  C   UNL     1     -39.011 -19.594  27.810  1.00  0.00    -0.000 C 
BRANCH  26  27
ATOM     27  C   UNL     1     -40.095 -18.840  27.017  1.00  0.00    -0.000 C 
BRANCH  27  28
ATOM     28  C   UNL     1     -39.686 -18.395  25.596  1.00  0.00    -0.000 C 
BRANCH  28  29
ATOM     29  C   UNL     1     -39.209 -19.529  24.673  1.00  0.00    -0.003 C 
ATOM     30  C   UNL     1     -37.885 -19.213  23.977  1.00  0.00     0.004 C 
ENDBRANCH  28  29
ENDBRANCH  27  28
ENDBRANCH  26  27
ENDBRANCH  25  26
ENDBRANCH  24  25
ENDBRANCH  23  24
ENDBRANCH  22  23
ENDBRANCH  21  22
ENDBRANCH  20  21
ENDBRANCH  19  20
ENDBRANCH  18  19
ENDBRANCH  17  18
ENDBRANCH   1  17
TORSDOF 26
ENDMDL
MODEL 4
REMARK VINA RESULT:    -3.460      2.091      7.197
REMARK INTER + INTRA:         -13.410
REMARK INTER:                  -7.864
REMARK INTRA:                  -5.546
REMARK UNBOUND:                -4.691
REMARK SMILES CCCCCCCCCCCCCCCCCCCCCCCCCCCC(=O)[O-]
REMARK SMILES IDX 15 1 16 2 17 3 18 4 19 5 20 6 21 7 22 8 23 9 24 10 25 11
REMARK SMILES IDX 26 12 27 13 28 14 29 15 30 16 14 17 13 18 12 19 11 20 10 21
REMARK SMILES IDX 9 22 8 23 7 24 6 25 5 26 4 27 3 28 2 29 1 30
REMARK H PARENT
REMARK Flexibility Score: inf
ROOT
ATOM      1  C   UNL     1     -42.691 -20.592  25.069  1.00  0.00     0.000 C 
ENDROOT
BRANCH   1   2
ATOM      2  C   UNL     1     -41.448 -19.687  25.098  1.00  0.00     0.000 C 
BRANCH   2   3
ATOM      3  C   UNL     1     -41.192 -19.067  26.483  1.00  0.00     0.000 C 
BRANCH   3   4
ATOM      4  C   UNL     1     -39.708 -18.916  26.874  1.00  0.00     0.000 C 
BRANCH   4   5
ATOM      5  C   UNL     1     -39.144 -20.041  27.760  1.00  0.00     0.000 C 
BRANCH   5   6
ATOM      6  C   UNL     1     -40.068 -20.389  28.938  1.00  0.00     0.000 C 
BRANCH   6   7
ATOM      7  C   UNL     1     -40.742 -21.766  28.788  1.00  0.00     0.000 C 
BRANCH   7   8
ATOM      8  C   UNL     1     -39.907 -22.836  28.054  1.00  0.00     0.000 C 
BRANCH   8   9
ATOM      9  C   UNL     1     -40.551 -23.409  26.779  1.00  0.00     0.000 C 
BRANCH   9  10
ATOM     10  C   UNL     1     -39.848 -22.947  25.494  1.00  0.00     0.000 C 
BRANCH  10  11
ATOM     11  C   UNL     1     -38.324 -23.053  25.637  1.00  0.00     0.000 C 
BRANCH  11  12
ATOM     12  C   UNL     1     -37.619 -21.908  24.902  1.00  0.00     0.006 C 
BRANCH  12  13
ATOM     13  C   UNL     1     -38.499 -21.358  23.773  1.00  0.00     0.053 C 
BRANCH  13  14
ATOM     14  C   UNL     1     -37.919 -20.101  23.201  1.00  0.00     0.041 C 
ATOM     15  O   UNL     1     -38.665 -19.121  22.937  1.00  0.00    -0.550 OA
ATOM     16  O   UNL     1     -36.550 -20.005  22.976  1.00  0.00    -0.550 OA
ENDBRANCH  13  14
ENDBRANCH  12  13
ENDBRANCH  11  12
ENDBRANCH  10  11
ENDBRANCH   9  10
ENDBRANCH   8   9
ENDBRANCH   7   8
ENDBRANCH   6   7
ENDBRANCH   5   6
ENDBRANCH   4   5
ENDBRANCH   3   4
ENDBRANCH   2   3
ENDBRANCH   1   2
BRANCH   1  17
ATOM     17  C   UNL     1     -43.373 -20.728  26.443  1.00  0.00     0.000 C 
BRANCH  17  18
ATOM     18  C   UNL     1     -44.018 -22.097  26.730  1.00  0.00     0.000 C 
BRANCH  18  19
ATOM     19  C   UNL     1     -44.422 -22.276  28.204  1.00  0.00     0.000 C 
BRANCH  19  20
ATOM     20  C   UNL     1     -45.947 -22.299  28.403  1.00  0.00     0.000 C 
BRANCH  20  21
ATOM     21  C   UNL     1     -46.715 -22.550  27.091  1.00  0.00     0.000 C 
BRANCH  21  22
ATOM     22  C   UNL     1     -47.781 -21.473  26.823  1.00  0.00    -0.000 C 
BRANCH  22  23
ATOM     23  C   UNL     1     -47.570 -20.210  27.675  1.00  0.00    -0.000 C 
BRANCH  23  24
ATOM     24  C   UNL     1     -46.861 -19.080  26.905  1.00  0.00    -0.000 C 
BRANCH  24  25
ATOM     25  C   UNL     1     -46.805 -19.263  25.376  1.00  0.00    -0.000 C 
BRANCH  25  26
ATOM     26  C   UNL     1     -46.125 -18.086  24.657  1.00  0.00    -0.000 C 
BRANCH  26  27
ATOM     27  C   UNL     1     -44.816 -17.644  25.338  1.00  0.00    -0.000 C 
BRANCH  27  28
ATOM     28  C   UNL     1     -44.138 -16.401  24.725  1.00  0.00    -0.000 C 
BRANCH  28  29
ATOM     29  C   UNL     1     -42.834 -15.965  25.416  1.00  0.00    -0.003 C 
ATOM     30  C   UNL     1     -41.628 -15.989  24.478  1.00  0.00     0.004 C 
ENDBRANCH  28  29
ENDBRANCH  27  28
ENDBRANCH  26  27
ENDBRANCH  25  26
ENDBRANCH  24  25
ENDBRANCH  23  24
ENDBRANCH  22  23
ENDBRANCH  21  22
ENDBRANCH  20  21
ENDBRANCH  19  20
ENDBRANCH  18  19
ENDBRANCH  17  18
ENDBRANCH   1  17
TORSDOF 26
ENDMDL
MODEL 5
REMARK VINA RESULT:    -3.446      3.254      7.168
REMARK INTER + INTRA:         -13.374
REMARK INTER:                  -7.841
REMARK INTRA:                  -5.533
REMARK UNBOUND:                -4.691
REMARK SMILES CCCCCCCCCCCCCCCCCCCCCCCCCCCC(=O)[O-]
REMARK SMILES IDX 15 1 16 2 17 3 18 4 19 5 20 6 21 7 22 8 23 9 24 10 25 11
REMARK SMILES IDX 26 12 27 13 28 14 29 15 30 16 14 17 13 18 12 19 11 20 10 21
REMARK SMILES IDX 9 22 8 23 7 24 6 25 5 26 4 27 3 28 2 29 1 30
REMARK H PARENT
REMARK Flexibility Score: inf
ROOT
ATOM      1  C   UNL     1     -43.555 -19.356  24.354  1.00  0.00     0.000 C 
ENDROOT
BRANCH   1   2
ATOM      2  C   UNL     1     -43.462 -19.515  25.881  1.00  0.00     0.000 C 
BRANCH   2   3
ATOM      3  C   UNL     1     -42.638 -20.743  26.307  1.00  0.00     0.000 C 
BRANCH   3   4
ATOM      4  C   UNL     1     -42.187 -21.666  25.156  1.00  0.00     0.000 C 
BRANCH   4   5
ATOM      5  C   UNL     1     -40.664 -21.791  24.972  1.00  0.00     0.000 C 
BRANCH   5   6
ATOM      6  C   UNL     1     -40.066 -20.628  24.163  1.00  0.00     0.000 C 
BRANCH   6   7
ATOM      7  C   UNL     1     -38.978 -19.856  24.934  1.00  0.00     0.000 C 
BRANCH   7   8
ATOM      8  C   UNL     1     -39.426 -18.511  25.544  1.00  0.00     0.000 C 
BRANCH   8   9
ATOM      9  C   UNL     1     -39.759 -18.551  27.045  1.00  0.00     0.000 C 
BRANCH   9  10
ATOM     10  C   UNL     1     -39.068 -19.709  27.781  1.00  0.00     0.000 C 
BRANCH  10  11
ATOM     11  C   UNL     1     -40.025 -20.370  28.779  1.00  0.00     0.000 C 
BRANCH  11  12
ATOM     12  C   UNL     1     -40.033 -21.894  28.612  1.00  0.00     0.006 C 
BRANCH  12  13
ATOM     13  C   UNL     1     -38.671 -22.397  28.118  1.00  0.00     0.053 C 
BRANCH  13  14
ATOM     14  C   UNL     1     -38.656 -23.891  28.007  1.00  0.00     0.041 C 
ATOM     15  O   UNL     1     -37.576 -24.526  28.138  1.00  0.00    -0.550 OA
ATOM     16  O   UNL     1     -39.840 -24.584  27.776  1.00  0.00    -0.550 OA
ENDBRANCH  13  14
ENDBRANCH  12  13
ENDBRANCH  11  12
ENDBRANCH  10  11
ENDBRANCH   9  10
ENDBRANCH   8   9
ENDBRANCH   7   8
ENDBRANCH   6   7
ENDBRANCH   5   6
ENDBRANCH   4   5
ENDBRANCH   3   4
ENDBRANCH   2   3
ENDBRANCH   1   2
BRANCH   1  17
ATOM     17  C   UNL     1     -42.878 -18.073  23.838  1.00  0.00     0.000 C 
BRANCH  17  18
ATOM     18  C   UNL     1     -42.842 -16.898  24.833  1.00  0.00     0.000 C 
BRANCH  18  19
ATOM     19  C   UNL     1     -43.852 -15.788  24.492  1.00  0.00     0.000 C 
BRANCH  19  20
ATOM     20  C   UNL     1     -45.231 -16.023  25.133  1.00  0.00     0.000 C 
BRANCH  20  21
ATOM     21  C   UNL     1     -45.152 -16.227  26.658  1.00  0.00     0.000 C 
BRANCH  21  22
ATOM     22  C   UNL     1     -46.383 -16.965  27.212  1.00  0.00    -0.000 C 
BRANCH  22  23
ATOM     23  C   UNL     1     -46.813 -18.145  26.323  1.00  0.00    -0.000 C 
BRANCH  23  24
ATOM     24  C   UNL     1     -47.251 -19.378  27.135  1.00  0.00    -0.000 C 
BRANCH  24  25
ATOM     25  C   UNL     1     -46.738 -20.730  26.605  1.00  0.00    -0.000 C 
BRANCH  25  26
ATOM     26  C   UNL     1     -46.139 -21.617  27.708  1.00  0.00    -0.000 C 
BRANCH  26  27
ATOM     27  C   UNL     1     -46.227 -23.120  27.381  1.00  0.00    -0.000 C 
BRANCH  27  28
ATOM     28  C   UNL     1     -45.205 -23.632  26.344  1.00  0.00    -0.000 C 
BRANCH  28  29
ATOM     29  C   UNL     1     -44.129 -24.578  26.906  1.00  0.00    -0.003 C 
ATOM     30  C   UNL     1     -43.231 -23.907  27.945  1.00  0.00     0.004 C 
ENDBRANCH  28  29
ENDBRANCH  27  28
ENDBRANCH  26  27
ENDBRANCH  25  26
ENDBRANCH  24  25
ENDBRANCH  23  24
ENDBRANCH  22  23
ENDBRANCH  21  22
ENDBRANCH  20  21
ENDBRANCH  19  20
ENDBRANCH  18  19
ENDBRANCH  17  18
ENDBRANCH   1  17
TORSDOF 26
ENDMDL
MODEL 6
REMARK VINA RESULT:    -3.434      1.724      3.476
REMARK INTER + INTRA:         -13.345
REMARK INTER:                  -9.025
REMARK INTRA:                  -4.321
REMARK UNBOUND:                -4.691
REMARK SMILES CCCCCCCCCCCCCCCCCCCCCCCCCCCC(=O)[O-]
REMARK SMILES IDX 15 1 16 2 17 3 18 4 19 5 20 6 21 7 22 8 23 9 24 10 25 11
REMARK SMILES IDX 26 12 27 13 28 14 29 15 30 16 14 17 13 18 12 19 11 20 10 21
REMARK SMILES IDX 9 22 8 23 7 24 6 25 5 26 4 27 3 28 2 29 1 30
REMARK H PARENT
REMARK Flexibility Score: inf
ROOT
ATOM      1  C   UNL     1     -43.889 -22.108  27.011  1.00  0.00     0.000 C 
ENDROOT
BRANCH   1   2
ATOM      2  C   UNL     1     -44.420 -22.285  28.444  1.00  0.00     0.000 C 
BRANCH   2   3
ATOM      3  C   UNL     1     -45.923 -22.615  28.489  1.00  0.00     0.000 C 
BRANCH   3   4
ATOM      4  C   UNL     1     -46.787 -21.900  27.430  1.00  0.00     0.000 C 
BRANCH   4   5
ATOM      5  C   UNL     1     -47.651 -20.741  27.960  1.00  0.00     0.000 C 
BRANCH   5   6
ATOM      6  C   UNL     1     -47.400 -19.422  27.211  1.00  0.00     0.000 C 
BRANCH   6   7
ATOM      7  C   UNL     1     -46.318 -19.545  26.122  1.00  0.00     0.000 C 
BRANCH   7   8
ATOM      8  C   UNL     1     -45.111 -18.596  26.275  1.00  0.00     0.000 C 
BRANCH   8   9
ATOM      9  C   UNL     1     -44.134 -18.580  25.087  1.00  0.00     0.000 C 
BRANCH   9  10
ATOM     10  C   UNL     1     -42.668 -18.431  25.520  1.00  0.00     0.000 C 
BRANCH  10  11
ATOM     11  C   UNL     1     -42.117 -17.057  25.121  1.00  0.00     0.000 C 
BRANCH  11  12
ATOM     12  C   UNL     1     -43.143 -16.267  24.300  1.00  0.00     0.006 C 
BRANCH  12  13
ATOM     13  C   UNL     1     -43.068 -14.770  24.624  1.00  0.00     0.053 C 
BRANCH  13  14
ATOM     14  C   UNL     1     -44.215 -14.347  25.489  1.00  0.00     0.041 C 
ATOM     15  O   UNL     1     -44.251 -13.183  25.970  1.00  0.00    -0.550 OA
ATOM     16  O   UNL     1     -45.254 -15.234  25.750  1.00  0.00    -0.550 OA
ENDBRANCH  13  14
ENDBRANCH  12  13
ENDBRANCH  11  12
ENDBRANCH  10  11
ENDBRANCH   9  10
ENDBRANCH   8   9
ENDBRANCH   7   8
ENDBRANCH   6   7
ENDBRANCH   5   6
ENDBRANCH   4   5
ENDBRANCH   3   4
ENDBRANCH   2   3
ENDBRANCH   1   2
BRANCH   1  17
ATOM     17  C   UNL     1     -42.359 -22.248  26.912  1.00  0.00     0.000 C 
BRANCH  17  18
ATOM     18  C   UNL     1     -41.547 -21.095  27.532  1.00  0.00     0.000 C 
BRANCH  18  19
ATOM     19  C   UNL     1     -40.586 -21.560  28.640  1.00  0.00     0.000 C 
BRANCH  19  20
ATOM     20  C   UNL     1     -39.370 -20.632  28.799  1.00  0.00     0.000 C 
BRANCH  20  21
ATOM     21  C   UNL     1     -38.062 -21.274  28.299  1.00  0.00     0.000 C 
BRANCH  21  22
ATOM     22  C   UNL     1     -38.248 -22.751  27.911  1.00  0.00    -0.000 C 
BRANCH  22  23
ATOM     23  C   UNL     1     -37.742 -23.056  26.490  1.00  0.00    -0.000 C 
BRANCH  23  24
ATOM     24  C   UNL     1     -37.841 -21.842  25.546  1.00  0.00    -0.000 C 
BRANCH  24  25
ATOM     25  C   UNL     1     -39.038 -21.860  24.576  1.00  0.00    -0.000 C 
BRANCH  25  26
ATOM     26  C   UNL     1     -39.770 -20.510  24.504  1.00  0.00    -0.000 C 
BRANCH  26  27
ATOM     27  C   UNL     1     -39.035 -19.389  25.262  1.00  0.00    -0.000 C 
BRANCH  27  28
ATOM     28  C   UNL     1     -38.557 -18.206  24.394  1.00  0.00    -0.000 C 
BRANCH  28  29
ATOM     29  C   UNL     1     -37.305 -18.487  23.546  1.00  0.00    -0.003 C 
ATOM     30  C   UNL     1     -37.609 -18.589  22.052  1.00  0.00     0.004 C 
ENDBRANCH  28  29
ENDBRANCH  27  28
ENDBRANCH  26  27
ENDBRANCH  25  26
ENDBRANCH  24  25
ENDBRANCH  23  24
ENDBRANCH  22  23
ENDBRANCH  21  22
ENDBRANCH  20  21
ENDBRANCH  19  20
ENDBRANCH  18  19
ENDBRANCH  17  18
ENDBRANCH   1  17
TORSDOF 26
ENDMDL
MODEL 7
REMARK VINA RESULT:    -3.428      1.443      6.500
REMARK INTER + INTRA:         -13.330
REMARK INTER:                  -7.638
REMARK INTRA:                  -5.692
REMARK UNBOUND:                -4.691
REMARK SMILES CCCCCCCCCCCCCCCCCCCCCCCCCCCC(=O)[O-]
REMARK SMILES IDX 15 1 16 2 17 3 18 4 19 5 20 6 21 7 22 8 23 9 24 10 25 11
REMARK SMILES IDX 26 12 27 13 28 14 29 15 30 16 14 17 13 18 12 19 11 20 10 21
REMARK SMILES IDX 9 22 8 23 7 24 6 25 5 26 4 27 3 28 2 29 1 30
REMARK H PARENT
REMARK Flexibility Score: inf
ROOT
ATOM      1  C   UNL     1     -40.335 -21.847  28.511  1.00  0.00     0.000 C 
ENDROOT
BRANCH   1   2
ATOM      2  C   UNL     1     -40.104 -20.353  28.796  1.00  0.00     0.000 C 
BRANCH   2   3
ATOM      3  C   UNL     1     -39.101 -19.706  27.825  1.00  0.00     0.000 C 
BRANCH   3   4
ATOM      4  C   UNL     1     -38.630 -20.608  26.665  1.00  0.00     0.000 C 
BRANCH   4   5
ATOM      5  C   UNL     1     -38.572 -19.928  25.285  1.00  0.00     0.000 C 
BRANCH   5   6
ATOM      6  C   UNL     1     -39.432 -20.646  24.232  1.00  0.00     0.000 C 
BRANCH   6   7
ATOM      7  C   UNL     1     -40.553 -21.502  24.852  1.00  0.00     0.000 C 
BRANCH   7   8
ATOM      8  C   UNL     1     -41.974 -21.215  24.325  1.00  0.00     0.000 C 
BRANCH   8   9
ATOM      9  C   UNL     1     -43.013 -20.854  25.401  1.00  0.00     0.000 C 
BRANCH   9  10
ATOM     10  C   UNL     1     -42.641 -19.590  26.190  1.00  0.00     0.000 C 
BRANCH  10  11
ATOM     11  C   UNL     1     -42.356 -18.418  25.242  1.00  0.00     0.000 C 
BRANCH  11  12
ATOM     12  C   UNL     1     -41.313 -17.466  25.838  1.00  0.00     0.006 C 
BRANCH  12  13
ATOM     13  C   UNL     1     -40.538 -16.742  24.730  1.00  0.00     0.053 C 
BRANCH  13  14
ATOM     14  C   UNL     1     -41.123 -15.390  24.459  1.00  0.00     0.041 C 
ATOM     15  O   UNL     1     -40.569 -14.356  24.917  1.00  0.00    -0.550 OA
ATOM     16  O   UNL     1     -42.272 -15.272  23.684  1.00  0.00    -0.550 OA
ENDBRANCH  13  14
ENDBRANCH  12  13
ENDBRANCH  11  12
ENDBRANCH  10  11
ENDBRANCH   9  10
ENDBRANCH   8   9
ENDBRANCH   7   8
ENDBRANCH   6   7
ENDBRANCH   5   6
ENDBRANCH   4   5
ENDBRANCH   3   4
ENDBRANCH   2   3
ENDBRANCH   1   2
BRANCH   1  17
ATOM     17  C   UNL     1     -41.796 -22.283  28.724  1.00  0.00     0.000 C 
BRANCH  17  18
ATOM     18  C   UNL     1     -42.232 -23.538  27.945  1.00  0.00     0.000 C 
BRANCH  18  19
ATOM     19  C   UNL     1     -43.746 -23.582  27.670  1.00  0.00     0.000 C 
BRANCH  19  20
ATOM     20  C   UNL     1     -44.522 -22.504  28.445  1.00  0.00     0.000 C 
BRANCH  20  21
ATOM     21  C   UNL     1     -46.049 -22.667  28.325  1.00  0.00     0.000 C 
BRANCH  21  22
ATOM     22  C   UNL     1     -46.442 -23.754  27.309  1.00  0.00    -0.000 C 
BRANCH  22  23
ATOM     23  C   UNL     1     -47.254 -23.192  26.129  1.00  0.00    -0.000 C 
BRANCH  23  24
ATOM     24  C   UNL     1     -46.428 -22.259  25.224  1.00  0.00    -0.000 C 
BRANCH  24  25
ATOM     25  C   UNL     1     -47.096 -20.914  24.884  1.00  0.00    -0.000 C 
BRANCH  25  26
ATOM     26  C   UNL     1     -47.617 -20.173  26.126  1.00  0.00    -0.000 C 
BRANCH  26  27
ATOM     27  C   UNL     1     -46.537 -19.308  26.803  1.00  0.00    -0.000 C 
BRANCH  27  28
ATOM     28  C   UNL     1     -46.079 -18.073  25.999  1.00  0.00    -0.000 C 
BRANCH  28  29
ATOM     29  C   UNL     1     -45.437 -16.953  26.837  1.00  0.00    -0.003 C 
ATOM     30  C   UNL     1     -44.915 -15.797  25.985  1.00  0.00     0.004 C 
ENDBRANCH  28  29
ENDBRANCH  27  28
ENDBRANCH  26  27
ENDBRANCH  25  26
ENDBRANCH  24  25
ENDBRANCH  23  24
ENDBRANCH  22  23
ENDBRANCH  21  22
ENDBRANCH  20  21
ENDBRANCH  19  20
ENDBRANCH  18  19
ENDBRANCH  17  18
ENDBRANCH   1  17
TORSDOF 26
ENDMDL
MODEL 8
REMARK VINA RESULT:    -3.417      3.454      7.184
REMARK INTER + INTRA:         -13.302
REMARK INTER:                  -8.881
REMARK INTRA:                  -4.421
REMARK UNBOUND:                -4.691
REMARK SMILES CCCCCCCCCCCCCCCCCCCCCCCCCCCC(=O)[O-]
REMARK SMILES IDX 15 1 16 2 17 3 18 4 19 5 20 6 21 7 22 8 23 9 24 10 25 11
REMARK SMILES IDX 26 12 27 13 28 14 29 15 30 16 14 17 13 18 12 19 11 20 10 21
REMARK SMILES IDX 9 22 8 23 7 24 6 25 5 26 4 27 3 28 2 29 1 30
REMARK H PARENT
REMARK Flexibility Score: inf
ROOT
ATOM      1  C   UNL     1     -46.732 -21.906  28.514  1.00  0.00     0.000 C 
ENDROOT
BRANCH   1   2
ATOM      2  C   UNL     1     -45.504 -22.059  27.600  1.00  0.00     0.000 C 
BRANCH   2   3
ATOM      3  C   UNL     1     -44.196 -22.264  28.385  1.00  0.00     0.000 C 
BRANCH   3   4
ATOM      4  C   UNL     1     -43.046 -22.915  27.590  1.00  0.00     0.000 C 
BRANCH   4   5
ATOM      5  C   UNL     1     -41.687 -22.199  27.694  1.00  0.00     0.000 C 
BRANCH   5   6
ATOM      6  C   UNL     1     -41.318 -21.834  29.141  1.00  0.00     0.000 C 
BRANCH   6   7
ATOM      7  C   UNL     1     -40.216 -20.762  29.228  1.00  0.00     0.000 C 
BRANCH   7   8
ATOM      8  C   UNL     1     -40.035 -19.892  27.966  1.00  0.00     0.000 C 
BRANCH   8   9
ATOM      9  C   UNL     1     -38.661 -20.004  27.283  1.00  0.00     0.000 C 
BRANCH   9  10
ATOM     10  C   UNL     1     -37.867 -21.237  27.737  1.00  0.00     0.000 C 
BRANCH  10  11
ATOM     11  C   UNL     1     -37.788 -22.280  26.615  1.00  0.00     0.000 C 
BRANCH  11  12
ATOM     12  C   UNL     1     -37.494 -23.676  27.177  1.00  0.00     0.006 C 
BRANCH  12  13
ATOM     13  C   UNL     1     -38.243 -23.905  28.495  1.00  0.00     0.053 C 
BRANCH  13  14
ATOM     14  C   UNL     1     -39.330 -24.922  28.327  1.00  0.00     0.041 C 
ATOM     15  O   UNL     1     -40.119 -25.169  29.278  1.00  0.00    -0.550 OA
ATOM     16  O   UNL     1     -39.481 -25.586  27.115  1.00  0.00    -0.550 OA
ENDBRANCH  13  14
ENDBRANCH  12  13
ENDBRANCH  11  12
ENDBRANCH  10  11
ENDBRANCH   9  10
ENDBRANCH   8   9
ENDBRANCH   7   8
ENDBRANCH   6   7
ENDBRANCH   5   6
ENDBRANCH   4   5
ENDBRANCH   3   4
ENDBRANCH   2   3
ENDBRANCH   1   2
BRANCH   1  17
ATOM     17  C   UNL     1     -47.626 -20.713  28.130  1.00  0.00     0.000 C 
BRANCH  17  18
ATOM     18  C   UNL     1     -48.034 -20.642  26.646  1.00  0.00     0.000 C 
BRANCH  18  19
ATOM     19  C   UNL     1     -47.260 -19.571  25.858  1.00  0.00     0.000 C 
BRANCH  19  20
ATOM     20  C   UNL     1     -46.681 -18.470  26.763  1.00  0.00     0.000 C 
BRANCH  20  21
ATOM     21  C   UNL     1     -45.347 -17.907  26.237  1.00  0.00     0.000 C 
BRANCH  21  22
ATOM     22  C   UNL     1     -44.595 -18.918  25.353  1.00  0.00    -0.000 C 
BRANCH  22  23
ATOM     23  C   UNL     1     -43.258 -19.360  25.970  1.00  0.00    -0.000 C 
BRANCH  23  24
ATOM     24  C   UNL     1     -42.158 -19.588  24.915  1.00  0.00    -0.000 C 
BRANCH  24  25
ATOM     25  C   UNL     1     -41.206 -18.398  24.691  1.00  0.00    -0.000 C 
BRANCH  25  26
ATOM     26  C   UNL     1     -41.214 -17.398  25.860  1.00  0.00    -0.000 C 
BRANCH  26  27
ATOM     27  C   UNL     1     -41.428 -15.944  25.401  1.00  0.00    -0.000 C 
BRANCH  27  28
ATOM     28  C   UNL     1     -42.896 -15.539  25.149  1.00  0.00    -0.000 C 
BRANCH  28  29
ATOM     29  C   UNL     1     -43.370 -15.688  23.693  1.00  0.00    -0.003 C 
ATOM     30  C   UNL     1     -43.490 -14.348  22.967  1.00  0.00     0.004 C 
ENDBRANCH  28  29
ENDBRANCH  27  28
ENDBRANCH  26  27
ENDBRANCH  25  26
ENDBRANCH  24  25
ENDBRANCH  23  24
ENDBRANCH  22  23
ENDBRANCH  21  22
ENDBRANCH  20  21
ENDBRANCH  19  20
ENDBRANCH  18  19
ENDBRANCH  17  18
ENDBRANCH   1  17
TORSDOF 26
ENDMDL
MODEL 9
REMARK VINA RESULT:    -3.409      1.937      4.051
REMARK INTER + INTRA:         -13.282
REMARK INTER:                  -8.456
REMARK INTRA:                  -4.826
REMARK UNBOUND:                -4.691
REMARK SMILES CCCCCCCCCCCCCCCCCCCCCCCCCCCC(=O)[O-]
REMARK SMILES IDX 15 1 16 2 17 3 18 4 19 5 20 6 21 7 22 8 23 9 24 10 25 11
REMARK SMILES IDX 26 12 27 13 28 14 29 15 30 16 14 17 13 18 12 19 11 20 10 21
REMARK SMILES IDX 9 22 8 23 7 24 6 25 5 26 4 27 3 28 2 29 1 30
REMARK H PARENT
REMARK Flexibility Score: inf
ROOT
ATOM      1  C   UNL     1     -42.967 -19.366  25.978  1.00  0.00     0.000 C 
ENDROOT
BRANCH   1   2
ATOM      2  C   UNL     1     -42.586 -20.758  25.447  1.00  0.00     0.000 C 
BRANCH   2   3
ATOM      3  C   UNL     1     -43.472 -21.880  26.017  1.00  0.00     0.000 C 
BRANCH   3   4
ATOM      4  C   UNL     1     -44.213 -21.534  27.325  1.00  0.00     0.000 C 
BRANCH   4   5
ATOM      5  C   UNL     1     -44.848 -22.731  28.057  1.00  0.00     0.000 C 
BRANCH   5   6
ATOM      6  C   UNL     1     -46.385 -22.689  28.042  1.00  0.00     0.000 C 
BRANCH   6   7
ATOM      7  C   UNL     1     -46.975 -22.752  26.621  1.00  0.00     0.000 C 
BRANCH   7   8
ATOM      8  C   UNL     1     -47.820 -21.531  26.199  1.00  0.00     0.000 C 
BRANCH   8   9
ATOM      9  C   UNL     1     -48.223 -20.586  27.345  1.00  0.00     0.000 C 
BRANCH   9  10
ATOM     10  C   UNL     1     -47.248 -19.413  27.524  1.00  0.00     0.000 C 
BRANCH  10  11
ATOM     11  C   UNL     1     -46.834 -18.835  26.166  1.00  0.00     0.000 C 
BRANCH  11  12
ATOM     12  C   UNL     1     -46.173 -17.461  26.329  1.00  0.00     0.006 C 
BRANCH  12  13
ATOM     13  C   UNL     1     -47.089 -16.348  25.807  1.00  0.00     0.053 C 
BRANCH  13  14
ATOM     14  C   UNL     1     -46.432 -15.584  24.698  1.00  0.00     0.041 C 
ATOM     15  O   UNL     1     -45.265 -15.881  24.329  1.00  0.00    -0.550 OA
ATOM     16  O   UNL     1     -47.116 -14.555  24.061  1.00  0.00    -0.550 OA
ENDBRANCH  13  14
ENDBRANCH  12  13
ENDBRANCH  11  12
ENDBRANCH  10  11
ENDBRANCH   9  10
ENDBRANCH   8   9
ENDBRANCH   7   8
ENDBRANCH   6   7
ENDBRANCH   5   6
ENDBRANCH   4   5
ENDBRANCH   3   4
ENDBRANCH   2   3
ENDBRANCH   1   2
BRANCH   1  17
ATOM     17  C   UNL     1     -42.761 -18.246  24.942  1.00  0.00     0.000 C 
BRANCH  17  18
ATOM     18  C   UNL     1     -42.076 -16.972  25.471  1.00  0.00     0.000 C 
BRANCH  18  19
ATOM     19  C   UNL     1     -40.801 -16.604  24.691  1.00  0.00     0.000 C 
BRANCH  19  20
ATOM     20  C   UNL     1     -40.149 -17.819  24.011  1.00  0.00     0.000 C 
BRANCH  20  21
ATOM     21  C   UNL     1     -38.870 -18.289  24.729  1.00  0.00     0.000 C 
BRANCH  21  22
ATOM     22  C   UNL     1     -39.136 -19.467  25.683  1.00  0.00    -0.000 C 
BRANCH  22  23
ATOM     23  C   UNL     1     -39.393 -19.008  27.129  1.00  0.00    -0.000 C 
BRANCH  23  24
ATOM     24  C   UNL     1     -39.208 -20.139  28.158  1.00  0.00    -0.000 C 
BRANCH  24  25
ATOM     25  C   UNL     1     -40.511 -20.701  28.757  1.00  0.00    -0.000 C 
BRANCH  25  26
ATOM     26  C   UNL     1     -40.701 -22.200  28.475  1.00  0.00    -0.000 C 
BRANCH  26  27
ATOM     27  C   UNL     1     -39.513 -22.823  27.719  1.00  0.00    -0.000 C 
BRANCH  27  28
ATOM     28  C   UNL     1     -39.760 -23.117  26.225  1.00  0.00    -0.000 C 
BRANCH  28  29
ATOM     29  C   UNL     1     -38.489 -23.233  25.366  1.00  0.00    -0.003 C 
ATOM     30  C   UNL     1     -37.252 -22.656  26.054  1.00  0.00     0.004 C 
ENDBRANCH  28  29
ENDBRANCH  27  28
ENDBRANCH  26  27
ENDBRANCH  25  26
ENDBRANCH  24  25
ENDBRANCH  23  24
ENDBRANCH  22  23
ENDBRANCH  21  22
ENDBRANCH  20  21
ENDBRANCH  19  20
ENDBRANCH  18  19
ENDBRANCH  17  18
ENDBRANCH   1  17
TORSDOF 26
ENDMDL
