MODEL 1
REMARK VINA RESULT:    -8.635      0.000      0.000
REMARK INTER + INTRA:          -9.737
REMARK INTER:                  -9.644
REMARK INTRA:                  -0.093
REMARK UNBOUND:                -0.093
REMARK SMILES CC1(C)CC[C@]2(CO)CC=C3[C@]4(C)CC[C@@H]5C(C)(C)[C@@H](O)CC[C@]5(C)[C@H]4CC[C@@]3(C)[C@@H]2C1
REMARK SMILES IDX 1 1 2 2 4 3 5 4 6 5 9 6 10 7 11 8 12 9 14 10 15 11 16 12
REMARK SMILES IDX 17 13 20 14 22 15 23 16 24 17 26 18 27 19 28 20 29 21 31 22
REMARK SMILES IDX 32 23 30 24 25 25 18 26 19 27 13 28 3 29 7 30 8 31 21 33
REMARK H PARENT 8 32 21 34
REMARK Flexibility Score: inf
ROOT
ATOM      1  C   UNL     1       2.485  18.979  45.508  1.00  0.00     0.011 C 
ATOM      2  C   UNL     1       1.274  18.894  46.464  1.00  0.00    -0.035 C 
ATOM      3  C   UNL     1       0.226  17.956  45.838  1.00  0.00     0.007 C 
ATOM      4  C   UNL     1      -1.027  17.840  46.699  1.00  0.00     0.010 C 
ATOM      5  C   UNL     1      -1.698  19.201  47.103  1.00  0.00     0.001 C 
ATOM      6  C   UNL     1      -2.601  19.690  45.948  1.00  0.00     0.037 C 
ATOM      7  C   UNL     1      -3.395  20.887  46.385  1.00  0.00    -0.026 C 
ATOM      8  C   UNL     1      -2.871  21.819  47.224  1.00  0.00    -0.062 C 
ATOM      9  C   UNL     1      -3.835  22.854  47.869  1.00  0.00    -0.008 C 
ATOM     10  C   UNL     1      -4.597  23.628  46.741  1.00  0.00     0.012 C 
ATOM     11  C   UNL     1      -4.839  25.134  47.016  1.00  0.00     0.006 C 
ATOM     12  C   UNL     1      -5.156  25.424  48.511  1.00  0.00     0.003 C 
ATOM     13  C   UNL     1      -5.791  26.864  48.782  1.00  0.00    -0.006 C 
ATOM     14  C   UNL     1      -4.674  27.939  48.914  1.00  0.00     0.120 C 
ATOM     15  C   UNL     1      -3.629  27.573  49.972  1.00  0.00     0.033 C 
ATOM     16  C   UNL     1      -2.941  26.258  49.615  1.00  0.00     0.010 C 
ATOM     17  C   UNL     1      -3.900  25.029  49.424  1.00  0.00    -0.025 C 
ATOM     18  C   UNL     1      -3.033  23.891  48.708  1.00  0.00     0.005 C 
ATOM     19  C   UNL     1      -1.965  23.187  49.570  1.00  0.00     0.006 C 
ATOM     20  C   UNL     1      -0.848  22.648  48.680  1.00  0.00     0.012 C 
ATOM     21  C   UNL     1      -1.326  21.857  47.396  1.00  0.00    -0.008 C 
ATOM     22  C   UNL     1      -0.678  20.368  47.428  1.00  0.00     0.008 C 
ATOM     23  C   UNL     1       0.640  20.292  46.591  1.00  0.00     0.011 C 
ATOM     24  C   UNL     1      -0.860  22.690  46.159  1.00  0.00     0.016 C 
ATOM     25  C   UNL     1      -4.383  24.550  50.833  1.00  0.00     0.012 C 
ATOM     26  C   UNL     1      -6.738  27.302  47.631  1.00  0.00     0.014 C 
ATOM     27  C   UNL     1      -6.689  26.821  50.053  1.00  0.00     0.014 C 
ATOM     28  C   UNL     1      -4.850  22.061  48.754  1.00  0.00     0.016 C 
ATOM     29  C   UNL     1       1.785  18.375  47.829  1.00  0.00     0.011 C 
ENDROOT
BRANCH   5  30
ATOM     30  C   UNL     1      -2.581  18.879  48.362  1.00  0.00     0.163 C 
BRANCH  30  31
ATOM     31  O   UNL     1      -2.172  17.688  48.982  1.00  0.00    -0.396 OA
ATOM     32  H   UNL     1      -1.308  17.887  49.427  1.00  0.00     0.210 HD
ENDBRANCH  30  31
ENDBRANCH   5  30
BRANCH  14  33
ATOM     33  O   UNL     1      -5.205  29.222  49.158  1.00  0.00    -0.393 OA
ATOM     34  H   UNL     1      -5.312  29.335  50.138  1.00  0.00     0.210 HD
ENDBRANCH  14  33
TORSDOF 3
ENDMDL
MODEL 2
REMARK VINA RESULT:    -8.302      1.592      8.409
REMARK INTER + INTRA:          -9.366
REMARK INTER:                  -9.217
REMARK INTRA:                  -0.149
REMARK UNBOUND:                -0.093
REMARK SMILES CC1(C)CC[C@]2(CO)CC=C3[C@]4(C)CC[C@@H]5C(C)(C)[C@@H](O)CC[C@]5(C)[C@H]4CC[C@@]3(C)[C@@H]2C1
REMARK SMILES IDX 1 1 2 2 4 3 5 4 6 5 9 6 10 7 11 8 12 9 14 10 15 11 16 12
REMARK SMILES IDX 17 13 20 14 22 15 23 16 24 17 26 18 27 19 28 20 29 21 31 22
REMARK SMILES IDX 32 23 30 24 25 25 18 26 19 27 13 28 3 29 7 30 8 31 21 33
REMARK H PARENT 8 32 21 34
REMARK Flexibility Score: inf
ROOT
ATOM      1  C   UNL     1      -6.595  29.523  46.047  1.00  0.00     0.011 C 
ATOM      2  C   UNL     1      -6.557  28.493  47.199  1.00  0.00    -0.035 C 
ATOM      3  C   UNL     1      -5.802  29.120  48.386  1.00  0.00     0.007 C 
ATOM      4  C   UNL     1      -5.682  28.157  49.562  1.00  0.00     0.010 C 
ATOM      5  C   UNL     1      -5.074  26.749  49.223  1.00  0.00     0.001 C 
ATOM      6  C   UNL     1      -3.532  26.846  49.212  1.00  0.00     0.037 C 
ATOM      7  C   UNL     1      -2.931  25.477  49.078  1.00  0.00    -0.026 C 
ATOM      8  C   UNL     1      -3.515  24.517  48.315  1.00  0.00    -0.062 C 
ATOM      9  C   UNL     1      -3.013  23.052  48.462  1.00  0.00    -0.008 C 
ATOM     10  C   UNL     1      -1.476  22.998  48.169  1.00  0.00     0.012 C 
ATOM     11  C   UNL     1      -0.990  21.742  47.402  1.00  0.00     0.006 C 
ATOM     12  C   UNL     1      -1.748  20.452  47.828  1.00  0.00     0.003 C 
ATOM     13  C   UNL     1      -1.041  19.094  47.376  1.00  0.00    -0.006 C 
ATOM     14  C   UNL     1      -1.440  18.727  45.917  1.00  0.00     0.120 C 
ATOM     15  C   UNL     1      -2.959  18.668  45.722  1.00  0.00     0.033 C 
ATOM     16  C   UNL     1      -3.593  20.022  46.030  1.00  0.00     0.010 C 
ATOM     17  C   UNL     1      -3.303  20.586  47.466  1.00  0.00    -0.025 C 
ATOM     18  C   UNL     1      -3.732  22.127  47.436  1.00  0.00     0.005 C 
ATOM     19  C   UNL     1      -5.244  22.427  47.399  1.00  0.00     0.006 C 
ATOM     20  C   UNL     1      -5.493  23.785  46.748  1.00  0.00     0.012 C 
ATOM     21  C   UNL     1      -4.572  24.963  47.265  1.00  0.00    -0.008 C 
ATOM     22  C   UNL     1      -5.518  26.160  47.822  1.00  0.00     0.008 C 
ATOM     23  C   UNL     1      -5.763  27.257  46.735  1.00  0.00     0.011 C 
ATOM     24  C   UNL     1      -3.691  25.406  46.053  1.00  0.00     0.016 C 
ATOM     25  C   UNL     1      -4.170  19.793  48.499  1.00  0.00     0.012 C 
ATOM     26  C   UNL     1       0.508  19.205  47.430  1.00  0.00     0.014 C 
ATOM     27  C   UNL     1      -1.402  17.948  48.367  1.00  0.00     0.014 C 
ATOM     28  C   UNL     1      -3.294  22.606  49.933  1.00  0.00     0.016 C 
ATOM     29  C   UNL     1      -8.018  28.130  47.557  1.00  0.00     0.011 C 
ENDROOT
BRANCH   5  30
ATOM     30  C   UNL     1      -5.535  25.800  50.387  1.00  0.00     0.163 C 
BRANCH  30  31
ATOM     31  O   UNL     1      -6.925  25.607  50.370  1.00  0.00    -0.396 OA
ATOM     32  H   UNL     1      -7.330  26.504  50.249  1.00  0.00     0.210 HD
ENDBRANCH  30  31
ENDBRANCH   5  30
BRANCH  14  33
ATOM     33  O   UNL     1      -0.833  17.528  45.491  1.00  0.00    -0.393 OA
ATOM     34  H   UNL     1      -0.029  17.757  44.957  1.00  0.00     0.210 HD
ENDBRANCH  14  33
TORSDOF 3
ENDMDL
MODEL 3
REMARK VINA RESULT:    -7.782      1.688      8.133
REMARK INTER + INTRA:          -8.784
REMARK INTER:                  -8.674
REMARK INTRA:                  -0.111
REMARK UNBOUND:                -0.093
REMARK SMILES CC1(C)CC[C@]2(CO)CC=C3[C@]4(C)CC[C@@H]5C(C)(C)[C@@H](O)CC[C@]5(C)[C@H]4CC[C@@]3(C)[C@@H]2C1
REMARK SMILES IDX 1 1 2 2 4 3 5 4 6 5 9 6 10 7 11 8 12 9 14 10 15 11 16 12
REMARK SMILES IDX 17 13 20 14 22 15 23 16 24 17 26 18 27 19 28 20 29 21 31 22
REMARK SMILES IDX 32 23 30 24 25 25 18 26 19 27 13 28 3 29 7 30 8 31 21 33
REMARK H PARENT 8 32 21 34
REMARK Flexibility Score: inf
ROOT
ATOM      1  C   UNL     1      -2.088  28.274  53.393  1.00  0.00     0.011 C 
ATOM      2  C   UNL     1      -2.668  27.983  51.991  1.00  0.00    -0.035 C 
ATOM      3  C   UNL     1      -4.203  28.078  52.071  1.00  0.00     0.007 C 
ATOM      4  C   UNL     1      -4.867  27.768  50.734  1.00  0.00     0.010 C 
ATOM      5  C   UNL     1      -4.448  26.408  50.071  1.00  0.00     0.001 C 
ATOM      6  C   UNL     1      -5.276  25.259  50.690  1.00  0.00     0.037 C 
ATOM      7  C   UNL     1      -5.028  23.983  49.940  1.00  0.00    -0.026 C 
ATOM      8  C   UNL     1      -3.804  23.684  49.432  1.00  0.00    -0.062 C 
ATOM      9  C   UNL     1      -3.692  22.509  48.421  1.00  0.00    -0.008 C 
ATOM     10  C   UNL     1      -4.246  21.202  49.080  1.00  0.00     0.012 C 
ATOM     11  C   UNL     1      -3.479  19.903  48.726  1.00  0.00     0.006 C 
ATOM     12  C   UNL     1      -2.986  19.883  47.250  1.00  0.00     0.003 C 
ATOM     13  C   UNL     1      -2.547  18.442  46.722  1.00  0.00    -0.006 C 
ATOM     14  C   UNL     1      -1.071  18.141  47.113  1.00  0.00     0.120 C 
ATOM     15  C   UNL     1      -0.106  19.235  46.645  1.00  0.00     0.033 C 
ATOM     16  C   UNL     1      -0.469  20.577  47.275  1.00  0.00     0.010 C 
ATOM     17  C   UNL     1      -1.936  21.069  47.007  1.00  0.00    -0.025 C 
ATOM     18  C   UNL     1      -2.203  22.262  48.038  1.00  0.00     0.005 C 
ATOM     19  C   UNL     1      -1.485  23.597  47.756  1.00  0.00     0.006 C 
ATOM     20  C   UNL     1      -1.297  24.375  49.056  1.00  0.00     0.012 C 
ATOM     21  C   UNL     1      -2.577  24.467  49.981  1.00  0.00    -0.008 C 
ATOM     22  C   UNL     1      -2.920  26.033  50.247  1.00  0.00     0.008 C 
ATOM     23  C   UNL     1      -2.305  26.540  51.591  1.00  0.00     0.011 C 
ATOM     24  C   UNL     1      -2.233  23.695  51.296  1.00  0.00     0.016 C 
ATOM     25  C   UNL     1      -2.029  21.582  45.533  1.00  0.00     0.012 C 
ATOM     26  C   UNL     1      -3.435  17.315  47.317  1.00  0.00     0.014 C 
ATOM     27  C   UNL     1      -2.754  18.352  45.181  1.00  0.00     0.014 C 
ATOM     28  C   UNL     1      -4.551  22.884  47.170  1.00  0.00     0.016 C 
ATOM     29  C   UNL     1      -2.066  29.014  51.007  1.00  0.00     0.011 C 
ENDROOT
BRANCH   5  30
ATOM     30  C   UNL     1      -4.805  26.554  48.547  1.00  0.00     0.163 C 
BRANCH  30  31
ATOM     31  O   UNL     1      -6.140  26.949  48.371  1.00  0.00    -0.396 OA
ATOM     32  H   UNL     1      -6.683  26.371  48.967  1.00  0.00     0.210 HD
ENDBRANCH  30  31
ENDBRANCH   5  30
BRANCH  14  33
ATOM     33  O   UNL     1      -0.653  16.875  46.655  1.00  0.00    -0.393 OA
ATOM     34  H   UNL     1      -1.316  16.200  46.955  1.00  0.00     0.210 HD
ENDBRANCH  14  33
TORSDOF 3
ENDMDL
MODEL 4
REMARK VINA RESULT:    -7.698      1.882      3.720
REMARK INTER + INTRA:          -8.691
REMARK INTER:                  -8.502
REMARK INTRA:                  -0.189
REMARK UNBOUND:                -0.093
REMARK SMILES CC1(C)CC[C@]2(CO)CC=C3[C@]4(C)CC[C@@H]5C(C)(C)[C@@H](O)CC[C@]5(C)[C@H]4CC[C@@]3(C)[C@@H]2C1
REMARK SMILES IDX 1 1 2 2 4 3 5 4 6 5 9 6 10 7 11 8 12 9 14 10 15 11 16 12
REMARK SMILES IDX 17 13 20 14 22 15 23 16 24 17 26 18 27 19 28 20 29 21 31 22
REMARK SMILES IDX 32 23 30 24 25 25 18 26 19 27 13 28 3 29 7 30 8 31 21 33
REMARK H PARENT 8 32 21 34
REMARK Flexibility Score: inf
ROOT
ATOM      1  C   UNL     1      -2.748  17.526  50.031  1.00  0.00     0.011 C 
ATOM      2  C   UNL     1      -2.814  18.374  48.741  1.00  0.00    -0.035 C 
ATOM      3  C   UNL     1      -1.411  18.403  48.107  1.00  0.00     0.007 C 
ATOM      4  C   UNL     1      -1.372  19.254  46.842  1.00  0.00     0.010 C 
ATOM      5  C   UNL     1      -1.922  20.716  46.993  1.00  0.00     0.001 C 
ATOM      6  C   UNL     1      -0.814  21.623  47.575  1.00  0.00     0.037 C 
ATOM      7  C   UNL     1      -1.256  23.057  47.550  1.00  0.00    -0.026 C 
ATOM      8  C   UNL     1      -2.549  23.406  47.777  1.00  0.00    -0.062 C 
ATOM      9  C   UNL     1      -2.992  24.857  47.440  1.00  0.00    -0.008 C 
ATOM     10  C   UNL     1      -2.099  25.870  48.233  1.00  0.00     0.012 C 
ATOM     11  C   UNL     1      -2.832  27.127  48.766  1.00  0.00     0.006 C 
ATOM     12  C   UNL     1      -3.914  27.650  47.778  1.00  0.00     0.003 C 
ATOM     13  C   UNL     1      -4.417  29.135  48.079  1.00  0.00    -0.006 C 
ATOM     14  C   UNL     1      -5.545  29.125  49.152  1.00  0.00     0.120 C 
ATOM     15  C   UNL     1      -6.705  28.199  48.773  1.00  0.00     0.033 C 
ATOM     16  C   UNL     1      -6.218  26.760  48.626  1.00  0.00     0.010 C 
ATOM     17  C   UNL     1      -5.060  26.547  47.586  1.00  0.00    -0.025 C 
ATOM     18  C   UNL     1      -4.472  25.086  47.864  1.00  0.00     0.005 C 
ATOM     19  C   UNL     1      -5.351  23.891  47.441  1.00  0.00     0.006 C 
ATOM     20  C   UNL     1      -5.018  22.669  48.293  1.00  0.00     0.012 C 
ATOM     21  C   UNL     1      -3.476  22.361  48.462  1.00  0.00    -0.008 C 
ATOM     22  C   UNL     1      -3.184  20.850  47.940  1.00  0.00     0.008 C 
ATOM     23  C   UNL     1      -3.192  19.820  49.115  1.00  0.00     0.011 C 
ATOM     24  C   UNL     1      -3.147  22.548  49.978  1.00  0.00     0.016 C 
ATOM     25  C   UNL     1      -5.662  26.635  46.145  1.00  0.00     0.012 C 
ATOM     26  C   UNL     1      -3.268  30.036  48.608  1.00  0.00     0.014 C 
ATOM     27  C   UNL     1      -4.895  29.815  46.762  1.00  0.00     0.014 C 
ATOM     28  C   UNL     1      -2.797  25.062  45.903  1.00  0.00     0.016 C 
ATOM     29  C   UNL     1      -3.868  17.734  47.807  1.00  0.00     0.011 C 
ENDROOT
BRANCH   5  30
ATOM     30  C   UNL     1      -2.277  21.186  45.536  1.00  0.00     0.163 C 
BRANCH  30  31
ATOM     31  O   UNL     1      -3.530  20.697  45.133  1.00  0.00    -0.396 OA
ATOM     32  H   UNL     1      -4.206  21.321  45.504  1.00  0.00     0.210 HD
ENDBRANCH  30  31
ENDBRANCH   5  30
BRANCH  14  33
ATOM     33  O   UNL     1      -6.013  30.424  49.435  1.00  0.00    -0.393 OA
ATOM     34  H   UNL     1      -5.831  30.620  50.391  1.00  0.00     0.210 HD
ENDBRANCH  14  33
TORSDOF 3
ENDMDL
MODEL 5
REMARK VINA RESULT:    -7.474      1.714      8.245
REMARK INTER + INTRA:          -8.441
REMARK INTER:                  -8.218
REMARK INTRA:                  -0.223
REMARK UNBOUND:                -0.093
REMARK SMILES CC1(C)CC[C@]2(CO)CC=C3[C@]4(C)CC[C@@H]5C(C)(C)[C@@H](O)CC[C@]5(C)[C@H]4CC[C@@]3(C)[C@@H]2C1
REMARK SMILES IDX 1 1 2 2 4 3 5 4 6 5 9 6 10 7 11 8 12 9 14 10 15 11 16 12
REMARK SMILES IDX 17 13 20 14 22 15 23 16 24 17 26 18 27 19 28 20 29 21 31 22
REMARK SMILES IDX 32 23 30 24 25 25 18 26 19 27 13 28 3 29 7 30 8 31 21 33
REMARK H PARENT 8 32 21 34
REMARK Flexibility Score: inf
ROOT
ATOM      1  C   UNL     1      -2.803  30.580  49.679  1.00  0.00     0.011 C 
ATOM      2  C   UNL     1      -3.631  29.650  48.764  1.00  0.00    -0.035 C 
ATOM      3  C   UNL     1      -5.067  29.580  49.315  1.00  0.00     0.007 C 
ATOM      4  C   UNL     1      -5.951  28.649  48.492  1.00  0.00     0.010 C 
ATOM      5  C   UNL     1      -5.389  27.199  48.274  1.00  0.00     0.001 C 
ATOM      6  C   UNL     1      -5.716  26.332  49.511  1.00  0.00     0.037 C 
ATOM      7  C   UNL     1      -5.356  24.899  49.245  1.00  0.00    -0.026 C 
ATOM      8  C   UNL     1      -4.268  24.566  48.502  1.00  0.00    -0.062 C 
ATOM      9  C   UNL     1      -4.128  23.096  48.017  1.00  0.00    -0.008 C 
ATOM     10  C   UNL     1      -4.149  22.137  49.254  1.00  0.00     0.012 C 
ATOM     11  C   UNL     1      -3.197  20.917  49.165  1.00  0.00     0.006 C 
ATOM     12  C   UNL     1      -3.110  20.331  47.726  1.00  0.00     0.003 C 
ATOM     13  C   UNL     1      -2.474  18.869  47.648  1.00  0.00    -0.006 C 
ATOM     14  C   UNL     1      -0.920  18.949  47.602  1.00  0.00     0.120 C 
ATOM     15  C   UNL     1      -0.413  19.849  46.470  1.00  0.00     0.033 C 
ATOM     16  C   UNL     1      -0.928  21.275  46.647  1.00  0.00     0.010 C 
ATOM     17  C   UNL     1      -2.489  21.420  46.728  1.00  0.00    -0.025 C 
ATOM     18  C   UNL     1      -2.774  22.896  47.275  1.00  0.00     0.005 C 
ATOM     19  C   UNL     1      -2.510  24.061  46.299  1.00  0.00     0.006 C 
ATOM     20  C   UNL     1      -2.197  25.335  47.079  1.00  0.00     0.012 C 
ATOM     21  C   UNL     1      -3.178  25.654  48.279  1.00  0.00    -0.008 C 
ATOM     22  C   UNL     1      -3.823  27.127  48.050  1.00  0.00     0.008 C 
ATOM     23  C   UNL     1      -3.032  28.231  48.824  1.00  0.00     0.011 C 
ATOM     24  C   UNL     1      -2.327  25.565  49.587  1.00  0.00     0.016 C 
ATOM     25  C   UNL     1      -3.082  21.240  45.292  1.00  0.00     0.012 C 
ATOM     26  C   UNL     1      -2.868  18.003  48.877  1.00  0.00     0.014 C 
ATOM     27  C   UNL     1      -3.039  18.106  46.415  1.00  0.00     0.014 C 
ATOM     28  C   UNL     1      -5.344  22.793  47.084  1.00  0.00     0.016 C 
ATOM     29  C   UNL     1      -3.579  30.229  47.330  1.00  0.00     0.011 C 
ENDROOT
BRANCH   5  30
ATOM     30  C   UNL     1      -6.149  26.637  47.019  1.00  0.00     0.163 C 
BRANCH  30  31
ATOM     31  O   UNL     1      -5.436  26.885  45.836  1.00  0.00    -0.396 OA
ATOM     32  H   UNL     1      -4.972  26.038  45.607  1.00  0.00     0.210 HD
ENDBRANCH  30  31
ENDBRANCH   5  30
BRANCH  14  33
ATOM     33  O   UNL     1      -0.330  17.671  47.528  1.00  0.00    -0.393 OA
ATOM     34  H   UNL     1      -1.054  16.996  47.455  1.00  0.00     0.210 HD
ENDBRANCH  14  33
TORSDOF 3
ENDMDL
MODEL 6
REMARK VINA RESULT:    -7.429      2.731      5.122
REMARK INTER + INTRA:          -8.390
REMARK INTER:                  -8.266
REMARK INTRA:                  -0.124
REMARK UNBOUND:                -0.093
REMARK SMILES CC1(C)CC[C@]2(CO)CC=C3[C@]4(C)CC[C@@H]5C(C)(C)[C@@H](O)CC[C@]5(C)[C@H]4CC[C@@]3(C)[C@@H]2C1
REMARK SMILES IDX 1 1 2 2 4 3 5 4 6 5 9 6 10 7 11 8 12 9 14 10 15 11 16 12
REMARK SMILES IDX 17 13 20 14 22 15 23 16 24 17 26 18 27 19 28 20 29 21 31 22
REMARK SMILES IDX 32 23 30 24 25 25 18 26 19 27 13 28 3 29 7 30 8 31 21 33
REMARK H PARENT 8 32 21 34
REMARK Flexibility Score: inf
ROOT
ATOM      1  C   UNL     1      -2.701  20.842  45.638  1.00  0.00     0.011 C 
ATOM      2  C   UNL     1      -2.860  21.583  46.984  1.00  0.00    -0.035 C 
ATOM      3  C   UNL     1      -4.081  20.999  47.719  1.00  0.00     0.007 C 
ATOM      4  C   UNL     1      -4.339  21.700  49.048  1.00  0.00     0.010 C 
ATOM      5  C   UNL     1      -4.454  23.264  48.977  1.00  0.00     0.001 C 
ATOM      6  C   UNL     1      -5.888  23.654  48.553  1.00  0.00     0.037 C 
ATOM      7  C   UNL     1      -6.072  25.140  48.663  1.00  0.00    -0.026 C 
ATOM      8  C   UNL     1      -5.064  26.003  48.372  1.00  0.00    -0.062 C 
ATOM      9  C   UNL     1      -5.224  27.491  48.793  1.00  0.00    -0.008 C 
ATOM     10  C   UNL     1      -6.527  28.075  48.152  1.00  0.00     0.012 C 
ATOM     11  C   UNL     1      -6.429  29.545  47.671  1.00  0.00     0.006 C 
ATOM     12  C   UNL     1      -5.564  30.426  48.618  1.00  0.00     0.003 C 
ATOM     13  C   UNL     1      -5.746  31.998  48.403  1.00  0.00    -0.006 C 
ATOM     14  C   UNL     1      -4.826  32.504  47.254  1.00  0.00     0.120 C 
ATOM     15  C   UNL     1      -3.357  32.128  47.471  1.00  0.00     0.033 C 
ATOM     16  C   UNL     1      -3.195  30.611  47.536  1.00  0.00     0.010 C 
ATOM     17  C   UNL     1      -4.054  29.891  48.635  1.00  0.00    -0.025 C 
ATOM     18  C   UNL     1      -4.017  28.332  48.283  1.00  0.00     0.005 C 
ATOM     19  C   UNL     1      -2.689  27.592  48.543  1.00  0.00     0.006 C 
ATOM     20  C   UNL     1      -2.575  26.381  47.621  1.00  0.00     0.012 C 
ATOM     21  C   UNL     1      -3.864  25.468  47.539  1.00  0.00    -0.008 C 
ATOM     22  C   UNL     1      -3.459  23.951  47.956  1.00  0.00     0.008 C 
ATOM     23  C   UNL     1      -3.146  23.070  46.703  1.00  0.00     0.011 C 
ATOM     24  C   UNL     1      -4.390  25.569  46.070  1.00  0.00     0.016 C 
ATOM     25  C   UNL     1      -3.401  30.157  50.032  1.00  0.00     0.012 C 
ATOM     26  C   UNL     1      -7.210  32.363  48.034  1.00  0.00     0.014 C 
ATOM     27  C   UNL     1      -5.460  32.756  49.733  1.00  0.00     0.014 C 
ATOM     28  C   UNL     1      -5.331  27.528  50.351  1.00  0.00     0.016 C 
ATOM     29  C   UNL     1      -1.549  21.398  47.784  1.00  0.00     0.011 C 
ENDROOT
BRANCH   5  30
ATOM     30  C   UNL     1      -4.179  23.774  50.438  1.00  0.00     0.163 C 
BRANCH  30  31
ATOM     31  O   UNL     1      -2.964  23.275  50.934  1.00  0.00    -0.396 OA
ATOM     32  H   UNL     1      -2.500  22.856  50.163  1.00  0.00     0.210 HD
ENDBRANCH  30  31
ENDBRANCH   5  30
BRANCH  14  33
ATOM     33  O   UNL     1      -4.962  33.892  47.044  1.00  0.00    -0.393 OA
ATOM     34  H   UNL     1      -4.884  34.070  46.071  1.00  0.00     0.210 HD
ENDBRANCH  14  33
TORSDOF 3
ENDMDL
MODEL 7
REMARK VINA RESULT:    -7.216      2.566      5.006
REMARK INTER + INTRA:          -8.152
REMARK INTER:                  -7.927
REMARK INTRA:                  -0.225
REMARK UNBOUND:                -0.093
REMARK SMILES CC1(C)CC[C@]2(CO)CC=C3[C@]4(C)CC[C@@H]5C(C)(C)[C@@H](O)CC[C@]5(C)[C@H]4CC[C@@]3(C)[C@@H]2C1
REMARK SMILES IDX 1 1 2 2 4 3 5 4 6 5 9 6 10 7 11 8 12 9 14 10 15 11 16 12
REMARK SMILES IDX 17 13 20 14 22 15 23 16 24 17 26 18 27 19 28 20 29 21 31 22
REMARK SMILES IDX 32 23 30 24 25 25 18 26 19 27 13 28 3 29 7 30 8 31 21 33
REMARK H PARENT 8 32 21 34
REMARK Flexibility Score: inf
ROOT
ATOM      1  C   UNL     1      -4.837  18.924  48.185  1.00  0.00     0.011 C 
ATOM      2  C   UNL     1      -3.848  20.035  47.767  1.00  0.00    -0.035 C 
ATOM      3  C   UNL     1      -2.706  20.081  48.798  1.00  0.00     0.007 C 
ATOM      4  C   UNL     1      -1.695  21.180  48.485  1.00  0.00     0.010 C 
ATOM      5  C   UNL     1      -2.298  22.616  48.286  1.00  0.00     0.001 C 
ATOM      6  C   UNL     1      -2.511  23.278  49.667  1.00  0.00     0.037 C 
ATOM      7  C   UNL     1      -2.906  24.715  49.494  1.00  0.00    -0.026 C 
ATOM      8  C   UNL     1      -3.700  25.114  48.466  1.00  0.00    -0.062 C 
ATOM      9  C   UNL     1      -3.819  26.637  48.175  1.00  0.00    -0.008 C 
ATOM     10  C   UNL     1      -4.327  27.373  49.459  1.00  0.00     0.012 C 
ATOM     11  C   UNL     1      -5.313  28.542  49.208  1.00  0.00     0.006 C 
ATOM     12  C   UNL     1      -4.960  29.357  47.931  1.00  0.00     0.003 C 
ATOM     13  C   UNL     1      -5.682  30.779  47.837  1.00  0.00    -0.006 C 
ATOM     14  C   UNL     1      -7.106  30.631  47.228  1.00  0.00     0.120 C 
ATOM     15  C   UNL     1      -7.094  29.912  45.876  1.00  0.00     0.033 C 
ATOM     16  C   UNL     1      -6.525  28.503  46.023  1.00  0.00     0.010 C 
ATOM     17  C   UNL     1      -5.081  28.424  46.635  1.00  0.00    -0.025 C 
ATOM     18  C   UNL     1      -4.847  26.892  47.034  1.00  0.00     0.005 C 
ATOM     19  C   UNL     1      -4.634  25.897  45.875  1.00  0.00     0.006 C 
ATOM     20  C   UNL     1      -5.060  24.496  46.304  1.00  0.00     0.012 C 
ATOM     21  C   UNL     1      -4.525  24.028  47.718  1.00  0.00    -0.008 C 
ATOM     22  C   UNL     1      -3.689  22.648  47.530  1.00  0.00     0.008 C 
ATOM     23  C   UNL     1      -4.577  21.391  47.808  1.00  0.00     0.011 C 
ATOM     24  C   UNL     1      -5.779  23.853  48.634  1.00  0.00     0.016 C 
ATOM     25  C   UNL     1      -4.052  28.873  45.546  1.00  0.00     0.012 C 
ATOM     26  C   UNL     1      -5.829  31.443  49.234  1.00  0.00     0.014 C 
ATOM     27  C   UNL     1      -4.810  31.766  47.007  1.00  0.00     0.014 C 
ATOM     28  C   UNL     1      -2.395  27.153  47.790  1.00  0.00     0.016 C 
ATOM     29  C   UNL     1      -3.341  19.704  46.343  1.00  0.00     0.011 C 
ENDROOT
BRANCH   5  30
ATOM     30  C   UNL     1      -1.216  23.419  47.478  1.00  0.00     0.163 C 
BRANCH  30  31
ATOM     31  O   UNL     1      -1.500  23.417  46.103  1.00  0.00    -0.396 OA
ATOM     32  H   UNL     1      -1.673  24.362  45.853  1.00  0.00     0.210 HD
ENDBRANCH  30  31
ENDBRANCH   5  30
BRANCH  14  33
ATOM     33  O   UNL     1      -7.766  31.873  47.129  1.00  0.00    -0.393 OA
ATOM     34  H   UNL     1      -7.842  32.261  48.039  1.00  0.00     0.210 HD
ENDBRANCH  14  33
TORSDOF 3
ENDMDL
MODEL 8
REMARK VINA RESULT:    -7.113      2.958      5.432
REMARK INTER + INTRA:          -8.038
REMARK INTER:                  -7.949
REMARK INTRA:                  -0.089
REMARK UNBOUND:                -0.093
REMARK SMILES CC1(C)CC[C@]2(CO)CC=C3[C@]4(C)CC[C@@H]5C(C)(C)[C@@H](O)CC[C@]5(C)[C@H]4CC[C@@]3(C)[C@@H]2C1
REMARK SMILES IDX 1 1 2 2 4 3 5 4 6 5 9 6 10 7 11 8 12 9 14 10 15 11 16 12
REMARK SMILES IDX 17 13 20 14 22 15 23 16 24 17 26 18 27 19 28 20 29 21 31 22
REMARK SMILES IDX 32 23 30 24 25 25 18 26 19 27 13 28 3 29 7 30 8 31 21 33
REMARK H PARENT 8 32 21 34
REMARK Flexibility Score: inf
ROOT
ATOM      1  C   UNL     1      -1.574  21.266  46.461  1.00  0.00     0.011 C 
ATOM      2  C   UNL     1      -2.061  22.158  47.626  1.00  0.00    -0.035 C 
ATOM      3  C   UNL     1      -3.223  21.438  48.335  1.00  0.00     0.007 C 
ATOM      4  C   UNL     1      -3.795  22.265  49.482  1.00  0.00     0.010 C 
ATOM      5  C   UNL     1      -4.218  23.731  49.112  1.00  0.00     0.001 C 
ATOM      6  C   UNL     1      -5.632  23.715  48.488  1.00  0.00     0.037 C 
ATOM      7  C   UNL     1      -6.130  25.119  48.303  1.00  0.00    -0.026 C 
ATOM      8  C   UNL     1      -5.291  26.129  47.956  1.00  0.00    -0.062 C 
ATOM      9  C   UNL     1      -5.808  27.590  48.077  1.00  0.00    -0.008 C 
ATOM     10  C   UNL     1      -7.106  27.756  47.217  1.00  0.00     0.012 C 
ATOM     11  C   UNL     1      -7.249  29.114  46.486  1.00  0.00     0.006 C 
ATOM     12  C   UNL     1      -6.717  30.307  47.331  1.00  0.00     0.003 C 
ATOM     13  C   UNL     1      -7.188  31.742  46.813  1.00  0.00    -0.006 C 
ATOM     14  C   UNL     1      -6.246  32.253  45.684  1.00  0.00     0.120 C 
ATOM     15  C   UNL     1      -4.774  32.257  46.106  1.00  0.00     0.033 C 
ATOM     16  C   UNL     1      -4.314  30.847  46.465  1.00  0.00     0.010 C 
ATOM     17  C   UNL     1      -5.146  30.136  47.592  1.00  0.00    -0.025 C 
ATOM     18  C   UNL     1      -4.742  28.589  47.538  1.00  0.00     0.005 C 
ATOM     19  C   UNL     1      -3.338  28.220  48.057  1.00  0.00     0.006 C 
ATOM     20  C   UNL     1      -2.855  26.935  47.389  1.00  0.00     0.012 C 
ATOM     21  C   UNL     1      -3.907  25.754  47.354  1.00  0.00    -0.008 C 
ATOM     22  C   UNL     1      -3.257  24.453  48.081  1.00  0.00     0.008 C 
ATOM     23  C   UNL     1      -2.606  23.478  47.048  1.00  0.00     0.011 C 
ATOM     24  C   UNL     1      -4.241  25.497  45.849  1.00  0.00     0.016 C 
ATOM     25  C   UNL     1      -4.754  30.761  48.971  1.00  0.00     0.012 C 
ATOM     26  C   UNL     1      -8.633  31.704  46.245  1.00  0.00     0.014 C 
ATOM     27  C   UNL     1      -7.244  32.747  48.002  1.00  0.00     0.014 C 
ATOM     28  C   UNL     1      -6.127  27.850  49.585  1.00  0.00     0.016 C 
ATOM     29  C   UNL     1      -0.859  22.403  48.568  1.00  0.00     0.011 C 
ENDROOT
BRANCH   5  30
ATOM     30  C   UNL     1      -4.251  24.516  50.473  1.00  0.00     0.163 C 
BRANCH  30  31
ATOM     31  O   UNL     1      -4.214  23.641  51.570  1.00  0.00    -0.396 OA
ATOM     32  H   UNL     1      -3.388  23.101  51.468  1.00  0.00     0.210 HD
ENDBRANCH  30  31
ENDBRANCH   5  30
BRANCH  14  33
ATOM     33  O   UNL     1      -6.635  33.522  45.210  1.00  0.00    -0.393 OA
ATOM     34  H   UNL     1      -6.246  34.212  45.808  1.00  0.00     0.210 HD
ENDBRANCH  14  33
TORSDOF 3
ENDMDL
MODEL 9
REMARK VINA RESULT:    -6.923      4.501      7.637
REMARK INTER + INTRA:          -7.825
REMARK INTER:                  -7.601
REMARK INTRA:                  -0.224
REMARK UNBOUND:                -0.093
REMARK SMILES CC1(C)CC[C@]2(CO)CC=C3[C@]4(C)CC[C@@H]5C(C)(C)[C@@H](O)CC[C@]5(C)[C@H]4CC[C@@]3(C)[C@@H]2C1
REMARK SMILES IDX 1 1 2 2 4 3 5 4 6 5 9 6 10 7 11 8 12 9 14 10 15 11 16 12
REMARK SMILES IDX 17 13 20 14 22 15 23 16 24 17 26 18 27 19 28 20 29 21 31 22
REMARK SMILES IDX 32 23 30 24 25 25 18 26 19 27 13 28 3 29 7 30 8 31 21 33
REMARK H PARENT 8 32 21 34
REMARK Flexibility Score: inf
ROOT
ATOM      1  C   UNL     1      -2.127  23.657  50.629  1.00  0.00     0.011 C 
ATOM      2  C   UNL     1      -3.516  24.319  50.488  1.00  0.00    -0.035 C 
ATOM      3  C   UNL     1      -4.384  23.436  49.573  1.00  0.00     0.007 C 
ATOM      4  C   UNL     1      -5.769  24.035  49.345  1.00  0.00     0.010 C 
ATOM      5  C   UNL     1      -5.788  25.519  48.834  1.00  0.00     0.001 C 
ATOM      6  C   UNL     1      -5.586  25.536  47.302  1.00  0.00     0.037 C 
ATOM      7  C   UNL     1      -5.790  26.925  46.770  1.00  0.00    -0.026 C 
ATOM      8  C   UNL     1      -5.403  28.019  47.476  1.00  0.00    -0.062 C 
ATOM      9  C   UNL     1      -5.911  29.413  47.013  1.00  0.00    -0.008 C 
ATOM     10  C   UNL     1      -5.485  29.653  45.526  1.00  0.00     0.012 C 
ATOM     11  C   UNL     1      -5.066  31.105  45.181  1.00  0.00     0.006 C 
ATOM     12  C   UNL     1      -5.923  32.167  45.928  1.00  0.00     0.003 C 
ATOM     13  C   UNL     1      -5.810  33.643  45.329  1.00  0.00    -0.006 C 
ATOM     14  C   UNL     1      -4.569  34.378  45.915  1.00  0.00     0.120 C 
ATOM     15  C   UNL     1      -4.562  34.385  47.447  1.00  0.00     0.033 C 
ATOM     16  C   UNL     1      -4.532  32.959  47.990  1.00  0.00     0.010 C 
ATOM     17  C   UNL     1      -5.706  32.034  47.509  1.00  0.00    -0.025 C 
ATOM     18  C   UNL     1      -5.278  30.538  47.883  1.00  0.00     0.005 C 
ATOM     19  C   UNL     1      -5.316  30.158  49.377  1.00  0.00     0.006 C 
ATOM     20  C   UNL     1      -4.331  29.026  49.654  1.00  0.00     0.012 C 
ATOM     21  C   UNL     1      -4.386  27.816  48.636  1.00  0.00    -0.008 C 
ATOM     22  C   UNL     1      -4.671  26.447  49.465  1.00  0.00     0.008 C 
ATOM     23  C   UNL     1      -3.347  25.688  49.801  1.00  0.00     0.011 C 
ATOM     24  C   UNL     1      -3.012  27.794  47.893  1.00  0.00     0.016 C 
ATOM     25  C   UNL     1      -7.008  32.442  48.272  1.00  0.00     0.012 C 
ATOM     26  C   UNL     1      -5.666  33.628  43.782  1.00  0.00     0.014 C 
ATOM     27  C   UNL     1      -7.121  34.435  45.608  1.00  0.00     0.014 C 
ATOM     28  C   UNL     1      -7.469  29.406  47.130  1.00  0.00     0.016 C 
ATOM     29  C   UNL     1      -4.116  24.465  51.906  1.00  0.00     0.011 C 
ENDROOT
BRANCH   5  30
ATOM     30  C   UNL     1      -7.218  26.067  49.184  1.00  0.00     0.163 C 
BRANCH  30  31
ATOM     31  O   UNL     1      -7.226  26.721  50.426  1.00  0.00    -0.396 OA
ATOM     32  H   UNL     1      -6.507  27.403  50.386  1.00  0.00     0.210 HD
ENDBRANCH  30  31
ENDBRANCH   5  30
BRANCH  14  33
ATOM     33  O   UNL     1      -4.446  35.687  45.407  1.00  0.00    -0.393 OA
ATOM     34  H   UNL     1      -4.420  35.637  44.416  1.00  0.00     0.210 HD
ENDBRANCH  14  33
TORSDOF 3
ENDMDL
