MODEL 1
REMARK VINA RESULT:    -3.319      0.000      0.000
REMARK INTER + INTRA:          -3.416
REMARK INTER:                  -3.416
REMARK INTRA:                   0.000
REMARK UNBOUND:                 0.000
REMARK SMILES CC1(C)[C@@H]2CC[C@@](C)(C2)[C@H]1O
REMARK SMILES IDX 1 1 2 2 4 3 5 4 6 5 7 6 9 7 10 8 8 9 3 10 11 11
REMARK H PARENT 11 12
REMARK Flexibility Score: inf
ROOT
ATOM      1  C   UNL     1     162.263 174.445 171.342  1.00  0.00     0.014 C 
ATOM      2  C   UNL     1     161.771 173.559 170.171  1.00  0.00    -0.006 C 
ATOM      3  C   UNL     1     161.341 172.118 170.619  1.00  0.00    -0.002 C 
ATOM      4  C   UNL     1     162.415 171.463 171.513  1.00  0.00     0.005 C 
ATOM      5  C   UNL     1     163.577 171.223 170.535  1.00  0.00     0.010 C 
ATOM      6  C   UNL     1     162.986 171.685 169.181  1.00  0.00    -0.006 C 
ATOM      7  C   UNL     1     161.529 171.306 169.349  1.00  0.00     0.013 C 
ATOM      8  C   UNL     1     162.937 173.244 169.172  1.00  0.00     0.126 C 
ATOM      9  C   UNL     1     163.679 171.043 167.972  1.00  0.00     0.014 C 
ATOM     10  C   UNL     1     160.565 174.289 169.522  1.00  0.00     0.014 C 
ENDROOT
BRANCH   8  11
ATOM     11  O   UNL     1     162.737 173.791 167.886  1.00  0.00    -0.392 OA
ATOM     12  H   UNL     1     161.832 173.547 167.568  1.00  0.00     0.211 HD
ENDBRANCH   8  11
TORSDOF 1
ENDMDL
MODEL 2
REMARK VINA RESULT:    -3.303     13.966     15.622
REMARK INTER + INTRA:          -3.399
REMARK INTER:                  -3.399
REMARK INTRA:                   0.000
REMARK UNBOUND:                 0.000
REMARK SMILES CC1(C)[C@@H]2CC[C@@](C)(C2)[C@H]1O
REMARK SMILES IDX 1 1 2 2 4 3 5 4 6 5 7 6 9 7 10 8 8 9 3 10 11 11
REMARK H PARENT 11 12
REMARK Flexibility Score: inf
ROOT
ATOM      1  C   UNL     1     168.995 156.919 171.511  1.00  0.00     0.014 C 
ATOM      2  C   UNL     1     169.494 157.771 170.318  1.00  0.00    -0.006 C 
ATOM      3  C   UNL     1     169.845 159.249 170.711  1.00  0.00    -0.002 C 
ATOM      4  C   UNL     1     168.711 159.897 171.534  1.00  0.00     0.005 C 
ATOM      5  C   UNL     1     167.578 160.040 170.504  1.00  0.00     0.010 C 
ATOM      6  C   UNL     1     168.239 159.541 169.196  1.00  0.00    -0.006 C 
ATOM      7  C   UNL     1     169.672 159.992 169.397  1.00  0.00     0.013 C 
ATOM      8  C   UNL     1     168.354 157.988 169.264  1.00  0.00     0.126 C 
ATOM      9  C   UNL     1     167.566 160.096 167.934  1.00  0.00     0.014 C 
ATOM     10  C   UNL     1     170.753 157.066 169.748  1.00  0.00     0.014 C 
ENDROOT
BRANCH   8  11
ATOM     11  O   UNL     1     168.626 157.391 168.014  1.00  0.00    -0.392 OA
ATOM     12  H   UNL     1     169.407 157.840 167.604  1.00  0.00     0.211 HD
ENDBRANCH   8  11
TORSDOF 1
ENDMDL
MODEL 3
REMARK VINA RESULT:    -3.283     13.759     15.261
REMARK INTER + INTRA:          -3.379
REMARK INTER:                  -3.379
REMARK INTRA:                   0.000
REMARK UNBOUND:                 0.000
REMARK SMILES CC1(C)[C@@H]2CC[C@@](C)(C2)[C@H]1O
REMARK SMILES IDX 1 1 2 2 4 3 5 4 6 5 7 6 9 7 10 8 8 9 3 10 11 11
REMARK H PARENT 11 12
REMARK Flexibility Score: inf
ROOT
ATOM      1  C   UNL     1     169.760 160.431 170.458  1.00  0.00     0.014 C 
ATOM      2  C   UNL     1     168.446 159.636 170.257  1.00  0.00    -0.006 C 
ATOM      3  C   UNL     1     168.452 158.235 170.962  1.00  0.00    -0.002 C 
ATOM      4  C   UNL     1     169.737 157.445 170.636  1.00  0.00     0.005 C 
ATOM      5  C   UNL     1     169.568 157.114 169.144  1.00  0.00     0.010 C 
ATOM      6  C   UNL     1     168.161 157.676 168.826  1.00  0.00    -0.006 C 
ATOM      7  C   UNL     1     167.446 157.446 170.141  1.00  0.00     0.013 C 
ATOM      8  C   UNL     1     168.257 159.231 168.754  1.00  0.00     0.126 C 
ATOM      9  C   UNL     1     167.505 157.001 167.614  1.00  0.00     0.014 C 
ATOM     10  C   UNL     1     167.294 160.506 170.824  1.00  0.00     0.014 C 
ENDROOT
BRANCH   8  11
ATOM     11  O   UNL     1     167.133 159.834 168.148  1.00  0.00    -0.392 OA
ATOM     12  H   UNL     1     167.248 160.817 168.161  1.00  0.00     0.211 HD
ENDBRANCH   8  11
TORSDOF 1
ENDMDL
MODEL 4
REMARK VINA RESULT:    -3.280      1.367      3.084
REMARK INTER + INTRA:          -3.375
REMARK INTER:                  -3.375
REMARK INTRA:                   0.000
REMARK UNBOUND:                 0.000
REMARK SMILES CC1(C)[C@@H]2CC[C@@](C)(C2)[C@H]1O
REMARK SMILES IDX 1 1 2 2 4 3 5 4 6 5 7 6 9 7 10 8 8 9 3 10 11 11
REMARK H PARENT 11 12
REMARK Flexibility Score: inf
ROOT
ATOM      1  C   UNL     1     161.443 170.855 170.379  1.00  0.00     0.014 C 
ATOM      2  C   UNL     1     162.764 171.641 170.192  1.00  0.00    -0.006 C 
ATOM      3  C   UNL     1     162.754 173.048 170.885  1.00  0.00    -0.002 C 
ATOM      4  C   UNL     1     161.478 173.841 170.531  1.00  0.00     0.005 C 
ATOM      5  C   UNL     1     161.673 174.158 169.039  1.00  0.00     0.010 C 
ATOM      6  C   UNL     1     163.082 173.586 168.749  1.00  0.00    -0.006 C 
ATOM      7  C   UNL     1     163.778 173.825 170.073  1.00  0.00     0.013 C 
ATOM      8  C   UNL     1     162.980 172.031 168.689  1.00  0.00     0.126 C 
ATOM      9  C   UNL     1     163.761 174.247 167.542  1.00  0.00     0.014 C 
ATOM     10  C   UNL     1     163.902 170.770 170.786  1.00  0.00     0.014 C 
ENDROOT
BRANCH   8  11
ATOM     11  O   UNL     1     164.110 171.418 168.106  1.00  0.00    -0.392 OA
ATOM     12  H   UNL     1     164.578 172.077 167.535  1.00  0.00     0.211 HD
ENDBRANCH   8  11
TORSDOF 1
ENDMDL
MODEL 5
REMARK VINA RESULT:    -3.232     14.338     15.836
REMARK INTER + INTRA:          -3.326
REMARK INTER:                  -3.326
REMARK INTRA:                   0.000
REMARK UNBOUND:                 0.000
REMARK SMILES CC1(C)[C@@H]2CC[C@@](C)(C2)[C@H]1O
REMARK SMILES IDX 1 1 2 2 4 3 5 4 6 5 7 6 9 7 10 8 8 9 3 10 11 11
REMARK H PARENT 11 12
REMARK Flexibility Score: inf
ROOT
ATOM      1  C   UNL     1     167.652 159.861 170.911  1.00  0.00     0.014 C 
ATOM      2  C   UNL     1     168.333 159.176 169.701  1.00  0.00    -0.006 C 
ATOM      3  C   UNL     1     168.047 157.636 169.615  1.00  0.00    -0.002 C 
ATOM      4  C   UNL     1     168.296 156.940 170.970  1.00  0.00     0.005 C 
ATOM      5  C   UNL     1     169.823 157.032 171.128  1.00  0.00     0.010 C 
ATOM      6  C   UNL     1     170.266 157.686 169.797  1.00  0.00    -0.006 C 
ATOM      7  C   UNL     1     169.244 157.119 168.833  1.00  0.00     0.013 C 
ATOM      8  C   UNL     1     169.894 159.199 169.843  1.00  0.00     0.126 C 
ATOM      9  C   UNL     1     171.726 157.379 169.434  1.00  0.00     0.014 C 
ATOM     10  C   UNL     1     167.807 159.880 168.422  1.00  0.00     0.014 C 
ENDROOT
BRANCH   8  11
ATOM     11  O   UNL     1     170.537 159.966 168.847  1.00  0.00    -0.392 OA
ATOM     12  H   UNL     1     171.337 159.476 168.529  1.00  0.00     0.211 HD
ENDBRANCH   8  11
TORSDOF 1
ENDMDL
MODEL 6
REMARK VINA RESULT:    -3.076      9.862     11.214
REMARK INTER + INTRA:          -3.166
REMARK INTER:                  -3.166
REMARK INTRA:                   0.000
REMARK UNBOUND:                 0.000
REMARK SMILES CC1(C)[C@@H]2CC[C@@](C)(C2)[C@H]1O
REMARK SMILES IDX 1 1 2 2 4 3 5 4 6 5 7 6 9 7 10 8 8 9 3 10 11 11
REMARK H PARENT 11 12
REMARK Flexibility Score: inf
ROOT
ATOM      1  C   UNL     1     173.911 169.672 169.778  1.00  0.00     0.014 C 
ATOM      2  C   UNL     1     172.939 168.486 169.561  1.00  0.00    -0.006 C 
ATOM      3  C   UNL     1     171.428 168.905 169.596  1.00  0.00    -0.002 C 
ATOM      4  C   UNL     1     171.113 169.776 170.831  1.00  0.00     0.005 C 
ATOM      5  C   UNL     1     171.255 168.783 171.996  1.00  0.00     0.010 C 
ATOM      6  C   UNL     1     171.542 167.445 171.274  1.00  0.00    -0.006 C 
ATOM      7  C   UNL     1     170.735 167.615 170.003  1.00  0.00     0.013 C 
ATOM      8  C   UNL     1     173.012 167.471 170.754  1.00  0.00     0.126 C 
ATOM      9  C   UNL     1     171.163 166.217 172.112  1.00  0.00     0.014 C 
ATOM     10  C   UNL     1     173.280 167.862 168.182  1.00  0.00     0.014 C 
ENDROOT
BRANCH   8  11
ATOM     11  O   UNL     1     173.497 166.199 170.379  1.00  0.00    -0.392 OA
ATOM     12  H   UNL     1     174.031 165.825 171.124  1.00  0.00     0.211 HD
ENDBRANCH   8  11
TORSDOF 1
ENDMDL
MODEL 7
REMARK VINA RESULT:    -3.061      9.020     10.329
REMARK INTER + INTRA:          -3.151
REMARK INTER:                  -3.151
REMARK INTRA:                   0.000
REMARK UNBOUND:                 0.000
REMARK SMILES CC1(C)[C@@H]2CC[C@@](C)(C2)[C@H]1O
REMARK SMILES IDX 1 1 2 2 4 3 5 4 6 5 7 6 9 7 10 8 8 9 3 10 11 11
REMARK H PARENT 11 12
REMARK Flexibility Score: inf
ROOT
ATOM      1  C   UNL     1     157.333 161.549 169.882  1.00  0.00     0.014 C 
ATOM      2  C   UNL     1     158.297 162.738 169.646  1.00  0.00    -0.006 C 
ATOM      3  C   UNL     1     159.811 162.330 169.688  1.00  0.00    -0.002 C 
ATOM      4  C   UNL     1     160.131 161.482 170.938  1.00  0.00     0.005 C 
ATOM      5  C   UNL     1     159.981 162.494 172.086  1.00  0.00     0.010 C 
ATOM      6  C   UNL     1     159.685 163.818 171.341  1.00  0.00    -0.006 C 
ATOM      7  C   UNL     1     160.495 163.631 170.074  1.00  0.00     0.013 C 
ATOM      8  C   UNL     1     158.216 163.773 170.821  1.00  0.00     0.126 C 
ATOM      9  C   UNL     1     160.055 165.062 172.159  1.00  0.00     0.014 C 
ATOM     10  C   UNL     1     157.953 163.336 168.256  1.00  0.00     0.014 C 
ENDROOT
BRANCH   8  11
ATOM     11  O   UNL     1     157.723 165.035 170.424  1.00  0.00    -0.392 OA
ATOM     12  H   UNL     1     156.751 165.074 170.607  1.00  0.00     0.211 HD
ENDBRANCH   8  11
TORSDOF 1
ENDMDL
MODEL 8
REMARK VINA RESULT:    -3.007     14.341     15.862
REMARK INTER + INTRA:          -3.095
REMARK INTER:                  -3.095
REMARK INTRA:                   0.000
REMARK UNBOUND:                 0.000
REMARK SMILES CC1(C)[C@@H]2CC[C@@](C)(C2)[C@H]1O
REMARK SMILES IDX 1 1 2 2 4 3 5 4 6 5 7 6 9 7 10 8 8 9 3 10 11 11
REMARK H PARENT 11 12
REMARK Flexibility Score: inf
ROOT
ATOM      1  C   UNL     1     169.607 156.625 168.854  1.00  0.00     0.014 C 
ATOM      2  C   UNL     1     168.443 157.621 169.080  1.00  0.00    -0.006 C 
ATOM      3  C   UNL     1     168.922 159.095 169.319  1.00  0.00    -0.002 C 
ATOM      4  C   UNL     1     170.038 159.159 170.383  1.00  0.00     0.005 C 
ATOM      5  C   UNL     1     169.298 158.789 171.679  1.00  0.00     0.010 C 
ATOM      6  C   UNL     1     167.830 158.651 171.208  1.00  0.00    -0.006 C 
ATOM      7  C   UNL     1     167.771 159.694 170.110  1.00  0.00     0.013 C 
ATOM      8  C   UNL     1     167.689 157.313 170.420  1.00  0.00     0.126 C 
ATOM      9  C   UNL     1     166.814 158.857 172.340  1.00  0.00     0.014 C 
ATOM     10  C   UNL     1     167.539 157.559 167.821  1.00  0.00     0.014 C 
ENDROOT
BRANCH   8  11
ATOM     11  O   UNL     1     166.349 156.912 170.230  1.00  0.00    -0.392 OA
ATOM     12  H   UNL     1     165.974 156.619 171.098  1.00  0.00     0.211 HD
ENDBRANCH   8  11
TORSDOF 1
ENDMDL
MODEL 9
REMARK VINA RESULT:    -2.987      1.498      2.544
REMARK INTER + INTRA:          -3.074
REMARK INTER:                  -3.074
REMARK INTRA:                   0.000
REMARK UNBOUND:                 0.000
REMARK SMILES CC1(C)[C@@H]2CC[C@@](C)(C2)[C@H]1O
REMARK SMILES IDX 1 1 2 2 4 3 5 4 6 5 7 6 9 7 10 8 8 9 3 10 11 11
REMARK H PARENT 11 12
REMARK Flexibility Score: inf
ROOT
ATOM      1  C   UNL     1     161.498 174.601 169.051  1.00  0.00     0.014 C 
ATOM      2  C   UNL     1     162.677 173.602 169.151  1.00  0.00    -0.006 C 
ATOM      3  C   UNL     1     162.217 172.109 169.297  1.00  0.00    -0.002 C 
ATOM      4  C   UNL     1     161.148 171.955 170.400  1.00  0.00     0.005 C 
ATOM      5  C   UNL     1     161.941 172.232 171.688  1.00  0.00     0.010 C 
ATOM      6  C   UNL     1     163.387 172.419 171.167  1.00  0.00    -0.006 C 
ATOM      7  C   UNL     1     163.404 171.463 169.992  1.00  0.00     0.013 C 
ATOM      8  C   UNL     1     163.486 173.814 170.477  1.00  0.00     0.126 C 
ATOM      9  C   UNL     1     164.451 172.137 172.236  1.00  0.00     0.014 C 
ATOM     10  C   UNL     1     163.526 173.767 167.863  1.00  0.00     0.014 C 
ENDROOT
BRANCH   8  11
ATOM     11  O   UNL     1     164.814 174.240 170.263  1.00  0.00    -0.392 OA
ATOM     12  H   UNL     1     165.191 174.567 171.118  1.00  0.00     0.211 HD
ENDBRANCH   8  11
TORSDOF 1
ENDMDL
