MODEL 1
REMARK VINA RESULT:    -4.506      0.000      0.000
REMARK INTER + INTRA:          -6.778
REMARK INTER:                  -6.218
REMARK INTRA:                  -0.560
REMARK UNBOUND:                -0.560
REMARK SMILES CCCCCCCCO
REMARK SMILES IDX 5 1 4 2 3 3 2 4 1 5 6 6 7 7 8 8 9 9
REMARK H PARENT 9 10
REMARK Flexibility Score: inf
ROOT
ATOM      1  C   UNL     1       9.107   5.119  -4.314  1.00  0.00     0.000 C 
ENDROOT
BRANCH   1   2
ATOM      2  C   UNL     1       8.629   4.340  -3.079  1.00  0.00    -0.000 C 
BRANCH   2   3
ATOM      3  C   UNL     1       8.599   5.242  -1.839  1.00  0.00    -0.000 C 
BRANCH   3   4
ATOM      4  C   UNL     1       9.023   4.469  -0.585  1.00  0.00    -0.003 C 
ATOM      5  C   UNL     1      10.001   3.350  -0.932  1.00  0.00     0.004 C 
ENDBRANCH   3   4
ENDBRANCH   2   3
ENDBRANCH   1   2
BRANCH   1   6
ATOM      6  C   UNL     1      10.527   4.723  -4.750  1.00  0.00     0.002 C 
BRANCH   6   7
ATOM      7  C   UNL     1      11.589   5.741  -4.302  1.00  0.00     0.028 C 
BRANCH   7   8
ATOM      8  C   UNL     1      12.359   5.250  -3.072  1.00  0.00     0.156 C 
BRANCH   8   9
ATOM      9  O   UNL     1      12.039   6.015  -1.940  1.00  0.00    -0.396 OA
ATOM     10  H   UNL     1      12.825   5.970  -1.335  1.00  0.00     0.210 HD
ENDBRANCH   8   9
ENDBRANCH   7   8
ENDBRANCH   6   7
ENDBRANCH   1   6
TORSDOF 7
ENDMDL
MODEL 2
REMARK VINA RESULT:    -4.403      1.094      2.276
REMARK INTER + INTRA:          -6.636
REMARK INTER:                  -6.067
REMARK INTRA:                  -0.569
REMARK UNBOUND:                -0.560
REMARK SMILES CCCCCCCCO
REMARK SMILES IDX 5 1 4 2 3 3 2 4 1 5 6 6 7 7 8 8 9 9
REMARK H PARENT 9 10
REMARK Flexibility Score: inf
ROOT
ATOM      1  C   UNL     1      10.173   3.022  -2.024  1.00  0.00     0.000 C 
ENDROOT
BRANCH   1   2
ATOM      2  C   UNL     1      10.205   3.695  -0.643  1.00  0.00    -0.000 C 
BRANCH   2   3
ATOM      3  C   UNL     1       8.858   4.356  -0.324  1.00  0.00    -0.000 C 
BRANCH   3   4
ATOM      4  C   UNL     1       8.374   5.214  -1.499  1.00  0.00    -0.003 C 
ATOM      5  C   UNL     1       8.835   6.661  -1.353  1.00  0.00     0.004 C 
ENDBRANCH   3   4
ENDBRANCH   2   3
ENDBRANCH   1   2
BRANCH   1   6
ATOM      6  C   UNL     1      11.365   3.427  -2.907  1.00  0.00     0.002 C 
BRANCH   6   7
ATOM      7  C   UNL     1      10.982   4.458  -3.981  1.00  0.00     0.028 C 
BRANCH   7   8
ATOM      8  C   UNL     1      11.639   5.817  -3.720  1.00  0.00     0.156 C 
BRANCH   8   9
ATOM      9  O   UNL     1      12.290   5.830  -2.477  1.00  0.00    -0.396 OA
ATOM     10  H   UNL     1      11.699   6.325  -1.852  1.00  0.00     0.210 HD
ENDBRANCH   8   9
ENDBRANCH   7   8
ENDBRANCH   6   7
ENDBRANCH   1   6
TORSDOF 7
ENDMDL
MODEL 3
REMARK VINA RESULT:    -4.333      1.873      2.933
REMARK INTER + INTRA:          -6.540
REMARK INTER:                  -5.989
REMARK INTRA:                  -0.550
REMARK UNBOUND:                -0.560
REMARK SMILES CCCCCCCCO
REMARK SMILES IDX 5 1 4 2 3 3 2 4 1 5 6 6 7 7 8 8 9 9
REMARK H PARENT 9 10
REMARK Flexibility Score: inf
ROOT
ATOM      1  C   UNL     1      11.981   5.244  -2.737  1.00  0.00     0.000 C 
ENDROOT
BRANCH   1   2
ATOM      2  C   UNL     1      11.190   5.419  -1.432  1.00  0.00    -0.000 C 
BRANCH   2   3
ATOM      3  C   UNL     1      10.438   4.132  -1.070  1.00  0.00    -0.000 C 
BRANCH   3   4
ATOM      4  C   UNL     1       8.986   4.434  -0.682  1.00  0.00    -0.003 C 
ATOM      5  C   UNL     1       8.612   5.874  -1.022  1.00  0.00     0.004 C 
ENDBRANCH   3   4
ENDBRANCH   2   3
ENDBRANCH   1   2
BRANCH   1   6
ATOM      6  C   UNL     1      11.255   5.841  -3.954  1.00  0.00     0.002 C 
BRANCH   6   7
ATOM      7  C   UNL     1      10.575   4.769  -4.822  1.00  0.00     0.028 C 
BRANCH   7   8
ATOM      8  C   UNL     1       9.076   4.666  -4.523  1.00  0.00     0.156 C 
BRANCH   8   9
ATOM      9  O   UNL     1       8.671   3.326  -4.439  1.00  0.00    -0.396 OA
ATOM     10  H   UNL     1       7.937   3.209  -5.096  1.00  0.00     0.210 HD
ENDBRANCH   8   9
ENDBRANCH   7   8
ENDBRANCH   6   7
ENDBRANCH   1   6
TORSDOF 7
ENDMDL
MODEL 4
REMARK VINA RESULT:    -4.299      1.825      3.925
REMARK INTER + INTRA:          -6.492
REMARK INTER:                  -5.919
REMARK INTRA:                  -0.573
REMARK UNBOUND:                -0.560
REMARK SMILES CCCCCCCCO
REMARK SMILES IDX 5 1 4 2 3 3 2 4 1 5 6 6 7 7 8 8 9 9
REMARK H PARENT 9 10
REMARK Flexibility Score: inf
ROOT
ATOM      1  C   UNL     1      11.223   5.165  -1.567  1.00  0.00     0.000 C 
ENDROOT
BRANCH   1   2
ATOM      2  C   UNL     1      11.912   4.496  -2.766  1.00  0.00    -0.000 C 
BRANCH   2   3
ATOM      3  C   UNL     1      10.919   3.638  -3.560  1.00  0.00    -0.000 C 
BRANCH   3   4
ATOM      4  C   UNL     1      10.015   4.512  -4.438  1.00  0.00    -0.003 C 
ATOM      5  C   UNL     1       8.558   4.068  -4.344  1.00  0.00     0.004 C 
ENDBRANCH   3   4
ENDBRANCH   2   3
ENDBRANCH   1   2
BRANCH   1   6
ATOM      6  C   UNL     1      10.339   4.190  -0.772  1.00  0.00     0.002 C 
BRANCH   6   7
ATOM      7  C   UNL     1       8.920   4.733  -0.540  1.00  0.00     0.028 C 
BRANCH   7   8
ATOM      8  C   UNL     1       8.740   6.126  -1.151  1.00  0.00     0.156 C 
BRANCH   8   9
ATOM      9  O   UNL     1       8.189   7.017  -0.218  1.00  0.00    -0.396 OA
ATOM     10  H   UNL     1       8.861   7.126   0.503  1.00  0.00     0.210 HD
ENDBRANCH   8   9
ENDBRANCH   7   8
ENDBRANCH   6   7
ENDBRANCH   1   6
TORSDOF 7
ENDMDL
MODEL 5
REMARK VINA RESULT:    -4.297      1.181      3.498
REMARK INTER + INTRA:          -6.490
REMARK INTER:                  -6.040
REMARK INTRA:                  -0.450
REMARK UNBOUND:                -0.560
REMARK SMILES CCCCCCCCO
REMARK SMILES IDX 5 1 4 2 3 3 2 4 1 5 6 6 7 7 8 8 9 9
REMARK H PARENT 9 10
REMARK Flexibility Score: inf
ROOT
ATOM      1  C   UNL     1       8.899   4.379  -2.872  1.00  0.00     0.000 C 
ENDROOT
BRANCH   1   2
ATOM      2  C   UNL     1       9.041   4.654  -4.377  1.00  0.00    -0.000 C 
BRANCH   2   3
ATOM      3  C   UNL     1      10.508   4.559  -4.815  1.00  0.00    -0.000 C 
BRANCH   3   4
ATOM      4  C   UNL     1      11.117   5.954  -5.006  1.00  0.00    -0.003 C 
ATOM      5  C   UNL     1      10.073   6.946  -5.512  1.00  0.00     0.004 C 
ENDBRANCH   3   4
ENDBRANCH   2   3
ENDBRANCH   1   2
BRANCH   1   6
ATOM      6  C   UNL     1      10.007   3.461  -2.331  1.00  0.00     0.002 C 
BRANCH   6   7
ATOM      7  C   UNL     1      10.510   3.895  -0.944  1.00  0.00     0.028 C 
BRANCH   7   8
ATOM      8  C   UNL     1      10.539   5.421  -0.806  1.00  0.00     0.156 C 
BRANCH   8   9
ATOM      9  O   UNL     1      11.699   5.956  -1.384  1.00  0.00    -0.396 OA
ATOM     10  H   UNL     1      11.418   6.760  -1.893  1.00  0.00     0.210 HD
ENDBRANCH   8   9
ENDBRANCH   7   8
ENDBRANCH   6   7
ENDBRANCH   1   6
TORSDOF 7
ENDMDL
MODEL 6
REMARK VINA RESULT:    -4.188      1.738      2.475
REMARK INTER + INTRA:          -6.339
REMARK INTER:                  -5.871
REMARK INTRA:                  -0.468
REMARK UNBOUND:                -0.560
REMARK SMILES CCCCCCCCO
REMARK SMILES IDX 5 1 4 2 3 3 2 4 1 5 6 6 7 7 8 8 9 9
REMARK H PARENT 9 10
REMARK Flexibility Score: inf
ROOT
ATOM      1  C   UNL     1      11.746   4.865  -2.739  1.00  0.00     0.000 C 
ENDROOT
BRANCH   1   2
ATOM      2  C   UNL     1      11.242   3.416  -2.810  1.00  0.00    -0.000 C 
BRANCH   2   3
ATOM      3  C   UNL     1      10.208   3.141  -1.711  1.00  0.00    -0.000 C 
BRANCH   3   4
ATOM      4  C   UNL     1      10.086   4.336  -0.758  1.00  0.00    -0.003 C 
ATOM      5  C   UNL     1       8.628   4.740  -0.564  1.00  0.00     0.004 C 
ENDBRANCH   3   4
ENDBRANCH   2   3
ENDBRANCH   1   2
BRANCH   1   6
ATOM      6  C   UNL     1      11.678   5.582  -4.097  1.00  0.00     0.002 C 
BRANCH   6   7
ATOM      7  C   UNL     1      10.340   6.306  -4.319  1.00  0.00     0.028 C 
BRANCH   7   8
ATOM      8  C   UNL     1       9.981   7.206  -3.132  1.00  0.00     0.156 C 
BRANCH   8   9
ATOM      9  O   UNL     1      10.242   8.552  -3.424  1.00  0.00    -0.396 OA
ATOM     10  H   UNL     1       9.706   8.778  -4.228  1.00  0.00     0.210 HD
ENDBRANCH   8   9
ENDBRANCH   7   8
ENDBRANCH   6   7
ENDBRANCH   1   6
TORSDOF 7
ENDMDL
MODEL 7
REMARK VINA RESULT:    -4.114      1.884      3.534
REMARK INTER + INTRA:          -6.238
REMARK INTER:                  -5.765
REMARK INTRA:                  -0.472
REMARK UNBOUND:                -0.560
REMARK SMILES CCCCCCCCO
REMARK SMILES IDX 5 1 4 2 3 3 2 4 1 5 6 6 7 7 8 8 9 9
REMARK H PARENT 9 10
REMARK Flexibility Score: inf
ROOT
ATOM      1  C   UNL     1       8.803   4.618  -0.856  1.00  0.00     0.000 C 
ENDROOT
BRANCH   1   2
ATOM      2  C   UNL     1      10.266   4.150  -0.824  1.00  0.00    -0.000 C 
BRANCH   2   3
ATOM      3  C   UNL     1      10.557   3.181  -1.977  1.00  0.00    -0.000 C 
BRANCH   3   4
ATOM      4  C   UNL     1      11.307   3.886  -3.113  1.00  0.00    -0.003 C 
ATOM      5  C   UNL     1      12.147   5.045  -2.583  1.00  0.00     0.004 C 
ENDBRANCH   3   4
ENDBRANCH   2   3
ENDBRANCH   1   2
BRANCH   1   6
ATOM      6  C   UNL     1       8.673   6.147  -0.958  1.00  0.00     0.002 C 
BRANCH   6   7
ATOM      7  C   UNL     1       8.740   6.651  -2.409  1.00  0.00     0.028 C 
BRANCH   7   8
ATOM      8  C   UNL     1       9.107   8.137  -2.474  1.00  0.00     0.156 C 
BRANCH   8   9
ATOM      9  O   UNL     1      10.238   8.340  -3.278  1.00  0.00    -0.396 OA
ATOM     10  H   UNL     1      10.958   8.665  -2.678  1.00  0.00     0.210 HD
ENDBRANCH   8   9
ENDBRANCH   7   8
ENDBRANCH   6   7
ENDBRANCH   1   6
TORSDOF 7
ENDMDL
MODEL 8
REMARK VINA RESULT:    -4.102      1.726      3.649
REMARK INTER + INTRA:          -6.220
REMARK INTER:                  -5.776
REMARK INTRA:                  -0.444
REMARK UNBOUND:                -0.560
REMARK SMILES CCCCCCCCO
REMARK SMILES IDX 5 1 4 2 3 3 2 4 1 5 6 6 7 7 8 8 9 9
REMARK H PARENT 9 10
REMARK Flexibility Score: inf
ROOT
ATOM      1  C   UNL     1       8.416   5.083  -1.664  1.00  0.00     0.000 C 
ENDROOT
BRANCH   1   2
ATOM      2  C   UNL     1       8.845   6.383  -2.362  1.00  0.00    -0.000 C 
BRANCH   2   3
ATOM      3  C   UNL     1       9.077   6.149  -3.860  1.00  0.00    -0.000 C 
BRANCH   3   4
ATOM      4  C   UNL     1      10.439   6.699  -4.299  1.00  0.00    -0.003 C 
ATOM      5  C   UNL     1      11.113   5.768  -5.302  1.00  0.00     0.004 C 
ENDBRANCH   3   4
ENDBRANCH   2   3
ENDBRANCH   1   2
BRANCH   1   6
ATOM      6  C   UNL     1       9.482   4.556  -0.690  1.00  0.00     0.002 C 
BRANCH   6   7
ATOM      7  C   UNL     1      10.115   3.236  -1.162  1.00  0.00     0.028 C 
BRANCH   7   8
ATOM      8  C   UNL     1      11.124   3.466  -2.292  1.00  0.00     0.156 C 
BRANCH   8   9
ATOM      9  O   UNL     1      10.713   2.828  -3.471  1.00  0.00    -0.396 OA
ATOM     10  H   UNL     1      10.702   1.854  -3.278  1.00  0.00     0.210 HD
ENDBRANCH   8   9
ENDBRANCH   7   8
ENDBRANCH   6   7
ENDBRANCH   1   6
TORSDOF 7
ENDMDL
MODEL 9
REMARK VINA RESULT:    -3.985      2.159      3.393
REMARK INTER + INTRA:          -6.060
REMARK INTER:                  -5.635
REMARK INTRA:                  -0.425
REMARK UNBOUND:                -0.560
REMARK SMILES CCCCCCCCO
REMARK SMILES IDX 5 1 4 2 3 3 2 4 1 5 6 6 7 7 8 8 9 9
REMARK H PARENT 9 10
REMARK Flexibility Score: inf
ROOT
ATOM      1  C   UNL     1      10.370   4.445  -0.719  1.00  0.00     0.000 C 
ENDROOT
BRANCH   1   2
ATOM      2  C   UNL     1       9.058   5.062  -0.209  1.00  0.00    -0.000 C 
BRANCH   2   3
ATOM      3  C   UNL     1       8.268   5.698  -1.359  1.00  0.00    -0.000 C 
BRANCH   3   4
ATOM      4  C   UNL     1       8.565   7.198  -1.467  1.00  0.00    -0.003 C 
ATOM      5  C   UNL     1       9.422   7.504  -2.693  1.00  0.00     0.004 C 
ENDBRANCH   3   4
ENDBRANCH   2   3
ENDBRANCH   1   2
BRANCH   1   6
ATOM      6  C   UNL     1      10.136   3.231  -1.633  1.00  0.00     0.002 C 
BRANCH   6   7
ATOM      7  C   UNL     1      10.950   3.306  -2.936  1.00  0.00     0.028 C 
BRANCH   7   8
ATOM      8  C   UNL     1      10.174   4.019  -4.047  1.00  0.00     0.156 C 
BRANCH   8   9
ATOM      9  O   UNL     1       9.019   3.302  -4.393  1.00  0.00    -0.396 OA
ATOM     10  H   UNL     1       9.314   2.384  -4.628  1.00  0.00     0.210 HD
ENDBRANCH   8   9
ENDBRANCH   7   8
ENDBRANCH   6   7
ENDBRANCH   1   6
TORSDOF 7
ENDMDL
