MODEL 1
REMARK VINA RESULT:    -4.229      0.000      0.000
REMARK INTER + INTRA:          -4.727
REMARK INTER:                  -4.600
REMARK INTRA:                  -0.127
REMARK UNBOUND:                -0.127
REMARK SMILES Cc1ccc(C(C)C)cc1O
REMARK SMILES IDX 1 1 2 2 10 3 9 4 5 5 4 6 3 7 11 8 6 10 7 11 8 12
REMARK H PARENT 11 9
REMARK Flexibility Score: inf
ROOT
ATOM      1  C   UNL     1     162.944 165.663 170.423  1.00  0.00     0.048 C 
ATOM      2  C   UNL     1     164.084 166.470 169.867  1.00  0.00    -0.009 A 
ATOM      3  C   UNL     1     163.966 167.089 168.610  1.00  0.00     0.118 A 
ATOM      4  C   UNL     1     165.033 167.840 168.097  1.00  0.00     0.050 A 
ATOM      5  C   UNL     1     166.227 167.982 168.826  1.00  0.00    -0.042 A 
ATOM      6  C   UNL     1     166.335 167.359 170.080  1.00  0.00     0.004 A 
ATOM      7  C   UNL     1     165.274 166.611 170.595  1.00  0.00     0.007 A 
ENDROOT
BRANCH   3   8
ATOM      8  O   UNL     1     162.787 166.956 167.875  1.00  0.00    -0.508 OA
ATOM      9  H   UNL     1     161.879 166.948 168.326  1.00  0.00     0.293 HD
ENDBRANCH   3   8
BRANCH   5  10
ATOM     10  C   UNL     1     167.388 168.793 168.279  1.00  0.00     0.013 C 
ATOM     11  C   UNL     1     168.721 168.315 168.868  1.00  0.00     0.012 C 
ATOM     12  C   UNL     1     167.181 170.292 168.525  1.00  0.00     0.012 C 
ENDBRANCH   5  10
TORSDOF 2
ENDMDL
MODEL 2
REMARK VINA RESULT:    -4.198      3.808      6.180
REMARK INTER + INTRA:          -4.693
REMARK INTER:                  -4.566
REMARK INTRA:                  -0.127
REMARK UNBOUND:                -0.127
REMARK SMILES Cc1ccc(C(C)C)cc1O
REMARK SMILES IDX 1 1 2 2 10 3 9 4 5 5 4 6 3 7 11 8 6 10 7 11 8 12
REMARK H PARENT 11 9
REMARK Flexibility Score: inf
ROOT
ATOM      1  C   UNL     1     172.280 169.516 170.487  1.00  0.00     0.048 C 
ATOM      2  C   UNL     1     171.164 168.750 169.834  1.00  0.00    -0.009 A 
ATOM      3  C   UNL     1     171.337 168.206 168.549  1.00  0.00     0.118 A 
ATOM      4  C   UNL     1     170.291 167.492 167.945  1.00  0.00     0.050 A 
ATOM      5  C   UNL     1     169.066 167.314 168.612  1.00  0.00    -0.042 A 
ATOM      6  C   UNL     1     168.903 167.862 169.894  1.00  0.00     0.004 A 
ATOM      7  C   UNL     1     169.943 168.573 170.499  1.00  0.00     0.007 A 
ENDROOT
BRANCH   3   8
ATOM      8  O   UNL     1     172.547 168.375 167.876  1.00  0.00    -0.508 OA
ATOM      9  H   UNL     1     173.375 167.850 168.134  1.00  0.00     0.293 HD
ENDBRANCH   3   8
BRANCH   5  10
ATOM     10  C   UNL     1     167.928 166.544 167.966  1.00  0.00     0.013 C 
ATOM     11  C   UNL     1     166.583 166.904 168.608  1.00  0.00     0.012 C 
ATOM     12  C   UNL     1     168.179 165.032 168.024  1.00  0.00     0.012 C 
ENDBRANCH   5  10
TORSDOF 2
ENDMDL
MODEL 3
REMARK VINA RESULT:    -4.187      3.692      4.432
REMARK INTER + INTRA:          -4.681
REMARK INTER:                  -4.553
REMARK INTRA:                  -0.128
REMARK UNBOUND:                -0.127
REMARK SMILES Cc1ccc(C(C)C)cc1O
REMARK SMILES IDX 1 1 2 2 10 3 9 4 5 5 4 6 3 7 11 8 6 10 7 11 8 12
REMARK H PARENT 11 9
REMARK Flexibility Score: inf
ROOT
ATOM      1  C   UNL     1     165.779 172.365 170.476  1.00  0.00     0.048 C 
ATOM      2  C   UNL     1     166.590 171.212 169.952  1.00  0.00    -0.009 A 
ATOM      3  C   UNL     1     167.199 171.292 168.688  1.00  0.00     0.118 A 
ATOM      4  C   UNL     1     167.954 170.213 168.206  1.00  0.00     0.050 A 
ATOM      5  C   UNL     1     168.111 169.046 168.975  1.00  0.00    -0.042 A 
ATOM      6  C   UNL     1     167.498 168.976 170.237  1.00  0.00     0.004 A 
ATOM      7  C   UNL     1     166.745 170.049 170.720  1.00  0.00     0.007 A 
ENDROOT
BRANCH   3   8
ATOM      8  O   UNL     1     167.053 172.443 167.914  1.00  0.00    -0.508 OA
ATOM      9  H   UNL     1     167.297 172.457 166.930  1.00  0.00     0.293 HD
ENDBRANCH   3   8
BRANCH   5  10
ATOM     10  C   UNL     1     168.926 167.873 168.462  1.00  0.00     0.013 C 
ATOM     11  C   UNL     1     168.704 166.626 169.326  1.00  0.00     0.012 C 
ATOM     12  C   UNL     1     170.415 168.228 168.377  1.00  0.00     0.012 C 
ENDBRANCH   5  10
TORSDOF 2
ENDMDL
MODEL 4
REMARK VINA RESULT:    -4.103      3.484      4.285
REMARK INTER + INTRA:          -4.590
REMARK INTER:                  -4.462
REMARK INTRA:                  -0.127
REMARK UNBOUND:                -0.127
REMARK SMILES Cc1ccc(C(C)C)cc1O
REMARK SMILES IDX 1 1 2 2 10 3 9 4 5 5 4 6 3 7 11 8 6 10 7 11 8 12
REMARK H PARENT 11 9
REMARK Flexibility Score: inf
ROOT
ATOM      1  C   UNL     1     169.521 163.128 170.502  1.00  0.00     0.048 C 
ATOM      2  C   UNL     1     168.741 164.266 169.907  1.00  0.00    -0.009 A 
ATOM      3  C   UNL     1     168.205 164.157 168.612  1.00  0.00     0.118 A 
ATOM      4  C   UNL     1     167.479 165.224 168.064  1.00  0.00     0.050 A 
ATOM      5  C   UNL     1     167.279 166.408 168.796  1.00  0.00    -0.042 A 
ATOM      6  C   UNL     1     167.819 166.507 170.088  1.00  0.00     0.004 A 
ATOM      7  C   UNL     1     168.542 165.447 170.639  1.00  0.00     0.007 A 
ENDROOT
BRANCH   3   8
ATOM      8  O   UNL     1     168.395 162.989 167.875  1.00  0.00    -0.508 OA
ATOM      9  H   UNL     1     167.849 162.153 168.054  1.00  0.00     0.293 HD
ENDBRANCH   3   8
BRANCH   5  10
ATOM     10  C   UNL     1     166.494 167.568 168.211  1.00  0.00     0.013 C 
ATOM     11  C   UNL     1     166.766 168.865 168.983  1.00  0.00     0.012 C 
ATOM     12  C   UNL     1     164.994 167.257 168.166  1.00  0.00     0.012 C 
ENDBRANCH   5  10
TORSDOF 2
ENDMDL
MODEL 5
REMARK VINA RESULT:    -4.073      2.567      3.377
REMARK INTER + INTRA:          -4.557
REMARK INTER:                  -4.430
REMARK INTRA:                  -0.128
REMARK UNBOUND:                -0.127
REMARK SMILES Cc1ccc(C(C)C)cc1O
REMARK SMILES IDX 1 1 2 2 10 3 9 4 5 5 4 6 3 7 11 8 6 10 7 11 8 12
REMARK H PARENT 11 9
REMARK Flexibility Score: inf
ROOT
ATOM      1  C   UNL     1     168.412 163.566 168.610  1.00  0.00     0.048 C 
ATOM      2  C   UNL     1     168.192 165.048 168.491  1.00  0.00    -0.009 A 
ATOM      3  C   UNL     1     166.900 165.556 168.273  1.00  0.00     0.118 A 
ATOM      4  C   UNL     1     166.702 166.940 168.163  1.00  0.00     0.050 A 
ATOM      5  C   UNL     1     167.785 167.831 168.267  1.00  0.00    -0.042 A 
ATOM      6  C   UNL     1     169.072 167.313 168.484  1.00  0.00     0.004 A 
ATOM      7  C   UNL     1     169.273 165.935 168.595  1.00  0.00     0.007 A 
ENDROOT
BRANCH   3   8
ATOM      8  O   UNL     1     165.816 164.685 168.168  1.00  0.00    -0.508 OA
ATOM      9  H   UNL     1     165.748 164.009 167.415  1.00  0.00     0.293 HD
ENDBRANCH   3   8
BRANCH   5  10
ATOM     10  C   UNL     1     167.581 169.330 168.149  1.00  0.00     0.013 C 
ATOM     11  C   UNL     1     168.867 170.092 168.493  1.00  0.00     0.012 C 
ATOM     12  C   UNL     1     166.410 169.800 169.020  1.00  0.00     0.012 C 
ENDBRANCH   5  10
TORSDOF 2
ENDMDL
MODEL 6
REMARK VINA RESULT:    -4.043      1.720      2.385
REMARK INTER + INTRA:          -4.525
REMARK INTER:                  -4.397
REMARK INTRA:                  -0.127
REMARK UNBOUND:                -0.127
REMARK SMILES Cc1ccc(C(C)C)cc1O
REMARK SMILES IDX 1 1 2 2 10 3 9 4 5 5 4 6 3 7 11 8 6 10 7 11 8 12
REMARK H PARENT 11 9
REMARK Flexibility Score: inf
ROOT
ATOM      1  C   UNL     1     163.685 166.916 168.615  1.00  0.00     0.048 C 
ATOM      2  C   UNL     1     165.158 167.173 168.461  1.00  0.00    -0.009 A 
ATOM      3  C   UNL     1     165.626 168.474 168.205  1.00  0.00     0.118 A 
ATOM      4  C   UNL     1     167.002 168.706 168.062  1.00  0.00     0.050 A 
ATOM      5  C   UNL     1     167.924 167.649 168.171  1.00  0.00    -0.042 A 
ATOM      6  C   UNL     1     167.445 166.354 168.426  1.00  0.00     0.004 A 
ATOM      7  C   UNL     1     166.076 166.118 168.569  1.00  0.00     0.007 A 
ENDROOT
BRANCH   3   8
ATOM      8  O   UNL     1     164.724 169.531 168.095  1.00  0.00    -0.508 OA
ATOM      9  H   UNL     1     163.952 169.505 167.439  1.00  0.00     0.293 HD
ENDBRANCH   3   8
BRANCH   5  10
ATOM     10  C   UNL     1     169.414 167.891 168.017  1.00  0.00     0.013 C 
ATOM     11  C   UNL     1     170.202 166.581 168.144  1.00  0.00     0.012 C 
ATOM     12  C   UNL     1     169.913 168.935 169.024  1.00  0.00     0.012 C 
ENDBRANCH   5  10
TORSDOF 2
ENDMDL
MODEL 7
REMARK VINA RESULT:    -4.033      2.930      5.406
REMARK INTER + INTRA:          -4.514
REMARK INTER:                  -4.386
REMARK INTRA:                  -0.128
REMARK UNBOUND:                -0.127
REMARK SMILES Cc1ccc(C(C)C)cc1O
REMARK SMILES IDX 1 1 2 2 10 3 9 4 5 5 4 6 3 7 11 8 6 10 7 11 8 12
REMARK H PARENT 11 9
REMARK Flexibility Score: inf
ROOT
ATOM      1  C   UNL     1     171.878 168.410 168.616  1.00  0.00     0.048 C 
ATOM      2  C   UNL     1     170.399 168.196 168.457  1.00  0.00    -0.009 A 
ATOM      3  C   UNL     1     169.901 166.933 168.093  1.00  0.00     0.118 A 
ATOM      4  C   UNL     1     168.520 166.741 167.947  1.00  0.00     0.050 A 
ATOM      5  C   UNL     1     167.621 167.802 168.161  1.00  0.00    -0.042 A 
ATOM      6  C   UNL     1     168.129 169.060 168.523  1.00  0.00     0.004 A 
ATOM      7  C   UNL     1     169.504 169.255 168.670  1.00  0.00     0.007 A 
ENDROOT
BRANCH   3   8
ATOM      8  O   UNL     1     170.780 165.872 167.878  1.00  0.00    -0.508 OA
ATOM      9  H   UNL     1     171.665 165.807 168.370  1.00  0.00     0.293 HD
ENDBRANCH   3   8
BRANCH   5  10
ATOM     10  C   UNL     1     166.124 167.604 168.004  1.00  0.00     0.013 C 
ATOM     11  C   UNL     1     165.358 168.884 168.358  1.00  0.00     0.012 C 
ATOM     12  C   UNL     1     165.632 166.417 168.841  1.00  0.00     0.012 C 
ENDBRANCH   5  10
TORSDOF 2
ENDMDL
MODEL 8
REMARK VINA RESULT:    -4.014      1.791      2.647
REMARK INTER + INTRA:          -4.493
REMARK INTER:                  -4.373
REMARK INTRA:                  -0.121
REMARK UNBOUND:                -0.127
REMARK SMILES Cc1ccc(C(C)C)cc1O
REMARK SMILES IDX 1 1 2 2 10 3 9 4 5 5 4 6 3 7 11 8 6 10 7 11 8 12
REMARK H PARENT 11 9
REMARK Flexibility Score: inf
ROOT
ATOM      1  C   UNL     1     163.836 167.062 168.493  1.00  0.00     0.048 C 
ATOM      2  C   UNL     1     165.308 167.352 168.390  1.00  0.00    -0.009 A 
ATOM      3  C   UNL     1     166.228 166.300 168.238  1.00  0.00     0.118 A 
ATOM      4  C   UNL     1     167.599 166.579 168.143  1.00  0.00     0.050 A 
ATOM      5  C   UNL     1     168.068 167.903 168.198  1.00  0.00    -0.042 A 
ATOM      6  C   UNL     1     167.141 168.947 168.351  1.00  0.00     0.004 A 
ATOM      7  C   UNL     1     165.774 168.674 168.445  1.00  0.00     0.007 A 
ENDROOT
BRANCH   3   8
ATOM      8  O   UNL     1     165.777 164.982 168.181  1.00  0.00    -0.508 OA
ATOM      9  H   UNL     1     166.251 164.282 167.621  1.00  0.00     0.293 HD
ENDBRANCH   3   8
BRANCH   5  10
ATOM     10  C   UNL     1     169.550 168.214 168.096  1.00  0.00     0.013 C 
ATOM     11  C   UNL     1     170.385 166.928 168.080  1.00  0.00     0.012 C 
ATOM     12  C   UNL     1     169.999 169.149 169.226  1.00  0.00     0.012 C 
ENDBRANCH   5  10
TORSDOF 2
ENDMDL
MODEL 9
REMARK VINA RESULT:    -3.985      3.176      4.056
REMARK INTER + INTRA:          -4.462
REMARK INTER:                  -4.337
REMARK INTRA:                  -0.124
REMARK UNBOUND:                -0.127
REMARK SMILES Cc1ccc(C(C)C)cc1O
REMARK SMILES IDX 1 1 2 2 10 3 9 4 5 5 4 6 3 7 11 8 6 10 7 11 8 12
REMARK H PARENT 11 9
REMARK Flexibility Score: inf
ROOT
ATOM      1  C   UNL     1     168.398 163.725 168.365  1.00  0.00     0.048 C 
ATOM      2  C   UNL     1     168.102 165.198 168.302  1.00  0.00    -0.009 A 
ATOM      3  C   UNL     1     169.146 166.124 168.137  1.00  0.00     0.118 A 
ATOM      4  C   UNL     1     168.861 167.496 168.078  1.00  0.00     0.050 A 
ATOM      5  C   UNL     1     167.538 167.960 168.183  1.00  0.00    -0.042 A 
ATOM      6  C   UNL     1     166.502 167.026 168.348  1.00  0.00     0.004 A 
ATOM      7  C   UNL     1     166.781 165.659 168.406  1.00  0.00     0.007 A 
ENDROOT
BRANCH   3   8
ATOM      8  O   UNL     1     170.463 165.678 168.031  1.00  0.00    -0.508 OA
ATOM      9  H   UNL     1     171.231 166.181 168.463  1.00  0.00     0.293 HD
ENDBRANCH   3   8
BRANCH   5  10
ATOM     10  C   UNL     1     167.220 169.442 168.121  1.00  0.00     0.013 C 
ATOM     11  C   UNL     1     168.472 170.288 168.386  1.00  0.00     0.012 C 
ATOM     12  C   UNL     1     166.091 169.808 169.092  1.00  0.00     0.012 C 
ENDBRANCH   5  10
TORSDOF 2
ENDMDL
