MODEL 1
REMARK VINA RESULT:    -4.131      0.000      0.000
REMARK INTER + INTRA:          -7.440
REMARK INTER:                  -6.546
REMARK INTRA:                  -0.894
REMARK UNBOUND:                -0.894
REMARK SMILES CCCCCCCCCCCC(=O)[O-]
REMARK SMILES IDX 7 1 8 2 9 3 10 4 11 5 12 6 13 7 14 8 6 9 5 10 4 11 3 12 2 13
REMARK SMILES IDX 1 14
REMARK H PARENT
REMARK Flexibility Score: inf
ROOT
ATOM      1  C   UNL     1      11.187 -11.882 -43.517  1.00  0.00     0.000 C 
ENDROOT
BRANCH   1   2
ATOM      2  C   UNL     1      11.778 -13.296 -43.602  1.00  0.00     0.000 C 
BRANCH   2   3
ATOM      3  C   UNL     1      13.314 -13.301 -43.676  1.00  0.00     0.000 C 
BRANCH   3   4
ATOM      4  C   UNL     1      13.931 -11.893 -43.804  1.00  0.00     0.006 C 
BRANCH   4   5
ATOM      5  C   UNL     1      15.269 -11.913 -44.555  1.00  0.00     0.053 C 
BRANCH   5   6
ATOM      6  C   UNL     1      16.406 -11.707 -43.605  1.00  0.00     0.041 C 
ATOM      7  O   UNL     1      16.191 -11.624 -42.366  1.00  0.00    -0.550 OA
ATOM      8  O   UNL     1      17.710 -11.656 -44.082  1.00  0.00    -0.550 OA
ENDBRANCH   5   6
ENDBRANCH   4   5
ENDBRANCH   3   4
ENDBRANCH   2   3
ENDBRANCH   1   2
BRANCH   1   9
ATOM      9  C   UNL     1      10.105 -11.671 -44.583  1.00  0.00     0.000 C 
BRANCH   9  10
ATOM     10  C   UNL     1      10.052 -10.202 -45.029  1.00  0.00    -0.000 C 
BRANCH  10  11
ATOM     11  C   UNL     1      11.175  -9.352 -44.413  1.00  0.00    -0.000 C 
BRANCH  11  12
ATOM     12  C   UNL     1      10.776  -7.875 -44.249  1.00  0.00    -0.000 C 
BRANCH  12  13
ATOM     13  C   UNL     1       9.939  -7.630 -42.983  1.00  0.00    -0.003 C 
ATOM     14  C   UNL     1      10.493  -8.353 -41.756  1.00  0.00     0.004 C 
ENDBRANCH  12  13
ENDBRANCH  11  12
ENDBRANCH  10  11
ENDBRANCH   9  10
ENDBRANCH   1   9
TORSDOF 10
ENDMDL
MODEL 2
REMARK VINA RESULT:    -4.099      4.376      6.041
REMARK INTER + INTRA:          -7.390
REMARK INTER:                  -6.386
REMARK INTRA:                  -1.004
REMARK UNBOUND:                -0.894
REMARK SMILES CCCCCCCCCCCC(=O)[O-]
REMARK SMILES IDX 7 1 8 2 9 3 10 4 11 5 12 6 13 7 14 8 6 9 5 10 4 11 3 12 2 13
REMARK SMILES IDX 1 14
REMARK H PARENT
REMARK Flexibility Score: inf
ROOT
ATOM      1  C   UNL     1      10.548 -12.485 -44.642  1.00  0.00     0.000 C 
ENDROOT
BRANCH   1   2
ATOM      2  C   UNL     1      10.083 -12.205 -46.078  1.00  0.00     0.000 C 
BRANCH   2   3
ATOM      3  C   UNL     1       9.072 -11.049 -46.166  1.00  0.00     0.000 C 
BRANCH   3   4
ATOM      4  C   UNL     1       7.602 -11.504 -46.052  1.00  0.00     0.006 C 
BRANCH   4   5
ATOM      5  C   UNL     1       7.403 -12.948 -46.531  1.00  0.00     0.053 C 
BRANCH   5   6
ATOM      6  C   UNL     1       6.733 -13.764 -45.471  1.00  0.00     0.041 C 
ATOM      7  O   UNL     1       5.479 -13.742 -45.352  1.00  0.00    -0.550 OA
ATOM      8  O   UNL     1       7.488 -14.588 -44.647  1.00  0.00    -0.550 OA
ENDBRANCH   5   6
ENDBRANCH   4   5
ENDBRANCH   3   4
ENDBRANCH   2   3
ENDBRANCH   1   2
BRANCH   1   9
ATOM      9  C   UNL     1      11.898 -11.817 -44.359  1.00  0.00     0.000 C 
BRANCH   9  10
ATOM     10  C   UNL     1      11.704 -10.444 -43.697  1.00  0.00    -0.000 C 
BRANCH  10  11
ATOM     11  C   UNL     1      12.285  -9.294 -44.535  1.00  0.00    -0.000 C 
BRANCH  11  12
ATOM     12  C   UNL     1      11.323  -8.097 -44.641  1.00  0.00    -0.000 C 
BRANCH  12  13
ATOM     13  C   UNL     1       9.959  -8.380 -43.992  1.00  0.00    -0.003 C 
ATOM     14  C   UNL     1       9.573  -7.339 -42.943  1.00  0.00     0.004 C 
ENDBRANCH  12  13
ENDBRANCH  11  12
ENDBRANCH  10  11
ENDBRANCH   9  10
ENDBRANCH   1   9
TORSDOF 10
ENDMDL
MODEL 3
REMARK VINA RESULT:    -3.976      3.996      5.330
REMARK INTER + INTRA:          -7.194
REMARK INTER:                  -6.043
REMARK INTRA:                  -1.151
REMARK UNBOUND:                -0.894
REMARK SMILES CCCCCCCCCCCC(=O)[O-]
REMARK SMILES IDX 7 1 8 2 9 3 10 4 11 5 12 6 13 7 14 8 6 9 5 10 4 11 3 12 2 13
REMARK SMILES IDX 1 14
REMARK H PARENT
REMARK Flexibility Score: inf
ROOT
ATOM      1  C   UNL     1      12.435 -14.010 -44.069  1.00  0.00     0.000 C 
ENDROOT
BRANCH   1   2
ATOM      2  C   UNL     1      12.402 -13.409 -45.481  1.00  0.00     0.000 C 
BRANCH   2   3
ATOM      3  C   UNL     1      11.129 -13.781 -46.261  1.00  0.00     0.000 C 
BRANCH   3   4
ATOM      4  C   UNL     1      10.119 -12.622 -46.384  1.00  0.00     0.006 C 
BRANCH   4   5
ATOM      5  C   UNL     1       9.016 -12.698 -45.320  1.00  0.00     0.053 C 
BRANCH   5   6
ATOM      6  C   UNL     1       7.820 -11.908 -45.748  1.00  0.00     0.041 C 
ATOM      7  O   UNL     1       6.719 -12.486 -45.954  1.00  0.00    -0.550 OA
ATOM      8  O   UNL     1       7.906 -10.527 -45.871  1.00  0.00    -0.550 OA
ENDBRANCH   5   6
ENDBRANCH   4   5
ENDBRANCH   3   4
ENDBRANCH   2   3
ENDBRANCH   1   2
BRANCH   1   9
ATOM      9  C   UNL     1      11.915 -13.009 -43.031  1.00  0.00     0.000 C 
BRANCH   9  10
ATOM     10  C   UNL     1      12.414 -11.588 -43.340  1.00  0.00    -0.000 C 
BRANCH  10  11
ATOM     11  C   UNL     1      11.304 -10.531 -43.222  1.00  0.00    -0.000 C 
BRANCH  11  12
ATOM     12  C   UNL     1      11.129  -9.713 -44.513  1.00  0.00    -0.000 C 
BRANCH  12  13
ATOM     13  C   UNL     1      11.138  -8.198 -44.255  1.00  0.00    -0.003 C 
ATOM     14  C   UNL     1       9.890  -7.713 -43.518  1.00  0.00     0.004 C 
ENDBRANCH  12  13
ENDBRANCH  11  12
ENDBRANCH  10  11
ENDBRANCH   9  10
ENDBRANCH   1   9
TORSDOF 10
ENDMDL
MODEL 4
REMARK VINA RESULT:    -3.844      3.246      5.178
REMARK INTER + INTRA:          -6.985
REMARK INTER:                  -5.915
REMARK INTRA:                  -1.070
REMARK UNBOUND:                -0.894
REMARK SMILES CCCCCCCCCCCC(=O)[O-]
REMARK SMILES IDX 7 1 8 2 9 3 10 4 11 5 12 6 13 7 14 8 6 9 5 10 4 11 3 12 2 13
REMARK SMILES IDX 1 14
REMARK H PARENT
REMARK Flexibility Score: inf
ROOT
ATOM      1  C   UNL     1      12.747 -13.316 -43.767  1.00  0.00     0.000 C 
ENDROOT
BRANCH   1   2
ATOM      2  C   UNL     1      13.225 -11.936 -43.294  1.00  0.00     0.000 C 
BRANCH   2   3
ATOM      3  C   UNL     1      12.590 -10.778 -44.082  1.00  0.00     0.000 C 
BRANCH   3   4
ATOM      4  C   UNL     1      11.242 -10.301 -43.501  1.00  0.00     0.006 C 
BRANCH   4   5
ATOM      5  C   UNL     1      10.810  -8.946 -44.076  1.00  0.00     0.053 C 
BRANCH   5   6
ATOM      6  C   UNL     1      10.254  -8.072 -42.997  1.00  0.00     0.041 C 
ATOM      7  O   UNL     1      10.558  -8.282 -41.792  1.00  0.00    -0.550 OA
ATOM      8  O   UNL     1       9.441  -6.995 -43.324  1.00  0.00    -0.550 OA
ENDBRANCH   5   6
ENDBRANCH   4   5
ENDBRANCH   3   4
ENDBRANCH   2   3
ENDBRANCH   1   2
BRANCH   1   9
ATOM      9  C   UNL     1      12.886 -13.455 -45.288  1.00  0.00     0.000 C 
BRANCH   9  10
ATOM     10  C   UNL     1      11.584 -13.978 -45.913  1.00  0.00    -0.000 C 
BRANCH  10  11
ATOM     11  C   UNL     1      10.695 -12.852 -46.463  1.00  0.00    -0.000 C 
BRANCH  11  12
ATOM     12  C   UNL     1       9.417 -12.648 -45.631  1.00  0.00    -0.000 C 
BRANCH  12  13
ATOM     13  C   UNL     1       8.281 -12.006 -46.444  1.00  0.00    -0.003 C 
ATOM     14  C   UNL     1       7.708 -10.756 -45.778  1.00  0.00     0.004 C 
ENDBRANCH  12  13
ENDBRANCH  11  12
ENDBRANCH  10  11
ENDBRANCH   9  10
ENDBRANCH   1   9
TORSDOF 10
ENDMDL
MODEL 5
REMARK VINA RESULT:    -3.789     11.627     13.547
REMARK INTER + INTRA:          -6.899
REMARK INTER:                  -5.392
REMARK INTRA:                  -1.506
REMARK UNBOUND:                -0.894
REMARK SMILES CCCCCCCCCCCC(=O)[O-]
REMARK SMILES IDX 7 1 8 2 9 3 10 4 11 5 12 6 13 7 14 8 6 9 5 10 4 11 3 12 2 13
REMARK SMILES IDX 1 14
REMARK H PARENT
REMARK Flexibility Score: inf
ROOT
ATOM      1  C   UNL     1       9.369 -24.237 -36.012  1.00  0.00     0.000 C 
ENDROOT
BRANCH   1   2
ATOM      2  C   UNL     1      10.509 -24.290 -37.039  1.00  0.00     0.000 C 
BRANCH   2   3
ATOM      3  C   UNL     1      10.527 -23.073 -37.978  1.00  0.00     0.000 C 
BRANCH   3   4
ATOM      4  C   UNL     1      11.821 -22.238 -37.884  1.00  0.00     0.006 C 
BRANCH   4   5
ATOM      5  C   UNL     1      11.563 -20.742 -38.109  1.00  0.00     0.053 C 
BRANCH   5   6
ATOM      6  C   UNL     1      12.330 -19.923 -37.120  1.00  0.00     0.041 C 
ATOM      7  O   UNL     1      13.579 -20.057 -37.018  1.00  0.00    -0.550 OA
ATOM      8  O   UNL     1      11.674 -18.976 -36.344  1.00  0.00    -0.550 OA
ENDBRANCH   5   6
ENDBRANCH   4   5
ENDBRANCH   3   4
ENDBRANCH   2   3
ENDBRANCH   1   2
BRANCH   1   9
ATOM      9  C   UNL     1       9.690 -23.250 -34.883  1.00  0.00     0.000 C 
BRANCH   9  10
ATOM     10  C   UNL     1       8.567 -22.214 -34.722  1.00  0.00    -0.000 C 
BRANCH  10  11
ATOM     11  C   UNL     1       8.895 -20.872 -35.396  1.00  0.00    -0.000 C 
BRANCH  11  12
ATOM     12  C   UNL     1       7.893 -20.508 -36.505  1.00  0.00    -0.000 C 
BRANCH  12  13
ATOM     13  C   UNL     1       6.790 -21.566 -36.671  1.00  0.00    -0.003 C 
ATOM     14  C   UNL     1       6.850 -22.278 -38.023  1.00  0.00     0.004 C 
ENDBRANCH  12  13
ENDBRANCH  11  12
ENDBRANCH  10  11
ENDBRANCH   9  10
ENDBRANCH   1   9
TORSDOF 10
ENDMDL
MODEL 6
REMARK VINA RESULT:    -3.784     11.565     13.918
REMARK INTER + INTRA:          -6.889
REMARK INTER:                  -5.944
REMARK INTRA:                  -0.946
REMARK UNBOUND:                -0.894
REMARK SMILES CCCCCCCCCCCC(=O)[O-]
REMARK SMILES IDX 7 1 8 2 9 3 10 4 11 5 12 6 13 7 14 8 6 9 5 10 4 11 3 12 2 13
REMARK SMILES IDX 1 14
REMARK H PARENT
REMARK Flexibility Score: inf
ROOT
ATOM      1  C   UNL     1       6.336 -21.736 -36.732  1.00  0.00     0.000 C 
ENDROOT
BRANCH   1   2
ATOM      2  C   UNL     1       6.709 -20.311 -37.165  1.00  0.00     0.000 C 
BRANCH   2   3
ATOM      3  C   UNL     1       6.700 -19.309 -35.998  1.00  0.00     0.000 C 
BRANCH   3   4
ATOM      4  C   UNL     1       5.978 -17.986 -36.325  1.00  0.00     0.006 C 
BRANCH   4   5
ATOM      5  C   UNL     1       5.481 -17.269 -35.063  1.00  0.00     0.053 C 
BRANCH   5   6
ATOM      6  C   UNL     1       5.797 -15.808 -35.132  1.00  0.00     0.041 C 
ATOM      7  O   UNL     1       6.483 -15.352 -36.085  1.00  0.00    -0.550 OA
ATOM      8  O   UNL     1       5.292 -14.942 -34.171  1.00  0.00    -0.550 OA
ENDBRANCH   5   6
ENDBRANCH   4   5
ENDBRANCH   3   4
ENDBRANCH   2   3
ENDBRANCH   1   2
BRANCH   1   9
ATOM      9  C   UNL     1       7.589 -22.590 -36.506  1.00  0.00     0.000 C 
BRANCH   9  10
ATOM     10  C   UNL     1       8.183 -22.336 -35.112  1.00  0.00    -0.000 C 
BRANCH  10  11
ATOM     11  C   UNL     1       9.714 -22.472 -35.085  1.00  0.00    -0.000 C 
BRANCH  11  12
ATOM     12  C   UNL     1      10.389 -21.785 -36.285  1.00  0.00    -0.000 C 
BRANCH  12  13
ATOM     13  C   UNL     1      10.320 -20.252 -36.200  1.00  0.00    -0.003 C 
ATOM     14  C   UNL     1      10.276 -19.583 -37.574  1.00  0.00     0.004 C 
ENDBRANCH  12  13
ENDBRANCH  11  12
ENDBRANCH  10  11
ENDBRANCH   9  10
ENDBRANCH   1   9
TORSDOF 10
ENDMDL
MODEL 7
REMARK VINA RESULT:    -3.771     11.073     13.197
REMARK INTER + INTRA:          -6.869
REMARK INTER:                  -5.332
REMARK INTRA:                  -1.537
REMARK UNBOUND:                -0.894
REMARK SMILES CCCCCCCCCCCC(=O)[O-]
REMARK SMILES IDX 7 1 8 2 9 3 10 4 11 5 12 6 13 7 14 8 6 9 5 10 4 11 3 12 2 13
REMARK SMILES IDX 1 14
REMARK H PARENT
REMARK Flexibility Score: inf
ROOT
ATOM      1  C   UNL     1      11.101 -22.865 -37.174  1.00  0.00     0.000 C 
ENDROOT
BRANCH   1   2
ATOM      2  C   UNL     1      10.499 -22.248 -38.445  1.00  0.00     0.000 C 
BRANCH   2   3
ATOM      3  C   UNL     1      10.131 -20.765 -38.275  1.00  0.00     0.000 C 
BRANCH   3   4
ATOM      4  C   UNL     1      10.858 -20.079 -37.099  1.00  0.00     0.006 C 
BRANCH   4   5
ATOM      5  C   UNL     1      11.835 -18.995 -37.574  1.00  0.00     0.053 C 
BRANCH   5   6
ATOM      6  C   UNL     1      13.183 -19.587 -37.842  1.00  0.00     0.041 C 
ATOM      7  O   UNL     1      13.692 -20.400 -37.025  1.00  0.00    -0.550 OA
ATOM      8  O   UNL     1      13.856 -19.279 -39.016  1.00  0.00    -0.550 OA
ENDBRANCH   5   6
ENDBRANCH   4   5
ENDBRANCH   3   4
ENDBRANCH   2   3
ENDBRANCH   1   2
BRANCH   1   9
ATOM      9  C   UNL     1      10.457 -24.221 -36.861  1.00  0.00     0.000 C 
BRANCH   9  10
ATOM     10  C   UNL     1       9.386 -24.082 -35.768  1.00  0.00    -0.000 C 
BRANCH  10  11
ATOM     11  C   UNL     1       9.597 -22.842 -34.884  1.00  0.00    -0.000 C 
BRANCH  11  12
ATOM     12  C   UNL     1       8.409 -21.865 -34.945  1.00  0.00    -0.000 C 
BRANCH  12  13
ATOM     13  C   UNL     1       7.409 -22.224 -36.055  1.00  0.00    -0.003 C 
ATOM     14  C   UNL     1       6.768 -20.993 -36.697  1.00  0.00     0.004 C 
ENDBRANCH  12  13
ENDBRANCH  11  12
ENDBRANCH  10  11
ENDBRANCH   9  10
ENDBRANCH   1   9
TORSDOF 10
ENDMDL
MODEL 8
REMARK VINA RESULT:    -3.718     12.040     13.044
REMARK INTER + INTRA:          -6.785
REMARK INTER:                  -6.100
REMARK INTRA:                  -0.685
REMARK UNBOUND:                -0.894
REMARK SMILES CCCCCCCCCCCC(=O)[O-]
REMARK SMILES IDX 7 1 8 2 9 3 10 4 11 5 12 6 13 7 14 8 6 9 5 10 4 11 3 12 2 13
REMARK SMILES IDX 1 14
REMARK H PARENT
REMARK Flexibility Score: inf
ROOT
ATOM      1  C   UNL     1       6.378 -21.353 -36.710  1.00  0.00     0.000 C 
ENDROOT
BRANCH   1   2
ATOM      2  C   UNL     1       7.531 -22.336 -36.465  1.00  0.00     0.000 C 
BRANCH   2   3
ATOM      3  C   UNL     1       8.160 -22.187 -35.069  1.00  0.00     0.000 C 
BRANCH   3   4
ATOM      4  C   UNL     1       9.699 -22.070 -35.094  1.00  0.00     0.006 C 
BRANCH   4   5
ATOM      5  C   UNL     1      10.188 -21.087 -36.166  1.00  0.00     0.053 C 
BRANCH   5   6
ATOM      6  C   UNL     1      11.175 -21.751 -37.073  1.00  0.00     0.041 C 
ATOM      7  O   UNL     1      10.829 -22.741 -37.771  1.00  0.00    -0.550 OA
ATOM      8  O   UNL     1      12.464 -21.246 -37.186  1.00  0.00    -0.550 OA
ENDBRANCH   5   6
ENDBRANCH   4   5
ENDBRANCH   3   4
ENDBRANCH   2   3
ENDBRANCH   1   2
BRANCH   1   9
ATOM      9  C   UNL     1       6.907 -19.956 -37.054  1.00  0.00     0.000 C 
BRANCH   9  10
ATOM     10  C   UNL     1       6.469 -18.927 -36.001  1.00  0.00    -0.000 C 
BRANCH  10  11
ATOM     11  C   UNL     1       5.740 -17.721 -36.616  1.00  0.00    -0.000 C 
BRANCH  11  12
ATOM     12  C   UNL     1       4.824 -17.008 -35.606  1.00  0.00    -0.000 C 
BRANCH  12  13
ATOM     13  C   UNL     1       5.335 -17.129 -34.161  1.00  0.00    -0.003 C 
ATOM     14  C   UNL     1       5.193 -15.828 -33.371  1.00  0.00     0.004 C 
ENDBRANCH  12  13
ENDBRANCH  11  12
ENDBRANCH  10  11
ENDBRANCH   9  10
ENDBRANCH   1   9
TORSDOF 10
ENDMDL
MODEL 9
REMARK VINA RESULT:    -3.693     11.673     13.705
REMARK INTER + INTRA:          -6.746
REMARK INTER:                  -5.266
REMARK INTRA:                  -1.480
REMARK UNBOUND:                -0.894
REMARK SMILES CCCCCCCCCCCC(=O)[O-]
REMARK SMILES IDX 7 1 8 2 9 3 10 4 11 5 12 6 13 7 14 8 6 9 5 10 4 11 3 12 2 13
REMARK SMILES IDX 1 14
REMARK H PARENT
REMARK Flexibility Score: inf
ROOT
ATOM      1  C   UNL     1       9.988 -20.500 -36.104  1.00  0.00     0.000 C 
ENDROOT
BRANCH   1   2
ATOM      2  C   UNL     1      10.054 -20.040 -37.567  1.00  0.00     0.000 C 
BRANCH   2   3
ATOM      3  C   UNL     1      11.236 -20.654 -38.335  1.00  0.00     0.000 C 
BRANCH   3   4
ATOM      4  C   UNL     1      12.222 -21.429 -37.437  1.00  0.00     0.006 C 
BRANCH   4   5
ATOM      5  C   UNL     1      12.929 -22.561 -38.194  1.00  0.00     0.053 C 
BRANCH   5   6
ATOM      6  C   UNL     1      14.414 -22.402 -38.106  1.00  0.00     0.041 C 
ATOM      7  O   UNL     1      14.929 -21.780 -37.139  1.00  0.00    -0.550 OA
ATOM      8  O   UNL     1      15.233 -22.983 -39.066  1.00  0.00    -0.550 OA
ENDBRANCH   5   6
ENDBRANCH   4   5
ENDBRANCH   3   4
ENDBRANCH   2   3
ENDBRANCH   1   2
BRANCH   1   9
ATOM      9  C   UNL     1       8.535 -20.656 -35.640  1.00  0.00     0.000 C 
BRANCH   9  10
ATOM     10  C   UNL     1       8.358 -21.937 -34.809  1.00  0.00    -0.000 C 
BRANCH  10  11
ATOM     11  C   UNL     1       9.591 -22.854 -34.860  1.00  0.00    -0.000 C 
BRANCH  11  12
ATOM     12  C   UNL     1       9.298 -24.199 -35.547  1.00  0.00    -0.000 C 
BRANCH  12  13
ATOM     13  C   UNL     1       9.809 -24.242 -36.996  1.00  0.00    -0.003 C 
ATOM     14  C   UNL     1       8.791 -23.703 -38.001  1.00  0.00     0.004 C 
ENDBRANCH  12  13
ENDBRANCH  11  12
ENDBRANCH  10  11
ENDBRANCH   9  10
ENDBRANCH   1   9
TORSDOF 10
ENDMDL
