MODEL 1
REMARK VINA RESULT:    -5.537      0.000      0.000
REMARK INTER + INTRA:          -5.959
REMARK INTER:                  -5.861
REMARK INTRA:                  -0.099
REMARK UNBOUND:                -0.099
REMARK SMILES C=C(C)[C@H]1CC=C(C)C(=O)C1
REMARK SMILES IDX 8 1 7 2 6 3 5 4 4 5 11 6 9 7 10 8 2 9 1 10 3 11
REMARK H PARENT
REMARK Flexibility Score: inf
ROOT
ATOM      1  C   UNL     1      15.106 -33.482  21.438  1.00  0.00     0.048 C 
ATOM      2  C   UNL     1      14.228 -32.386  21.975  1.00  0.00    -0.012 C 
ATOM      3  C   UNL     1      14.408 -31.937  23.230  1.00  0.00    -0.019 C 
ATOM      4  C   UNL     1      13.545 -30.855  23.822  1.00  0.00     0.036 C 
ATOM      5  C   UNL     1      13.091 -29.855  22.743  1.00  0.00     0.025 C 
ATOM      6  C   UNL     1      12.389 -30.594  21.591  1.00  0.00     0.089 C 
ATOM      7  C   UNL     1      13.249 -31.719  21.081  1.00  0.00     0.158 C 
ATOM      8  O   UNL     1      13.103 -32.114  19.893  1.00  0.00    -0.295 OA
ENDROOT
BRANCH   5   9
ATOM      9  C   UNL     1      12.203 -28.768  23.331  1.00  0.00    -0.077 C 
ATOM     10  C   UNL     1      10.973 -28.559  22.832  1.00  0.00     0.008 C 
ATOM     11  C   UNL     1      12.668 -27.906  24.479  1.00  0.00     0.039 C 
ENDBRANCH   5   9
TORSDOF 1
ENDMDL
MODEL 2
REMARK VINA RESULT:    -5.300      1.626      2.466
REMARK INTER + INTRA:          -5.709
REMARK INTER:                  -5.610
REMARK INTRA:                  -0.099
REMARK UNBOUND:                -0.099
REMARK SMILES C=C(C)[C@H]1CC=C(C)C(=O)C1
REMARK SMILES IDX 8 1 7 2 6 3 5 4 4 5 11 6 9 7 10 8 2 9 1 10 3 11
REMARK H PARENT
REMARK Flexibility Score: inf
ROOT
ATOM      1  C   UNL     1      15.233 -34.298  21.079  1.00  0.00     0.048 C 
ATOM      2  C   UNL     1      14.607 -33.005  21.521  1.00  0.00    -0.012 C 
ATOM      3  C   UNL     1      13.861 -32.292  20.659  1.00  0.00    -0.019 C 
ATOM      4  C   UNL     1      13.226 -30.983  21.044  1.00  0.00     0.036 C 
ATOM      5  C   UNL     1      12.836 -30.973  22.534  1.00  0.00     0.025 C 
ATOM      6  C   UNL     1      14.057 -31.308  23.408  1.00  0.00     0.089 C 
ATOM      7  C   UNL     1      14.711 -32.580  22.939  1.00  0.00     0.158 C 
ATOM      8  O   UNL     1      15.381 -33.264  23.759  1.00  0.00    -0.295 OA
ENDROOT
BRANCH   5   9
ATOM      9  C   UNL     1      12.211 -29.645  22.936  1.00  0.00    -0.077 C 
ATOM     10  C   UNL     1      12.759 -28.912  23.919  1.00  0.00     0.008 C 
ATOM     11  C   UNL     1      10.975 -29.117  22.250  1.00  0.00     0.039 C 
ENDBRANCH   5   9
TORSDOF 1
ENDMDL
MODEL 3
REMARK VINA RESULT:    -5.257      1.556      2.038
REMARK INTER + INTRA:          -5.663
REMARK INTER:                  -5.565
REMARK INTRA:                  -0.098
REMARK UNBOUND:                -0.099
REMARK SMILES C=C(C)[C@H]1CC=C(C)C(=O)C1
REMARK SMILES IDX 8 1 7 2 6 3 5 4 4 5 11 6 9 7 10 8 2 9 1 10 3 11
REMARK H PARENT
REMARK Flexibility Score: inf
ROOT
ATOM      1  C   UNL     1      14.658 -32.834  20.968  1.00  0.00     0.048 C 
ATOM      2  C   UNL     1      14.043 -31.588  21.542  1.00  0.00    -0.012 C 
ATOM      3  C   UNL     1      12.727 -31.361  21.393  1.00  0.00    -0.019 C 
ATOM      4  C   UNL     1      12.064 -30.120  21.932  1.00  0.00     0.036 C 
ATOM      5  C   UNL     1      12.750 -29.643  23.225  1.00  0.00     0.025 C 
ATOM      6  C   UNL     1      14.257 -29.441  22.988  1.00  0.00     0.089 C 
ATOM      7  C   UNL     1      14.865 -30.673  22.374  1.00  0.00     0.158 C 
ATOM      8  O   UNL     1      16.093 -30.903  22.544  1.00  0.00    -0.295 OA
ENDROOT
BRANCH   5   9
ATOM      9  C   UNL     1      12.098 -28.378  23.766  1.00  0.00    -0.077 C 
ATOM     10  C   UNL     1      10.900 -27.986  23.302  1.00  0.00     0.008 C 
ATOM     11  C   UNL     1      12.767 -27.540  24.827  1.00  0.00     0.039 C 
ENDBRANCH   5   9
TORSDOF 1
ENDMDL
MODEL 4
REMARK VINA RESULT:    -5.226      1.278      4.139
REMARK INTER + INTRA:          -5.630
REMARK INTER:                  -5.532
REMARK INTRA:                  -0.098
REMARK UNBOUND:                -0.099
REMARK SMILES C=C(C)[C@H]1CC=C(C)C(=O)C1
REMARK SMILES IDX 8 1 7 2 6 3 5 4 4 5 11 6 9 7 10 8 2 9 1 10 3 11
REMARK H PARENT
REMARK Flexibility Score: inf
ROOT
ATOM      1  C   UNL     1      10.948 -28.323  23.132  1.00  0.00     0.048 C 
ATOM      2  C   UNL     1      12.039 -29.322  22.862  1.00  0.00    -0.012 C 
ATOM      3  C   UNL     1      13.098 -29.397  23.686  1.00  0.00    -0.019 C 
ATOM      4  C   UNL     1      14.226 -30.367  23.452  1.00  0.00     0.036 C 
ATOM      5  C   UNL     1      13.715 -31.662  22.793  1.00  0.00     0.025 C 
ATOM      6  C   UNL     1      12.948 -31.336  21.499  1.00  0.00     0.089 C 
ATOM      7  C   UNL     1      11.885 -30.304  21.759  1.00  0.00     0.158 C 
ATOM      8  O   UNL     1      10.875 -30.258  21.006  1.00  0.00    -0.295 OA
ENDROOT
BRANCH   5   9
ATOM      9  C   UNL     1      14.852 -32.640  22.535  1.00  0.00    -0.077 C 
ATOM     10  C   UNL     1      14.886 -33.348  21.394  1.00  0.00     0.008 C 
ATOM     11  C   UNL     1      15.962 -32.837  23.537  1.00  0.00     0.039 C 
ENDBRANCH   5   9
TORSDOF 1
ENDMDL
MODEL 5
REMARK VINA RESULT:    -5.115      1.080      1.391
REMARK INTER + INTRA:          -5.513
REMARK INTER:                  -5.414
REMARK INTRA:                  -0.099
REMARK UNBOUND:                -0.099
REMARK SMILES C=C(C)[C@H]1CC=C(C)C(=O)C1
REMARK SMILES IDX 8 1 7 2 6 3 5 4 4 5 11 6 9 7 10 8 2 9 1 10 3 11
REMARK H PARENT
REMARK Flexibility Score: inf
ROOT
ATOM      1  C   UNL     1      16.131 -34.157  22.107  1.00  0.00     0.048 C 
ATOM      2  C   UNL     1      14.990 -33.183  22.205  1.00  0.00    -0.012 C 
ATOM      3  C   UNL     1      14.711 -32.593  23.381  1.00  0.00    -0.019 C 
ATOM      4  C   UNL     1      13.568 -31.625  23.538  1.00  0.00     0.036 C 
ATOM      5  C   UNL     1      13.338 -30.825  22.242  1.00  0.00     0.025 C 
ATOM      6  C   UNL     1      13.132 -31.780  21.054  1.00  0.00     0.089 C 
ATOM      7  C   UNL     1      14.252 -32.783  20.981  1.00  0.00     0.158 C 
ATOM      8  O   UNL     1      14.535 -33.308  19.870  1.00  0.00    -0.295 OA
ENDROOT
BRANCH   5   9
ATOM      9  C   UNL     1      12.172 -29.857  22.387  1.00  0.00    -0.077 C 
ATOM     10  C   UNL     1      11.060 -30.028  21.654  1.00  0.00     0.008 C 
ATOM     11  C   UNL     1      12.229 -28.695  23.347  1.00  0.00     0.039 C 
ENDBRANCH   5   9
TORSDOF 1
ENDMDL
MODEL 6
REMARK VINA RESULT:    -4.986      2.532      4.234
REMARK INTER + INTRA:          -5.377
REMARK INTER:                  -5.279
REMARK INTRA:                  -0.098
REMARK UNBOUND:                -0.099
REMARK SMILES C=C(C)[C@H]1CC=C(C)C(=O)C1
REMARK SMILES IDX 8 1 7 2 6 3 5 4 4 5 11 6 9 7 10 8 2 9 1 10 3 11
REMARK H PARENT
REMARK Flexibility Score: inf
ROOT
ATOM      1  C   UNL     1      10.895 -30.527  21.373  1.00  0.00     0.048 C 
ATOM      2  C   UNL     1      12.356 -30.594  21.720  1.00  0.00    -0.012 C 
ATOM      3  C   UNL     1      13.187 -31.352  20.983  1.00  0.00    -0.019 C 
ATOM      4  C   UNL     1      14.654 -31.468  21.299  1.00  0.00     0.036 C 
ATOM      5  C   UNL     1      15.197 -30.160  21.903  1.00  0.00     0.025 C 
ATOM      6  C   UNL     1      14.366 -29.756  23.134  1.00  0.00     0.089 C 
ATOM      7  C   UNL     1      12.900 -29.731  22.798  1.00  0.00     0.158 C 
ATOM      8  O   UNL     1      12.129 -28.992  23.469  1.00  0.00    -0.295 OA
ENDROOT
BRANCH   5   9
ATOM      9  C   UNL     1      16.676 -30.276  22.243  1.00  0.00    -0.077 C 
ATOM     10  C   UNL     1      17.060 -30.516  23.508  1.00  0.00     0.008 C 
ATOM     11  C   UNL     1      17.740 -30.130  21.184  1.00  0.00     0.039 C 
ENDBRANCH   5   9
TORSDOF 1
ENDMDL
MODEL 7
REMARK VINA RESULT:    -4.976     10.500     11.172
REMARK INTER + INTRA:          -5.365
REMARK INTER:                  -5.278
REMARK INTRA:                  -0.087
REMARK UNBOUND:                -0.099
REMARK SMILES C=C(C)[C@H]1CC=C(C)C(=O)C1
REMARK SMILES IDX 8 1 7 2 6 3 5 4 4 5 11 6 9 7 10 8 2 9 1 10 3 11
REMARK H PARENT
REMARK Flexibility Score: inf
ROOT
ATOM      1  C   UNL     1      23.905 -22.441  21.680  1.00  0.00     0.048 C 
ATOM      2  C   UNL     1      23.202 -23.752  21.463  1.00  0.00    -0.012 C 
ATOM      3  C   UNL     1      22.534 -24.329  22.477  1.00  0.00    -0.019 C 
ATOM      4  C   UNL     1      21.828 -25.650  22.318  1.00  0.00     0.036 C 
ATOM      5  C   UNL     1      21.282 -25.819  20.888  1.00  0.00     0.025 C 
ATOM      6  C   UNL     1      22.413 -25.636  19.860  1.00  0.00     0.089 C 
ATOM      7  C   UNL     1      23.145 -24.344  20.103  1.00  0.00     0.158 C 
ATOM      8  O   UNL     1      23.741 -23.786  19.143  1.00  0.00    -0.295 OA
ENDROOT
BRANCH   5   9
ATOM      9  C   UNL     1      20.584 -27.160  20.715  1.00  0.00    -0.077 C 
ATOM     10  C   UNL     1      19.285 -27.205  20.377  1.00  0.00     0.008 C 
ATOM     11  C   UNL     1      21.321 -28.462  20.910  1.00  0.00     0.039 C 
ENDBRANCH   5   9
TORSDOF 1
ENDMDL
