MODEL 1
REMARK VINA RESULT:   109.743      0.000      0.000
REMARK INTER + INTRA:         119.496
REMARK INTER:                 119.366
REMARK INTRA:                   0.129
REMARK UNBOUND:                 0.129
REMARK SMILES C[C@@H]1[C@@H](C)CC[C@@]2(C(=O)[O-])CC[C@@]3(C)C(=CC[C@@H]4[C@@]5(C)CC[C@@H](O)C(C)(C)[C@H]5CC[C@@]43C)[C@@H]12
REMARK SMILES IDX 7 1 6 2 11 3 33 4 5 5 12 6 15 7 2 8 3 9 13 10 16 11 1 12
REMARK SMILES IDX 4 13 14 14 31 15 17 16 18 17 30 18 32 19 19 20 29 21 28 22
REMARK SMILES IDX 21 23 20 24 25 25 22 26 23 27 26 28 27 29 8 30 9 31 10 32
REMARK SMILES IDX 24 33
REMARK H PARENT 24 34
REMARK Flexibility Score: inf
ROOT
ATOM      1  C   UNL     1      28.254  29.011   2.646  1.00  0.00     0.017 C 
ATOM      2  C   UNL     1      28.789  28.267   1.378  1.00  0.00     0.014 C 
ATOM      3  C   UNL     1      27.090  29.959   2.245  1.00  0.00     0.014 C 
ATOM      4  C   UNL     1      27.771  27.981   3.724  1.00  0.00     0.030 C 
ATOM      5  C   UNL     1      27.893  27.137   0.875  1.00  0.00     0.004 C 
ATOM      6  C   UNL     1      26.379  30.656   3.438  1.00  0.00     0.013 C 
ATOM      7  C   UNL     1      27.060  28.736   4.869  1.00  0.00    -0.063 C 
ATOM      8  C   UNL     1      26.952  26.761   3.180  1.00  0.00    -0.003 C 
ATOM      9  C   UNL     1      27.670  26.093   1.976  1.00  0.00    -0.011 C 
ATOM     10  C   UNL     1      25.884  29.699   4.581  1.00  0.00    -0.006 C 
ATOM     11  C   UNL     1      27.709  28.743   6.046  1.00  0.00    -0.027 C 
ATOM     12  C   UNL     1      26.697  25.743   4.314  1.00  0.00     0.008 C 
ATOM     13  C   UNL     1      26.869  24.913   1.394  1.00  0.00     0.008 C 
ATOM     14  C   UNL     1      24.659  28.893   4.020  1.00  0.00     0.017 C 
ATOM     15  C   UNL     1      25.409  30.512   5.911  1.00  0.00    -0.020 C 
ATOM     16  C   UNL     1      27.593  29.804   7.089  1.00  0.00     0.032 C 
ATOM     17  C   UNL     1      26.642  30.997   6.770  1.00  0.00     0.006 C 
ATOM     18  C   UNL     1      24.472  29.630   6.821  1.00  0.00     0.008 C 
ATOM     19  C   UNL     1      24.574  31.740   5.434  1.00  0.00     0.012 C 
ATOM     20  C   UNL     1      26.273  31.823   8.103  1.00  0.00    -0.025 C 
ATOM     21  C   UNL     1      24.648  29.722   8.350  1.00  0.00     0.005 C 
ATOM     22  C   UNL     1      25.116  31.083   8.942  1.00  0.00     0.003 C 
ATOM     23  C   UNL     1      25.989  33.344   7.742  1.00  0.00     0.010 C 
ATOM     24  C   UNL     1      27.550  31.906   9.020  1.00  0.00     0.012 C 
ATOM     25  C   UNL     1      23.948  31.948   9.604  1.00  0.00    -0.006 C 
ATOM     26  C   UNL     1      24.783  34.031   8.392  1.00  0.00     0.033 C 
ATOM     27  C   UNL     1      24.409  33.423   9.748  1.00  0.00     0.120 C 
ATOM     28  C   UNL     1      23.659  31.412  11.037  1.00  0.00     0.014 C 
ATOM     29  C   UNL     1      22.592  31.863   8.839  1.00  0.00     0.014 C 
ENDROOT
BRANCH   1  30
ATOM     30  C   UNL     1      29.409  29.858   3.209  1.00  0.00     0.048 C 
ATOM     31  O   UNL     1      29.249  31.074   3.505  1.00  0.00    -0.550 OA
ATOM     32  O   UNL     1      30.682  29.325   3.361  1.00  0.00    -0.550 OA
ENDBRANCH   1  30
BRANCH  27  33
ATOM     33  O   UNL     1      23.445  34.208  10.418  1.00  0.00    -0.393 OA
ATOM     34  H   UNL     1      23.877  35.036  10.756  1.00  0.00     0.210 HD
ENDBRANCH  27  33
TORSDOF 2
ENDMDL
MODEL 2
REMARK VINA RESULT:   111.150      4.061      7.955
REMARK INTER + INTRA:         121.026
REMARK INTER:                 120.519
REMARK INTRA:                   0.507
REMARK UNBOUND:                 0.129
REMARK SMILES C[C@@H]1[C@@H](C)CC[C@@]2(C(=O)[O-])CC[C@@]3(C)C(=CC[C@@H]4[C@@]5(C)CC[C@@H](O)C(C)(C)[C@H]5CC[C@@]43C)[C@@H]12
REMARK SMILES IDX 7 1 6 2 11 3 33 4 5 5 12 6 15 7 2 8 3 9 13 10 16 11 1 12
REMARK SMILES IDX 4 13 14 14 31 15 17 16 18 17 30 18 32 19 19 20 29 21 28 22
REMARK SMILES IDX 21 23 20 24 25 25 22 26 23 27 26 28 27 29 8 30 9 31 10 32
REMARK SMILES IDX 24 33
REMARK H PARENT 24 34
REMARK Flexibility Score: inf
ROOT
ATOM      1  C   UNL     1      27.977  31.716   1.747  1.00  0.00     0.017 C 
ATOM      2  C   UNL     1      28.219  33.255   1.612  1.00  0.00     0.014 C 
ATOM      3  C   UNL     1      29.046  30.943   0.924  1.00  0.00     0.014 C 
ATOM      4  C   UNL     1      28.031  31.282   3.252  1.00  0.00     0.030 C 
ATOM      5  C   UNL     1      29.395  33.792   2.424  1.00  0.00     0.004 C 
ATOM      6  C   UNL     1      28.999  29.399   1.087  1.00  0.00     0.013 C 
ATOM      7  C   UNL     1      27.999  29.740   3.341  1.00  0.00    -0.063 C 
ATOM      8  C   UNL     1      29.173  31.932   4.107  1.00  0.00    -0.003 C 
ATOM      9  C   UNL     1      29.214  33.472   3.913  1.00  0.00    -0.011 C 
ATOM     10  C   UNL     1      29.022  28.875   2.567  1.00  0.00    -0.006 C 
ATOM     11  C   UNL     1      26.876  29.215   3.860  1.00  0.00    -0.027 C 
ATOM     12  C   UNL     1      29.000  31.561   5.596  1.00  0.00     0.008 C 
ATOM     13  C   UNL     1      30.352  34.136   4.711  1.00  0.00     0.008 C 
ATOM     14  C   UNL     1      30.467  29.124   3.130  1.00  0.00     0.017 C 
ATOM     15  C   UNL     1      28.690  27.283   2.670  1.00  0.00    -0.020 C 
ATOM     16  C   UNL     1      26.333  27.861   3.548  1.00  0.00     0.032 C 
ATOM     17  C   UNL     1      27.142  27.000   2.531  1.00  0.00     0.006 C 
ATOM     18  C   UNL     1      29.197  26.675   4.033  1.00  0.00     0.008 C 
ATOM     19  C   UNL     1      29.468  26.569   1.522  1.00  0.00     0.012 C 
ATOM     20  C   UNL     1      26.715  25.449   2.608  1.00  0.00    -0.025 C 
ATOM     21  C   UNL     1      28.306  25.635   4.741  1.00  0.00     0.005 C 
ATOM     22  C   UNL     1      27.427  24.711   3.848  1.00  0.00     0.003 C 
ATOM     23  C   UNL     1      26.918  24.756   1.193  1.00  0.00     0.010 C 
ATOM     24  C   UNL     1      25.158  25.361   2.828  1.00  0.00     0.012 C 
ATOM     25  C   UNL     1      28.006  23.235   3.660  1.00  0.00    -0.006 C 
ATOM     26  C   UNL     1      27.561  23.365   1.152  1.00  0.00     0.033 C 
ATOM     27  C   UNL     1      27.329  22.561   2.436  1.00  0.00     0.120 C 
ATOM     28  C   UNL     1      27.653  22.379   4.912  1.00  0.00     0.014 C 
ATOM     29  C   UNL     1      29.559  23.181   3.534  1.00  0.00     0.014 C 
ENDROOT
BRANCH   1  30
ATOM     30  C   UNL     1      26.587  31.410   1.162  1.00  0.00     0.048 C 
ATOM     31  O   UNL     1      26.238  30.231   0.879  1.00  0.00    -0.550 OA
ATOM     32  O   UNL     1      25.688  32.429   0.878  1.00  0.00    -0.550 OA
ENDBRANCH   1  30
BRANCH  27  33
ATOM     33  O   UNL     1      27.738  21.219   2.286  1.00  0.00    -0.393 OA
ATOM     34  H   UNL     1      27.809  21.006   1.320  1.00  0.00     0.210 HD
ENDBRANCH  27  33
TORSDOF 2
ENDMDL
MODEL 3
REMARK VINA RESULT:   112.276     10.867     14.772
REMARK INTER + INTRA:         122.251
REMARK INTER:                 122.099
REMARK INTRA:                   0.152
REMARK UNBOUND:                 0.129
REMARK SMILES C[C@@H]1[C@@H](C)CC[C@@]2(C(=O)[O-])CC[C@@]3(C)C(=CC[C@@H]4[C@@]5(C)CC[C@@H](O)C(C)(C)[C@H]5CC[C@@]43C)[C@@H]12
REMARK SMILES IDX 7 1 6 2 11 3 33 4 5 5 12 6 15 7 2 8 3 9 13 10 16 11 1 12
REMARK SMILES IDX 4 13 14 14 31 15 17 16 18 17 30 18 32 19 19 20 29 21 28 22
REMARK SMILES IDX 21 23 20 24 25 25 22 26 23 27 26 28 27 29 8 30 9 31 10 32
REMARK SMILES IDX 24 33
REMARK H PARENT 24 34
REMARK Flexibility Score: inf
ROOT
ATOM      1  C   UNL     1      15.415  28.155  14.181  1.00  0.00     0.017 C 
ATOM      2  C   UNL     1      14.710  29.415  14.782  1.00  0.00     0.014 C 
ATOM      3  C   UNL     1      16.469  28.596  13.127  1.00  0.00     0.014 C 
ATOM      4  C   UNL     1      16.098  27.315  15.314  1.00  0.00     0.030 C 
ATOM      5  C   UNL     1      15.550  30.199  15.787  1.00  0.00     0.004 C 
ATOM      6  C   UNL     1      17.338  27.443  12.554  1.00  0.00     0.013 C 
ATOM      7  C   UNL     1      16.957  26.200  14.677  1.00  0.00    -0.063 C 
ATOM      8  C   UNL     1      16.859  28.140  16.408  1.00  0.00    -0.003 C 
ATOM      9  C   UNL     1      15.981  29.299  16.952  1.00  0.00    -0.011 C 
ATOM     10  C   UNL     1      18.040  26.531  13.623  1.00  0.00    -0.006 C 
ATOM     11  C   UNL     1      16.504  24.948  14.859  1.00  0.00    -0.027 C 
ATOM     12  C   UNL     1      17.324  27.209  17.549  1.00  0.00     0.008 C 
ATOM     13  C   UNL     1      16.716  30.153  18.001  1.00  0.00     0.008 C 
ATOM     14  C   UNL     1      19.186  27.378  14.282  1.00  0.00     0.017 C 
ATOM     15  C   UNL     1      18.694  25.191  12.966  1.00  0.00    -0.020 C 
ATOM     16  C   UNL     1      16.750  23.800  13.937  1.00  0.00     0.032 C 
ATOM     17  C   UNL     1      17.598  24.095  12.663  1.00  0.00     0.006 C 
ATOM     18  C   UNL     1      19.793  24.565  13.907  1.00  0.00     0.008 C 
ATOM     19  C   UNL     1      19.402  25.618  11.642  1.00  0.00     0.012 C 
ATOM     20  C   UNL     1      18.148  22.734  11.999  1.00  0.00    -0.025 C 
ATOM     21  C   UNL     1      19.860  23.029  14.024  1.00  0.00     0.005 C 
ATOM     22  C   UNL     1      19.448  22.192  12.778  1.00  0.00     0.003 C 
ATOM     23  C   UNL     1      18.321  22.923  10.431  1.00  0.00     0.010 C 
ATOM     24  C   UNL     1      17.031  21.629  12.104  1.00  0.00     0.012 C 
ATOM     25  C   UNL     1      20.677  21.606  11.945  1.00  0.00    -0.006 C 
ATOM     26  C   UNL     1      19.592  22.378   9.771  1.00  0.00     0.033 C 
ATOM     27  C   UNL     1      20.198  21.191  10.528  1.00  0.00     0.120 C 
ATOM     28  C   UNL     1      21.209  20.321  12.646  1.00  0.00     0.014 C 
ATOM     29  C   UNL     1      21.896  22.574  11.857  1.00  0.00     0.014 C 
ENDROOT
BRANCH   1  30
ATOM     30  C   UNL     1      14.338  27.310  13.478  1.00  0.00     0.048 C 
ATOM     31  O   UNL     1      13.877  26.261  14.007  1.00  0.00    -0.550 OA
ATOM     32  O   UNL     1      13.875  27.645  12.213  1.00  0.00    -0.550 OA
ENDBRANCH   1  30
BRANCH  27  33
ATOM     33  O   UNL     1      21.229  20.577   9.786  1.00  0.00    -0.393 OA
ATOM     34  H   UNL     1      22.007  21.192   9.739  1.00  0.00     0.210 HD
ENDBRANCH  27  33
TORSDOF 2
ENDMDL
