MODEL 1
REMARK VINA RESULT:    -5.321      0.000      0.000
REMARK INTER + INTRA:          -6.203
REMARK INTER:                  -6.099
REMARK INTRA:                  -0.104
REMARK UNBOUND:                -0.104
REMARK SMILES COc1cc(C(=O)[O-])ccc1O
REMARK SMILES IDX 5 1 9 2 4 3 10 4 3 5 11 6 6 7 7 8 8 9 2 10 1 11 12 12
REMARK H PARENT 12 13
REMARK Flexibility Score: inf
ROOT
ATOM      1  C   UNL     1     -11.135 -41.073 -16.389  1.00  0.00     0.001 A 
ATOM      2  C   UNL     1     -10.502 -40.097 -17.176  1.00  0.00     0.014 A 
ATOM      3  C   UNL     1     -12.532 -41.210 -16.462  1.00  0.00     0.060 A 
ATOM      4  C   UNL     1     -11.250 -39.274 -18.018  1.00  0.00     0.051 A 
ATOM      5  C   UNL     1     -13.293 -40.381 -17.311  1.00  0.00     0.161 A 
ATOM      6  C   UNL     1     -12.639 -39.409 -18.091  1.00  0.00     0.157 A 
ENDROOT
BRANCH   1   7
ATOM      7  C   UNL     1     -10.343 -41.948 -15.495  1.00  0.00     0.072 C 
ATOM      8  O   UNL     1      -9.083 -41.916 -15.517  1.00  0.00    -0.545 OA
ATOM      9  O   UNL     1     -10.979 -42.818 -14.615  1.00  0.00    -0.545 OA
ENDBRANCH   1   7
BRANCH   5  10
ATOM     10  O   UNL     1     -14.690 -40.494 -17.404  1.00  0.00    -0.493 OA
ATOM     11  C   UNL     1     -15.373 -41.449 -18.210  1.00  0.00     0.278 C 
ENDBRANCH   5  10
BRANCH   6  12
ATOM     12  O   UNL     1     -13.354 -38.569 -18.944  1.00  0.00    -0.504 OA
ATOM     13  H   UNL     1     -13.142 -37.583 -19.035  1.00  0.00     0.293 HD
ENDBRANCH   6  12
TORSDOF 3
ENDMDL
MODEL 2
REMARK VINA RESULT:    -5.116      1.206      2.648
REMARK INTER + INTRA:          -5.967
REMARK INTER:                  -5.883
REMARK INTRA:                  -0.085
REMARK UNBOUND:                -0.104
REMARK SMILES COc1cc(C(=O)[O-])ccc1O
REMARK SMILES IDX 5 1 9 2 4 3 10 4 3 5 11 6 6 7 7 8 8 9 2 10 1 11 12 12
REMARK H PARENT 12 13
REMARK Flexibility Score: inf
ROOT
ATOM      1  C   UNL     1     -10.917 -40.803 -16.499  1.00  0.00     0.001 A 
ATOM      2  C   UNL     1     -12.276 -40.880 -16.151  1.00  0.00     0.014 A 
ATOM      3  C   UNL     1     -10.538 -40.025 -17.606  1.00  0.00     0.060 A 
ATOM      4  C   UNL     1     -13.235 -40.193 -16.895  1.00  0.00     0.051 A 
ATOM      5  C   UNL     1     -11.504 -39.329 -18.362  1.00  0.00     0.161 A 
ATOM      6  C   UNL     1     -12.859 -39.420 -17.996  1.00  0.00     0.157 A 
ENDROOT
BRANCH   1   7
ATOM      7  C   UNL     1      -9.896 -41.530 -15.711  1.00  0.00     0.072 C 
ATOM      8  O   UNL     1      -8.828 -40.959 -15.363  1.00  0.00    -0.545 OA
ATOM      9  O   UNL     1     -10.101 -42.855 -15.342  1.00  0.00    -0.545 OA
ENDBRANCH   1   7
BRANCH   5  10
ATOM     10  O   UNL     1     -11.155 -38.545 -19.474  1.00  0.00    -0.493 OA
ATOM     11  C   UNL     1     -10.284 -38.965 -20.519  1.00  0.00     0.278 C 
ENDBRANCH   5  10
BRANCH   6  12
ATOM     12  O   UNL     1     -13.847 -38.748 -18.716  1.00  0.00    -0.504 OA
ATOM     13  H   UNL     1     -13.942 -38.841 -19.720  1.00  0.00     0.293 HD
ENDBRANCH   6  12
TORSDOF 3
ENDMDL
MODEL 3
REMARK VINA RESULT:    -5.059      1.534      4.301
REMARK INTER + INTRA:          -5.902
REMARK INTER:                  -5.803
REMARK INTRA:                  -0.099
REMARK UNBOUND:                -0.104
REMARK SMILES COc1cc(C(=O)[O-])ccc1O
REMARK SMILES IDX 5 1 9 2 4 3 10 4 3 5 11 6 6 7 7 8 8 9 2 10 1 11 12 12
REMARK H PARENT 12 13
REMARK Flexibility Score: inf
ROOT
ATOM      1  C   UNL     1     -12.904 -40.762 -18.449  1.00  0.00     0.001 A 
ATOM      2  C   UNL     1     -11.934 -39.814 -18.818  1.00  0.00     0.014 A 
ATOM      3  C   UNL     1     -12.772 -41.432 -17.221  1.00  0.00     0.060 A 
ATOM      4  C   UNL     1     -10.855 -39.545 -17.976  1.00  0.00     0.051 A 
ATOM      5  C   UNL     1     -11.684 -41.163 -16.367  1.00  0.00     0.161 A 
ATOM      6  C   UNL     1     -10.723 -40.211 -16.756  1.00  0.00     0.157 A 
ENDROOT
BRANCH   1   7
ATOM      7  C   UNL     1     -14.051 -41.050 -19.340  1.00  0.00     0.072 C 
ATOM      8  O   UNL     1     -14.450 -42.233 -19.509  1.00  0.00    -0.545 OA
ATOM      9  O   UNL     1     -14.706 -40.018 -20.003  1.00  0.00    -0.545 OA
ENDBRANCH   1   7
BRANCH   5  10
ATOM     10  O   UNL     1     -11.525 -41.819 -15.135  1.00  0.00    -0.493 OA
ATOM     11  C   UNL     1     -11.044 -43.150 -14.982  1.00  0.00     0.278 C 
ENDBRANCH   5  10
BRANCH   6  12
ATOM     12  O   UNL     1      -9.631 -39.915 -15.940  1.00  0.00    -0.504 OA
ATOM     13  H   UNL     1      -9.341 -38.964 -15.749  1.00  0.00     0.293 HD
ENDBRANCH   6  12
TORSDOF 3
ENDMDL
MODEL 4
REMARK VINA RESULT:    -5.024      1.543      2.128
REMARK INTER + INTRA:          -5.862
REMARK INTER:                  -5.765
REMARK INTRA:                  -0.097
REMARK UNBOUND:                -0.104
REMARK SMILES COc1cc(C(=O)[O-])ccc1O
REMARK SMILES IDX 5 1 9 2 4 3 10 4 3 5 11 6 6 7 7 8 8 9 2 10 1 11 12 12
REMARK H PARENT 12 13
REMARK Flexibility Score: inf
ROOT
ATOM      1  C   UNL     1     -11.994 -41.243 -16.572  1.00  0.00     0.001 A 
ATOM      2  C   UNL     1     -12.465 -42.168 -17.519  1.00  0.00     0.014 A 
ATOM      3  C   UNL     1     -12.582 -39.967 -16.512  1.00  0.00     0.060 A 
ATOM      4  C   UNL     1     -13.500 -41.823 -18.388  1.00  0.00     0.051 A 
ATOM      5  C   UNL     1     -13.629 -39.614 -17.388  1.00  0.00     0.161 A 
ATOM      6  C   UNL     1     -14.084 -40.555 -18.329  1.00  0.00     0.157 A 
ENDROOT
BRANCH   1   7
ATOM      7  C   UNL     1     -10.896 -41.605 -15.648  1.00  0.00     0.072 C 
ATOM      8  O   UNL     1      -9.796 -40.991 -15.687  1.00  0.00    -0.545 OA
ATOM      9  O   UNL     1     -11.062 -42.628 -14.721  1.00  0.00    -0.545 OA
ENDBRANCH   1   7
BRANCH   5  10
ATOM     10  O   UNL     1     -14.234 -38.347 -17.352  1.00  0.00    -0.493 OA
ATOM     11  C   UNL     1     -15.278 -37.974 -16.459  1.00  0.00     0.278 C 
ENDBRANCH   5  10
BRANCH   6  12
ATOM     12  O   UNL     1     -15.117 -40.247 -19.214  1.00  0.00    -0.504 OA
ATOM     13  H   UNL     1     -15.766 -39.489 -19.044  1.00  0.00     0.293 HD
ENDBRANCH   6  12
TORSDOF 3
ENDMDL
MODEL 5
REMARK VINA RESULT:    -4.975      2.329      4.221
REMARK INTER + INTRA:          -5.806
REMARK INTER:                  -5.710
REMARK INTRA:                  -0.096
REMARK UNBOUND:                -0.104
REMARK SMILES COc1cc(C(=O)[O-])ccc1O
REMARK SMILES IDX 5 1 9 2 4 3 10 4 3 5 11 6 6 7 7 8 8 9 2 10 1 11 12 12
REMARK H PARENT 12 13
REMARK Flexibility Score: inf
ROOT
ATOM      1  C   UNL     1     -11.090 -39.465 -19.386  1.00  0.00     0.001 A 
ATOM      2  C   UNL     1     -12.388 -38.943 -19.518  1.00  0.00     0.014 A 
ATOM      3  C   UNL     1     -10.698 -40.017 -18.154  1.00  0.00     0.060 A 
ATOM      4  C   UNL     1     -13.275 -38.974 -18.442  1.00  0.00     0.051 A 
ATOM      5  C   UNL     1     -11.590 -40.050 -17.063  1.00  0.00     0.161 A 
ATOM      6  C   UNL     1     -12.885 -39.522 -17.217  1.00  0.00     0.157 A 
ENDROOT
BRANCH   1   7
ATOM      7  C   UNL     1     -10.148 -39.435 -20.526  1.00  0.00     0.072 C 
ATOM      8  O   UNL     1      -9.552 -40.483 -20.894  1.00  0.00    -0.545 OA
ATOM      9  O   UNL     1      -9.905 -38.249 -21.211  1.00  0.00    -0.545 OA
ENDBRANCH   1   7
BRANCH   5  10
ATOM     10  O   UNL     1     -11.226 -40.594 -15.821  1.00  0.00    -0.493 OA
ATOM     11  C   UNL     1     -11.317 -41.975 -15.484  1.00  0.00     0.278 C 
ENDBRANCH   5  10
BRANCH   6  12
ATOM     12  O   UNL     1     -13.799 -39.535 -16.163  1.00  0.00    -0.504 OA
ATOM     13  H   UNL     1     -13.603 -39.997 -15.284  1.00  0.00     0.293 HD
ENDBRANCH   6  12
TORSDOF 3
ENDMDL
MODEL 6
REMARK VINA RESULT:    -4.947      2.834      5.634
REMARK INTER + INTRA:          -5.773
REMARK INTER:                  -5.693
REMARK INTRA:                  -0.080
REMARK UNBOUND:                -0.104
REMARK SMILES COc1cc(C(=O)[O-])ccc1O
REMARK SMILES IDX 5 1 9 2 4 3 10 4 3 5 11 6 6 7 7 8 8 9 2 10 1 11 12 12
REMARK H PARENT 12 13
REMARK Flexibility Score: inf
ROOT
ATOM      1  C   UNL     1     -16.600 -41.496 -17.938  1.00  0.00     0.001 A 
ATOM      2  C   UNL     1     -17.473 -40.953 -16.980  1.00  0.00     0.014 A 
ATOM      3  C   UNL     1     -15.293 -40.990 -18.036  1.00  0.00     0.060 A 
ATOM      4  C   UNL     1     -17.046 -39.926 -16.138  1.00  0.00     0.051 A 
ATOM      5  C   UNL     1     -14.856 -39.951 -17.188  1.00  0.00     0.161 A 
ATOM      6  C   UNL     1     -15.747 -39.422 -16.236  1.00  0.00     0.157 A 
ENDROOT
BRANCH   1   7
ATOM      7  C   UNL     1     -17.049 -42.587 -18.832  1.00  0.00     0.072 C 
ATOM      8  O   UNL     1     -18.124 -43.203 -18.602  1.00  0.00    -0.545 OA
ATOM      9  O   UNL     1     -16.291 -42.948 -19.940  1.00  0.00    -0.545 OA
ENDBRANCH   1   7
BRANCH   5  10
ATOM     10  O   UNL     1     -13.557 -39.425 -17.264  1.00  0.00    -0.493 OA
ATOM     11  C   UNL     1     -12.537 -39.910 -18.131  1.00  0.00     0.278 C 
ENDBRANCH   5  10
BRANCH   6  12
ATOM     12  O   UNL     1     -15.356 -38.394 -15.378  1.00  0.00    -0.504 OA
ATOM     13  H   UNL     1     -14.395 -38.270 -15.086  1.00  0.00     0.293 HD
ENDBRANCH   6  12
TORSDOF 3
ENDMDL
MODEL 7
REMARK VINA RESULT:    -4.906      2.329      4.807
REMARK INTER + INTRA:          -5.726
REMARK INTER:                  -5.630
REMARK INTRA:                  -0.096
REMARK UNBOUND:                -0.104
REMARK SMILES COc1cc(C(=O)[O-])ccc1O
REMARK SMILES IDX 5 1 9 2 4 3 10 4 3 5 11 6 6 7 7 8 8 9 2 10 1 11 12 12
REMARK H PARENT 12 13
REMARK Flexibility Score: inf
ROOT
ATOM      1  C   UNL     1     -15.221 -40.600 -17.231  1.00  0.00     0.001 A 
ATOM      2  C   UNL     1     -15.630 -41.308 -18.374  1.00  0.00     0.014 A 
ATOM      3  C   UNL     1     -13.847 -40.432 -16.988  1.00  0.00     0.060 A 
ATOM      4  C   UNL     1     -14.685 -41.837 -19.253  1.00  0.00     0.051 A 
ATOM      5  C   UNL     1     -12.887 -40.965 -17.873  1.00  0.00     0.161 A 
ATOM      6  C   UNL     1     -13.320 -41.671 -19.011  1.00  0.00     0.157 A 
ENDROOT
BRANCH   1   7
ATOM      7  C   UNL     1     -16.220 -40.037 -16.297  1.00  0.00     0.072 C 
ATOM      8  O   UNL     1     -17.028 -40.791 -15.690  1.00  0.00    -0.545 OA
ATOM      9  O   UNL     1     -16.283 -38.666 -16.072  1.00  0.00    -0.545 OA
ENDBRANCH   1   7
BRANCH   5  10
ATOM     10  O   UNL     1     -11.508 -40.814 -17.654  1.00  0.00    -0.493 OA
ATOM     11  C   UNL     1     -10.782 -39.607 -17.866  1.00  0.00     0.278 C 
ENDBRANCH   5  10
BRANCH   6  12
ATOM     12  O   UNL     1     -12.404 -42.214 -19.912  1.00  0.00    -0.504 OA
ATOM     13  H   UNL     1     -11.699 -42.884 -19.630  1.00  0.00     0.293 HD
ENDBRANCH   6  12
TORSDOF 3
ENDMDL
MODEL 8
REMARK VINA RESULT:    -4.793      2.888      3.963
REMARK INTER + INTRA:          -5.597
REMARK INTER:                  -5.515
REMARK INTRA:                  -0.082
REMARK UNBOUND:                -0.104
REMARK SMILES COc1cc(C(=O)[O-])ccc1O
REMARK SMILES IDX 5 1 9 2 4 3 10 4 3 5 11 6 6 7 7 8 8 9 2 10 1 11 12 12
REMARK H PARENT 12 13
REMARK Flexibility Score: inf
ROOT
ATOM      1  C   UNL     1     -12.177 -39.310 -18.764  1.00  0.00     0.001 A 
ATOM      2  C   UNL     1     -11.884 -39.741 -17.459  1.00  0.00     0.014 A 
ATOM      3  C   UNL     1     -13.399 -38.662 -19.011  1.00  0.00     0.060 A 
ATOM      4  C   UNL     1     -12.795 -39.528 -16.424  1.00  0.00     0.051 A 
ATOM      5  C   UNL     1     -14.323 -38.444 -17.969  1.00  0.00     0.161 A 
ATOM      6  C   UNL     1     -14.010 -38.884 -16.670  1.00  0.00     0.157 A 
ENDROOT
BRANCH   1   7
ATOM      7  C   UNL     1     -11.212 -39.534 -19.864  1.00  0.00     0.072 C 
ATOM      8  O   UNL     1     -10.154 -40.189 -19.666  1.00  0.00    -0.545 OA
ATOM      9  O   UNL     1     -11.460 -39.025 -21.134  1.00  0.00    -0.545 OA
ENDBRANCH   1   7
BRANCH   5  10
ATOM     10  O   UNL     1     -15.552 -37.801 -18.187  1.00  0.00    -0.493 OA
ATOM     11  C   UNL     1     -15.809 -36.883 -19.245  1.00  0.00     0.278 C 
ENDBRANCH   5  10
BRANCH   6  12
ATOM     12  O   UNL     1     -14.896 -38.689 -15.610  1.00  0.00    -0.504 OA
ATOM     13  H   UNL     1     -15.891 -38.849 -15.702  1.00  0.00     0.293 HD
ENDBRANCH   6  12
TORSDOF 3
ENDMDL
MODEL 9
REMARK VINA RESULT:    -4.777      1.979      4.358
REMARK INTER + INTRA:          -5.579
REMARK INTER:                  -5.491
REMARK INTRA:                  -0.088
REMARK UNBOUND:                -0.104
REMARK SMILES COc1cc(C(=O)[O-])ccc1O
REMARK SMILES IDX 5 1 9 2 4 3 10 4 3 5 11 6 6 7 7 8 8 9 2 10 1 11 12 12
REMARK H PARENT 12 13
REMARK Flexibility Score: inf
ROOT
ATOM      1  C   UNL     1     -13.844 -39.228 -17.290  1.00  0.00     0.001 A 
ATOM      2  C   UNL     1     -13.742 -39.107 -18.687  1.00  0.00     0.014 A 
ATOM      3  C   UNL     1     -12.720 -39.645 -16.556  1.00  0.00     0.060 A 
ATOM      4  C   UNL     1     -12.541 -39.397 -19.334  1.00  0.00     0.051 A 
ATOM      5  C   UNL     1     -11.504 -39.939 -17.206  1.00  0.00     0.161 A 
ATOM      6  C   UNL     1     -11.424 -39.812 -18.605  1.00  0.00     0.157 A 
ENDROOT
BRANCH   1   7
ATOM      7  C   UNL     1     -15.117 -38.921 -16.600  1.00  0.00     0.072 C 
ATOM      8  O   UNL     1     -15.463 -37.726 -16.395  1.00  0.00    -0.545 OA
ATOM      9  O   UNL     1     -15.951 -39.946 -16.169  1.00  0.00    -0.545 OA
ENDBRANCH   1   7
BRANCH   5  10
ATOM     10  O   UNL     1     -10.366 -40.358 -16.499  1.00  0.00    -0.493 OA
ATOM     11  C   UNL     1     -10.298 -41.534 -15.698  1.00  0.00     0.278 C 
ENDBRANCH   5  10
BRANCH   6  12
ATOM     12  O   UNL     1     -10.240 -40.093 -19.287  1.00  0.00    -0.504 OA
ATOM     13  H   UNL     1     -10.085 -40.974 -19.761  1.00  0.00     0.293 HD
ENDBRANCH   6  12
TORSDOF 3
ENDMDL
