MODEL 1
REMARK VINA RESULT:    -1.114      0.000      0.000
REMARK INTER + INTRA:          -1.348
REMARK INTER:                  -1.309
REMARK INTRA:                  -0.039
REMARK UNBOUND:                -0.039
REMARK SMILES CCCCC(=O)[O-]
REMARK SMILES IDX 4 1 5 2 6 3 7 4 3 5 2 6 1 7
REMARK H PARENT
REMARK Flexibility Score: inf
ROOT
ATOM      1  C   UNL     1       1.294 -50.415  10.019  1.00  0.00     0.053 C 
ENDROOT
BRANCH   1   2
ATOM      2  C   UNL     1       2.677 -50.987  10.043  1.00  0.00     0.041 C 
ATOM      3  O   UNL     1       3.678 -50.229   9.944  1.00  0.00    -0.550 OA
ATOM      4  O   UNL     1       2.860 -52.361  10.125  1.00  0.00    -0.550 OA
ENDBRANCH   1   2
BRANCH   1   5
ATOM      5  C   UNL     1       0.250 -51.539  10.005  1.00  0.00     0.006 C 
BRANCH   5   6
ATOM      6  C   UNL     1      -1.117 -51.067   9.487  1.00  0.00    -0.003 C 
ATOM      7  C   UNL     1      -1.095 -49.620   8.996  1.00  0.00     0.004 C 
ENDBRANCH   5   6
ENDBRANCH   1   5
TORSDOF 3
ENDMDL
MODEL 2
REMARK VINA RESULT:     0.319     20.990     21.811
REMARK INTER + INTRA:           0.336
REMARK INTER:                   0.374
REMARK INTRA:                  -0.038
REMARK UNBOUND:                -0.039
REMARK SMILES CCCCC(=O)[O-]
REMARK SMILES IDX 4 1 5 2 6 3 7 4 3 5 2 6 1 7
REMARK H PARENT
REMARK Flexibility Score: inf
ROOT
ATOM      1  C   UNL     1      18.022 -56.994  -1.916  1.00  0.00     0.053 C 
ENDROOT
BRANCH   1   2
ATOM      2  C   UNL     1      18.076 -58.422  -2.358  1.00  0.00     0.041 C 
ATOM      3  O   UNL     1      19.125 -58.885  -2.880  1.00  0.00    -0.550 OA
ATOM      4  O   UNL     1      16.953 -59.231  -2.239  1.00  0.00    -0.550 OA
ENDBRANCH   1   2
BRANCH   1   5
ATOM      5  C   UNL     1      16.861 -56.264  -2.604  1.00  0.00     0.006 C 
BRANCH   5   6
ATOM      6  C   UNL     1      17.295 -54.936  -3.242  1.00  0.00    -0.003 C 
ATOM      7  C   UNL     1      17.622 -55.074  -4.729  1.00  0.00     0.004 C 
ENDBRANCH   5   6
ENDBRANCH   1   5
TORSDOF 3
ENDMDL
MODEL 3
REMARK VINA RESULT:     0.533     20.398     21.388
REMARK INTER + INTRA:           0.587
REMARK INTER:                   0.666
REMARK INTRA:                  -0.079
REMARK UNBOUND:                -0.039
REMARK SMILES CCCCC(=O)[O-]
REMARK SMILES IDX 4 1 5 2 6 3 7 4 3 5 2 6 1 7
REMARK H PARENT
REMARK Flexibility Score: inf
ROOT
ATOM      1  C   UNL     1      17.009 -56.911  -2.723  1.00  0.00     0.053 C 
ENDROOT
BRANCH   1   2
ATOM      2  C   UNL     1      17.996 -57.191  -1.634  1.00  0.00     0.041 C 
ATOM      3  O   UNL     1      19.125 -57.676  -1.911  1.00  0.00    -0.550 OA
ATOM      4  O   UNL     1      17.652 -56.963  -0.308  1.00  0.00    -0.550 OA
ENDBRANCH   1   2
BRANCH   1   5
ATOM      5  C   UNL     1      16.642 -55.422  -2.744  1.00  0.00     0.006 C 
BRANCH   5   6
ATOM      6  C   UNL     1      17.590 -54.593  -3.623  1.00  0.00    -0.003 C 
ATOM      7  C   UNL     1      17.596 -55.053  -5.081  1.00  0.00     0.004 C 
ENDBRANCH   5   6
ENDBRANCH   1   5
TORSDOF 3
ENDMDL
MODEL 4
REMARK VINA RESULT:     0.816     19.992     20.848
REMARK INTER + INTRA:           0.920
REMARK INTER:                   0.933
REMARK INTRA:                  -0.013
REMARK UNBOUND:                -0.039
REMARK SMILES CCCCC(=O)[O-]
REMARK SMILES IDX 4 1 5 2 6 3 7 4 3 5 2 6 1 7
REMARK H PARENT
REMARK Flexibility Score: inf
ROOT
ATOM      1  C   UNL     1      18.072 -57.076  -1.827  1.00  0.00     0.053 C 
ENDROOT
BRANCH   1   2
ATOM      2  C   UNL     1      17.592 -56.882  -0.422  1.00  0.00     0.041 C 
ATOM      3  O   UNL     1      18.295 -57.272   0.547  1.00  0.00    -0.550 OA
ATOM      4  O   UNL     1      16.347 -56.313  -0.185  1.00  0.00    -0.550 OA
ENDBRANCH   1   2
BRANCH   1   5
ATOM      5  C   UNL     1      17.026 -56.562  -2.825  1.00  0.00     0.006 C 
BRANCH   5   6
ATOM      6  C   UNL     1      17.271 -55.102  -3.234  1.00  0.00    -0.003 C 
ATOM      7  C   UNL     1      17.619 -54.952  -4.714  1.00  0.00     0.004 C 
ENDBRANCH   5   6
ENDBRANCH   1   5
TORSDOF 3
ENDMDL
MODEL 5
REMARK VINA RESULT:     0.898     20.418     21.405
REMARK INTER + INTRA:           1.017
REMARK INTER:                   1.073
REMARK INTRA:                  -0.056
REMARK UNBOUND:                -0.039
REMARK SMILES CCCCC(=O)[O-]
REMARK SMILES IDX 4 1 5 2 6 3 7 4 3 5 2 6 1 7
REMARK H PARENT
REMARK Flexibility Score: inf
ROOT
ATOM      1  C   UNL     1      16.779 -56.337  -2.888  1.00  0.00     0.053 C 
ENDROOT
BRANCH   1   2
ATOM      2  C   UNL     1      17.431 -55.200  -3.611  1.00  0.00     0.041 C 
ATOM      3  O   UNL     1      17.834 -54.192  -2.974  1.00  0.00    -0.550 OA
ATOM      4  O   UNL     1      17.550 -55.232  -4.995  1.00  0.00    -0.550 OA
ENDBRANCH   1   2
BRANCH   1   5
ATOM      5  C   UNL     1      17.830 -57.365  -2.449  1.00  0.00     0.006 C 
BRANCH   5   6
ATOM      6  C   UNL     1      18.455 -57.024  -1.088  1.00  0.00    -0.003 C 
ATOM      7  C   UNL     1      17.451 -57.110   0.062  1.00  0.00     0.004 C 
ENDBRANCH   5   6
ENDBRANCH   1   5
TORSDOF 3
ENDMDL
MODEL 6
REMARK VINA RESULT:     0.964     21.092     21.972
REMARK INTER + INTRA:           1.094
REMARK INTER:                   1.184
REMARK INTRA:                  -0.090
REMARK UNBOUND:                -0.039
REMARK SMILES CCCCC(=O)[O-]
REMARK SMILES IDX 4 1 5 2 6 3 7 4 3 5 2 6 1 7
REMARK H PARENT
REMARK Flexibility Score: inf
ROOT
ATOM      1  C   UNL     1      16.955 -56.651  -3.000  1.00  0.00     0.053 C 
ENDROOT
BRANCH   1   2
ATOM      2  C   UNL     1      17.403 -55.334  -3.550  1.00  0.00     0.041 C 
ATOM      3  O   UNL     1      17.611 -54.362  -2.777  1.00  0.00    -0.550 OA
ATOM      4  O   UNL     1      17.544 -55.164  -4.921  1.00  0.00    -0.550 OA
ENDBRANCH   1   2
BRANCH   1   5
ATOM      5  C   UNL     1      17.704 -56.972  -1.700  1.00  0.00     0.006 C 
BRANCH   5   6
ATOM      6  C   UNL     1      19.065 -57.637  -1.953  1.00  0.00    -0.003 C 
ATOM      7  C   UNL     1      18.980 -58.796  -2.947  1.00  0.00     0.004 C 
ENDBRANCH   5   6
ENDBRANCH   1   5
TORSDOF 3
ENDMDL
MODEL 7
REMARK VINA RESULT:     1.038     20.758     22.017
REMARK INTER + INTRA:           1.181
REMARK INTER:                   1.278
REMARK INTRA:                  -0.097
REMARK UNBOUND:                -0.039
REMARK SMILES CCCCC(=O)[O-]
REMARK SMILES IDX 4 1 5 2 6 3 7 4 3 5 2 6 1 7
REMARK H PARENT
REMARK Flexibility Score: inf
ROOT
ATOM      1  C   UNL     1      18.803 -58.255  -2.306  1.00  0.00     0.053 C 
ENDROOT
BRANCH   1   2
ATOM      2  C   UNL     1      18.199 -59.551  -2.747  1.00  0.00     0.041 C 
ATOM      3  O   UNL     1      16.956 -59.733  -2.662  1.00  0.00    -0.550 OA
ATOM      4  O   UNL     1      19.014 -60.578  -3.206  1.00  0.00    -0.550 OA
ENDBRANCH   1   2
BRANCH   1   5
ATOM      5  C   UNL     1      17.739 -57.149  -2.285  1.00  0.00     0.006 C 
BRANCH   5   6
ATOM      6  C   UNL     1      17.731 -56.365  -0.964  1.00  0.00    -0.003 C 
ATOM      7  C   UNL     1      17.560 -57.267   0.258  1.00  0.00     0.004 C 
ENDBRANCH   5   6
ENDBRANCH   1   5
TORSDOF 3
ENDMDL
MODEL 8
REMARK VINA RESULT:     1.543     21.234     22.540
REMARK INTER + INTRA:           1.775
REMARK INTER:                   1.800
REMARK INTRA:                  -0.025
REMARK UNBOUND:                -0.039
REMARK SMILES CCCCC(=O)[O-]
REMARK SMILES IDX 4 1 5 2 6 3 7 4 3 5 2 6 1 7
REMARK H PARENT
REMARK Flexibility Score: inf
ROOT
ATOM      1  C   UNL     1      18.909 -57.532  -2.707  1.00  0.00     0.053 C 
ENDROOT
BRANCH   1   2
ATOM      2  C   UNL     1      17.804 -56.865  -1.949  1.00  0.00     0.041 C 
ATOM      3  O   UNL     1      17.673 -57.064  -0.713  1.00  0.00    -0.550 OA
ATOM      4  O   UNL     1      16.888 -56.062  -2.617  1.00  0.00    -0.550 OA
ENDBRANCH   1   2
BRANCH   1   5
ATOM      5  C   UNL     1      19.059 -58.992  -2.259  1.00  0.00     0.006 C 
BRANCH   5   6
ATOM      6  C   UNL     1      18.864 -59.985  -3.415  1.00  0.00    -0.003 C 
ATOM      7  C   UNL     1      19.125 -61.433  -3.000  1.00  0.00     0.004 C 
ENDBRANCH   5   6
ENDBRANCH   1   5
TORSDOF 3
ENDMDL
MODEL 9
REMARK VINA RESULT:     1.871     21.161     22.093
REMARK INTER + INTRA:           2.160
REMARK INTER:                   2.137
REMARK INTRA:                   0.023
REMARK UNBOUND:                -0.039
REMARK SMILES CCCCC(=O)[O-]
REMARK SMILES IDX 4 1 5 2 6 3 7 4 3 5 2 6 1 7
REMARK H PARENT
REMARK Flexibility Score: inf
ROOT
ATOM      1  C   UNL     1      18.951 -57.480  -2.839  1.00  0.00     0.053 C 
ENDROOT
BRANCH   1   2
ATOM      2  C   UNL     1      17.863 -56.756  -2.110  1.00  0.00     0.041 C 
ATOM      3  O   UNL     1      17.071 -56.004  -2.738  1.00  0.00    -0.550 OA
ATOM      4  O   UNL     1      17.753 -56.872  -0.730  1.00  0.00    -0.550 OA
ENDBRANCH   1   2
BRANCH   1   5
ATOM      5  C   UNL     1      19.125 -58.896  -2.272  1.00  0.00     0.006 C 
BRANCH   5   6
ATOM      6  C   UNL     1      18.355 -59.951  -3.079  1.00  0.00    -0.003 C 
ATOM      7  C   UNL     1      16.853 -59.933  -2.794  1.00  0.00     0.004 C 
ENDBRANCH   5   6
ENDBRANCH   1   5
TORSDOF 3
ENDMDL
