MODEL 1
REMARK VINA RESULT:    -5.673      0.000      0.000
REMARK INTER + INTRA:         -11.339
REMARK INTER:                 -10.317
REMARK INTRA:                  -1.023
REMARK UNBOUND:                -1.023
REMARK SMILES CCCCCCCCCCCCCC[C@@H](C)C(=O)[O-]
REMARK SMILES IDX 9 1 10 2 11 3 12 4 13 5 14 6 15 7 16 8 17 9 18 10 19 11 8 12
REMARK SMILES IDX 7 13 6 14 5 15 4 16 3 17 2 18 1 19
REMARK H PARENT
REMARK Flexibility Score: inf
ROOT
ATOM      1  C   UNL     1       7.103  -1.792  35.802  1.00  0.00     0.000 C 
ENDROOT
BRANCH   1   2
ATOM      2  C   UNL     1       6.374  -0.461  36.048  1.00  0.00     0.000 C 
BRANCH   2   3
ATOM      3  C   UNL     1       7.320   0.750  35.978  1.00  0.00     0.000 C 
BRANCH   3   4
ATOM      4  C   UNL     1       8.803   0.344  36.010  1.00  0.00     0.000 C 
BRANCH   4   5
ATOM      5  C   UNL     1       9.713   1.468  36.526  1.00  0.00     0.001 C 
BRANCH   5   6
ATOM      6  C   UNL     1      10.649   1.970  35.411  1.00  0.00     0.009 C 
BRANCH   6   7
ATOM      7  C   UNL     1      12.086   2.288  35.881  1.00  0.00     0.032 C 
ATOM      8  C   UNL     1      13.105   1.233  35.427  1.00  0.00     0.014 C 
BRANCH   7   9
ATOM      9  C   UNL     1      12.508   3.677  35.476  1.00  0.00     0.044 C 
ATOM     10  O   UNL     1      12.730   4.546  36.359  1.00  0.00    -0.550 OA
ATOM     11  O   UNL     1      12.607   4.028  34.134  1.00  0.00    -0.550 OA
ENDBRANCH   7   9
ENDBRANCH   6   7
ENDBRANCH   5   6
ENDBRANCH   4   5
ENDBRANCH   3   4
ENDBRANCH   2   3
ENDBRANCH   1   2
BRANCH   1  12
ATOM     12  C   UNL     1       6.190  -3.011  36.021  1.00  0.00     0.000 C 
BRANCH  12  13
ATOM     13  C   UNL     1       4.869  -2.644  36.716  1.00  0.00    -0.000 C 
BRANCH  13  14
ATOM     14  C   UNL     1       4.470  -3.657  37.799  1.00  0.00    -0.000 C 
BRANCH  14  15
ATOM     15  C   UNL     1       3.062  -3.359  38.336  1.00  0.00    -0.000 C 
BRANCH  15  16
ATOM     16  C   UNL     1       3.085  -2.717  39.732  1.00  0.00    -0.000 C 
BRANCH  16  17
ATOM     17  C   UNL     1       2.536  -1.278  39.731  1.00  0.00    -0.000 C 
BRANCH  17  18
ATOM     18  C   UNL     1       2.175  -0.788  38.321  1.00  0.00    -0.003 C 
ATOM     19  C   UNL     1       3.086   0.340  37.837  1.00  0.00     0.004 C 
ENDBRANCH  17  18
ENDBRANCH  16  17
ENDBRANCH  15  16
ENDBRANCH  14  15
ENDBRANCH  13  14
ENDBRANCH  12  13
ENDBRANCH   1  12
TORSDOF 14
ENDMDL
MODEL 2
REMARK VINA RESULT:    -5.668      4.001      9.064
REMARK INTER + INTRA:         -11.330
REMARK INTER:                  -9.042
REMARK INTRA:                  -2.288
REMARK UNBOUND:                -1.023
REMARK SMILES CCCCCCCCCCCCCC[C@@H](C)C(=O)[O-]
REMARK SMILES IDX 9 1 10 2 11 3 12 4 13 5 14 6 15 7 16 8 17 9 18 10 19 11 8 12
REMARK SMILES IDX 7 13 6 14 5 15 4 16 3 17 2 18 1 19
REMARK H PARENT
REMARK Flexibility Score: inf
ROOT
ATOM      1  C   UNL     1      12.146   1.140  35.692  1.00  0.00     0.000 C 
ENDROOT
BRANCH   1   2
ATOM      2  C   UNL     1      12.288   0.172  34.507  1.00  0.00     0.000 C 
BRANCH   2   3
ATOM      3  C   UNL     1      10.948  -0.093  33.799  1.00  0.00     0.000 C 
BRANCH   3   4
ATOM      4  C   UNL     1      10.302   1.193  33.256  1.00  0.00     0.000 C 
BRANCH   4   5
ATOM      5  C   UNL     1       8.875   1.405  33.781  1.00  0.00     0.001 C 
BRANCH   5   6
ATOM      6  C   UNL     1       8.249   0.069  34.221  1.00  0.00     0.009 C 
BRANCH   6   7
ATOM      7  C   UNL     1       8.018  -0.056  35.744  1.00  0.00     0.032 C 
ATOM      8  C   UNL     1       8.401   1.220  36.507  1.00  0.00     0.014 C 
BRANCH   7   9
ATOM      9  C   UNL     1       6.611  -0.491  36.059  1.00  0.00     0.044 C 
ATOM     10  O   UNL     1       5.736   0.372  36.336  1.00  0.00    -0.550 OA
ATOM     11  O   UNL     1       6.274  -1.839  36.099  1.00  0.00    -0.550 OA
ENDBRANCH   7   9
ENDBRANCH   6   7
ENDBRANCH   5   6
ENDBRANCH   4   5
ENDBRANCH   3   4
ENDBRANCH   2   3
ENDBRANCH   1   2
BRANCH   1  12
ATOM     12  C   UNL     1      13.471   1.840  36.042  1.00  0.00     0.000 C 
BRANCH  12  13
ATOM     13  C   UNL     1      13.390   3.368  35.893  1.00  0.00    -0.000 C 
BRANCH  13  14
ATOM     14  C   UNL     1      12.029   3.837  35.357  1.00  0.00    -0.000 C 
BRANCH  14  15
ATOM     15  C   UNL     1      12.206   4.942  34.305  1.00  0.00    -0.000 C 
BRANCH  15  16
ATOM     16  C   UNL     1      11.474   4.631  32.990  1.00  0.00    -0.000 C 
BRANCH  16  17
ATOM     17  C   UNL     1      12.377   3.927  31.962  1.00  0.00    -0.000 C 
BRANCH  17  18
ATOM     18  C   UNL     1      13.868   4.213  32.195  1.00  0.00    -0.003 C 
ATOM     19  C   UNL     1      14.691   2.939  32.386  1.00  0.00     0.004 C 
ENDBRANCH  17  18
ENDBRANCH  16  17
ENDBRANCH  15  16
ENDBRANCH  14  15
ENDBRANCH  13  14
ENDBRANCH  12  13
ENDBRANCH   1  12
TORSDOF 14
ENDMDL
MODEL 3
REMARK VINA RESULT:    -5.640      0.985      1.699
REMARK INTER + INTRA:         -11.279
REMARK INTER:                 -10.067
REMARK INTRA:                  -1.213
REMARK UNBOUND:                -1.023
REMARK SMILES CCCCCCCCCCCCCC[C@@H](C)C(=O)[O-]
REMARK SMILES IDX 9 1 10 2 11 3 12 4 13 5 14 6 15 7 16 8 17 9 18 10 19 11 8 12
REMARK SMILES IDX 7 13 6 14 5 15 4 16 3 17 2 18 1 19
REMARK H PARENT
REMARK Flexibility Score: inf
ROOT
ATOM      1  C   UNL     1       6.422   0.273  36.180  1.00  0.00     0.000 C 
ENDROOT
BRANCH   1   2
ATOM      2  C   UNL     1       7.657  -0.438  35.604  1.00  0.00     0.000 C 
BRANCH   2   3
ATOM      3  C   UNL     1       8.272   0.320  34.416  1.00  0.00     0.000 C 
BRANCH   3   4
ATOM      4  C   UNL     1       9.685  -0.175  34.067  1.00  0.00     0.000 C 
BRANCH   4   5
ATOM      5  C   UNL     1      10.646   0.973  33.726  1.00  0.00     0.001 C 
BRANCH   5   6
ATOM      6  C   UNL     1      10.439   2.163  34.681  1.00  0.00     0.009 C 
BRANCH   6   7
ATOM      7  C   UNL     1      11.635   2.444  35.618  1.00  0.00     0.032 C 
ATOM      8  C   UNL     1      12.680   1.320  35.598  1.00  0.00     0.014 C 
BRANCH   7   9
ATOM      9  C   UNL     1      12.258   3.787  35.336  1.00  0.00     0.044 C 
ATOM     10  O   UNL     1      12.764   4.017  34.206  1.00  0.00    -0.550 OA
ATOM     11  O   UNL     1      12.329   4.761  36.325  1.00  0.00    -0.550 OA
ENDBRANCH   7   9
ENDBRANCH   6   7
ENDBRANCH   5   6
ENDBRANCH   4   5
ENDBRANCH   3   4
ENDBRANCH   2   3
ENDBRANCH   1   2
BRANCH   1  12
ATOM     12  C   UNL     1       5.246  -0.690  36.421  1.00  0.00     0.000 C 
BRANCH  12  13
ATOM     13  C   UNL     1       5.685  -2.163  36.448  1.00  0.00    -0.000 C 
BRANCH  13  14
ATOM     14  C   UNL     1       4.496  -3.134  36.489  1.00  0.00    -0.000 C 
BRANCH  14  15
ATOM     15  C   UNL     1       4.293  -3.693  37.905  1.00  0.00    -0.000 C 
BRANCH  15  16
ATOM     16  C   UNL     1       2.924  -3.326  38.497  1.00  0.00    -0.000 C 
BRANCH  16  17
ATOM     17  C   UNL     1       3.040  -2.460  39.764  1.00  0.00    -0.000 C 
BRANCH  17  18
ATOM     18  C   UNL     1       2.655  -0.994  39.512  1.00  0.00    -0.003 C 
ATOM     19  C   UNL     1       1.916  -0.796  38.189  1.00  0.00     0.004 C 
ENDBRANCH  17  18
ENDBRANCH  16  17
ENDBRANCH  15  16
ENDBRANCH  14  15
ENDBRANCH  13  14
ENDBRANCH  12  13
ENDBRANCH   1  12
TORSDOF 14
ENDMDL
MODEL 4
REMARK VINA RESULT:    -5.579      4.449      8.936
REMARK INTER + INTRA:         -11.169
REMARK INTER:                  -9.817
REMARK INTRA:                  -1.352
REMARK UNBOUND:                -1.023
REMARK SMILES CCCCCCCCCCCCCC[C@@H](C)C(=O)[O-]
REMARK SMILES IDX 9 1 10 2 11 3 12 4 13 5 14 6 15 7 16 8 17 9 18 10 19 11 8 12
REMARK SMILES IDX 7 13 6 14 5 15 4 16 3 17 2 18 1 19
REMARK H PARENT
REMARK Flexibility Score: inf
ROOT
ATOM      1  C   UNL     1       6.080  -0.752  36.010  1.00  0.00     0.000 C 
ENDROOT
BRANCH   1   2
ATOM      2  C   UNL     1       6.282  -2.257  36.249  1.00  0.00     0.000 C 
BRANCH   2   3
ATOM      3  C   UNL     1       5.052  -3.088  35.847  1.00  0.00     0.000 C 
BRANCH   3   4
ATOM      4  C   UNL     1       4.717  -4.183  36.874  1.00  0.00     0.000 C 
BRANCH   4   5
ATOM      5  C   UNL     1       4.089  -3.619  38.156  1.00  0.00     0.001 C 
BRANCH   5   6
ATOM      6  C   UNL     1       3.013  -2.570  37.824  1.00  0.00     0.009 C 
BRANCH   6   7
ATOM      7  C   UNL     1       3.054  -1.310  38.717  1.00  0.00     0.032 C 
ATOM      8  C   UNL     1       2.814  -0.015  37.926  1.00  0.00     0.014 C 
BRANCH   7   9
ATOM      9  C   UNL     1       2.113  -1.428  39.888  1.00  0.00     0.044 C 
ATOM     10  O   UNL     1       2.550  -1.282  41.059  1.00  0.00    -0.550 OA
ATOM     11  O   UNL     1       0.774  -1.747  39.695  1.00  0.00    -0.550 OA
ENDBRANCH   7   9
ENDBRANCH   6   7
ENDBRANCH   5   6
ENDBRANCH   4   5
ENDBRANCH   3   4
ENDBRANCH   2   3
ENDBRANCH   1   2
BRANCH   1  12
ATOM     12  C   UNL     1       7.392  -0.031  35.654  1.00  0.00     0.000 C 
BRANCH  12  13
ATOM     13  C   UNL     1       8.080  -0.632  34.418  1.00  0.00    -0.000 C 
BRANCH  13  14
ATOM     14  C   UNL     1       9.009   0.368  33.715  1.00  0.00    -0.000 C 
BRANCH  14  15
ATOM     15  C   UNL     1       8.955   1.742  34.400  1.00  0.00    -0.000 C 
BRANCH  15  16
ATOM     16  C   UNL     1      10.330   2.207  34.905  1.00  0.00    -0.000 C 
BRANCH  16  17
ATOM     17  C   UNL     1      10.922   1.261  35.965  1.00  0.00    -0.000 C 
BRANCH  17  18
ATOM     18  C   UNL     1      12.455   1.185  35.896  1.00  0.00    -0.003 C 
ATOM     19  C   UNL     1      12.965   0.805  34.507  1.00  0.00     0.004 C 
ENDBRANCH  17  18
ENDBRANCH  16  17
ENDBRANCH  15  16
ENDBRANCH  14  15
ENDBRANCH  13  14
ENDBRANCH  12  13
ENDBRANCH   1  12
TORSDOF 14
ENDMDL
MODEL 5
REMARK VINA RESULT:    -5.551      4.465      9.338
REMARK INTER + INTRA:         -11.117
REMARK INTER:                  -9.911
REMARK INTRA:                  -1.205
REMARK UNBOUND:                -1.023
REMARK SMILES CCCCCCCCCCCCCC[C@@H](C)C(=O)[O-]
REMARK SMILES IDX 9 1 10 2 11 3 12 4 13 5 14 6 15 7 16 8 17 9 18 10 19 11 8 12
REMARK SMILES IDX 7 13 6 14 5 15 4 16 3 17 2 18 1 19
REMARK H PARENT
REMARK Flexibility Score: inf
ROOT
ATOM      1  C   UNL     1       7.448  -0.714  35.850  1.00  0.00     0.000 C 
ENDROOT
BRANCH   1   2
ATOM      2  C   UNL     1       5.953  -1.002  36.064  1.00  0.00     0.000 C 
BRANCH   2   3
ATOM      3  C   UNL     1       5.144   0.274  36.353  1.00  0.00     0.000 C 
BRANCH   3   4
ATOM      4  C   UNL     1       4.108   0.075  37.472  1.00  0.00     0.000 C 
BRANCH   4   5
ATOM      5  C   UNL     1       3.595  -1.370  37.553  1.00  0.00     0.001 C 
BRANCH   5   6
ATOM      6  C   UNL     1       2.280  -1.440  38.351  1.00  0.00     0.009 C 
BRANCH   6   7
ATOM      7  C   UNL     1       2.265  -2.515  39.461  1.00  0.00     0.032 C 
ATOM      8  C   UNL     1       3.412  -3.527  39.321  1.00  0.00     0.014 C 
BRANCH   7   9
ATOM      9  C   UNL     1       2.236  -1.895  40.834  1.00  0.00     0.044 C 
ATOM     10  O   UNL     1       1.752  -2.539  41.802  1.00  0.00    -0.550 OA
ATOM     11  O   UNL     1       2.691  -0.597  41.039  1.00  0.00    -0.550 OA
ENDBRANCH   7   9
ENDBRANCH   6   7
ENDBRANCH   5   6
ENDBRANCH   4   5
ENDBRANCH   3   4
ENDBRANCH   2   3
ENDBRANCH   1   2
BRANCH   1  12
ATOM     12  C   UNL     1       7.791   0.776  36.026  1.00  0.00     0.000 C 
BRANCH  12  13
ATOM     13  C   UNL     1       9.260   1.087  35.694  1.00  0.00    -0.000 C 
BRANCH  13  14
ATOM     14  C   UNL     1       9.431   1.713  34.302  1.00  0.00    -0.000 C 
BRANCH  14  15
ATOM     15  C   UNL     1      10.361   0.857  33.428  1.00  0.00    -0.000 C 
BRANCH  15  16
ATOM     16  C   UNL     1      11.331   0.001  34.257  1.00  0.00    -0.000 C 
BRANCH  16  17
ATOM     17  C   UNL     1      12.758   0.577  34.279  1.00  0.00    -0.000 C 
BRANCH  17  18
ATOM     18  C   UNL     1      13.123   1.193  35.638  1.00  0.00    -0.003 C 
ATOM     19  C   UNL     1      12.855   2.697  35.695  1.00  0.00     0.004 C 
ENDBRANCH  17  18
ENDBRANCH  16  17
ENDBRANCH  15  16
ENDBRANCH  14  15
ENDBRANCH  13  14
ENDBRANCH  12  13
ENDBRANCH   1  12
TORSDOF 14
ENDMDL
MODEL 6
REMARK VINA RESULT:    -5.533      1.713      3.812
REMARK INTER + INTRA:         -11.084
REMARK INTER:                  -9.843
REMARK INTRA:                  -1.241
REMARK UNBOUND:                -1.023
REMARK SMILES CCCCCCCCCCCCCC[C@@H](C)C(=O)[O-]
REMARK SMILES IDX 9 1 10 2 11 3 12 4 13 5 14 6 15 7 16 8 17 9 18 10 19 11 8 12
REMARK SMILES IDX 7 13 6 14 5 15 4 16 3 17 2 18 1 19
REMARK H PARENT
REMARK Flexibility Score: inf
ROOT
ATOM      1  C   UNL     1       3.167  -0.001  38.458  1.00  0.00     0.000 C 
ENDROOT
BRANCH   1   2
ATOM      2  C   UNL     1       3.748   0.395  37.090  1.00  0.00     0.000 C 
BRANCH   2   3
ATOM      3  C   UNL     1       4.958  -0.467  36.693  1.00  0.00     0.000 C 
BRANCH   3   4
ATOM      4  C   UNL     1       6.188   0.377  36.318  1.00  0.00     0.000 C 
BRANCH   4   5
ATOM      5  C   UNL     1       7.307  -0.458  35.681  1.00  0.00     0.001 C 
BRANCH   5   6
ATOM      6  C   UNL     1       8.186   0.412  34.764  1.00  0.00     0.009 C 
BRANCH   6   7
ATOM      7  C   UNL     1       9.687   0.410  35.131  1.00  0.00     0.032 C 
ATOM      8  C   UNL     1      10.596   0.281  33.900  1.00  0.00     0.014 C 
BRANCH   7   9
ATOM      9  C   UNL     1      10.056   1.605  35.971  1.00  0.00     0.044 C 
ATOM     10  O   UNL     1       9.337   1.925  36.954  1.00  0.00    -0.550 OA
ATOM     11  O   UNL     1      11.154   2.393  35.645  1.00  0.00    -0.550 OA
ENDBRANCH   7   9
ENDBRANCH   6   7
ENDBRANCH   5   6
ENDBRANCH   4   5
ENDBRANCH   3   4
ENDBRANCH   2   3
ENDBRANCH   1   2
BRANCH   1  12
ATOM     12  C   UNL     1       2.465  -1.370  38.425  1.00  0.00     0.000 C 
BRANCH  12  13
ATOM     13  C   UNL     1       2.855  -2.263  39.614  1.00  0.00    -0.000 C 
BRANCH  13  14
ATOM     14  C   UNL     1       3.029  -3.735  39.215  1.00  0.00    -0.000 C 
BRANCH  14  15
ATOM     15  C   UNL     1       4.144  -3.892  38.171  1.00  0.00    -0.000 C 
BRANCH  15  16
ATOM     16  C   UNL     1       4.157  -5.286  37.523  1.00  0.00    -0.000 C 
BRANCH  16  17
ATOM     17  C   UNL     1       4.892  -5.303  36.170  1.00  0.00    -0.000 C 
BRANCH  17  18
ATOM     18  C   UNL     1       5.209  -3.890  35.655  1.00  0.00    -0.003 C 
ATOM     19  C   UNL     1       6.265  -3.888  34.550  1.00  0.00     0.004 C 
ENDBRANCH  17  18
ENDBRANCH  16  17
ENDBRANCH  15  16
ENDBRANCH  14  15
ENDBRANCH  13  14
ENDBRANCH  12  13
ENDBRANCH   1  12
TORSDOF 14
ENDMDL
MODEL 7
REMARK VINA RESULT:    -5.493      1.382      2.719
REMARK INTER + INTRA:         -11.012
REMARK INTER:                  -9.833
REMARK INTRA:                  -1.178
REMARK UNBOUND:                -1.023
REMARK SMILES CCCCCCCCCCCCCC[C@@H](C)C(=O)[O-]
REMARK SMILES IDX 9 1 10 2 11 3 12 4 13 5 14 6 15 7 16 8 17 9 18 10 19 11 8 12
REMARK SMILES IDX 7 13 6 14 5 15 4 16 3 17 2 18 1 19
REMARK H PARENT
REMARK Flexibility Score: inf
ROOT
ATOM      1  C   UNL     1       5.510   0.516  36.378  1.00  0.00     0.000 C 
ENDROOT
BRANCH   1   2
ATOM      2  C   UNL     1       6.798  -0.124  35.837  1.00  0.00     0.000 C 
BRANCH   2   3
ATOM      3  C   UNL     1       8.026   0.785  36.016  1.00  0.00     0.000 C 
BRANCH   3   4
ATOM      4  C   UNL     1       8.737   1.086  34.686  1.00  0.00     0.000 C 
BRANCH   4   5
ATOM      5  C   UNL     1       9.539  -0.113  34.159  1.00  0.00     0.001 C 
BRANCH   5   6
ATOM      6  C   UNL     1      11.029   0.244  34.018  1.00  0.00     0.009 C 
BRANCH   6   7
ATOM      7  C   UNL     1      11.451   1.529  34.767  1.00  0.00     0.032 C 
ATOM      8  C   UNL     1      12.426   1.250  35.919  1.00  0.00     0.014 C 
BRANCH   7   9
ATOM      9  C   UNL     1      11.991   2.571  33.822  1.00  0.00     0.044 C 
ATOM     10  O   UNL     1      13.129   3.070  34.025  1.00  0.00    -0.550 OA
ATOM     11  O   UNL     1      11.227   3.030  32.755  1.00  0.00    -0.550 OA
ENDBRANCH   7   9
ENDBRANCH   6   7
ENDBRANCH   5   6
ENDBRANCH   4   5
ENDBRANCH   3   4
ENDBRANCH   2   3
ENDBRANCH   1   2
BRANCH   1  12
ATOM     12  C   UNL     1       4.513  -0.529  36.910  1.00  0.00     0.000 C 
BRANCH  12  13
ATOM     13  C   UNL     1       3.463   0.082  37.853  1.00  0.00    -0.000 C 
BRANCH  13  14
ATOM     14  C   UNL     1       2.756  -0.976  38.714  1.00  0.00    -0.000 C 
BRANCH  14  15
ATOM     15  C   UNL     1       2.550  -2.277  37.923  1.00  0.00    -0.000 C 
BRANCH  15  16
ATOM     16  C   UNL     1       3.172  -3.498  38.619  1.00  0.00    -0.000 C 
BRANCH  16  17
ATOM     17  C   UNL     1       4.399  -4.046  37.869  1.00  0.00    -0.000 C 
BRANCH  17  18
ATOM     18  C   UNL     1       4.206  -4.044  36.345  1.00  0.00    -0.003 C 
ATOM     19  C   UNL     1       5.509  -3.804  35.584  1.00  0.00     0.004 C 
ENDBRANCH  17  18
ENDBRANCH  16  17
ENDBRANCH  15  16
ENDBRANCH  14  15
ENDBRANCH  13  14
ENDBRANCH  12  13
ENDBRANCH   1  12
TORSDOF 14
ENDMDL
MODEL 8
REMARK VINA RESULT:    -5.377      1.518      2.741
REMARK INTER + INTRA:         -10.801
REMARK INTER:                  -9.817
REMARK INTRA:                  -0.984
REMARK UNBOUND:                -1.023
REMARK SMILES CCCCCCCCCCCCCC[C@@H](C)C(=O)[O-]
REMARK SMILES IDX 9 1 10 2 11 3 12 4 13 5 14 6 15 7 16 8 17 9 18 10 19 11 8 12
REMARK SMILES IDX 7 13 6 14 5 15 4 16 3 17 2 18 1 19
REMARK H PARENT
REMARK Flexibility Score: inf
ROOT
ATOM      1  C   UNL     1       7.762  -0.464  35.660  1.00  0.00     0.000 C 
ENDROOT
BRANCH   1   2
ATOM      2  C   UNL     1       8.015  -0.420  34.145  1.00  0.00     0.000 C 
BRANCH   2   3
ATOM      3  C   UNL     1       9.135   0.563  33.764  1.00  0.00     0.000 C 
BRANCH   3   4
ATOM      4  C   UNL     1      10.527  -0.092  33.782  1.00  0.00     0.000 C 
BRANCH   4   5
ATOM      5  C   UNL     1      11.465   0.542  34.819  1.00  0.00     0.001 C 
BRANCH   5   6
ATOM      6  C   UNL     1      12.773   1.015  34.158  1.00  0.00     0.009 C 
BRANCH   6   7
ATOM      7  C   UNL     1      12.962   2.548  34.144  1.00  0.00     0.032 C 
ATOM      8  C   UNL     1      11.991   3.257  33.189  1.00  0.00     0.014 C 
BRANCH   7   9
ATOM      9  C   UNL     1      12.897   3.129  35.533  1.00  0.00     0.044 C 
ATOM     10  O   UNL     1      12.022   3.990  35.811  1.00  0.00    -0.550 OA
ATOM     11  O   UNL     1      13.826   2.764  36.501  1.00  0.00    -0.550 OA
ENDBRANCH   7   9
ENDBRANCH   6   7
ENDBRANCH   5   6
ENDBRANCH   4   5
ENDBRANCH   3   4
ENDBRANCH   2   3
ENDBRANCH   1   2
BRANCH   1  12
ATOM     12  C   UNL     1       6.563   0.404  36.082  1.00  0.00     0.000 C 
BRANCH  12  13
ATOM     13  C   UNL     1       5.327  -0.434  36.450  1.00  0.00    -0.000 C 
BRANCH  13  14
ATOM     14  C   UNL     1       4.113   0.434  36.815  1.00  0.00    -0.000 C 
BRANCH  14  15
ATOM     15  C   UNL     1       3.600   0.093  38.222  1.00  0.00    -0.000 C 
BRANCH  15  16
ATOM     16  C   UNL     1       2.467  -0.944  38.204  1.00  0.00    -0.000 C 
BRANCH  16  17
ATOM     17  C   UNL     1       2.767  -2.165  39.092  1.00  0.00    -0.000 C 
BRANCH  17  18
ATOM     18  C   UNL     1       2.959  -3.453  38.277  1.00  0.00    -0.003 C 
ATOM     19  C   UNL     1       4.403  -3.654  37.822  1.00  0.00     0.004 C 
ENDBRANCH  17  18
ENDBRANCH  16  17
ENDBRANCH  15  16
ENDBRANCH  14  15
ENDBRANCH  13  14
ENDBRANCH  12  13
ENDBRANCH   1  12
TORSDOF 14
ENDMDL
MODEL 9
REMARK VINA RESULT:    -5.338      4.106      9.202
REMARK INTER + INTRA:         -10.729
REMARK INTER:                  -9.504
REMARK INTRA:                  -1.225
REMARK UNBOUND:                -1.023
REMARK SMILES CCCCCCCCCCCCCC[C@@H](C)C(=O)[O-]
REMARK SMILES IDX 9 1 10 2 11 3 12 4 13 5 14 6 15 7 16 8 17 9 18 10 19 11 8 12
REMARK SMILES IDX 7 13 6 14 5 15 4 16 3 17 2 18 1 19
REMARK H PARENT
REMARK Flexibility Score: inf
ROOT
ATOM      1  C   UNL     1       8.699   0.239  34.129  1.00  0.00     0.000 C 
ENDROOT
BRANCH   1   2
ATOM      2  C   UNL     1       8.067   0.859  35.386  1.00  0.00     0.000 C 
BRANCH   2   3
ATOM      3  C   UNL     1       6.942  -0.013  35.970  1.00  0.00     0.000 C 
BRANCH   3   4
ATOM      4  C   UNL     1       7.146  -1.510  35.683  1.00  0.00     0.000 C 
BRANCH   4   5
ATOM      5  C   UNL     1       6.027  -2.382  36.271  1.00  0.00     0.001 C 
BRANCH   5   6
ATOM      6  C   UNL     1       4.858  -1.513  36.767  1.00  0.00     0.009 C 
BRANCH   6   7
ATOM      7  C   UNL     1       3.730  -2.301  37.469  1.00  0.00     0.032 C 
ATOM      8  C   UNL     1       4.210  -3.649  38.027  1.00  0.00     0.014 C 
BRANCH   7   9
ATOM      9  C   UNL     1       3.049  -1.474  38.528  1.00  0.00     0.044 C 
ATOM     10  O   UNL     1       2.925  -0.231  38.367  1.00  0.00    -0.550 OA
ATOM     11  O   UNL     1       2.599  -2.056  39.708  1.00  0.00    -0.550 OA
ENDBRANCH   7   9
ENDBRANCH   6   7
ENDBRANCH   5   6
ENDBRANCH   4   5
ENDBRANCH   3   4
ENDBRANCH   2   3
ENDBRANCH   1   2
BRANCH   1  12
ATOM     12  C   UNL     1      10.010   0.936  33.725  1.00  0.00     0.000 C 
BRANCH  12  13
ATOM     13  C   UNL     1      11.256   0.176  34.207  1.00  0.00    -0.000 C 
BRANCH  13  14
ATOM     14  C   UNL     1      12.108   0.997  35.186  1.00  0.00    -0.000 C 
BRANCH  14  15
ATOM     15  C   UNL     1      11.412   2.321  35.539  1.00  0.00    -0.000 C 
BRANCH  15  16
ATOM     16  C   UNL     1      12.297   3.546  35.265  1.00  0.00    -0.000 C 
BRANCH  16  17
ATOM     17  C   UNL     1      13.330   3.293  34.152  1.00  0.00    -0.000 C 
BRANCH  17  18
ATOM     18  C   UNL     1      12.899   3.888  32.803  1.00  0.00    -0.003 C 
ATOM     19  C   UNL     1      11.943   5.071  32.957  1.00  0.00     0.004 C 
ENDBRANCH  17  18
ENDBRANCH  16  17
ENDBRANCH  15  16
ENDBRANCH  14  15
ENDBRANCH  13  14
ENDBRANCH  12  13
ENDBRANCH   1  12
TORSDOF 14
ENDMDL
