MODEL 1
REMARK VINA RESULT:     2.334      0.000      0.000
REMARK INTER + INTRA:           2.597
REMARK INTER:                   2.607
REMARK INTRA:                  -0.010
REMARK UNBOUND:                -0.010
REMARK SMILES CCCC(=O)[O-]
REMARK SMILES IDX 3 1 4 2 5 3 6 4 2 5 1 6
REMARK H PARENT
REMARK Flexibility Score: inf
ROOT
ATOM      1  C   UNL     1      -5.181 -17.417  25.831  1.00  0.00     0.052 C 
ENDROOT
BRANCH   1   2
ATOM      2  C   UNL     1      -5.260 -18.162  24.534  1.00  0.00     0.041 C 
ATOM      3  O   UNL     1      -5.844 -19.277  24.477  1.00  0.00    -0.550 OA
ATOM      4  O   UNL     1      -4.660 -17.642  23.395  1.00  0.00    -0.550 OA
ENDBRANCH   1   2
BRANCH   1   5
ATOM      5  C   UNL     1      -4.645 -15.993  25.635  1.00  0.00     0.003 C 
ATOM      6  C   UNL     1      -5.075 -15.051  26.759  1.00  0.00     0.004 C 
ENDBRANCH   1   5
TORSDOF 2
ENDMDL
MODEL 2
REMARK VINA RESULT:     2.476      0.104      1.323
REMARK INTER + INTRA:           2.756
REMARK INTER:                   2.767
REMARK INTRA:                  -0.011
REMARK UNBOUND:                -0.010
REMARK SMILES CCCC(=O)[O-]
REMARK SMILES IDX 3 1 4 2 5 3 6 4 2 5 1 6
REMARK H PARENT
REMARK Flexibility Score: inf
ROOT
ATOM      1  C   UNL     1      -5.117 -17.350  25.825  1.00  0.00     0.052 C 
ENDROOT
BRANCH   1   2
ATOM      2  C   UNL     1      -5.190 -18.072  24.515  1.00  0.00     0.041 C 
ATOM      3  O   UNL     1      -4.603 -17.607  23.502  1.00  0.00    -0.550 OA
ATOM      4  O   UNL     1      -5.933 -19.240  24.404  1.00  0.00    -0.550 OA
ENDBRANCH   1   2
BRANCH   1   5
ATOM      5  C   UNL     1      -4.630 -15.906  25.652  1.00  0.00     0.003 C 
ATOM      6  C   UNL     1      -5.088 -14.997  26.792  1.00  0.00     0.004 C 
ENDBRANCH   1   5
TORSDOF 2
ENDMDL
MODEL 3
REMARK VINA RESULT:     3.105      9.060      9.684
REMARK INTER + INTRA:           3.459
REMARK INTER:                   3.464
REMARK INTRA:                  -0.005
REMARK UNBOUND:                -0.010
REMARK SMILES CCCC(=O)[O-]
REMARK SMILES IDX 3 1 4 2 5 3 6 4 2 5 1 6
REMARK H PARENT
REMARK Flexibility Score: inf
ROOT
ATOM      1  C   UNL     1      -0.871  -9.381  25.082  1.00  0.00     0.052 C 
ENDROOT
BRANCH   1   2
ATOM      2  C   UNL     1      -1.938  -8.687  24.293  1.00  0.00     0.041 C 
ATOM      3  O   UNL     1      -1.639  -8.038  23.255  1.00  0.00    -0.550 OA
ATOM      4  O   UNL     1      -3.258  -8.728  24.722  1.00  0.00    -0.550 OA
ENDBRANCH   1   2
BRANCH   1   5
ATOM      5  C   UNL     1      -0.020  -8.386  25.883  1.00  0.00     0.003 C 
ATOM      6  C   UNL     1       0.780  -9.068  26.993  1.00  0.00     0.004 C 
ENDBRANCH   1   5
TORSDOF 2
ENDMDL
MODEL 4
REMARK VINA RESULT:     3.679      9.825     10.353
REMARK INTER + INTRA:           4.100
REMARK INTER:                   4.120
REMARK INTRA:                  -0.020
REMARK UNBOUND:                -0.010
REMARK SMILES CCCC(=O)[O-]
REMARK SMILES IDX 3 1 4 2 5 3 6 4 2 5 1 6
REMARK H PARENT
REMARK Flexibility Score: inf
ROOT
ATOM      1  C   UNL     1      -0.814  -9.180  25.565  1.00  0.00     0.052 C 
ENDROOT
BRANCH   1   2
ATOM      2  C   UNL     1       0.326  -8.503  26.260  1.00  0.00     0.041 C 
ATOM      3  O   UNL     1       1.001  -9.123  27.125  1.00  0.00    -0.550 OA
ATOM      4  O   UNL     1       0.623  -7.175  25.979  1.00  0.00    -0.550 OA
ENDBRANCH   1   2
BRANCH   1   5
ATOM      5  C   UNL     1      -1.234  -8.426  24.296  1.00  0.00     0.003 C 
ATOM      6  C   UNL     1      -2.752  -8.382  24.121  1.00  0.00     0.004 C 
ENDBRANCH   1   5
TORSDOF 2
ENDMDL
MODEL 5
REMARK VINA RESULT:     4.661      2.413      3.388
REMARK INTER + INTRA:           5.196
REMARK INTER:                   5.214
REMARK INTRA:                  -0.017
REMARK UNBOUND:                -0.010
REMARK SMILES CCCC(=O)[O-]
REMARK SMILES IDX 3 1 4 2 5 3 6 4 2 5 1 6
REMARK H PARENT
REMARK Flexibility Score: inf
ROOT
ATOM      1  C   UNL     1      -4.610 -16.995  25.093  1.00  0.00     0.052 C 
ENDROOT
BRANCH   1   2
ATOM      2  C   UNL     1      -4.949 -15.940  26.100  1.00  0.00     0.041 C 
ATOM      3  O   UNL     1      -5.627 -16.232  27.121  1.00  0.00    -0.550 OA
ATOM      4  O   UNL     1      -4.545 -14.627  25.896  1.00  0.00    -0.550 OA
ENDBRANCH   1   2
BRANCH   1   5
ATOM      5  C   UNL     1      -5.445 -18.266  25.298  1.00  0.00     0.003 C 
ATOM      6  C   UNL     1      -5.993 -18.820  23.984  1.00  0.00     0.004 C 
ENDBRANCH   1   5
TORSDOF 2
ENDMDL
MODEL 6
REMARK VINA RESULT:     5.016      8.284      9.069
REMARK INTER + INTRA:           5.593
REMARK INTER:                   5.602
REMARK INTRA:                  -0.009
REMARK UNBOUND:                -0.010
REMARK SMILES CCCC(=O)[O-]
REMARK SMILES IDX 3 1 4 2 5 3 6 4 2 5 1 6
REMARK H PARENT
REMARK Flexibility Score: inf
ROOT
ATOM      1  C   UNL     1      -9.307 -15.609  17.469  1.00  0.00     0.052 C 
ENDROOT
BRANCH   1   2
ATOM      2  C   UNL     1      -9.227 -14.341  18.262  1.00  0.00     0.041 C 
ATOM      3  O   UNL     1      -8.680 -14.335  19.397  1.00  0.00    -0.550 OA
ATOM      4  O   UNL     1      -9.785 -13.172  17.762  1.00  0.00    -0.550 OA
ENDBRANCH   1   2
BRANCH   1   5
ATOM      5  C   UNL     1      -9.915 -16.754  18.291  1.00  0.00     0.003 C 
ATOM      6  C   UNL     1      -9.752 -18.111  17.606  1.00  0.00     0.004 C 
ENDBRANCH   1   5
TORSDOF 2
ENDMDL
