MODEL 1
REMARK VINA RESULT:    -3.469      0.000      0.000
REMARK INTER + INTRA:          -4.440
REMARK INTER:                  -4.280
REMARK INTRA:                  -0.160
REMARK UNBOUND:                -0.160
REMARK SMILES CCCCCC(=O)[O-]
REMARK SMILES IDX 4 1 5 2 6 3 7 4 8 5 3 6 2 7 1 8
REMARK H PARENT
REMARK Flexibility Score: inf
ROOT
ATOM      1  C   UNL     1     -13.874 -27.292 -16.645  1.00  0.00     0.006 C 
ENDROOT
BRANCH   1   2
ATOM      2  C   UNL     1     -14.210 -26.406 -17.848  1.00  0.00     0.053 C 
BRANCH   2   3
ATOM      3  C   UNL     1     -15.164 -27.104 -18.763  1.00  0.00     0.041 C 
ATOM      4  O   UNL     1     -14.903 -28.259 -19.192  1.00  0.00    -0.550 OA
ATOM      5  O   UNL     1     -16.368 -26.501 -19.105  1.00  0.00    -0.550 OA
ENDBRANCH   2   3
ENDBRANCH   1   2
BRANCH   1   6
ATOM      6  C   UNL     1     -12.454 -27.859 -16.758  1.00  0.00     0.000 C 
BRANCH   6   7
ATOM      7  C   UNL     1     -11.600 -27.021 -17.716  1.00  0.00    -0.003 C 
ATOM      8  C   UNL     1     -10.241 -26.696 -17.103  1.00  0.00     0.004 C 
ENDBRANCH   6   7
ENDBRANCH   1   6
TORSDOF 4
ENDMDL
MODEL 2
REMARK VINA RESULT:    -3.384      9.573     11.324
REMARK INTER + INTRA:          -4.336
REMARK INTER:                  -4.240
REMARK INTRA:                  -0.096
REMARK UNBOUND:                -0.160
REMARK SMILES CCCCCC(=O)[O-]
REMARK SMILES IDX 4 1 5 2 6 3 7 4 8 5 3 6 2 7 1 8
REMARK H PARENT
REMARK Flexibility Score: inf
ROOT
ATOM      1  C   UNL     1     -24.213 -24.736 -17.368  1.00  0.00     0.006 C 
ENDROOT
BRANCH   1   2
ATOM      2  C   UNL     1     -25.237 -25.361 -18.319  1.00  0.00     0.053 C 
BRANCH   2   3
ATOM      3  C   UNL     1     -26.571 -24.704 -18.160  1.00  0.00     0.041 C 
ATOM      4  O   UNL     1     -26.647 -23.512 -17.766  1.00  0.00    -0.550 OA
ATOM      5  O   UNL     1     -27.730 -25.393 -18.496  1.00  0.00    -0.550 OA
ENDBRANCH   2   3
ENDBRANCH   1   2
BRANCH   1   6
ATOM      6  C   UNL     1     -22.849 -25.423 -17.498  1.00  0.00     0.000 C 
BRANCH   6   7
ATOM      7  C   UNL     1     -22.492 -25.666 -18.968  1.00  0.00    -0.003 C 
ATOM      8  C   UNL     1     -21.146 -26.371 -19.101  1.00  0.00     0.004 C 
ENDBRANCH   6   7
ENDBRANCH   1   6
TORSDOF 4
ENDMDL
MODEL 3
REMARK VINA RESULT:    -3.303      9.880     12.060
REMARK INTER + INTRA:          -4.235
REMARK INTER:                  -4.112
REMARK INTRA:                  -0.123
REMARK UNBOUND:                -0.160
REMARK SMILES CCCCCC(=O)[O-]
REMARK SMILES IDX 4 1 5 2 6 3 7 4 8 5 3 6 2 7 1 8
REMARK H PARENT
REMARK Flexibility Score: inf
ROOT
ATOM      1  C   UNL     1     -24.709 -24.378 -17.040  1.00  0.00     0.006 C 
ENDROOT
BRANCH   1   2
ATOM      2  C   UNL     1     -24.232 -25.372 -18.102  1.00  0.00     0.053 C 
BRANCH   2   3
ATOM      3  C   UNL     1     -22.797 -25.125 -18.444  1.00  0.00     0.041 C 
ATOM      4  O   UNL     1     -22.093 -26.047 -18.931  1.00  0.00    -0.550 OA
ATOM      5  O   UNL     1     -22.249 -23.859 -18.273  1.00  0.00    -0.550 OA
ENDBRANCH   2   3
ENDBRANCH   1   2
BRANCH   1   6
ATOM      6  C   UNL     1     -26.097 -23.825 -17.387  1.00  0.00     0.000 C 
BRANCH   6   7
ATOM      7  C   UNL     1     -26.913 -24.847 -18.186  1.00  0.00    -0.003 C 
ATOM      8  C   UNL     1     -28.373 -24.853 -17.746  1.00  0.00     0.004 C 
ENDBRANCH   6   7
ENDBRANCH   1   6
TORSDOF 4
ENDMDL
MODEL 4
REMARK VINA RESULT:    -3.265      1.183      1.680
REMARK INTER + INTRA:          -4.188
REMARK INTER:                  -4.082
REMARK INTRA:                  -0.106
REMARK UNBOUND:                -0.160
REMARK SMILES CCCCCC(=O)[O-]
REMARK SMILES IDX 4 1 5 2 6 3 7 4 8 5 3 6 2 7 1 8
REMARK H PARENT
REMARK Flexibility Score: inf
ROOT
ATOM      1  C   UNL     1     -13.932 -26.698 -17.889  1.00  0.00     0.006 C 
ENDROOT
BRANCH   1   2
ATOM      2  C   UNL     1     -14.924 -27.004 -19.014  1.00  0.00     0.053 C 
BRANCH   2   3
ATOM      3  C   UNL     1     -16.330 -26.914 -18.512  1.00  0.00     0.041 C 
ATOM      4  O   UNL     1     -17.120 -26.059 -18.991  1.00  0.00    -0.550 OA
ATOM      5  O   UNL     1     -16.785 -27.809 -17.551  1.00  0.00    -0.550 OA
ENDBRANCH   2   3
ENDBRANCH   1   2
BRANCH   1   6
ATOM      6  C   UNL     1     -13.081 -27.929 -17.554  1.00  0.00     0.000 C 
BRANCH   6   7
ATOM      7  C   UNL     1     -11.827 -27.534 -16.767  1.00  0.00    -0.003 C 
ATOM      8  C   UNL     1     -10.796 -26.864 -17.670  1.00  0.00     0.004 C 
ENDBRANCH   6   7
ENDBRANCH   1   6
TORSDOF 4
ENDMDL
MODEL 5
REMARK VINA RESULT:    -3.260      2.295      4.437
REMARK INTER + INTRA:          -4.182
REMARK INTER:                  -4.059
REMARK INTRA:                  -0.123
REMARK UNBOUND:                -0.160
REMARK SMILES CCCCCC(=O)[O-]
REMARK SMILES IDX 4 1 5 2 6 3 7 4 8 5 3 6 2 7 1 8
REMARK H PARENT
REMARK Flexibility Score: inf
ROOT
ATOM      1  C   UNL     1     -14.839 -27.594 -18.925  1.00  0.00     0.006 C 
ENDROOT
BRANCH   1   2
ATOM      2  C   UNL     1     -13.922 -26.558 -18.269  1.00  0.00     0.053 C 
BRANCH   2   3
ATOM      3  C   UNL     1     -12.643 -27.193 -17.826  1.00  0.00     0.041 C 
ATOM      4  O   UNL     1     -12.656 -28.318 -17.261  1.00  0.00    -0.550 OA
ATOM      5  O   UNL     1     -11.430 -26.567 -18.084  1.00  0.00    -0.550 OA
ENDBRANCH   2   3
ENDBRANCH   1   2
BRANCH   1   6
ATOM      6  C   UNL     1     -16.220 -27.609 -18.259  1.00  0.00     0.000 C 
BRANCH   6   7
ATOM      7  C   UNL     1     -16.810 -26.198 -18.183  1.00  0.00    -0.003 C 
ATOM      8  C   UNL     1     -18.029 -26.060 -19.091  1.00  0.00     0.004 C 
ENDBRANCH   6   7
ENDBRANCH   1   6
TORSDOF 4
ENDMDL
MODEL 6
REMARK VINA RESULT:    -3.239      2.604      4.282
REMARK INTER + INTRA:          -4.156
REMARK INTER:                  -4.047
REMARK INTRA:                  -0.110
REMARK UNBOUND:                -0.160
REMARK SMILES CCCCCC(=O)[O-]
REMARK SMILES IDX 4 1 5 2 6 3 7 4 8 5 3 6 2 7 1 8
REMARK H PARENT
REMARK Flexibility Score: inf
ROOT
ATOM      1  C   UNL     1     -13.906 -27.187 -17.180  1.00  0.00     0.006 C 
ENDROOT
BRANCH   1   2
ATOM      2  C   UNL     1     -12.691 -28.112 -17.074  1.00  0.00     0.053 C 
BRANCH   2   3
ATOM      3  C   UNL     1     -11.426 -27.316 -17.049  1.00  0.00     0.041 C 
ATOM      4  O   UNL     1     -10.724 -27.273 -16.005  1.00  0.00    -0.550 OA
ATOM      5  O   UNL     1     -10.993 -26.662 -18.196  1.00  0.00    -0.550 OA
ENDBRANCH   2   3
ENDBRANCH   1   2
BRANCH   1   6
ATOM      6  C   UNL     1     -14.456 -27.161 -18.611  1.00  0.00     0.000 C 
BRANCH   6   7
ATOM      7  C   UNL     1     -15.938 -26.770 -18.625  1.00  0.00    -0.003 C 
ATOM      8  C   UNL     1     -16.342 -26.093 -17.319  1.00  0.00     0.004 C 
ENDBRANCH   6   7
ENDBRANCH   1   6
TORSDOF 4
ENDMDL
MODEL 7
REMARK VINA RESULT:    -3.126     17.922     18.724
REMARK INTER + INTRA:          -4.016
REMARK INTER:                  -3.809
REMARK INTRA:                  -0.208
REMARK UNBOUND:                -0.160
REMARK SMILES CCCCCC(=O)[O-]
REMARK SMILES IDX 4 1 5 2 6 3 7 4 8 5 3 6 2 7 1 8
REMARK H PARENT
REMARK Flexibility Score: inf
ROOT
ATOM      1  C   UNL     1     -26.138 -22.571 -29.336  1.00  0.00     0.006 C 
ENDROOT
BRANCH   1   2
ATOM      2  C   UNL     1     -26.173 -21.220 -28.616  1.00  0.00     0.053 C 
BRANCH   2   3
ATOM      3  C   UNL     1     -27.582 -20.743 -28.465  1.00  0.00     0.041 C 
ATOM      4  O   UNL     1     -28.420 -20.937 -29.384  1.00  0.00    -0.550 OA
ATOM      5  O   UNL     1     -27.985 -20.128 -27.286  1.00  0.00    -0.550 OA
ENDBRANCH   2   3
ENDBRANCH   1   2
BRANCH   1   6
ATOM      6  C   UNL     1     -25.164 -22.540 -30.520  1.00  0.00     0.000 C 
BRANCH   6   7
ATOM      7  C   UNL     1     -25.909 -22.699 -31.849  1.00  0.00    -0.003 C 
ATOM      8  C   UNL     1     -27.235 -23.428 -31.656  1.00  0.00     0.004 C 
ENDBRANCH   6   7
ENDBRANCH   1   6
TORSDOF 4
ENDMDL
MODEL 8
REMARK VINA RESULT:    -3.096     12.383     13.135
REMARK INTER + INTRA:          -3.980
REMARK INTER:                  -3.734
REMARK INTRA:                  -0.247
REMARK UNBOUND:                -0.160
REMARK SMILES CCCCCC(=O)[O-]
REMARK SMILES IDX 4 1 5 2 6 3 7 4 8 5 3 6 2 7 1 8
REMARK H PARENT
REMARK Flexibility Score: inf
ROOT
ATOM      1  C   UNL     1     -12.763 -34.640 -28.145  1.00  0.00     0.006 C 
ENDROOT
BRANCH   1   2
ATOM      2  C   UNL     1     -11.739 -34.079 -29.135  1.00  0.00     0.053 C 
BRANCH   2   3
ATOM      3  C   UNL     1     -10.569 -35.000 -29.258  1.00  0.00     0.041 C 
ATOM      4  O   UNL     1      -9.511 -34.610 -29.818  1.00  0.00    -0.550 OA
ATOM      5  O   UNL     1     -10.626 -36.276 -28.709  1.00  0.00    -0.550 OA
ENDBRANCH   2   3
ENDBRANCH   1   2
BRANCH   1   6
ATOM      6  C   UNL     1     -12.633 -33.965 -26.774  1.00  0.00     0.000 C 
BRANCH   6   7
ATOM      7  C   UNL     1     -12.350 -34.997 -25.677  1.00  0.00    -0.003 C 
ATOM      8  C   UNL     1     -10.861 -35.065 -25.355  1.00  0.00     0.004 C 
ENDBRANCH   6   7
ENDBRANCH   1   6
TORSDOF 4
ENDMDL
MODEL 9
REMARK VINA RESULT:    -3.017     18.277     18.905
REMARK INTER + INTRA:          -3.883
REMARK INTER:                  -3.628
REMARK INTRA:                  -0.254
REMARK UNBOUND:                -0.160
REMARK SMILES CCCCCC(=O)[O-]
REMARK SMILES IDX 4 1 5 2 6 3 7 4 8 5 3 6 2 7 1 8
REMARK H PARENT
REMARK Flexibility Score: inf
ROOT
ATOM      1  C   UNL     1     -26.501 -21.344 -28.533  1.00  0.00     0.006 C 
ENDROOT
BRANCH   1   2
ATOM      2  C   UNL     1     -27.955 -20.868 -28.576  1.00  0.00     0.053 C 
BRANCH   2   3
ATOM      3  C   UNL     1     -28.254 -20.213 -29.886  1.00  0.00     0.041 C 
ATOM      4  O   UNL     1     -29.125 -20.699 -30.654  1.00  0.00    -0.550 OA
ATOM      5  O   UNL     1     -27.607 -19.035 -30.239  1.00  0.00    -0.550 OA
ENDBRANCH   2   3
ENDBRANCH   1   2
BRANCH   1   6
ATOM      6  C   UNL     1     -26.275 -22.515 -29.497  1.00  0.00     0.000 C 
BRANCH   6   7
ATOM      7  C   UNL     1     -24.943 -22.369 -30.238  1.00  0.00    -0.003 C 
ATOM      8  C   UNL     1     -24.498 -20.911 -30.294  1.00  0.00     0.004 C 
ENDBRANCH   6   7
ENDBRANCH   1   6
TORSDOF 4
ENDMDL
