MODEL 1
REMARK VINA RESULT:     0.877      0.000      0.000
REMARK INTER + INTRA:           0.903
REMARK INTER:                   0.903
REMARK INTRA:                   0.000
REMARK UNBOUND:                 0.000
REMARK SMILES C=C1[C@H](O)C[C@]23C[C@H]1C(C)(C)[C@H]2CC[C@H]3C
REMARK SMILES IDX 16 1 15 2 14 3 13 4 12 5 6 6 7 7 8 8 9 9 10 10 11 11 2 12
REMARK SMILES IDX 1 13 3 14 5 15 4 16
REMARK H PARENT 4 17
REMARK Flexibility Score: inf
ROOT
ATOM      1  C   UNL     1     -19.050 -11.547   8.909  1.00  0.00     0.008 C 
ATOM      2  C   UNL     1     -17.752 -12.285   9.267  1.00  0.00    -0.008 C 
ATOM      3  C   UNL     1     -16.913 -12.625   8.040  1.00  0.00     0.004 C 
ATOM      4  C   UNL     1     -15.965 -13.721   8.506  1.00  0.00     0.005 C 
ATOM      5  C   UNL     1     -16.685 -14.474   9.649  1.00  0.00     0.002 C 
ATOM      6  C   UNL     1     -17.933 -13.629  10.006  1.00  0.00    -0.020 C 
ATOM      7  C   UNL     1     -19.122 -14.468   9.522  1.00  0.00     0.016 C 
ATOM      8  C   UNL     1     -18.680 -15.866   9.908  1.00  0.00     0.023 C 
ATOM      9  C   UNL     1     -17.215 -15.928   9.379  1.00  0.00    -0.025 C 
ATOM     10  C   UNL     1     -17.240 -16.333   7.879  1.00  0.00     0.012 C 
ATOM     11  C   UNL     1     -16.356 -16.982  10.120  1.00  0.00     0.012 C 
ATOM     12  C   UNL     1     -18.759 -15.964  11.431  1.00  0.00    -0.045 C 
ATOM     13  C   UNL     1     -19.125 -17.122  12.004  1.00  0.00     0.011 C 
ATOM     14  C   UNL     1     -18.265 -14.802  12.304  1.00  0.00     0.140 C 
ATOM     15  C   UNL     1     -18.079 -13.453  11.540  1.00  0.00     0.044 C 
ENDROOT
BRANCH  14  16
ATOM     16  O   UNL     1     -19.115 -14.610  13.408  1.00  0.00    -0.389 OA
ATOM     17  H   UNL     1     -19.955 -14.202  13.067  1.00  0.00     0.211 HD
ENDBRANCH  14  16
TORSDOF 1
ENDMDL
MODEL 2
REMARK VINA RESULT:     1.804      1.683      3.985
REMARK INTER + INTRA:           1.856
REMARK INTER:                   1.856
REMARK INTRA:                   0.000
REMARK UNBOUND:                 0.000
REMARK SMILES C=C1[C@H](O)C[C@]23C[C@H]1C(C)(C)[C@H]2CC[C@H]3C
REMARK SMILES IDX 16 1 15 2 14 3 13 4 12 5 6 6 7 7 8 8 9 9 10 10 11 11 2 12
REMARK SMILES IDX 1 13 3 14 5 15 4 16
REMARK H PARENT 4 17
REMARK Flexibility Score: inf
ROOT
ATOM      1  C   UNL     1     -18.848 -14.326  13.437  1.00  0.00     0.008 C 
ATOM      2  C   UNL     1     -19.125 -15.121  12.152  1.00  0.00    -0.008 C 
ATOM      3  C   UNL     1     -18.748 -16.592  12.279  1.00  0.00     0.004 C 
ATOM      4  C   UNL     1     -18.632 -17.092  10.846  1.00  0.00     0.005 C 
ATOM      5  C   UNL     1     -18.229 -15.874   9.983  1.00  0.00     0.002 C 
ATOM      6  C   UNL     1     -18.378 -14.630  10.892  1.00  0.00    -0.020 C 
ATOM      7  C   UNL     1     -16.941 -14.157  11.146  1.00  0.00     0.016 C 
ATOM      8  C   UNL     1     -16.311 -14.367   9.783  1.00  0.00     0.023 C 
ATOM      9  C   UNL     1     -16.770 -15.808   9.404  1.00  0.00    -0.025 C 
ATOM     10  C   UNL     1     -15.783 -16.830  10.034  1.00  0.00     0.012 C 
ATOM     11  C   UNL     1     -16.765 -16.054   7.875  1.00  0.00     0.012 C 
ATOM     12  C   UNL     1     -16.886 -13.303   8.848  1.00  0.00    -0.045 C 
ATOM     13  C   UNL     1     -16.107 -12.767   7.895  1.00  0.00     0.011 C 
ATOM     14  C   UNL     1     -18.383 -12.969   8.889  1.00  0.00     0.140 C 
ATOM     15  C   UNL     1     -19.125 -13.480  10.165  1.00  0.00     0.044 C 
ENDROOT
BRANCH  14  16
ATOM     16  O   UNL     1     -18.592 -11.586   8.741  1.00  0.00    -0.389 OA
ATOM     17  H   UNL     1     -17.759 -11.129   9.033  1.00  0.00     0.211 HD
ENDBRANCH  14  16
TORSDOF 1
ENDMDL
