MODEL 1
REMARK VINA RESULT:    -3.468      0.000      0.000
REMARK INTER + INTRA:          -4.876
REMARK INTER:                  -4.584
REMARK INTRA:                  -0.293
REMARK UNBOUND:                -0.293
REMARK SMILES CCCCCCCO
REMARK SMILES IDX 5 1 4 2 3 3 2 4 1 5 6 6 7 7 8 8
REMARK H PARENT 8 9
REMARK Flexibility Score: inf
ROOT
ATOM      1  C   UNL     1      -6.560  10.921  16.689  1.00  0.00     0.002 C 
ENDROOT
BRANCH   1   2
ATOM      2  C   UNL     1      -6.920  12.152  17.529  1.00  0.00     0.000 C 
BRANCH   2   3
ATOM      3  C   UNL     1      -6.449  13.443  16.843  1.00  0.00    -0.000 C 
BRANCH   3   4
ATOM      4  C   UNL     1      -5.808  13.182  15.471  1.00  0.00    -0.003 C 
ATOM      5  C   UNL     1      -6.126  14.275  14.451  1.00  0.00     0.004 C 
ENDBRANCH   3   4
ENDBRANCH   2   3
ENDBRANCH   1   2
BRANCH   1   6
ATOM      6  C   UNL     1      -5.707   9.936  17.497  1.00  0.00     0.028 C 
BRANCH   6   7
ATOM      7  C   UNL     1      -4.366  10.561  17.892  1.00  0.00     0.156 C 
BRANCH   7   8
ATOM      8  O   UNL     1      -3.590  10.804  16.750  1.00  0.00    -0.396 OA
ATOM      9  H   UNL     1      -4.218  11.077  16.032  1.00  0.00     0.210 HD
ENDBRANCH   7   8
ENDBRANCH   6   7
ENDBRANCH   1   6
TORSDOF 6
ENDMDL
MODEL 2
REMARK VINA RESULT:    -3.460     20.279     21.292
REMARK INTER + INTRA:          -4.865
REMARK INTER:                  -4.725
REMARK INTRA:                  -0.140
REMARK UNBOUND:                -0.293
REMARK SMILES CCCCCCCO
REMARK SMILES IDX 5 1 4 2 3 3 2 4 1 5 6 6 7 7 8 8
REMARK H PARENT 8 9
REMARK Flexibility Score: inf
ROOT
ATOM      1  C   UNL     1       8.503  27.936  19.429  1.00  0.00     0.002 C 
ENDROOT
BRANCH   1   2
ATOM      2  C   UNL     1       9.608  27.438  18.489  1.00  0.00     0.000 C 
BRANCH   2   3
ATOM      3  C   UNL     1       9.010  26.748  17.254  1.00  0.00    -0.000 C 
BRANCH   3   4
ATOM      4  C   UNL     1       8.142  27.695  16.411  1.00  0.00    -0.003 C 
ATOM      5  C   UNL     1       6.716  27.178  16.219  1.00  0.00     0.004 C 
ENDBRANCH   3   4
ENDBRANCH   2   3
ENDBRANCH   1   2
BRANCH   1   6
ATOM      6  C   UNL     1       9.036  28.125  20.854  1.00  0.00     0.028 C 
BRANCH   6   7
ATOM      7  C   UNL     1       7.948  27.839  21.893  1.00  0.00     0.156 C 
BRANCH   7   8
ATOM      8  O   UNL     1       6.699  27.724  21.267  1.00  0.00    -0.396 OA
ATOM      9  H   UNL     1       6.701  26.855  20.787  1.00  0.00     0.210 HD
ENDBRANCH   7   8
ENDBRANCH   6   7
ENDBRANCH   1   6
TORSDOF 6
ENDMDL
MODEL 3
REMARK VINA RESULT:    -3.448      1.875      2.281
REMARK INTER + INTRA:          -4.849
REMARK INTER:                  -4.711
REMARK INTRA:                  -0.138
REMARK UNBOUND:                -0.293
REMARK SMILES CCCCCCCO
REMARK SMILES IDX 5 1 4 2 3 3 2 4 1 5 6 6 7 7 8 8
REMARK H PARENT 8 9
REMARK Flexibility Score: inf
ROOT
ATOM      1  C   UNL     1      -4.242  11.083  17.447  1.00  0.00     0.002 C 
ENDROOT
BRANCH   1   2
ATOM      2  C   UNL     1      -4.782  12.518  17.400  1.00  0.00     0.000 C 
BRANCH   2   3
ATOM      3  C   UNL     1      -6.158  12.566  16.719  1.00  0.00    -0.000 C 
BRANCH   3   4
ATOM      4  C   UNL     1      -6.056  12.765  15.199  1.00  0.00    -0.003 C 
ATOM      5  C   UNL     1      -6.050  14.239  14.794  1.00  0.00     0.004 C 
ENDBRANCH   3   4
ENDBRANCH   2   3
ENDBRANCH   1   2
BRANCH   1   6
ATOM      6  C   UNL     1      -2.764  11.065  17.855  1.00  0.00     0.028 C 
BRANCH   6   7
ATOM      7  C   UNL     1      -2.456  12.176  18.863  1.00  0.00     0.156 C 
BRANCH   7   8
ATOM      8  O   UNL     1      -1.340  12.914  18.444  1.00  0.00    -0.396 OA
ATOM      9  H   UNL     1      -1.484  13.126  17.485  1.00  0.00     0.210 HD
ENDBRANCH   7   8
ENDBRANCH   6   7
ENDBRANCH   1   6
TORSDOF 6
ENDMDL
MODEL 4
REMARK VINA RESULT:    -3.430      1.925      3.574
REMARK INTER + INTRA:          -4.826
REMARK INTER:                  -4.639
REMARK INTRA:                  -0.186
REMARK UNBOUND:                -0.293
REMARK SMILES CCCCCCCO
REMARK SMILES IDX 5 1 4 2 3 3 2 4 1 5 6 6 7 7 8 8
REMARK H PARENT 8 9
REMARK Flexibility Score: inf
ROOT
ATOM      1  C   UNL     1      -6.579  11.720  17.517  1.00  0.00     0.002 C 
ENDROOT
BRANCH   1   2
ATOM      2  C   UNL     1      -7.994  11.690  18.108  1.00  0.00     0.000 C 
BRANCH   2   3
ATOM      3  C   UNL     1      -8.716  10.384  17.740  1.00  0.00    -0.000 C 
BRANCH   3   4
ATOM      4  C   UNL     1      -8.105   9.701  16.507  1.00  0.00    -0.003 C 
ATOM      5  C   UNL     1      -9.124   9.473  15.391  1.00  0.00     0.004 C 
ENDBRANCH   3   4
ENDBRANCH   2   3
ENDBRANCH   1   2
BRANCH   1   6
ATOM      6  C   UNL     1      -6.199  13.138  17.075  1.00  0.00     0.028 C 
BRANCH   6   7
ATOM      7  C   UNL     1      -5.914  13.189  15.572  1.00  0.00     0.156 C 
BRANCH   7   8
ATOM      8  O   UNL     1      -4.587  12.814  15.317  1.00  0.00    -0.396 OA
ATOM      9  H   UNL     1      -4.497  12.741  14.331  1.00  0.00     0.210 HD
ENDBRANCH   7   8
ENDBRANCH   6   7
ENDBRANCH   1   6
TORSDOF 6
ENDMDL
MODEL 5
REMARK VINA RESULT:    -3.408      2.250      4.064
REMARK INTER + INTRA:          -4.797
REMARK INTER:                  -4.597
REMARK INTRA:                  -0.200
REMARK UNBOUND:                -0.293
REMARK SMILES CCCCCCCO
REMARK SMILES IDX 5 1 4 2 3 3 2 4 1 5 6 6 7 7 8 8
REMARK H PARENT 8 9
REMARK Flexibility Score: inf
ROOT
ATOM      1  C   UNL     1      -6.367  13.124  17.021  1.00  0.00     0.002 C 
ENDROOT
BRANCH   1   2
ATOM      2  C   UNL     1      -6.984  11.796  17.475  1.00  0.00     0.000 C 
BRANCH   2   3
ATOM      3  C   UNL     1      -6.484  10.631  16.607  1.00  0.00    -0.000 C 
BRANCH   3   4
ATOM      4  C   UNL     1      -7.629   9.749  16.088  1.00  0.00    -0.003 C 
ATOM      5  C   UNL     1      -8.907   9.890  16.914  1.00  0.00     0.004 C 
ENDBRANCH   3   4
ENDBRANCH   2   3
ENDBRANCH   1   2
BRANCH   1   6
ATOM      6  C   UNL     1      -5.931  13.054  15.552  1.00  0.00     0.028 C 
BRANCH   6   7
ATOM      7  C   UNL     1      -5.984  14.436  14.895  1.00  0.00     0.156 C 
BRANCH   7   8
ATOM      8  O   UNL     1      -6.377  14.319  13.554  1.00  0.00    -0.396 OA
ATOM      9  H   UNL     1      -7.370  14.325  13.547  1.00  0.00     0.210 HD
ENDBRANCH   7   8
ENDBRANCH   6   7
ENDBRANCH   1   6
TORSDOF 6
ENDMDL
MODEL 6
REMARK VINA RESULT:    -3.395     20.236     21.286
REMARK INTER + INTRA:          -4.779
REMARK INTER:                  -4.620
REMARK INTRA:                  -0.159
REMARK UNBOUND:                -0.293
REMARK SMILES CCCCCCCO
REMARK SMILES IDX 5 1 4 2 3 3 2 4 1 5 6 6 7 7 8 8
REMARK H PARENT 8 9
REMARK Flexibility Score: inf
ROOT
ATOM      1  C   UNL     1       8.924  27.303  18.325  1.00  0.00     0.002 C 
ENDROOT
BRANCH   1   2
ATOM      2  C   UNL     1       9.342  27.953  19.650  1.00  0.00     0.000 C 
BRANCH   2   3
ATOM      3  C   UNL     1       8.144  28.073  20.604  1.00  0.00    -0.000 C 
BRANCH   3   4
ATOM      4  C   UNL     1       8.569  28.125  22.080  1.00  0.00    -0.003 C 
ATOM      5  C   UNL     1       7.519  27.534  23.020  1.00  0.00     0.004 C 
ENDBRANCH   3   4
ENDBRANCH   2   3
ENDBRANCH   1   2
BRANCH   1   6
ATOM      6  C   UNL     1       7.422  26.998  18.311  1.00  0.00     0.028 C 
BRANCH   6   7
ATOM      7  C   UNL     1       6.900  26.864  16.878  1.00  0.00     0.156 C 
BRANCH   7   8
ATOM      8  O   UNL     1       7.970  26.713  15.984  1.00  0.00    -0.396 OA
ATOM      9  H   UNL     1       7.578  26.690  15.073  1.00  0.00     0.210 HD
ENDBRANCH   7   8
ENDBRANCH   6   7
ENDBRANCH   1   6
TORSDOF 6
ENDMDL
MODEL 7
REMARK VINA RESULT:    -3.357      1.994      3.094
REMARK INTER + INTRA:          -4.728
REMARK INTER:                  -4.552
REMARK INTRA:                  -0.176
REMARK UNBOUND:                -0.293
REMARK SMILES CCCCCCCO
REMARK SMILES IDX 5 1 4 2 3 3 2 4 1 5 6 6 7 7 8 8
REMARK H PARENT 8 9
REMARK Flexibility Score: inf
ROOT
ATOM      1  C   UNL     1      -4.510  11.161  17.486  1.00  0.00     0.002 C 
ENDROOT
BRANCH   1   2
ATOM      2  C   UNL     1      -5.049  12.477  16.911  1.00  0.00     0.000 C 
BRANCH   2   3
ATOM      3  C   UNL     1      -6.486  12.737  17.387  1.00  0.00    -0.000 C 
BRANCH   3   4
ATOM      4  C   UNL     1      -7.298  11.442  17.550  1.00  0.00    -0.003 C 
ATOM      5  C   UNL     1      -8.398  11.561  18.603  1.00  0.00     0.004 C 
ENDBRANCH   3   4
ENDBRANCH   2   3
ENDBRANCH   1   2
BRANCH   1   6
ATOM      6  C   UNL     1      -2.989  11.222  17.665  1.00  0.00     0.028 C 
BRANCH   6   7
ATOM      7  C   UNL     1      -2.600  12.241  18.739  1.00  0.00     0.156 C 
BRANCH   7   8
ATOM      8  O   UNL     1      -1.370  12.835  18.421  1.00  0.00    -0.396 OA
ATOM      9  H   UNL     1      -1.297  13.652  18.980  1.00  0.00     0.210 HD
ENDBRANCH   7   8
ENDBRANCH   6   7
ENDBRANCH   1   6
TORSDOF 6
ENDMDL
MODEL 8
REMARK VINA RESULT:    -3.325      1.113      1.412
REMARK INTER + INTRA:          -4.687
REMARK INTER:                  -4.569
REMARK INTRA:                  -0.117
REMARK UNBOUND:                -0.293
REMARK SMILES CCCCCCCO
REMARK SMILES IDX 5 1 4 2 3 3 2 4 1 5 6 6 7 7 8 8
REMARK H PARENT 8 9
REMARK Flexibility Score: inf
ROOT
ATOM      1  C   UNL     1      -5.304  10.353  17.535  1.00  0.00     0.002 C 
ENDROOT
BRANCH   1   2
ATOM      2  C   UNL     1      -6.328  11.491  17.439  1.00  0.00     0.000 C 
BRANCH   2   3
ATOM      3  C   UNL     1      -5.706  12.736  16.789  1.00  0.00    -0.000 C 
BRANCH   3   4
ATOM      4  C   UNL     1      -6.007  12.828  15.285  1.00  0.00    -0.003 C 
ATOM      5  C   UNL     1      -6.057  14.269  14.779  1.00  0.00     0.004 C 
ENDBRANCH   3   4
ENDBRANCH   2   3
ENDBRANCH   1   2
BRANCH   1   6
ATOM      6  C   UNL     1      -3.871  10.896  17.484  1.00  0.00     0.028 C 
BRANCH   6   7
ATOM      7  C   UNL     1      -2.856   9.808  17.842  1.00  0.00     0.156 C 
BRANCH   7   8
ATOM      8  O   UNL     1      -2.041   9.523  16.738  1.00  0.00    -0.396 OA
ATOM      9  H   UNL     1      -1.832  10.393  16.307  1.00  0.00     0.210 HD
ENDBRANCH   7   8
ENDBRANCH   6   7
ENDBRANCH   1   6
TORSDOF 6
ENDMDL
MODEL 9
REMARK VINA RESULT:    -3.315      8.105      9.773
REMARK INTER + INTRA:          -4.674
REMARK INTER:                  -4.568
REMARK INTRA:                  -0.106
REMARK UNBOUND:                -0.293
REMARK SMILES CCCCCCCO
REMARK SMILES IDX 5 1 4 2 3 3 2 4 1 5 6 6 7 7 8 8
REMARK H PARENT 8 9
REMARK Flexibility Score: inf
ROOT
ATOM      1  C   UNL     1       2.094  12.860  20.547  1.00  0.00     0.002 C 
ENDROOT
BRANCH   1   2
ATOM      2  C   UNL     1       2.770  11.576  20.051  1.00  0.00     0.000 C 
BRANCH   2   3
ATOM      3  C   UNL     1       2.250  10.349  20.815  1.00  0.00    -0.000 C 
BRANCH   3   4
ATOM      4  C   UNL     1       3.298   9.232  20.921  1.00  0.00    -0.003 C 
ATOM      5  C   UNL     1       4.726   9.739  20.721  1.00  0.00     0.004 C 
ENDBRANCH   3   4
ENDBRANCH   2   3
ENDBRANCH   1   2
BRANCH   1   6
ATOM      6  C   UNL     1       1.426  13.612  19.391  1.00  0.00     0.028 C 
BRANCH   6   7
ATOM      7  C   UNL     1       1.165  15.075  19.762  1.00  0.00     0.156 C 
BRANCH   7   8
ATOM      8  O   UNL     1      -0.083  15.484  19.270  1.00  0.00    -0.396 OA
ATOM      9  H   UNL     1       0.022  15.597  18.290  1.00  0.00     0.210 HD
ENDBRANCH   7   8
ENDBRANCH   6   7
ENDBRANCH   1   6
TORSDOF 6
ENDMDL
