MODEL 1
REMARK VINA RESULT:    -4.032      0.000      0.000
REMARK INTER + INTRA:          -5.881
REMARK INTER:                  -5.446
REMARK INTRA:                  -0.434
REMARK UNBOUND:                -0.434
REMARK SMILES CCCCCCC=CC(=O)[O-]
REMARK SMILES IDX 5 1 6 2 7 3 8 4 9 5 10 6 11 7 4 8 3 9 2 10 1 11
REMARK H PARENT
REMARK Flexibility Score: inf
ROOT
ATOM      1  C   UNL     1      46.977  26.784   5.481  1.00  0.00     0.004 C 
ENDROOT
BRANCH   1   2
ATOM      2  C   UNL     1      46.492  25.883   4.336  1.00  0.00     0.027 C 
BRANCH   2   3
ATOM      3  C   UNL     1      45.008  26.018   4.126  1.00  0.00    -0.025 C 
ATOM      4  C   UNL     1      44.410  26.761   3.181  1.00  0.00     0.020 C 
BRANCH   4   5
ATOM      5  C   UNL     1      45.076  27.625   2.183  1.00  0.00     0.064 C 
ATOM      6  O   UNL     1      45.582  28.735   2.490  1.00  0.00    -0.545 OA
ATOM      7  O   UNL     1      45.125  27.205   0.860  1.00  0.00    -0.545 OA
ENDBRANCH   4   5
ENDBRANCH   2   3
ENDBRANCH   1   2
BRANCH   1   8
ATOM      8  C   UNL     1      45.954  26.818   6.623  1.00  0.00     0.000 C 
BRANCH   8   9
ATOM      9  C   UNL     1      45.854  28.226   7.229  1.00  0.00    -0.000 C 
BRANCH   9  10
ATOM     10  C   UNL     1      45.232  28.220   8.634  1.00  0.00    -0.003 C 
ATOM     11  C   UNL     1      45.267  26.840   9.291  1.00  0.00     0.004 C 
ENDBRANCH   9  10
ENDBRANCH   8   9
ENDBRANCH   1   8
TORSDOF 6
ENDMDL
MODEL 2
REMARK VINA RESULT:    -3.978      1.323      1.918
REMARK INTER + INTRA:          -5.808
REMARK INTER:                  -5.428
REMARK INTRA:                  -0.380
REMARK UNBOUND:                -0.434
REMARK SMILES CCCCCCC=CC(=O)[O-]
REMARK SMILES IDX 5 1 6 2 7 3 8 4 9 5 10 6 11 7 4 8 3 9 2 10 1 11
REMARK H PARENT
REMARK Flexibility Score: inf
ROOT
ATOM      1  C   UNL     1      45.949  28.120   7.089  1.00  0.00     0.004 C 
ENDROOT
BRANCH   1   2
ATOM      2  C   UNL     1      46.070  27.868   5.579  1.00  0.00     0.027 C 
BRANCH   2   3
ATOM      3  C   UNL     1      45.782  26.430   5.241  1.00  0.00    -0.025 C 
ATOM      4  C   UNL     1      45.235  25.983   4.098  1.00  0.00     0.020 C 
BRANCH   4   5
ATOM      5  C   UNL     1      44.770  26.805   2.961  1.00  0.00     0.064 C 
ATOM      6  O   UNL     1      43.605  27.278   2.909  1.00  0.00    -0.545 OA
ATOM      7  O   UNL     1      45.640  27.042   1.905  1.00  0.00    -0.545 OA
ENDBRANCH   4   5
ENDBRANCH   2   3
ENDBRANCH   1   2
BRANCH   1   8
ATOM      8  C   UNL     1      46.005  26.802   7.871  1.00  0.00     0.000 C 
BRANCH   8   9
ATOM      9  C   UNL     1      45.174  26.892   9.159  1.00  0.00    -0.000 C 
BRANCH   9  10
ATOM     10  C   UNL     1      45.592  28.071  10.050  1.00  0.00    -0.003 C 
ATOM     11  C   UNL     1      44.461  29.075  10.273  1.00  0.00     0.004 C 
ENDBRANCH   9  10
ENDBRANCH   8   9
ENDBRANCH   1   8
TORSDOF 6
ENDMDL
MODEL 3
REMARK VINA RESULT:    -3.851      3.531      5.857
REMARK INTER + INTRA:          -5.636
REMARK INTER:                  -5.202
REMARK INTRA:                  -0.434
REMARK UNBOUND:                -0.434
REMARK SMILES CCCCCCC=CC(=O)[O-]
REMARK SMILES IDX 5 1 6 2 7 3 8 4 9 5 10 6 11 7 4 8 3 9 2 10 1 11
REMARK H PARENT
REMARK Flexibility Score: inf
ROOT
ATOM      1  C   UNL     1      46.021  28.272   5.879  1.00  0.00     0.004 C 
ENDROOT
BRANCH   1   2
ATOM      2  C   UNL     1      46.476  28.779   7.255  1.00  0.00     0.027 C 
BRANCH   2   3
ATOM      3  C   UNL     1      45.310  29.280   8.064  1.00  0.00    -0.025 C 
ATOM      4  C   UNL     1      44.865  28.754   9.217  1.00  0.00     0.020 C 
BRANCH   4   5
ATOM      5  C   UNL     1      45.398  27.560   9.907  1.00  0.00     0.064 C 
ATOM      6  O   UNL     1      46.171  27.648  10.895  1.00  0.00    -0.545 OA
ATOM      7  O   UNL     1      45.050  26.302   9.433  1.00  0.00    -0.545 OA
ENDBRANCH   4   5
ENDBRANCH   2   3
ENDBRANCH   1   2
BRANCH   1   8
ATOM      8  C   UNL     1      46.013  26.740   5.833  1.00  0.00     0.000 C 
BRANCH   8   9
ATOM      9  C   UNL     1      45.403  26.232   4.517  1.00  0.00    -0.000 C 
BRANCH   9  10
ATOM     10  C   UNL     1      45.011  27.376   3.569  1.00  0.00    -0.003 C 
ATOM     11  C   UNL     1      43.783  27.045   2.720  1.00  0.00     0.004 C 
ENDBRANCH   9  10
ENDBRANCH   8   9
ENDBRANCH   1   8
TORSDOF 6
ENDMDL
MODEL 4
REMARK VINA RESULT:    -3.760      3.800      5.928
REMARK INTER + INTRA:          -5.514
REMARK INTER:                  -5.073
REMARK INTRA:                  -0.441
REMARK UNBOUND:                -0.434
REMARK SMILES CCCCCCC=CC(=O)[O-]
REMARK SMILES IDX 5 1 6 2 7 3 8 4 9 5 10 6 11 7 4 8 3 9 2 10 1 11
REMARK H PARENT
REMARK Flexibility Score: inf
ROOT
ATOM      1  C   UNL     1      46.268  27.884   5.660  1.00  0.00     0.004 C 
ENDROOT
BRANCH   1   2
ATOM      2  C   UNL     1      46.165  28.099   7.177  1.00  0.00     0.027 C 
BRANCH   2   3
ATOM      3  C   UNL     1      45.725  26.842   7.878  1.00  0.00    -0.025 C 
ATOM      4  C   UNL     1      45.376  26.741   9.171  1.00  0.00     0.020 C 
BRANCH   4   5
ATOM      5  C   UNL     1      45.387  27.824  10.176  1.00  0.00     0.064 C 
ATOM      6  O   UNL     1      46.295  27.924  11.042  1.00  0.00    -0.545 OA
ATOM      7  O   UNL     1      44.351  28.748  10.178  1.00  0.00    -0.545 OA
ENDBRANCH   4   5
ENDBRANCH   2   3
ENDBRANCH   1   2
BRANCH   1   8
ATOM      8  C   UNL     1      46.332  26.390   5.321  1.00  0.00     0.000 C 
BRANCH   8   9
ATOM      9  C   UNL     1      45.431  26.059   4.122  1.00  0.00    -0.000 C 
BRANCH   9  10
ATOM     10  C   UNL     1      44.977  27.314   3.361  1.00  0.00    -0.003 C 
ATOM     11  C   UNL     1      43.610  27.143   2.699  1.00  0.00     0.004 C 
ENDBRANCH   9  10
ENDBRANCH   8   9
ENDBRANCH   1   8
TORSDOF 6
ENDMDL
MODEL 5
REMARK VINA RESULT:    -3.511      1.548      2.558
REMARK INTER + INTRA:          -5.177
REMARK INTER:                  -4.769
REMARK INTRA:                  -0.408
REMARK UNBOUND:                -0.434
REMARK SMILES CCCCCCC=CC(=O)[O-]
REMARK SMILES IDX 5 1 6 2 7 3 8 4 9 5 10 6 11 7 4 8 3 9 2 10 1 11
REMARK H PARENT
REMARK Flexibility Score: inf
ROOT
ATOM      1  C   UNL     1      45.157  26.360   3.800  1.00  0.00     0.004 C 
ENDROOT
BRANCH   1   2
ATOM      2  C   UNL     1      44.068  27.066   2.980  1.00  0.00     0.027 C 
BRANCH   2   3
ATOM      3  C   UNL     1      44.480  28.468   2.619  1.00  0.00    -0.025 C 
ATOM      4  C   UNL     1      45.230  28.823   1.563  1.00  0.00     0.020 C 
BRANCH   4   5
ATOM      5  C   UNL     1      45.836  27.915   0.565  1.00  0.00     0.064 C 
ATOM      6  O   UNL     1      45.230  27.575  -0.484  1.00  0.00    -0.545 OA
ATOM      7  O   UNL     1      47.105  27.406   0.806  1.00  0.00    -0.545 OA
ENDBRANCH   4   5
ENDBRANCH   2   3
ENDBRANCH   1   2
BRANCH   1   8
ATOM      8  C   UNL     1      45.931  27.363   4.664  1.00  0.00     0.000 C 
BRANCH   8   9
ATOM      9  C   UNL     1      46.017  26.882   6.120  1.00  0.00    -0.000 C 
BRANCH   9  10
ATOM     10  C   UNL     1      46.431  28.002   7.087  1.00  0.00    -0.003 C 
ATOM     11  C   UNL     1      45.617  29.281   6.895  1.00  0.00     0.004 C 
ENDBRANCH   9  10
ENDBRANCH   8   9
ENDBRANCH   1   8
TORSDOF 6
ENDMDL
MODEL 6
REMARK VINA RESULT:    -3.353      3.079      6.689
REMARK INTER + INTRA:          -4.963
REMARK INTER:                  -4.615
REMARK INTRA:                  -0.348
REMARK UNBOUND:                -0.434
REMARK SMILES CCCCCCC=CC(=O)[O-]
REMARK SMILES IDX 5 1 6 2 7 3 8 4 9 5 10 6 11 7 4 8 3 9 2 10 1 11
REMARK H PARENT
REMARK Flexibility Score: inf
ROOT
ATOM      1  C   UNL     1      45.516  27.876   0.693  1.00  0.00     0.004 C 
ENDROOT
BRANCH   1   2
ATOM      2  C   UNL     1      45.039  28.355   2.071  1.00  0.00     0.027 C 
BRANCH   2   3
ATOM      3  C   UNL     1      44.152  27.333   2.728  1.00  0.00    -0.025 C 
ATOM      4  C   UNL     1      44.545  26.391   3.602  1.00  0.00     0.020 C 
BRANCH   4   5
ATOM      5  C   UNL     1      45.925  26.141   4.068  1.00  0.00     0.064 C 
ATOM      6  O   UNL     1      46.788  25.588   3.337  1.00  0.00    -0.545 OA
ATOM      7  O   UNL     1      46.273  26.507   5.361  1.00  0.00    -0.545 OA
ENDBRANCH   4   5
ENDBRANCH   2   3
ENDBRANCH   1   2
BRANCH   1   8
ATOM      8  C   UNL     1      45.870  29.063  -0.209  1.00  0.00     0.000 C 
BRANCH   8   9
ATOM      9  C   UNL     1      45.178  28.941  -1.575  1.00  0.00    -0.000 C 
BRANCH   9  10
ATOM     10  C   UNL     1      45.228  27.513  -2.136  1.00  0.00    -0.003 C 
ATOM     11  C   UNL     1      44.298  27.314  -3.333  1.00  0.00     0.004 C 
ENDBRANCH   9  10
ENDBRANCH   8   9
ENDBRANCH   1   8
TORSDOF 6
ENDMDL
MODEL 7
REMARK VINA RESULT:    -3.330      4.783      6.934
REMARK INTER + INTRA:          -4.933
REMARK INTER:                  -4.585
REMARK INTRA:                  -0.348
REMARK UNBOUND:                -0.434
REMARK SMILES CCCCCCC=CC(=O)[O-]
REMARK SMILES IDX 5 1 6 2 7 3 8 4 9 5 10 6 11 7 4 8 3 9 2 10 1 11
REMARK H PARENT
REMARK Flexibility Score: inf
ROOT
ATOM      1  C   UNL     1      45.431  29.177  -0.937  1.00  0.00     0.004 C 
ENDROOT
BRANCH   1   2
ATOM      2  C   UNL     1      44.788  28.973  -2.316  1.00  0.00     0.027 C 
BRANCH   2   3
ATOM      3  C   UNL     1      44.686  27.511  -2.659  1.00  0.00    -0.025 C 
ATOM      4  C   UNL     1      43.952  26.983  -3.652  1.00  0.00     0.020 C 
BRANCH   4   5
ATOM      5  C   UNL     1      43.067  27.717  -4.582  1.00  0.00     0.064 C 
ATOM      6  O   UNL     1      43.423  28.010  -5.753  1.00  0.00    -0.545 OA
ATOM      7  O   UNL     1      41.811  28.113  -4.141  1.00  0.00    -0.545 OA
ENDBRANCH   4   5
ENDBRANCH   2   3
ENDBRANCH   1   2
BRANCH   1   8
ATOM      8  C   UNL     1      45.469  27.862  -0.149  1.00  0.00     0.000 C 
BRANCH   8   9
ATOM      9  C   UNL     1      45.909  28.103   1.303  1.00  0.00    -0.000 C 
BRANCH   9  10
ATOM     10  C   UNL     1      44.729  28.428   2.231  1.00  0.00    -0.003 C 
ATOM     11  C   UNL     1      44.031  27.176   2.761  1.00  0.00     0.004 C 
ENDBRANCH   9  10
ENDBRANCH   8   9
ENDBRANCH   1   8
TORSDOF 6
ENDMDL
MODEL 8
REMARK VINA RESULT:    -3.250      6.209      9.966
REMARK INTER + INTRA:          -4.825
REMARK INTER:                  -4.399
REMARK INTRA:                  -0.425
REMARK UNBOUND:                -0.434
REMARK SMILES CCCCCCC=CC(=O)[O-]
REMARK SMILES IDX 5 1 6 2 7 3 8 4 9 5 10 6 11 7 4 8 3 9 2 10 1 11
REMARK H PARENT
REMARK Flexibility Score: inf
ROOT
ATOM      1  C   UNL     1      43.617  27.050  -3.707  1.00  0.00     0.004 C 
ENDROOT
BRANCH   1   2
ATOM      2  C   UNL     1      44.936  27.810  -3.501  1.00  0.00     0.027 C 
BRANCH   2   3
ATOM      3  C   UNL     1      44.751  28.982  -2.575  1.00  0.00    -0.025 C 
ATOM      4  C   UNL     1      45.186  29.062  -1.307  1.00  0.00     0.020 C 
BRANCH   4   5
ATOM      5  C   UNL     1      45.896  28.011  -0.549  1.00  0.00     0.064 C 
ATOM      6  O   UNL     1      47.109  27.744  -0.751  1.00  0.00    -0.545 OA
ATOM      7  O   UNL     1      45.195  27.279   0.400  1.00  0.00    -0.545 OA
ENDBRANCH   4   5
ENDBRANCH   2   3
ENDBRANCH   1   2
BRANCH   1   8
ATOM      8  C   UNL     1      42.666  27.838  -4.615  1.00  0.00     0.000 C 
BRANCH   8   9
ATOM      9  C   UNL     1      43.339  28.178  -5.953  1.00  0.00    -0.000 C 
BRANCH   9  10
ATOM     10  C   UNL     1      42.855  29.515  -6.534  1.00  0.00    -0.003 C 
ATOM     11  C   UNL     1      41.337  29.682  -6.452  1.00  0.00     0.004 C 
ENDBRANCH   9  10
ENDBRANCH   8   9
ENDBRANCH   1   8
TORSDOF 6
ENDMDL
MODEL 9
REMARK VINA RESULT:    -3.245      3.842      5.853
REMARK INTER + INTRA:          -4.817
REMARK INTER:                  -4.466
REMARK INTRA:                  -0.351
REMARK UNBOUND:                -0.434
REMARK SMILES CCCCCCC=CC(=O)[O-]
REMARK SMILES IDX 5 1 6 2 7 3 8 4 9 5 10 6 11 7 4 8 3 9 2 10 1 11
REMARK H PARENT
REMARK Flexibility Score: inf
ROOT
ATOM      1  C   UNL     1      45.289  27.740   0.221  1.00  0.00     0.004 C 
ENDROOT
BRANCH   1   2
ATOM      2  C   UNL     1      46.001  28.318  -1.010  1.00  0.00     0.027 C 
BRANCH   2   3
ATOM      3  C   UNL     1      45.064  29.154  -1.840  1.00  0.00    -0.025 C 
ATOM      4  C   UNL     1      44.417  28.751  -2.946  1.00  0.00     0.020 C 
BRANCH   4   5
ATOM      5  C   UNL     1      44.518  27.427  -3.595  1.00  0.00     0.064 C 
ATOM      6  O   UNL     1      43.623  26.551  -3.472  1.00  0.00    -0.545 OA
ATOM      7  O   UNL     1      45.647  27.134  -4.348  1.00  0.00    -0.545 OA
ENDBRANCH   4   5
ENDBRANCH   2   3
ENDBRANCH   1   2
BRANCH   1   8
ATOM      8  C   UNL     1      45.818  28.377   1.511  1.00  0.00     0.000 C 
BRANCH   8   9
ATOM      9  C   UNL     1      44.712  28.468   2.573  1.00  0.00    -0.000 C 
BRANCH   9  10
ATOM     10  C   UNL     1      44.047  27.112   2.850  1.00  0.00    -0.003 C 
ATOM     11  C   UNL     1      44.867  26.232   3.793  1.00  0.00     0.004 C 
ENDBRANCH   9  10
ENDBRANCH   8   9
ENDBRANCH   1   8
TORSDOF 6
ENDMDL
