MODEL 1
REMARK VINA RESULT:    -4.576      0.000      0.000
REMARK INTER + INTRA:          -5.597
REMARK INTER:                  -5.512
REMARK INTRA:                  -0.085
REMARK UNBOUND:                -0.085
REMARK SMILES OCCc1ccc(O)c(O)c1
REMARK SMILES IDX 3 1 4 2 5 3 6 4 7 5 11 6 9 7 8 8 10 10 2 12 1 13
REMARK H PARENT 8 9 10 11 1 14
REMARK Flexibility Score: inf
ROOT
ATOM      1  C   UNL     1      16.742  -5.884   8.714  1.00  0.00     0.064 C 
ENDROOT
BRANCH   1   2
ATOM      2  C   UNL     1      16.951  -7.377   8.711  1.00  0.00    -0.042 A 
ATOM      3  C   UNL     1      16.686  -8.126   7.558  1.00  0.00     0.008 A 
ATOM      4  C   UNL     1      16.907  -9.504   7.546  1.00  0.00     0.050 A 
ATOM      5  C   UNL     1      17.402 -10.157   8.681  1.00  0.00     0.157 A 
ATOM      6  C   UNL     1      17.459  -8.024   9.849  1.00  0.00     0.054 A 
ATOM      7  C   UNL     1      17.685  -9.407   9.847  1.00  0.00     0.157 A 
BRANCH   5   8
ATOM      8  O   UNL     1      17.599 -11.538   8.605  1.00  0.00    -0.504 OA
ATOM      9  H   UNL     1      16.962 -12.174   8.148  1.00  0.00     0.293 HD
ENDBRANCH   5   8
BRANCH   7  10
ATOM     10  O   UNL     1      18.188  -9.987  11.013  1.00  0.00    -0.504 OA
ATOM     11  H   UNL     1      18.202 -10.981  11.188  1.00  0.00     0.293 HD
ENDBRANCH   7  10
ENDBRANCH   1   2
BRANCH   1  12
ATOM     12  C   UNL     1      17.981  -5.150   9.225  1.00  0.00     0.161 C 
BRANCH  12  13
ATOM     13  O   UNL     1      17.650  -4.361  10.333  1.00  0.00    -0.396 OA
ATOM     14  H   UNL     1      17.000  -4.891  10.864  1.00  0.00     0.210 HD
ENDBRANCH  12  13
ENDBRANCH   1  12
TORSDOF 5
ENDMDL
MODEL 2
REMARK VINA RESULT:    -4.538     11.988     13.552
REMARK INTER + INTRA:          -5.551
REMARK INTER:                  -5.481
REMARK INTRA:                  -0.071
REMARK UNBOUND:                -0.085
REMARK SMILES OCCc1ccc(O)c(O)c1
REMARK SMILES IDX 3 1 4 2 5 3 6 4 7 5 11 6 9 7 8 8 10 10 2 12 1 13
REMARK H PARENT 8 9 10 11 1 14
REMARK Flexibility Score: inf
ROOT
ATOM      1  C   UNL     1      22.716 -11.493  19.156  1.00  0.00     0.064 C 
ENDROOT
BRANCH   1   2
ATOM      2  C   UNL     1      21.998 -10.966  20.372  1.00  0.00    -0.042 A 
ATOM      3  C   UNL     1      20.654 -11.293  20.594  1.00  0.00     0.008 A 
ATOM      4  C   UNL     1      19.996 -10.829  21.735  1.00  0.00     0.050 A 
ATOM      5  C   UNL     1      20.668 -10.037  22.674  1.00  0.00     0.157 A 
ATOM      6  C   UNL     1      22.680 -10.183  21.316  1.00  0.00     0.054 A 
ATOM      7  C   UNL     1      22.029  -9.713  22.464  1.00  0.00     0.157 A 
BRANCH   5   8
ATOM      8  O   UNL     1      19.952  -9.603  23.792  1.00  0.00    -0.504 OA
ATOM      9  H   UNL     1      19.191 -10.119  24.210  1.00  0.00     0.293 HD
ENDBRANCH   5   8
BRANCH   7  10
ATOM     10  O   UNL     1      22.766  -8.936  23.360  1.00  0.00    -0.504 OA
ATOM     11  H   UNL     1      23.487  -9.301  23.964  1.00  0.00     0.293 HD
ENDBRANCH   7  10
ENDBRANCH   1   2
BRANCH   1  12
ATOM     12  C   UNL     1      24.046 -10.771  18.941  1.00  0.00     0.161 C 
BRANCH  12  13
ATOM     13  O   UNL     1      24.310 -10.646  17.571  1.00  0.00    -0.396 OA
ATOM     14  H   UNL     1      23.475 -10.300  17.161  1.00  0.00     0.210 HD
ENDBRANCH  12  13
ENDBRANCH   1  12
TORSDOF 5
ENDMDL
MODEL 3
REMARK VINA RESULT:    -4.486      1.463      4.461
REMARK INTER + INTRA:          -5.489
REMARK INTER:                  -5.399
REMARK INTRA:                  -0.091
REMARK UNBOUND:                -0.085
REMARK SMILES OCCc1ccc(O)c(O)c1
REMARK SMILES IDX 3 1 4 2 5 3 6 4 7 5 11 6 9 7 8 8 10 10 2 12 1 13
REMARK H PARENT 8 9 10 11 1 14
REMARK Flexibility Score: inf
ROOT
ATOM      1  C   UNL     1      17.141 -10.125   9.247  1.00  0.00     0.064 C 
ENDROOT
BRANCH   1   2
ATOM      2  C   UNL     1      17.344  -8.697   8.809  1.00  0.00    -0.042 A 
ATOM      3  C   UNL     1      16.914  -8.279   7.543  1.00  0.00     0.008 A 
ATOM      4  C   UNL     1      17.077  -6.950   7.148  1.00  0.00     0.050 A 
ATOM      5  C   UNL     1      17.663  -6.015   8.010  1.00  0.00     0.157 A 
ATOM      6  C   UNL     1      17.922  -7.763   9.682  1.00  0.00     0.054 A 
ATOM      7  C   UNL     1      18.089  -6.427   9.296  1.00  0.00     0.157 A 
BRANCH   5   8
ATOM      8  O   UNL     1      17.799  -4.702   7.554  1.00  0.00    -0.504 OA
ATOM      9  H   UNL     1      17.039  -4.038   7.514  1.00  0.00     0.293 HD
ENDBRANCH   5   8
BRANCH   7  10
ATOM     10  O   UNL     1      18.675  -5.550  10.211  1.00  0.00    -0.504 OA
ATOM     11  H   UNL     1      18.847  -5.777  11.180  1.00  0.00     0.293 HD
ENDBRANCH   7  10
ENDBRANCH   1   2
BRANCH   1  12
ATOM     12  C   UNL     1      17.319 -11.095   8.079  1.00  0.00     0.161 C 
BRANCH  12  13
ATOM     13  O   UNL     1      18.608 -11.641   8.098  1.00  0.00    -0.396 OA
ATOM     14  H   UNL     1      19.134 -11.081   8.725  1.00  0.00     0.210 HD
ENDBRANCH  12  13
ENDBRANCH   1  12
TORSDOF 5
ENDMDL
MODEL 4
REMARK VINA RESULT:    -4.426      1.596      4.832
REMARK INTER + INTRA:          -5.416
REMARK INTER:                  -5.346
REMARK INTRA:                  -0.070
REMARK UNBOUND:                -0.085
REMARK SMILES OCCc1ccc(O)c(O)c1
REMARK SMILES IDX 3 1 4 2 5 3 6 4 7 5 11 6 9 7 8 8 10 10 2 12 1 13
REMARK H PARENT 8 9 10 11 1 14
REMARK Flexibility Score: inf
ROOT
ATOM      1  C   UNL     1      17.868  -9.305  10.043  1.00  0.00     0.064 C 
ENDROOT
BRANCH   1   2
ATOM      2  C   UNL     1      17.591  -7.907   9.551  1.00  0.00    -0.042 A 
ATOM      3  C   UNL     1      18.556  -6.902   9.702  1.00  0.00     0.008 A 
ATOM      4  C   UNL     1      18.312  -5.614   9.221  1.00  0.00     0.050 A 
ATOM      5  C   UNL     1      17.106  -5.309   8.578  1.00  0.00     0.157 A 
ATOM      6  C   UNL     1      16.386  -7.610   8.896  1.00  0.00     0.054 A 
ATOM      7  C   UNL     1      16.132  -6.321   8.410  1.00  0.00     0.157 A 
BRANCH   5   8
ATOM      8  O   UNL     1      16.923  -4.001   8.122  1.00  0.00    -0.504 OA
ATOM      9  H   UNL     1      17.604  -3.494   7.577  1.00  0.00     0.293 HD
ENDBRANCH   5   8
BRANCH   7  10
ATOM     10  O   UNL     1      14.910  -6.093   7.773  1.00  0.00    -0.504 OA
ATOM     11  H   UNL     1      14.153  -5.561   8.176  1.00  0.00     0.293 HD
ENDBRANCH   7  10
ENDBRANCH   1   2
BRANCH   1  12
ATOM     12  C   UNL     1      17.304 -10.352   9.083  1.00  0.00     0.161 C 
BRANCH  12  13
ATOM     13  O   UNL     1      18.331 -11.186   8.623  1.00  0.00    -0.396 OA
ATOM     14  H   UNL     1      19.042 -11.153   9.314  1.00  0.00     0.210 HD
ENDBRANCH  12  13
ENDBRANCH   1  12
TORSDOF 5
ENDMDL
MODEL 5
REMARK VINA RESULT:    -4.328      1.776      4.837
REMARK INTER + INTRA:          -5.298
REMARK INTER:                  -5.206
REMARK INTRA:                  -0.092
REMARK UNBOUND:                -0.085
REMARK SMILES OCCc1ccc(O)c(O)c1
REMARK SMILES IDX 3 1 4 2 5 3 6 4 7 5 11 6 9 7 8 8 10 10 2 12 1 13
REMARK H PARENT 8 9 10 11 1 14
REMARK Flexibility Score: inf
ROOT
ATOM      1  C   UNL     1      16.819 -11.402   7.792  1.00  0.00     0.064 C 
ENDROOT
BRANCH   1   2
ATOM      2  C   UNL     1      17.129 -10.041   8.360  1.00  0.00    -0.042 A 
ATOM      3  C   UNL     1      17.665  -9.918   9.649  1.00  0.00     0.008 A 
ATOM      4  C   UNL     1      17.979  -8.660  10.164  1.00  0.00     0.050 A 
ATOM      5  C   UNL     1      17.771  -7.504   9.402  1.00  0.00     0.157 A 
ATOM      6  C   UNL     1      16.929  -8.887   7.587  1.00  0.00     0.054 A 
ATOM      7  C   UNL     1      17.241  -7.619   8.095  1.00  0.00     0.157 A 
BRANCH   5   8
ATOM      8  O   UNL     1      18.104  -6.275   9.977  1.00  0.00    -0.504 OA
ATOM      9  H   UNL     1      17.452  -5.514  10.099  1.00  0.00     0.293 HD
ENDBRANCH   5   8
BRANCH   7  10
ATOM     10  O   UNL     1      17.013  -6.512   7.274  1.00  0.00    -0.504 OA
ATOM     11  H   UNL     1      17.594  -6.263   6.488  1.00  0.00     0.293 HD
ENDBRANCH   7  10
ENDBRANCH   1   2
BRANCH   1  12
ATOM     12  C   UNL     1      17.869 -11.829   6.768  1.00  0.00     0.161 C 
BRANCH  12  13
ATOM     13  O   UNL     1      19.016 -12.296   7.422  1.00  0.00    -0.396 OA
ATOM     14  H   UNL     1      19.005 -11.886   8.325  1.00  0.00     0.210 HD
ENDBRANCH  12  13
ENDBRANCH   1  12
TORSDOF 5
ENDMDL
MODEL 6
REMARK VINA RESULT:    -4.269      0.981      2.143
REMARK INTER + INTRA:          -5.227
REMARK INTER:                  -5.167
REMARK INTRA:                  -0.060
REMARK UNBOUND:                -0.085
REMARK SMILES OCCc1ccc(O)c(O)c1
REMARK SMILES IDX 3 1 4 2 5 3 6 4 7 5 11 6 9 7 8 8 10 10 2 12 1 13
REMARK H PARENT 8 9 10 11 1 14
REMARK Flexibility Score: inf
ROOT
ATOM      1  C   UNL     1      16.596  -6.026   8.634  1.00  0.00     0.064 C 
ENDROOT
BRANCH   1   2
ATOM      2  C   UNL     1      16.909  -7.499   8.569  1.00  0.00    -0.042 A 
ATOM      3  C   UNL     1      17.213  -8.208   9.738  1.00  0.00     0.008 A 
ATOM      4  C   UNL     1      17.475  -9.578   9.683  1.00  0.00     0.050 A 
ATOM      5  C   UNL     1      17.432 -10.265   8.463  1.00  0.00     0.157 A 
ATOM      6  C   UNL     1      16.853  -8.183   7.345  1.00  0.00     0.054 A 
ATOM      7  C   UNL     1      17.113  -9.558   7.279  1.00  0.00     0.157 A 
BRANCH   5   8
ATOM      8  O   UNL     1      17.706 -11.634   8.475  1.00  0.00    -0.504 OA
ATOM      9  H   UNL     1      18.544 -12.045   8.091  1.00  0.00     0.293 HD
ENDBRANCH   5   8
BRANCH   7  10
ATOM     10  O   UNL     1      17.044 -10.176   6.028  1.00  0.00    -0.504 OA
ATOM     11  H   UNL     1      16.203 -10.236   5.473  1.00  0.00     0.293 HD
ENDBRANCH   7  10
ENDBRANCH   1   2
BRANCH   1  12
ATOM     12  C   UNL     1      17.865  -5.197   8.831  1.00  0.00     0.161 C 
BRANCH  12  13
ATOM     13  O   UNL     1      18.031  -4.886  10.186  1.00  0.00    -0.396 OA
ATOM     14  H   UNL     1      18.798  -4.258  10.232  1.00  0.00     0.210 HD
ENDBRANCH  12  13
ENDBRANCH   1  12
TORSDOF 5
ENDMDL
MODEL 7
REMARK VINA RESULT:    -4.197     14.382     15.957
REMARK INTER + INTRA:          -5.141
REMARK INTER:                  -5.086
REMARK INTRA:                  -0.055
REMARK UNBOUND:                -0.085
REMARK SMILES OCCc1ccc(O)c(O)c1
REMARK SMILES IDX 3 1 4 2 5 3 6 4 7 5 11 6 9 7 8 8 10 10 2 12 1 13
REMARK H PARENT 8 9 10 11 1 14
REMARK Flexibility Score: inf
ROOT
ATOM      1  C   UNL     1      13.798 -15.846  24.274  1.00  0.00     0.064 C 
ENDROOT
BRANCH   1   2
ATOM      2  C   UNL     1      13.319 -15.398  22.917  1.00  0.00    -0.042 A 
ATOM      3  C   UNL     1      12.304 -14.438  22.808  1.00  0.00     0.008 A 
ATOM      4  C   UNL     1      11.880 -14.002  21.551  1.00  0.00     0.050 A 
ATOM      5  C   UNL     1      12.465 -14.509  20.385  1.00  0.00     0.157 A 
ATOM      6  C   UNL     1      13.918 -15.901  21.751  1.00  0.00     0.054 A 
ATOM      7  C   UNL     1      13.500 -15.469  20.486  1.00  0.00     0.157 A 
BRANCH   5   8
ATOM      8  O   UNL     1      11.993 -14.033  19.159  1.00  0.00    -0.504 OA
ATOM      9  H   UNL     1      12.396 -14.278  18.267  1.00  0.00     0.293 HD
ENDBRANCH   5   8
BRANCH   7  10
ATOM     10  O   UNL     1      14.134 -16.013  19.368  1.00  0.00    -0.504 OA
ATOM     11  H   UNL     1      13.647 -16.426  18.586  1.00  0.00     0.293 HD
ENDBRANCH   7  10
ENDBRANCH   1   2
BRANCH   1  12
ATOM     12  C   UNL     1      12.629 -16.265  25.165  1.00  0.00     0.161 C 
BRANCH  12  13
ATOM     13  O   UNL     1      12.377 -15.277  26.125  1.00  0.00    -0.396 OA
ATOM     14  H   UNL     1      12.638 -14.416  25.708  1.00  0.00     0.210 HD
ENDBRANCH  12  13
ENDBRANCH   1  12
TORSDOF 5
ENDMDL
MODEL 8
REMARK VINA RESULT:    -4.091      2.205      3.068
REMARK INTER + INTRA:          -5.013
REMARK INTER:                  -4.933
REMARK INTRA:                  -0.079
REMARK UNBOUND:                -0.085
REMARK SMILES OCCc1ccc(O)c(O)c1
REMARK SMILES IDX 3 1 4 2 5 3 6 4 7 5 11 6 9 7 8 8 10 10 2 12 1 13
REMARK H PARENT 8 9 10 11 1 14
REMARK Flexibility Score: inf
ROOT
ATOM      1  C   UNL     1      16.163  -5.874   6.004  1.00  0.00     0.064 C 
ENDROOT
BRANCH   1   2
ATOM      2  C   UNL     1      16.559  -6.575   7.279  1.00  0.00    -0.042 A 
ATOM      3  C   UNL     1      15.989  -7.810   7.612  1.00  0.00     0.008 A 
ATOM      4  C   UNL     1      16.376  -8.473   8.778  1.00  0.00     0.050 A 
ATOM      5  C   UNL     1      17.343  -7.919   9.626  1.00  0.00     0.157 A 
ATOM      6  C   UNL     1      17.537  -6.020   8.119  1.00  0.00     0.054 A 
ATOM      7  C   UNL     1      17.934  -6.678   9.291  1.00  0.00     0.157 A 
BRANCH   5   8
ATOM      8  O   UNL     1      17.684  -8.632  10.778  1.00  0.00    -0.504 OA
ATOM      9  H   UNL     1      18.634  -8.812  11.068  1.00  0.00     0.293 HD
ENDBRANCH   5   8
BRANCH   7  10
ATOM     10  O   UNL     1      18.909  -6.069  10.083  1.00  0.00    -0.504 OA
ATOM     11  H   UNL     1      19.835  -6.443  10.227  1.00  0.00     0.293 HD
ENDBRANCH   7  10
ENDBRANCH   1   2
BRANCH   1  12
ATOM     12  C   UNL     1      15.097  -4.810   6.264  1.00  0.00     0.161 C 
BRANCH  12  13
ATOM     13  O   UNL     1      15.667  -3.532   6.197  1.00  0.00    -0.396 OA
ATOM     14  H   UNL     1      16.482  -3.564   6.762  1.00  0.00     0.210 HD
ENDBRANCH  12  13
ENDBRANCH   1  12
TORSDOF 5
ENDMDL
MODEL 9
REMARK VINA RESULT:    -4.090     15.252     17.078
REMARK INTER + INTRA:          -5.012
REMARK INTER:                  -4.905
REMARK INTRA:                  -0.107
REMARK UNBOUND:                -0.085
REMARK SMILES OCCc1ccc(O)c(O)c1
REMARK SMILES IDX 3 1 4 2 5 3 6 4 7 5 11 6 9 7 8 8 10 10 2 12 1 13
REMARK H PARENT 8 9 10 11 1 14
REMARK Flexibility Score: inf
ROOT
ATOM      1  C   UNL     1      12.132 -18.472  22.893  1.00  0.00     0.064 C 
ENDROOT
BRANCH   1   2
ATOM      2  C   UNL     1      12.872 -17.160  22.846  1.00  0.00    -0.042 A 
ATOM      3  C   UNL     1      12.678 -16.278  21.775  1.00  0.00     0.008 A 
ATOM      4  C   UNL     1      13.342 -15.050  21.746  1.00  0.00     0.050 A 
ATOM      5  C   UNL     1      14.203 -14.678  22.785  1.00  0.00     0.157 A 
ATOM      6  C   UNL     1      13.725 -16.788  23.897  1.00  0.00     0.054 A 
ATOM      7  C   UNL     1      14.395 -15.558  23.877  1.00  0.00     0.157 A 
BRANCH   5   8
ATOM      8  O   UNL     1      14.838 -13.438  22.694  1.00  0.00    -0.504 OA
ATOM      9  H   UNL     1      15.637 -13.171  23.251  1.00  0.00     0.293 HD
ENDBRANCH   5   8
BRANCH   7  10
ATOM     10  O   UNL     1      15.231 -15.253  24.953  1.00  0.00    -0.504 OA
ATOM     11  H   UNL     1      15.348 -15.844  25.763  1.00  0.00     0.293 HD
ENDBRANCH   7  10
ENDBRANCH   1   2
BRANCH   1  12
ATOM     12  C   UNL     1      12.530 -19.376  21.727  1.00  0.00     0.161 C 
BRANCH  12  13
ATOM     13  O   UNL     1      13.783 -19.950  21.969  1.00  0.00    -0.396 OA
ATOM     14  H   UNL     1      14.454 -19.288  21.659  1.00  0.00     0.210 HD
ENDBRANCH  12  13
ENDBRANCH   1  12
TORSDOF 5
ENDMDL
