MODEL 1
REMARK VINA RESULT:    -3.691      0.000      0.000
REMARK INTER + INTRA:          -5.214
REMARK INTER:                  -4.985
REMARK INTRA:                  -0.229
REMARK UNBOUND:                -0.229
REMARK SMILES CCCCCCCC(=O)[O-]
REMARK SMILES IDX 5 1 6 2 7 3 8 4 9 5 10 6 4 7 3 8 2 9 1 10
REMARK H PARENT
REMARK Flexibility Score: inf
ROOT
ATOM      1  C   UNL     1     -15.707 -26.874 -18.853  1.00  0.00     0.000 C 
ENDROOT
BRANCH   1   2
ATOM      2  C   UNL     1     -14.357 -27.551 -18.557  1.00  0.00     0.006 C 
BRANCH   2   3
ATOM      3  C   UNL     1     -13.256 -26.531 -18.236  1.00  0.00     0.053 C 
BRANCH   3   4
ATOM      4  C   UNL     1     -12.061 -27.181 -17.609  1.00  0.00     0.041 C 
ATOM      5  O   UNL     1     -12.211 -28.093 -16.753  1.00  0.00    -0.550 OA
ATOM      6  O   UNL     1     -10.781 -26.799 -17.992  1.00  0.00    -0.550 OA
ENDBRANCH   3   4
ENDBRANCH   2   3
ENDBRANCH   1   2
BRANCH   1   7
ATOM      7  C   UNL     1     -16.325 -26.214 -17.609  1.00  0.00     0.000 C 
BRANCH   7   8
ATOM      8  C   UNL     1     -17.752 -25.699 -17.860  1.00  0.00    -0.000 C 
BRANCH   8   9
ATOM      9  C   UNL     1     -18.253 -26.019 -19.277  1.00  0.00    -0.003 C 
ATOM     10  C   UNL     1     -19.645 -26.651 -19.286  1.00  0.00     0.004 C 
ENDBRANCH   8   9
ENDBRANCH   7   8
ENDBRANCH   1   7
TORSDOF 6
ENDMDL
MODEL 2
REMARK VINA RESULT:    -3.683     11.808     12.904
REMARK INTER + INTRA:          -5.204
REMARK INTER:                  -4.707
REMARK INTRA:                  -0.497
REMARK UNBOUND:                -0.229
REMARK SMILES CCCCCCCC(=O)[O-]
REMARK SMILES IDX 5 1 6 2 7 3 8 4 9 5 10 6 4 7 3 8 2 9 1 10
REMARK H PARENT
REMARK Flexibility Score: inf
ROOT
ATOM      1  C   UNL     1     -12.252 -34.352 -25.543  1.00  0.00     0.000 C 
ENDROOT
BRANCH   1   2
ATOM      2  C   UNL     1     -12.743 -34.041 -26.969  1.00  0.00     0.006 C 
BRANCH   2   3
ATOM      3  C   UNL     1     -13.476 -35.231 -27.601  1.00  0.00     0.053 C 
BRANCH   3   4
ATOM      4  C   UNL     1     -14.962 -35.114 -27.448  1.00  0.00     0.041 C 
ATOM      5  O   UNL     1     -15.614 -36.027 -26.874  1.00  0.00    -0.550 OA
ATOM      6  O   UNL     1     -15.622 -33.984 -27.913  1.00  0.00    -0.550 OA
ENDBRANCH   3   4
ENDBRANCH   2   3
ENDBRANCH   1   2
BRANCH   1   7
ATOM      7  C   UNL     1     -10.931 -35.137 -25.529  1.00  0.00     0.000 C 
BRANCH   7   8
ATOM      8  C   UNL     1     -11.121 -36.608 -25.122  1.00  0.00    -0.000 C 
BRANCH   8   9
ATOM      9  C   UNL     1     -12.301 -36.805 -24.157  1.00  0.00    -0.003 C 
ATOM     10  C   UNL     1     -13.361 -37.761 -24.703  1.00  0.00     0.004 C 
ENDBRANCH   8   9
ENDBRANCH   7   8
ENDBRANCH   1   7
TORSDOF 6
ENDMDL
MODEL 3
REMARK VINA RESULT:    -3.674     16.686     18.320
REMARK INTER + INTRA:          -5.192
REMARK INTER:                  -4.778
REMARK INTRA:                  -0.414
REMARK UNBOUND:                -0.229
REMARK SMILES CCCCCCCC(=O)[O-]
REMARK SMILES IDX 5 1 6 2 7 3 8 4 9 5 10 6 4 7 3 8 2 9 1 10
REMARK H PARENT
REMARK Flexibility Score: inf
ROOT
ATOM      1  C   UNL     1     -25.520 -22.152 -30.811  1.00  0.00     0.000 C 
ENDROOT
BRANCH   1   2
ATOM      2  C   UNL     1     -26.225 -22.570 -29.508  1.00  0.00     0.006 C 
BRANCH   2   3
ATOM      3  C   UNL     1     -26.258 -21.433 -28.478  1.00  0.00     0.053 C 
BRANCH   3   4
ATOM      4  C   UNL     1     -27.604 -20.777 -28.417  1.00  0.00     0.041 C 
ATOM      5  O   UNL     1     -28.426 -20.926 -29.360  1.00  0.00    -0.550 OA
ATOM      6  O   UNL     1     -27.960 -20.024 -27.305  1.00  0.00    -0.550 OA
ENDBRANCH   3   4
ENDBRANCH   2   3
ENDBRANCH   1   2
BRANCH   1   7
ATOM      7  C   UNL     1     -26.283 -22.598 -32.068  1.00  0.00     0.000 C 
BRANCH   7   8
ATOM      8  C   UNL     1     -27.487 -23.499 -31.741  1.00  0.00    -0.000 C 
BRANCH   8   9
ATOM      9  C   UNL     1     -28.814 -22.916 -32.252  1.00  0.00    -0.003 C 
ATOM     10  C   UNL     1     -28.664 -22.169 -33.577  1.00  0.00     0.004 C 
ENDBRANCH   8   9
ENDBRANCH   7   8
ENDBRANCH   1   7
TORSDOF 6
ENDMDL
MODEL 4
REMARK VINA RESULT:    -3.665      8.004     10.496
REMARK INTER + INTRA:          -5.180
REMARK INTER:                  -4.960
REMARK INTRA:                  -0.219
REMARK UNBOUND:                -0.229
REMARK SMILES CCCCCCCC(=O)[O-]
REMARK SMILES IDX 5 1 6 2 7 3 8 4 9 5 10 6 4 7 3 8 2 9 1 10
REMARK H PARENT
REMARK Flexibility Score: inf
ROOT
ATOM      1  C   UNL     1     -23.301 -25.500 -16.795  1.00  0.00     0.000 C 
ENDROOT
BRANCH   1   2
ATOM      2  C   UNL     1     -24.086 -24.755 -17.890  1.00  0.00     0.006 C 
BRANCH   2   3
ATOM      3  C   UNL     1     -25.304 -25.554 -18.373  1.00  0.00     0.053 C 
BRANCH   3   4
ATOM      4  C   UNL     1     -26.577 -24.781 -18.206  1.00  0.00     0.041 C 
ATOM      5  O   UNL     1     -26.544 -23.574 -17.848  1.00  0.00    -0.550 OA
ATOM      6  O   UNL     1     -27.798 -25.387 -18.475  1.00  0.00    -0.550 OA
ENDBRANCH   3   4
ENDBRANCH   2   3
ENDBRANCH   1   2
BRANCH   1   7
ATOM      7  C   UNL     1     -21.856 -25.816 -17.213  1.00  0.00     0.000 C 
BRANCH   7   8
ATOM      8  C   UNL     1     -21.638 -25.695 -18.731  1.00  0.00    -0.000 C 
BRANCH   8   9
ATOM      9  C   UNL     1     -20.499 -26.593 -19.237  1.00  0.00    -0.003 C 
ATOM     10  C   UNL     1     -19.215 -25.817 -19.530  1.00  0.00     0.004 C 
ENDBRANCH   8   9
ENDBRANCH   7   8
ENDBRANCH   1   7
TORSDOF 6
ENDMDL
MODEL 5
REMARK VINA RESULT:    -3.660     16.932     18.578
REMARK INTER + INTRA:          -5.172
REMARK INTER:                  -4.563
REMARK INTRA:                  -0.609
REMARK UNBOUND:                -0.229
REMARK SMILES CCCCCCCC(=O)[O-]
REMARK SMILES IDX 5 1 6 2 7 3 8 4 9 5 10 6 4 7 3 8 2 9 1 10
REMARK H PARENT
REMARK Flexibility Score: inf
ROOT
ATOM      1  C   UNL     1     -29.121 -20.756 -30.808  1.00  0.00     0.000 C 
ENDROOT
BRANCH   1   2
ATOM      2  C   UNL     1     -28.398 -19.538 -30.204  1.00  0.00     0.006 C 
BRANCH   2   3
ATOM      3  C   UNL     1     -26.974 -19.880 -29.745  1.00  0.00     0.053 C 
BRANCH   3   4
ATOM      4  C   UNL     1     -26.976 -20.742 -28.520  1.00  0.00     0.041 C 
ATOM      5  O   UNL     1     -27.685 -20.430 -27.527  1.00  0.00    -0.550 OA
ATOM      6  O   UNL     1     -26.218 -21.905 -28.488  1.00  0.00    -0.550 OA
ENDBRANCH   3   4
ENDBRANCH   2   3
ENDBRANCH   1   2
BRANCH   1   7
ATOM      7  C   UNL     1     -28.435 -21.283 -32.079  1.00  0.00     0.000 C 
BRANCH   7   8
ATOM      8  C   UNL     1     -28.404 -22.820 -32.141  1.00  0.00    -0.000 C 
BRANCH   8   9
ATOM      9  C   UNL     1     -27.100 -23.405 -31.576  1.00  0.00    -0.003 C 
ATOM     10  C   UNL     1     -25.859 -22.635 -32.027  1.00  0.00     0.004 C 
ENDBRANCH   8   9
ENDBRANCH   7   8
ENDBRANCH   1   7
TORSDOF 6
ENDMDL
MODEL 6
REMARK VINA RESULT:    -3.643     16.962     18.151
REMARK INTER + INTRA:          -5.150
REMARK INTER:                  -4.553
REMARK INTRA:                  -0.598
REMARK UNBOUND:                -0.229
REMARK SMILES CCCCCCCC(=O)[O-]
REMARK SMILES IDX 5 1 6 2 7 3 8 4 9 5 10 6 4 7 3 8 2 9 1 10
REMARK H PARENT
REMARK Flexibility Score: inf
ROOT
ATOM      1  C   UNL     1     -26.498 -21.183 -28.382  1.00  0.00     0.000 C 
ENDROOT
BRANCH   1   2
ATOM      2  C   UNL     1     -26.187 -22.465 -29.175  1.00  0.00     0.006 C 
BRANCH   2   3
ATOM      3  C   UNL     1     -25.497 -22.165 -30.512  1.00  0.00     0.053 C 
BRANCH   3   4
ATOM      4  C   UNL     1     -26.145 -22.896 -31.649  1.00  0.00     0.041 C 
ATOM      5  O   UNL     1     -27.216 -23.533 -31.464  1.00  0.00    -0.550 OA
ATOM      6  O   UNL     1     -25.581 -22.849 -32.917  1.00  0.00    -0.550 OA
ENDBRANCH   3   4
ENDBRANCH   2   3
ENDBRANCH   1   2
BRANCH   1   7
ATOM      7  C   UNL     1     -27.980 -20.780 -28.462  1.00  0.00     0.000 C 
BRANCH   7   8
ATOM      8  C   UNL     1     -28.241 -19.688 -29.513  1.00  0.00    -0.000 C 
BRANCH   8   9
ATOM      9  C   UNL     1     -28.756 -20.262 -30.842  1.00  0.00    -0.003 C 
ATOM     10  C   UNL     1     -28.001 -19.720 -32.055  1.00  0.00     0.004 C 
ENDBRANCH   8   9
ENDBRANCH   7   8
ENDBRANCH   1   7
TORSDOF 6
ENDMDL
MODEL 7
REMARK VINA RESULT:    -3.620     12.152     13.298
REMARK INTER + INTRA:          -5.119
REMARK INTER:                  -4.752
REMARK INTRA:                  -0.367
REMARK UNBOUND:                -0.229
REMARK SMILES CCCCCCCC(=O)[O-]
REMARK SMILES IDX 5 1 6 2 7 3 8 4 9 5 10 6 4 7 3 8 2 9 1 10
REMARK H PARENT
REMARK Flexibility Score: inf
ROOT
ATOM      1  C   UNL     1     -13.488 -34.313 -27.563  1.00  0.00     0.000 C 
ENDROOT
BRANCH   1   2
ATOM      2  C   UNL     1     -12.730 -35.037 -28.690  1.00  0.00     0.006 C 
BRANCH   2   3
ATOM      3  C   UNL     1     -11.513 -34.238 -29.175  1.00  0.00     0.053 C 
BRANCH   3   4
ATOM      4  C   UNL     1     -10.269 -35.073 -29.188  1.00  0.00     0.041 C 
ATOM      5  O   UNL     1      -9.805 -35.536 -28.112  1.00  0.00    -0.550 OA
ATOM      6  O   UNL     1      -9.639 -35.362 -30.391  1.00  0.00    -0.550 OA
ENDBRANCH   3   4
ENDBRANCH   2   3
ENDBRANCH   1   2
BRANCH   1   7
ATOM      7  C   UNL     1     -12.607 -34.047 -26.331  1.00  0.00     0.000 C 
BRANCH   7   8
ATOM      8  C   UNL     1     -12.237 -35.336 -25.578  1.00  0.00    -0.000 C 
BRANCH   8   9
ATOM      9  C   UNL     1     -11.073 -35.131 -24.596  1.00  0.00    -0.003 C 
ATOM     10  C   UNL     1     -11.224 -35.953 -23.316  1.00  0.00     0.004 C 
ENDBRANCH   8   9
ENDBRANCH   7   8
ENDBRANCH   1   7
TORSDOF 6
ENDMDL
MODEL 8
REMARK VINA RESULT:    -3.616     17.315     18.874
REMARK INTER + INTRA:          -5.114
REMARK INTER:                  -4.555
REMARK INTRA:                  -0.559
REMARK UNBOUND:                -0.229
REMARK SMILES CCCCCCCC(=O)[O-]
REMARK SMILES IDX 5 1 6 2 7 3 8 4 9 5 10 6 4 7 3 8 2 9 1 10
REMARK H PARENT
REMARK Flexibility Score: inf
ROOT
ATOM      1  C   UNL     1     -27.998 -20.799 -28.756  1.00  0.00     0.000 C 
ENDROOT
BRANCH   1   2
ATOM      2  C   UNL     1     -28.342 -20.236 -30.147  1.00  0.00     0.006 C 
BRANCH   2   3
ATOM      3  C   UNL     1     -29.125 -21.243 -31.001  1.00  0.00     0.053 C 
BRANCH   3   4
ATOM      4  C   UNL     1     -28.456 -21.495 -32.317  1.00  0.00     0.041 C 
ATOM      5  O   UNL     1     -27.316 -21.013 -32.552  1.00  0.00    -0.550 OA
ATOM      6  O   UNL     1     -29.080 -22.286 -33.274  1.00  0.00    -0.550 OA
ENDBRANCH   3   4
ENDBRANCH   2   3
ENDBRANCH   1   2
BRANCH   1   7
ATOM      7  C   UNL     1     -26.504 -21.129 -28.603  1.00  0.00     0.000 C 
BRANCH   7   8
ATOM      8  C   UNL     1     -26.124 -22.468 -29.259  1.00  0.00    -0.000 C 
BRANCH   8   9
ATOM      9  C   UNL     1     -24.963 -22.326 -30.256  1.00  0.00    -0.003 C 
ATOM     10  C   UNL     1     -24.368 -20.918 -30.278  1.00  0.00     0.004 C 
ENDBRANCH   8   9
ENDBRANCH   7   8
ENDBRANCH   1   7
TORSDOF 6
ENDMDL
MODEL 9
REMARK VINA RESULT:    -3.604     16.368     17.670
REMARK INTER + INTRA:          -5.097
REMARK INTER:                  -4.525
REMARK INTRA:                  -0.572
REMARK UNBOUND:                -0.229
REMARK SMILES CCCCCCCC(=O)[O-]
REMARK SMILES IDX 5 1 6 2 7 3 8 4 9 5 10 6 4 7 3 8 2 9 1 10
REMARK H PARENT
REMARK Flexibility Score: inf
ROOT
ATOM      1  C   UNL     1     -26.486 -21.376 -28.469  1.00  0.00     0.000 C 
ENDROOT
BRANCH   1   2
ATOM      2  C   UNL     1     -26.125 -22.481 -29.478  1.00  0.00     0.006 C 
BRANCH   2   3
ATOM      3  C   UNL     1     -24.778 -22.221 -30.164  1.00  0.00     0.053 C 
BRANCH   3   4
ATOM      4  C   UNL     1     -24.703 -20.838 -30.735  1.00  0.00     0.041 C 
ATOM      5  O   UNL     1     -23.887 -20.000 -30.264  1.00  0.00    -0.550 OA
ATOM      6  O   UNL     1     -25.513 -20.483 -31.806  1.00  0.00    -0.550 OA
ENDBRANCH   3   4
ENDBRANCH   2   3
ENDBRANCH   1   2
BRANCH   1   7
ATOM      7  C   UNL     1     -27.929 -20.871 -28.633  1.00  0.00     0.000 C 
BRANCH   7   8
ATOM      8  C   UNL     1     -28.000 -19.500 -29.328  1.00  0.00    -0.000 C 
BRANCH   8   9
ATOM      9  C   UNL     1     -28.714 -19.566 -30.687  1.00  0.00    -0.003 C 
ATOM     10  C   UNL     1     -29.125 -20.986 -31.075  1.00  0.00     0.004 C 
ENDBRANCH   8   9
ENDBRANCH   7   8
ENDBRANCH   1   7
TORSDOF 6
ENDMDL
