MODEL 1
REMARK VINA RESULT:    -4.679      0.000      0.000
REMARK INTER + INTRA:          -5.051
REMARK INTER:                  -4.953
REMARK INTRA:                  -0.098
REMARK UNBOUND:                -0.098
REMARK SMILES C=C(C)[C@H]1CC=C(C)C(=O)C1
REMARK SMILES IDX 8 1 7 2 6 3 5 4 4 5 11 6 9 7 10 8 2 9 1 10 3 11
REMARK H PARENT
REMARK Flexibility Score: inf
ROOT
ATOM      1  C   UNL     1     215.243 200.024 215.298  1.00  0.00     0.048 C 
ATOM      2  C   UNL     1     214.567 201.171 215.998  1.00  0.00    -0.012 C 
ATOM      3  C   UNL     1     215.280 202.256 216.345  1.00  0.00    -0.019 C 
ATOM      4  C   UNL     1     214.658 203.425 217.063  1.00  0.00     0.036 C 
ATOM      5  C   UNL     1     213.189 203.614 216.643  1.00  0.00     0.025 C 
ATOM      6  C   UNL     1     212.399 202.311 216.857  1.00  0.00     0.089 C 
ATOM      7  C   UNL     1     213.096 201.155 216.193  1.00  0.00     0.158 C 
ATOM      8  O   UNL     1     212.420 200.153 215.836  1.00  0.00    -0.295 OA
ENDROOT
BRANCH   5   9
ATOM      9  C   UNL     1     212.545 204.782 217.379  1.00  0.00    -0.077 C 
ATOM     10  C   UNL     1     211.727 204.554 218.420  1.00  0.00     0.008 C 
ATOM     11  C   UNL     1     212.807 206.210 216.969  1.00  0.00     0.039 C 
ENDBRANCH   5   9
TORSDOF 1
ENDMDL
MODEL 2
REMARK VINA RESULT:    -4.671     14.492     16.800
REMARK INTER + INTRA:          -5.042
REMARK INTER:                  -4.944
REMARK INTRA:                  -0.098
REMARK UNBOUND:                -0.098
REMARK SMILES C=C(C)[C@H]1CC=C(C)C(=O)C1
REMARK SMILES IDX 8 1 7 2 6 3 5 4 4 5 11 6 9 7 10 8 2 9 1 10 3 11
REMARK H PARENT
REMARK Flexibility Score: inf
ROOT
ATOM      1  C   UNL     1     197.056 212.343 215.253  1.00  0.00     0.048 C 
ATOM      2  C   UNL     1     197.732 211.198 215.956  1.00  0.00    -0.012 C 
ATOM      3  C   UNL     1     197.010 210.137 216.352  1.00  0.00    -0.019 C 
ATOM      4  C   UNL     1     197.632 208.972 217.076  1.00  0.00     0.036 C 
ATOM      5  C   UNL     1     199.081 208.741 216.611  1.00  0.00     0.025 C 
ATOM      6  C   UNL     1     199.905 210.032 216.767  1.00  0.00     0.089 C 
ATOM      7  C   UNL     1     199.209 211.187 216.101  1.00  0.00     0.158 C 
ATOM      8  O   UNL     1     199.893 212.167 215.698  1.00  0.00    -0.295 OA
ENDROOT
BRANCH   5   9
ATOM      9  C   UNL     1     199.726 207.577 217.351  1.00  0.00    -0.077 C 
ATOM     10  C   UNL     1     200.549 207.810 218.387  1.00  0.00     0.008 C 
ATOM     11  C   UNL     1     199.459 206.147 216.952  1.00  0.00     0.039 C 
ENDBRANCH   5   9
TORSDOF 1
ENDMDL
MODEL 3
REMARK VINA RESULT:    -4.637      2.074      4.566
REMARK INTER + INTRA:          -5.006
REMARK INTER:                  -4.912
REMARK INTRA:                  -0.093
REMARK UNBOUND:                -0.098
REMARK SMILES C=C(C)[C@H]1CC=C(C)C(=O)C1
REMARK SMILES IDX 8 1 7 2 6 3 5 4 4 5 11 6 9 7 10 8 2 9 1 10 3 11
REMARK H PARENT
REMARK Flexibility Score: inf
ROOT
ATOM      1  C   UNL     1     212.800 207.078 216.761  1.00  0.00     0.048 C 
ATOM      2  C   UNL     1     213.053 205.596 216.778  1.00  0.00    -0.012 C 
ATOM      3  C   UNL     1     212.362 204.809 217.619  1.00  0.00    -0.019 C 
ATOM      4  C   UNL     1     212.588 203.322 217.690  1.00  0.00     0.036 C 
ATOM      5  C   UNL     1     212.986 202.756 216.315  1.00  0.00     0.025 C 
ATOM      6  C   UNL     1     214.210 203.506 215.760  1.00  0.00     0.089 C 
ATOM      7  C   UNL     1     213.974 204.991 215.783  1.00  0.00     0.158 C 
ATOM      8  O   UNL     1     214.597 205.725 214.968  1.00  0.00    -0.295 OA
ENDROOT
BRANCH   5   9
ATOM      9  C   UNL     1     213.236 201.255 216.381  1.00  0.00    -0.077 C 
ATOM     10  C   UNL     1     212.279 200.432 216.838  1.00  0.00     0.008 C 
ATOM     11  C   UNL     1     214.548 200.657 215.937  1.00  0.00     0.039 C 
ENDBRANCH   5   9
TORSDOF 1
ENDMDL
MODEL 4
REMARK VINA RESULT:    -4.631     14.583     15.728
REMARK INTER + INTRA:          -5.000
REMARK INTER:                  -4.906
REMARK INTRA:                  -0.094
REMARK UNBOUND:                -0.098
REMARK SMILES C=C(C)[C@H]1CC=C(C)C(=O)C1
REMARK SMILES IDX 8 1 7 2 6 3 5 4 4 5 11 6 9 7 10 8 2 9 1 10 3 11
REMARK H PARENT
REMARK Flexibility Score: inf
ROOT
ATOM      1  C   UNL     1     199.424 205.248 216.751  1.00  0.00     0.048 C 
ATOM      2  C   UNL     1     199.212 206.737 216.781  1.00  0.00    -0.012 C 
ATOM      3  C   UNL     1     199.895 207.492 217.657  1.00  0.00    -0.019 C 
ATOM      4  C   UNL     1     199.709 208.984 217.742  1.00  0.00     0.036 C 
ATOM      5  C   UNL     1     199.376 209.580 216.362  1.00  0.00     0.025 C 
ATOM      6  C   UNL     1     198.152 208.873 215.754  1.00  0.00     0.089 C 
ATOM      7  C   UNL     1     198.345 207.381 215.763  1.00  0.00     0.158 C 
ATOM      8  O   UNL     1     197.730 206.677 214.917  1.00  0.00    -0.295 OA
ENDROOT
BRANCH   5   9
ATOM      9  C   UNL     1     199.166 211.086 216.441  1.00  0.00    -0.077 C 
ATOM     10  C   UNL     1     200.122 211.873 216.960  1.00  0.00     0.008 C 
ATOM     11  C   UNL     1     197.896 211.730 215.942  1.00  0.00     0.039 C 
ENDBRANCH   5   9
TORSDOF 1
ENDMDL
MODEL 5
REMARK VINA RESULT:    -4.480      1.488      2.324
REMARK INTER + INTRA:          -4.839
REMARK INTER:                  -4.742
REMARK INTRA:                  -0.098
REMARK UNBOUND:                -0.098
REMARK SMILES C=C(C)[C@H]1CC=C(C)C(=O)C1
REMARK SMILES IDX 8 1 7 2 6 3 5 4 4 5 11 6 9 7 10 8 2 9 1 10 3 11
REMARK H PARENT
REMARK Flexibility Score: inf
ROOT
ATOM      1  C   UNL     1     214.099 198.578 215.810  1.00  0.00     0.048 C 
ATOM      2  C   UNL     1     213.752 200.023 216.047  1.00  0.00    -0.012 C 
ATOM      3  C   UNL     1     212.647 200.340 216.742  1.00  0.00    -0.019 C 
ATOM      4  C   UNL     1     212.243 201.768 216.993  1.00  0.00     0.036 C 
ATOM      5  C   UNL     1     213.478 202.679 217.121  1.00  0.00     0.025 C 
ATOM      6  C   UNL     1     214.379 202.536 215.882  1.00  0.00     0.089 C 
ATOM      7  C   UNL     1     214.692 201.089 215.619  1.00  0.00     0.158 C 
ATOM      8  O   UNL     1     215.747 200.791 214.997  1.00  0.00    -0.295 OA
ENDROOT
BRANCH   5   9
ATOM      9  C   UNL     1     213.079 204.129 217.355  1.00  0.00    -0.077 C 
ATOM     10  C   UNL     1     213.802 205.123 216.812  1.00  0.00     0.008 C 
ATOM     11  C   UNL     1     211.875 204.489 218.190  1.00  0.00     0.039 C 
ENDBRANCH   5   9
TORSDOF 1
ENDMDL
MODEL 6
REMARK VINA RESULT:    -4.465     14.897     17.149
REMARK INTER + INTRA:          -4.824
REMARK INTER:                  -4.726
REMARK INTRA:                  -0.098
REMARK UNBOUND:                -0.098
REMARK SMILES C=C(C)[C@H]1CC=C(C)C(=O)C1
REMARK SMILES IDX 8 1 7 2 6 3 5 4 4 5 11 6 9 7 10 8 2 9 1 10 3 11
REMARK H PARENT
REMARK Flexibility Score: inf
ROOT
ATOM      1  C   UNL     1     198.180 213.777 215.862  1.00  0.00     0.048 C 
ATOM      2  C   UNL     1     198.532 212.330 216.080  1.00  0.00    -0.012 C 
ATOM      3  C   UNL     1     199.639 212.008 216.769  1.00  0.00    -0.019 C 
ATOM      4  C   UNL     1     200.048 210.577 217.001  1.00  0.00     0.036 C 
ATOM      5  C   UNL     1     198.815 209.662 217.121  1.00  0.00     0.025 C 
ATOM      6  C   UNL     1     197.911 209.817 215.886  1.00  0.00     0.089 C 
ATOM      7  C   UNL     1     197.594 211.267 215.642  1.00  0.00     0.158 C 
ATOM      8  O   UNL     1     196.536 211.570 215.026  1.00  0.00    -0.295 OA
ENDROOT
BRANCH   5   9
ATOM      9  C   UNL     1     199.219 208.210 217.336  1.00  0.00    -0.077 C 
ATOM     10  C   UNL     1     198.483 207.220 216.804  1.00  0.00     0.008 C 
ATOM     11  C   UNL     1     200.443 207.844 218.139  1.00  0.00     0.039 C 
ENDBRANCH   5   9
TORSDOF 1
ENDMDL
MODEL 7
REMARK VINA RESULT:    -4.456     14.444     15.165
REMARK INTER + INTRA:          -4.815
REMARK INTER:                  -4.717
REMARK INTRA:                  -0.098
REMARK UNBOUND:                -0.098
REMARK SMILES C=C(C)[C@H]1CC=C(C)C(=O)C1
REMARK SMILES IDX 8 1 7 2 6 3 5 4 4 5 11 6 9 7 10 8 2 9 1 10 3 11
REMARK H PARENT
REMARK Flexibility Score: inf
ROOT
ATOM      1  C   UNL     1     198.186 203.383 214.304  1.00  0.00     0.048 C 
ATOM      2  C   UNL     1     198.449 204.590 215.163  1.00  0.00    -0.012 C 
ATOM      3  C   UNL     1     199.281 204.494 216.213  1.00  0.00    -0.019 C 
ATOM      4  C   UNL     1     199.566 205.665 217.116  1.00  0.00     0.036 C 
ATOM      5  C   UNL     1     199.517 206.991 216.335  1.00  0.00     0.025 C 
ATOM      6  C   UNL     1     198.171 207.133 215.603  1.00  0.00     0.089 C 
ATOM      7  C   UNL     1     197.887 205.908 214.778  1.00  0.00     0.158 C 
ATOM      8  O   UNL     1     197.133 206.006 213.772  1.00  0.00    -0.295 OA
ENDROOT
BRANCH   5   9
ATOM      9  C   UNL     1     199.784 208.183 217.244  1.00  0.00    -0.077 C 
ATOM     10  C   UNL     1     200.434 208.012 218.407  1.00  0.00     0.008 C 
ATOM     11  C   UNL     1     199.335 209.574 216.869  1.00  0.00     0.039 C 
ENDBRANCH   5   9
TORSDOF 1
ENDMDL
MODEL 8
REMARK VINA RESULT:    -4.379      1.934      4.462
REMARK INTER + INTRA:          -4.733
REMARK INTER:                  -4.641
REMARK INTRA:                  -0.091
REMARK UNBOUND:                -0.098
REMARK SMILES C=C(C)[C@H]1CC=C(C)C(=O)C1
REMARK SMILES IDX 8 1 7 2 6 3 5 4 4 5 11 6 9 7 10 8 2 9 1 10 3 11
REMARK H PARENT
REMARK Flexibility Score: inf
ROOT
ATOM      1  C   UNL     1     213.098 206.859 216.774  1.00  0.00     0.048 C 
ATOM      2  C   UNL     1     213.151 205.382 216.491  1.00  0.00    -0.012 C 
ATOM      3  C   UNL     1     213.916 204.921 215.487  1.00  0.00    -0.019 C 
ATOM      4  C   UNL     1     213.992 203.456 215.149  1.00  0.00     0.036 C 
ATOM      5  C   UNL     1     213.834 202.588 216.410  1.00  0.00     0.025 C 
ATOM      6  C   UNL     1     212.533 202.948 217.149  1.00  0.00     0.089 C 
ATOM      7  C   UNL     1     212.459 204.430 217.395  1.00  0.00     0.158 C 
ATOM      8  O   UNL     1     211.769 204.860 218.359  1.00  0.00    -0.295 OA
ENDROOT
BRANCH   5   9
ATOM      9  C   UNL     1     213.890 201.103 216.076  1.00  0.00    -0.077 C 
ATOM     10  C   UNL     1     215.039 200.551 215.652  1.00  0.00     0.008 C 
ATOM     11  C   UNL     1     212.674 200.220 216.211  1.00  0.00     0.039 C 
ENDBRANCH   5   9
TORSDOF 1
ENDMDL
MODEL 9
REMARK VINA RESULT:    -4.355     14.599     15.977
REMARK INTER + INTRA:          -4.708
REMARK INTER:                  -4.614
REMARK INTRA:                  -0.093
REMARK UNBOUND:                -0.098
REMARK SMILES C=C(C)[C@H]1CC=C(C)C(=O)C1
REMARK SMILES IDX 8 1 7 2 6 3 5 4 4 5 11 6 9 7 10 8 2 9 1 10 3 11
REMARK H PARENT
REMARK Flexibility Score: inf
ROOT
ATOM      1  C   UNL     1     199.221 205.415 216.762  1.00  0.00     0.048 C 
ATOM      2  C   UNL     1     199.113 206.887 216.468  1.00  0.00    -0.012 C 
ATOM      3  C   UNL     1     198.316 207.313 215.474  1.00  0.00    -0.019 C 
ATOM      4  C   UNL     1     198.184 208.771 215.125  1.00  0.00     0.036 C 
ATOM      5  C   UNL     1     198.335 209.656 216.376  1.00  0.00     0.025 C 
ATOM      6  C   UNL     1     199.659 209.346 217.095  1.00  0.00     0.089 C 
ATOM      7  C   UNL     1     199.788 207.869 217.352  1.00  0.00     0.158 C 
ATOM      8  O   UNL     1     200.508 207.472 218.307  1.00  0.00    -0.295 OA
ENDROOT
BRANCH   5   9
ATOM      9  C   UNL     1     198.223 211.134 216.030  1.00  0.00    -0.077 C 
ATOM     10  C   UNL     1     197.131 211.598 215.400  1.00  0.00     0.008 C 
ATOM     11  C   UNL     1     199.319 212.110 216.383  1.00  0.00     0.039 C 
ENDBRANCH   5   9
TORSDOF 1
ENDMDL
