MODEL 1
REMARK VINA RESULT:    -4.475      0.000      0.000
REMARK INTER + INTRA:          -5.582
REMARK INTER:                  -5.390
REMARK INTRA:                  -0.191
REMARK UNBOUND:                -0.191
REMARK SMILES [NH3+][C@@H](Cc1cnc[nH]1)C(=O)[O-]
REMARK SMILES IDX 3 1 2 2 1 3 9 7 10 8 11 9 4 10 5 11 8 12 6 13 7 14
REMARK H PARENT 1 4 1 5 1 6 8 15
REMARK Flexibility Score: inf
ROOT
ATOM      1  C   UNL     1     181.537 -20.786  22.728  1.00  0.00     0.127 C 
ENDROOT
BRANCH   1   2
ATOM      2  C   UNL     1     181.778 -22.281  23.033  1.00  0.00     0.233 C 
BRANCH   2   3
ATOM      3  N   UNL     1     181.357 -23.141  21.918  1.00  0.00    -0.350 N 
ATOM      4  H   UNL     1     180.811 -23.965  22.260  1.00  0.00     0.345 HD
ATOM      5  H   UNL     1     182.201 -23.485  21.403  1.00  0.00     0.345 HD
ATOM      6  H   UNL     1     180.768 -22.593  21.251  1.00  0.00     0.345 HD
ENDBRANCH   2   3
BRANCH   2   7
ATOM      7  C   UNL     1     181.120 -22.692  24.326  1.00  0.00     0.099 C 
ATOM      8  O   UNL     1     179.879 -22.900  24.381  1.00  0.00    -0.544 OA
ATOM      9  O   UNL     1     181.881 -22.792  25.485  1.00  0.00    -0.544 OA
ENDBRANCH   2   7
ENDBRANCH   1   2
BRANCH   1  10
ATOM     10  C   UNL     1     182.507 -19.874  23.423  1.00  0.00     0.041 A 
ATOM     11  C   UNL     1     183.810 -20.164  23.757  1.00  0.00     0.134 A 
ATOM     12  N   UNL     1     182.216 -18.639  23.859  1.00  0.00    -0.348 N 
ATOM     13  N   UNL     1     184.345 -19.108  24.402  1.00  0.00    -0.245 NA
ATOM     14  C   UNL     1     183.345 -18.200  24.445  1.00  0.00     0.196 A 
ATOM     15  H   UNL     1     181.309 -18.128  23.773  1.00  0.00     0.167 HD
ENDBRANCH   1  10
TORSDOF 4
ENDMDL
MODEL 2
REMARK VINA RESULT:    -4.217      8.498      9.788
REMARK INTER + INTRA:          -5.271
REMARK INTER:                  -5.040
REMARK INTRA:                  -0.231
REMARK UNBOUND:                -0.191
REMARK SMILES [NH3+][C@@H](Cc1cnc[nH]1)C(=O)[O-]
REMARK SMILES IDX 3 1 2 2 1 3 9 7 10 8 11 9 4 10 5 11 8 12 6 13 7 14
REMARK H PARENT 1 4 1 5 1 6 8 15
REMARK Flexibility Score: inf
ROOT
ATOM      1  C   UNL     1     187.121 -27.679  21.352  1.00  0.00     0.127 C 
ENDROOT
BRANCH   1   2
ATOM      2  C   UNL     1     187.619 -26.765  22.493  1.00  0.00     0.233 C 
BRANCH   2   3
ATOM      3  N   UNL     1     187.859 -25.392  22.028  1.00  0.00    -0.350 N 
ATOM      4  H   UNL     1     187.388 -24.694  22.647  1.00  0.00     0.345 HD
ATOM      5  H   UNL     1     187.490 -25.283  21.054  1.00  0.00     0.345 HD
ATOM      6  H   UNL     1     188.886 -25.197  22.012  1.00  0.00     0.345 HD
ENDBRANCH   2   3
BRANCH   2   7
ATOM      7  C   UNL     1     188.840 -27.340  23.166  1.00  0.00     0.099 C 
ATOM      8  O   UNL     1     188.754 -28.365  23.894  1.00  0.00    -0.544 OA
ATOM      9  O   UNL     1     190.067 -26.702  23.028  1.00  0.00    -0.544 OA
ENDBRANCH   2   7
ENDBRANCH   1   2
BRANCH   1  10
ATOM     10  C   UNL     1     186.174 -28.747  21.817  1.00  0.00     0.041 A 
ATOM     11  C   UNL     1     185.727 -29.824  21.085  1.00  0.00     0.134 A 
ATOM     12  N   UNL     1     185.587 -28.776  23.024  1.00  0.00    -0.348 N 
ATOM     13  N   UNL     1     184.860 -30.536  21.832  1.00  0.00    -0.245 NA
ATOM     14  C   UNL     1     184.801 -29.868  23.004  1.00  0.00     0.196 A 
ATOM     15  H   UNL     1     185.705 -28.097  23.807  1.00  0.00     0.167 HD
ENDBRANCH   1  10
TORSDOF 4
ENDMDL
MODEL 3
REMARK VINA RESULT:    -4.203      2.837      4.013
REMARK INTER + INTRA:          -5.254
REMARK INTER:                  -5.089
REMARK INTRA:                  -0.166
REMARK UNBOUND:                -0.191
REMARK SMILES [NH3+][C@@H](Cc1cnc[nH]1)C(=O)[O-]
REMARK SMILES IDX 3 1 2 2 1 3 9 7 10 8 11 9 4 10 5 11 8 12 6 13 7 14
REMARK H PARENT 1 4 1 5 1 6 8 15
REMARK Flexibility Score: inf
ROOT
ATOM      1  C   UNL     1     180.923 -23.139  23.968  1.00  0.00     0.127 C 
ENDROOT
BRANCH   1   2
ATOM      2  C   UNL     1     181.353 -22.042  22.970  1.00  0.00     0.233 C 
BRANCH   2   3
ATOM      3  N   UNL     1     181.620 -22.593  21.634  1.00  0.00    -0.350 N 
ATOM      4  H   UNL     1     181.092 -22.072  20.897  1.00  0.00     0.345 HD
ATOM      5  H   UNL     1     181.333 -23.599  21.607  1.00  0.00     0.345 HD
ATOM      6  H   UNL     1     182.643 -22.539  21.426  1.00  0.00     0.345 HD
ENDBRANCH   2   3
BRANCH   2   7
ATOM      7  C   UNL     1     182.533 -21.258  23.488  1.00  0.00     0.099 C 
ATOM      8  O   UNL     1     183.598 -21.840  23.825  1.00  0.00    -0.544 OA
ATOM      9  O   UNL     1     182.428 -19.881  23.648  1.00  0.00    -0.544 OA
ENDBRANCH   2   7
ENDBRANCH   1   2
BRANCH   1  10
ATOM     10  C   UNL     1     180.415 -22.591  25.271  1.00  0.00     0.041 A 
ATOM     11  C   UNL     1     179.596 -21.497  25.437  1.00  0.00     0.134 A 
ATOM     12  N   UNL     1     180.731 -23.079  26.481  1.00  0.00    -0.348 N 
ATOM     13  N   UNL     1     179.391 -21.296  26.755  1.00  0.00    -0.245 NA
ATOM     14  C   UNL     1     180.096 -22.278  27.357  1.00  0.00     0.196 A 
ATOM     15  H   UNL     1     181.342 -23.897  26.700  1.00  0.00     0.167 HD
ENDBRANCH   1  10
TORSDOF 4
ENDMDL
MODEL 4
REMARK VINA RESULT:    -4.185      2.367      2.992
REMARK INTER + INTRA:          -5.232
REMARK INTER:                  -5.061
REMARK INTRA:                  -0.171
REMARK UNBOUND:                -0.191
REMARK SMILES [NH3+][C@@H](Cc1cnc[nH]1)C(=O)[O-]
REMARK SMILES IDX 3 1 2 2 1 3 9 7 10 8 11 9 4 10 5 11 8 12 6 13 7 14
REMARK H PARENT 1 4 1 5 1 6 8 15
REMARK Flexibility Score: inf
ROOT
ATOM      1  C   UNL     1     180.611 -22.999  24.463  1.00  0.00     0.127 C 
ENDROOT
BRANCH   1   2
ATOM      2  C   UNL     1     179.452 -22.685  25.434  1.00  0.00     0.233 C 
BRANCH   2   3
ATOM      3  N   UNL     1     178.176 -22.514  24.726  1.00  0.00    -0.350 N 
ATOM      4  H   UNL     1     178.298 -22.624  23.694  1.00  0.00     0.345 HD
ATOM      5  H   UNL     1     177.793 -21.559  24.922  1.00  0.00     0.345 HD
ATOM      6  H   UNL     1     177.484 -23.219  25.067  1.00  0.00     0.345 HD
ENDBRANCH   2   3
BRANCH   2   7
ATOM      7  C   UNL     1     179.768 -21.491  26.300  1.00  0.00     0.099 C 
ATOM      8  O   UNL     1     180.530 -21.599  27.297  1.00  0.00    -0.544 OA
ATOM      9  O   UNL     1     179.169 -20.267  26.029  1.00  0.00    -0.544 OA
ENDBRANCH   2   7
ENDBRANCH   1   2
BRANCH   1  10
ATOM     10  C   UNL     1     181.290 -21.769  23.931  1.00  0.00     0.041 A 
ATOM     11  C   UNL     1     182.606 -21.412  24.120  1.00  0.00     0.134 A 
ATOM     12  N   UNL     1     180.682 -20.809  23.217  1.00  0.00    -0.348 N 
ATOM     13  N   UNL     1     182.831 -20.225  23.521  1.00  0.00    -0.245 NA
ATOM     14  C   UNL     1     181.638 -19.890  22.983  1.00  0.00     0.196 A 
ATOM     15  H   UNL     1     179.684 -20.774  22.914  1.00  0.00     0.167 HD
ENDBRANCH   1  10
TORSDOF 4
ENDMDL
MODEL 5
REMARK VINA RESULT:    -4.181      2.779      4.012
REMARK INTER + INTRA:          -5.227
REMARK INTER:                  -5.056
REMARK INTRA:                  -0.171
REMARK UNBOUND:                -0.191
REMARK SMILES [NH3+][C@@H](Cc1cnc[nH]1)C(=O)[O-]
REMARK SMILES IDX 3 1 2 2 1 3 9 7 10 8 11 9 4 10 5 11 8 12 6 13 7 14
REMARK H PARENT 1 4 1 5 1 6 8 15
REMARK Flexibility Score: inf
ROOT
ATOM      1  C   UNL     1     179.849 -22.725  25.002  1.00  0.00     0.127 C 
ENDROOT
BRANCH   1   2
ATOM      2  C   UNL     1     180.357 -22.314  26.402  1.00  0.00     0.233 C 
BRANCH   2   3
ATOM      3  N   UNL     1     180.392 -23.455  27.327  1.00  0.00    -0.350 N 
ATOM      4  H   UNL     1     179.877 -23.243  28.211  1.00  0.00     0.345 HD
ATOM      5  H   UNL     1     181.387 -23.684  27.562  1.00  0.00     0.345 HD
ATOM      6  H   UNL     1     179.963 -24.293  26.873  1.00  0.00     0.345 HD
ENDBRANCH   2   3
BRANCH   2   7
ATOM      7  C   UNL     1     179.551 -21.171  26.966  1.00  0.00     0.099 C 
ATOM      8  O   UNL     1     179.390 -21.047  28.210  1.00  0.00    -0.544 OA
ATOM      9  O   UNL     1     178.933 -20.273  26.105  1.00  0.00    -0.544 OA
ENDBRANCH   2   7
ENDBRANCH   1   2
BRANCH   1  10
ATOM     10  C   UNL     1     180.797 -22.362  23.895  1.00  0.00     0.041 A 
ATOM     11  C   UNL     1     181.469 -21.170  23.748  1.00  0.00     0.134 A 
ATOM     12  N   UNL     1     181.094 -23.154  22.853  1.00  0.00    -0.348 N 
ATOM     13  N   UNL     1     182.195 -21.210  22.613  1.00  0.00    -0.245 NA
ATOM     14  C   UNL     1     181.941 -22.431  22.096  1.00  0.00     0.196 A 
ATOM     15  H   UNL     1     180.741 -24.117  22.662  1.00  0.00     0.167 HD
ENDBRANCH   1  10
TORSDOF 4
ENDMDL
MODEL 6
REMARK VINA RESULT:    -4.159      3.121      4.240
REMARK INTER + INTRA:          -5.201
REMARK INTER:                  -4.922
REMARK INTRA:                  -0.279
REMARK UNBOUND:                -0.191
REMARK SMILES [NH3+][C@@H](Cc1cnc[nH]1)C(=O)[O-]
REMARK SMILES IDX 3 1 2 2 1 3 9 7 10 8 11 9 4 10 5 11 8 12 6 13 7 14
REMARK H PARENT 1 4 1 5 1 6 8 15
REMARK Flexibility Score: inf
ROOT
ATOM      1  C   UNL     1     179.713 -21.448  24.505  1.00  0.00     0.127 C 
ENDROOT
BRANCH   1   2
ATOM      2  C   UNL     1     181.065 -21.352  23.766  1.00  0.00     0.233 C 
BRANCH   2   3
ATOM      3  N   UNL     1     181.129 -20.171  22.894  1.00  0.00    -0.350 N 
ATOM      4  H   UNL     1     181.885 -20.268  22.178  1.00  0.00     0.345 HD
ATOM      5  H   UNL     1     181.318 -19.319  23.472  1.00  0.00     0.345 HD
ATOM      6  H   UNL     1     180.213 -20.039  22.408  1.00  0.00     0.345 HD
ENDBRANCH   2   3
BRANCH   2   7
ATOM      7  C   UNL     1     181.367 -22.618  23.003  1.00  0.00     0.099 C 
ATOM      8  O   UNL     1     182.009 -22.581  21.919  1.00  0.00    -0.544 OA
ATOM      9  O   UNL     1     180.887 -23.835  23.471  1.00  0.00    -0.544 OA
ENDBRANCH   2   7
ENDBRANCH   1   2
BRANCH   1  10
ATOM     10  C   UNL     1     179.849 -21.868  25.941  1.00  0.00     0.041 A 
ATOM     11  C   UNL     1     179.711 -21.061  27.048  1.00  0.00     0.134 A 
ATOM     12  N   UNL     1     180.172 -23.105  26.348  1.00  0.00    -0.348 N 
ATOM     13  N   UNL     1     179.943 -21.791  28.157  1.00  0.00    -0.245 NA
ATOM     14  C   UNL     1     180.220 -23.029  27.691  1.00  0.00     0.196 A 
ATOM     15  H   UNL     1     180.355 -23.945  25.756  1.00  0.00     0.167 HD
ENDBRANCH   1  10
TORSDOF 4
ENDMDL
MODEL 7
REMARK VINA RESULT:    -3.992      2.622      2.888
REMARK INTER + INTRA:          -5.000
REMARK INTER:                  -4.856
REMARK INTRA:                  -0.144
REMARK UNBOUND:                -0.191
REMARK SMILES [NH3+][C@@H](Cc1cnc[nH]1)C(=O)[O-]
REMARK SMILES IDX 3 1 2 2 1 3 9 7 10 8 11 9 4 10 5 11 8 12 6 13 7 14
REMARK H PARENT 1 4 1 5 1 6 8 15
REMARK Flexibility Score: inf
ROOT
ATOM      1  C   UNL     1     179.639 -20.559  24.548  1.00  0.00     0.127 C 
ENDROOT
BRANCH   1   2
ATOM      2  C   UNL     1     180.939 -21.224  24.046  1.00  0.00     0.233 C 
BRANCH   2   3
ATOM      3  N   UNL     1     181.141 -21.013  22.606  1.00  0.00    -0.350 N 
ATOM      4  H   UNL     1     181.015 -20.008  22.349  1.00  0.00     0.345 HD
ATOM      5  H   UNL     1     180.451 -21.589  22.068  1.00  0.00     0.345 HD
ATOM      6  H   UNL     1     182.103 -21.319  22.335  1.00  0.00     0.345 HD
ENDBRANCH   2   3
BRANCH   2   7
ATOM      7  C   UNL     1     180.979 -22.690  24.400  1.00  0.00     0.099 C 
ATOM      8  O   UNL     1     180.795 -23.572  23.519  1.00  0.00    -0.544 OA
ATOM      9  O   UNL     1     181.167 -23.075  25.722  1.00  0.00    -0.544 OA
ENDBRANCH   2   7
ENDBRANCH   1   2
BRANCH   1  10
ATOM     10  C   UNL     1     179.874 -19.255  25.256  1.00  0.00     0.041 A 
ATOM     11  C   UNL     1     181.094 -18.696  25.563  1.00  0.00     0.134 A 
ATOM     12  N   UNL     1     178.905 -18.459  25.734  1.00  0.00    -0.348 N 
ATOM     13  N   UNL     1     180.895 -17.543  26.232  1.00  0.00    -0.245 NA
ATOM     14  C   UNL     1     179.552 -17.432  26.317  1.00  0.00     0.196 A 
ATOM     15  H   UNL     1     177.873 -18.604  25.676  1.00  0.00     0.167 HD
ENDBRANCH   1  10
TORSDOF 4
ENDMDL
MODEL 8
REMARK VINA RESULT:    -3.882      2.391      4.484
REMARK INTER + INTRA:          -4.868
REMARK INTER:                  -4.581
REMARK INTRA:                  -0.287
REMARK UNBOUND:                -0.191
REMARK SMILES [NH3+][C@@H](Cc1cnc[nH]1)C(=O)[O-]
REMARK SMILES IDX 3 1 2 2 1 3 9 7 10 8 11 9 4 10 5 11 8 12 6 13 7 14
REMARK H PARENT 1 4 1 5 1 6 8 15
REMARK Flexibility Score: inf
ROOT
ATOM      1  C   UNL     1     181.609 -19.881  23.220  1.00  0.00     0.127 C 
ENDROOT
BRANCH   1   2
ATOM      2  C   UNL     1     182.596 -19.233  24.215  1.00  0.00     0.233 C 
BRANCH   2   3
ATOM      3  N   UNL     1     182.515 -17.767  24.190  1.00  0.00    -0.350 N 
ATOM      4  H   UNL     1     181.798 -17.415  24.864  1.00  0.00     0.345 HD
ATOM      5  H   UNL     1     182.258 -17.447  23.227  1.00  0.00     0.345 HD
ATOM      6  H   UNL     1     183.445 -17.356  24.434  1.00  0.00     0.345 HD
ENDBRANCH   2   3
BRANCH   2   7
ATOM      7  C   UNL     1     184.007 -19.711  23.981  1.00  0.00     0.099 C 
ATOM      8  O   UNL     1     184.941 -18.891  23.775  1.00  0.00    -0.544 OA
ATOM      9  O   UNL     1     184.275 -21.075  23.939  1.00  0.00    -0.544 OA
ENDBRANCH   2   7
ENDBRANCH   1   2
BRANCH   1  10
ATOM     10  C   UNL     1     180.970 -21.134  23.747  1.00  0.00     0.041 A 
ATOM     11  C   UNL     1     179.823 -21.214  24.503  1.00  0.00     0.134 A 
ATOM     12  N   UNL     1     181.464 -22.371  23.584  1.00  0.00    -0.348 N 
ATOM     13  N   UNL     1     179.589 -22.505  24.815  1.00  0.00    -0.245 NA
ATOM     14  C   UNL     1     180.608 -23.178  24.238  1.00  0.00     0.196 A 
ATOM     15  H   UNL     1     182.329 -22.651  23.069  1.00  0.00     0.167 HD
ENDBRANCH   1  10
TORSDOF 4
ENDMDL
MODEL 9
REMARK VINA RESULT:    -3.873      2.827      4.380
REMARK INTER + INTRA:          -4.857
REMARK INTER:                  -4.690
REMARK INTRA:                  -0.167
REMARK UNBOUND:                -0.191
REMARK SMILES [NH3+][C@@H](Cc1cnc[nH]1)C(=O)[O-]
REMARK SMILES IDX 3 1 2 2 1 3 9 7 10 8 11 9 4 10 5 11 8 12 6 13 7 14
REMARK H PARENT 1 4 1 5 1 6 8 15
REMARK Flexibility Score: inf
ROOT
ATOM      1  C   UNL     1     183.146 -21.981  25.705  1.00  0.00     0.127 C 
ENDROOT
BRANCH   1   2
ATOM      2  C   UNL     1     183.876 -21.669  24.380  1.00  0.00     0.233 C 
BRANCH   2   3
ATOM      3  N   UNL     1     185.336 -21.702  24.540  1.00  0.00    -0.350 N 
ATOM      4  H   UNL     1     185.782 -22.322  23.827  1.00  0.00     0.345 HD
ATOM      5  H   UNL     1     185.576 -22.057  25.495  1.00  0.00     0.345 HD
ATOM      6  H   UNL     1     185.725 -20.736  24.444  1.00  0.00     0.345 HD
ENDBRANCH   2   3
BRANCH   2   7
ATOM      7  C   UNL     1     183.415 -20.359  23.793  1.00  0.00     0.099 C 
ATOM      8  O   UNL     1     183.779 -19.262  24.294  1.00  0.00    -0.544 OA
ATOM      9  O   UNL     1     182.534 -20.358  22.718  1.00  0.00    -0.544 OA
ENDBRANCH   2   7
ENDBRANCH   1   2
BRANCH   1  10
ATOM     10  C   UNL     1     181.652 -22.044  25.560  1.00  0.00     0.041 A 
ATOM     11  C   UNL     1     180.746 -21.099  25.984  1.00  0.00     0.134 A 
ATOM     12  N   UNL     1     180.979 -23.073  25.021  1.00  0.00    -0.348 N 
ATOM     13  N   UNL     1     179.498 -21.530  25.709  1.00  0.00    -0.245 NA
ATOM     14  C   UNL     1     179.681 -22.734  25.124  1.00  0.00     0.196 A 
ATOM     15  H   UNL     1     181.373 -23.951  24.617  1.00  0.00     0.167 HD
ENDBRANCH   1  10
TORSDOF 4
ENDMDL
