MODEL 1
REMARK VINA RESULT:    -3.067      0.000      0.000
REMARK INTER + INTRA:          -3.067
REMARK INTER:                  -3.067
REMARK INTRA:                   0.000
REMARK UNBOUND:                 0.000
REMARK SMILES CC(=O)[O-]
REMARK SMILES IDX 1 1 2 2 3 3 4 4
REMARK H PARENT
REMARK Flexibility Score: inf
ROOT
ATOM      1  C   UNL     1      26.209 -11.267  34.054  1.00  0.00     0.063 C 
ATOM      2  C   UNL     1      27.418 -11.560  33.232  1.00  0.00     0.038 C 
ATOM      3  O   UNL     1      27.329 -12.311  32.225  1.00  0.00    -0.550 OA
ATOM      4  O   UNL     1      28.654 -11.049  33.604  1.00  0.00    -0.550 OA
ENDROOT
TORSDOF 0
ENDMDL
MODEL 2
REMARK VINA RESULT:    -3.046      1.027      1.948
REMARK INTER + INTRA:          -3.046
REMARK INTER:                  -3.046
REMARK INTRA:                   0.000
REMARK UNBOUND:                 0.000
REMARK SMILES CC(=O)[O-]
REMARK SMILES IDX 1 1 2 2 3 3 4 4
REMARK H PARENT
REMARK Flexibility Score: inf
ROOT
ATOM      1  C   UNL     1      26.076 -11.227  33.989  1.00  0.00     0.063 C 
ATOM      2  C   UNL     1      26.614 -11.889  32.766  1.00  0.00     0.038 C 
ATOM      3  O   UNL     1      27.816 -11.718  32.433  1.00  0.00    -0.550 OA
ATOM      4  O   UNL     1      25.778 -12.654  31.963  1.00  0.00    -0.550 OA
ENDROOT
TORSDOF 0
ENDMDL
MODEL 3
REMARK VINA RESULT:    -2.970      1.460      2.239
REMARK INTER + INTRA:          -2.970
REMARK INTER:                  -2.970
REMARK INTRA:                   0.000
REMARK UNBOUND:                 0.000
REMARK SMILES CC(=O)[O-]
REMARK SMILES IDX 1 1 2 2 3 3 4 4
REMARK H PARENT
REMARK Flexibility Score: inf
ROOT
ATOM      1  C   UNL     1      28.512 -11.097  33.416  1.00  0.00     0.063 C 
ATOM      2  C   UNL     1      27.093 -11.551  33.489  1.00  0.00     0.038 C 
ATOM      3  O   UNL     1      26.516 -11.643  34.603  1.00  0.00    -0.550 OA
ATOM      4  O   UNL     1      26.421 -11.925  32.331  1.00  0.00    -0.550 OA
ENDROOT
TORSDOF 0
ENDMDL
MODEL 4
REMARK VINA RESULT:    -2.414     11.670     12.251
REMARK INTER + INTRA:          -2.414
REMARK INTER:                  -2.414
REMARK INTRA:                   0.000
REMARK UNBOUND:                 0.000
REMARK SMILES CC(=O)[O-]
REMARK SMILES IDX 1 1 2 2 3 3 4 4
REMARK H PARENT
REMARK Flexibility Score: inf
ROOT
ATOM      1  C   UNL     1      19.843 -20.509  32.134  1.00  0.00     0.063 C 
ATOM      2  C   UNL     1      20.517 -21.479  33.044  1.00  0.00     0.038 C 
ATOM      3  O   UNL     1      21.747 -21.365  33.287  1.00  0.00    -0.550 OA
ATOM      4  O   UNL     1      19.802 -22.541  33.583  1.00  0.00    -0.550 OA
ENDROOT
TORSDOF 0
ENDMDL
MODEL 5
REMARK VINA RESULT:    -2.405     11.639     12.144
REMARK INTER + INTRA:          -2.405
REMARK INTER:                  -2.405
REMARK INTRA:                   0.000
REMARK UNBOUND:                 0.000
REMARK SMILES CC(=O)[O-]
REMARK SMILES IDX 1 1 2 2 3 3 4 4
REMARK H PARENT
REMARK Flexibility Score: inf
ROOT
ATOM      1  C   UNL     1      19.851 -20.506  32.117  1.00  0.00     0.063 C 
ATOM      2  C   UNL     1      20.511 -21.509  33.001  1.00  0.00     0.038 C 
ATOM      3  O   UNL     1      19.831 -22.420  33.539  1.00  0.00    -0.550 OA
ATOM      4  O   UNL     1      21.870 -21.409  33.275  1.00  0.00    -0.550 OA
ENDROOT
TORSDOF 0
ENDMDL
MODEL 6
REMARK VINA RESULT:    -2.357      9.858     10.527
REMARK INTER + INTRA:          -2.357
REMARK INTER:                  -2.357
REMARK INTRA:                   0.000
REMARK UNBOUND:                 0.000
REMARK SMILES CC(=O)[O-]
REMARK SMILES IDX 1 1 2 2 3 3 4 4
REMARK H PARENT
REMARK Flexibility Score: inf
ROOT
ATOM      1  C   UNL     1      18.044 -14.389  36.964  1.00  0.00     0.063 C 
ATOM      2  C   UNL     1      17.626 -13.946  35.603  1.00  0.00     0.038 C 
ATOM      3  O   UNL     1      18.436 -13.328  34.864  1.00  0.00    -0.550 OA
ATOM      4  O   UNL     1      16.326 -14.168  35.167  1.00  0.00    -0.550 OA
ENDROOT
TORSDOF 0
ENDMDL
MODEL 7
REMARK VINA RESULT:    -2.343     10.893     11.195
REMARK INTER + INTRA:          -2.343
REMARK INTER:                  -2.343
REMARK INTRA:                   0.000
REMARK UNBOUND:                 0.000
REMARK SMILES CC(=O)[O-]
REMARK SMILES IDX 1 1 2 2 3 3 4 4
REMARK H PARENT
REMARK Flexibility Score: inf
ROOT
ATOM      1  C   UNL     1      20.118 -21.158  32.937  1.00  0.00     0.063 C 
ATOM      2  C   UNL     1      20.998 -20.534  31.908  1.00  0.00     0.038 C 
ATOM      3  O   UNL     1      20.499 -19.822  30.998  1.00  0.00    -0.550 OA
ATOM      4  O   UNL     1      22.366 -20.779  31.919  1.00  0.00    -0.550 OA
ENDROOT
TORSDOF 0
ENDMDL
MODEL 8
REMARK VINA RESULT:    -2.338      9.854     10.447
REMARK INTER + INTRA:          -2.338
REMARK INTER:                  -2.338
REMARK INTRA:                   0.000
REMARK UNBOUND:                 0.000
REMARK SMILES CC(=O)[O-]
REMARK SMILES IDX 1 1 2 2 3 3 4 4
REMARK H PARENT
REMARK Flexibility Score: inf
ROOT
ATOM      1  C   UNL     1      17.890 -14.405  36.985  1.00  0.00     0.063 C 
ATOM      2  C   UNL     1      17.562 -13.996  35.590  1.00  0.00     0.038 C 
ATOM      3  O   UNL     1      16.436 -14.273  35.099  1.00  0.00    -0.550 OA
ATOM      4  O   UNL     1      18.516 -13.355  34.809  1.00  0.00    -0.550 OA
ENDROOT
TORSDOF 0
ENDMDL
MODEL 9
REMARK VINA RESULT:    -2.304     11.243     11.712
REMARK INTER + INTRA:          -2.304
REMARK INTER:                  -2.304
REMARK INTRA:                   0.000
REMARK UNBOUND:                 0.000
REMARK SMILES CC(=O)[O-]
REMARK SMILES IDX 1 1 2 2 3 3 4 4
REMARK H PARENT
REMARK Flexibility Score: inf
ROOT
ATOM      1  C   UNL     1      22.855 -21.003  32.194  1.00  0.00     0.063 C 
ATOM      2  C   UNL     1      21.819 -21.687  33.021  1.00  0.00     0.038 C 
ATOM      3  O   UNL     1      21.977 -22.889  33.361  1.00  0.00    -0.550 OA
ATOM      4  O   UNL     1      20.654 -21.017  33.373  1.00  0.00    -0.550 OA
ENDROOT
TORSDOF 0
ENDMDL
