MODEL 1
REMARK VINA RESULT:    -1.761      0.000      0.000
REMARK INTER + INTRA:          -2.125
REMARK INTER:                  -2.122
REMARK INTRA:                  -0.003
REMARK UNBOUND:                -0.003
REMARK SMILES OCC(O)CO
REMARK SMILES IDX 3 1 5 2 6 3 2 5 1 6 4 8
REMARK H PARENT 6 4 1 7 4 9
REMARK Flexibility Score: inf
ROOT
ATOM      1  C   UNL     1      -3.265   4.141 -17.282  1.00  0.00     0.165 C 
ENDROOT
BRANCH   1   2
ATOM      2  C   UNL     1      -2.943   5.386 -18.125  1.00  0.00     0.190 C 
BRANCH   2   3
ATOM      3  O   UNL     1      -1.704   5.937 -17.765  1.00  0.00    -0.394 OA
ATOM      4  H   UNL     1      -1.008   5.299 -18.073  1.00  0.00     0.210 HD
ENDBRANCH   2   3
ENDBRANCH   1   2
BRANCH   1   5
ATOM      5  C   UNL     1      -4.718   4.164 -16.787  1.00  0.00     0.190 C 
BRANCH   5   6
ATOM      6  O   UNL     1      -4.759   4.164 -15.386  1.00  0.00    -0.394 OA
ATOM      7  H   UNL     1      -5.281   3.364 -15.117  1.00  0.00     0.210 HD
ENDBRANCH   5   6
ENDBRANCH   1   5
BRANCH   1   8
ATOM      8  O   UNL     1      -3.048   2.975 -18.034  1.00  0.00    -0.388 OA
ATOM      9  H   UNL     1      -3.213   2.207 -17.425  1.00  0.00     0.211 HD
ENDBRANCH   1   8
TORSDOF 5
ENDMDL
MODEL 2
REMARK VINA RESULT:    -1.552      0.660      2.572
REMARK INTER + INTRA:          -1.873
REMARK INTER:                  -1.651
REMARK INTRA:                  -0.222
REMARK UNBOUND:                -0.003
REMARK SMILES OCC(O)CO
REMARK SMILES IDX 3 1 5 2 6 3 2 5 1 6 4 8
REMARK H PARENT 6 4 1 7 4 9
REMARK Flexibility Score: inf
ROOT
ATOM      1  C   UNL     1      -3.841   3.972 -18.088  1.00  0.00     0.165 C 
ENDROOT
BRANCH   1   2
ATOM      2  C   UNL     1      -4.984   4.072 -17.065  1.00  0.00     0.190 C 
BRANCH   2   3
ATOM      3  O   UNL     1      -4.487   4.165 -15.756  1.00  0.00    -0.394 OA
ATOM      4  H   UNL     1      -5.158   3.731 -15.165  1.00  0.00     0.210 HD
ENDBRANCH   2   3
ENDBRANCH   1   2
BRANCH   1   5
ATOM      5  C   UNL     1      -3.011   5.263 -18.125  1.00  0.00     0.190 C 
BRANCH   5   6
ATOM      6  O   UNL     1      -2.164   5.334 -17.011  1.00  0.00    -0.394 OA
ATOM      7  H   UNL     1      -2.082   6.294 -16.775  1.00  0.00     0.210 HD
ENDBRANCH   5   6
ENDBRANCH   1   5
BRANCH   1   8
ATOM      8  O   UNL     1      -3.002   2.889 -17.777  1.00  0.00    -0.388 OA
ATOM      9  H   UNL     1      -3.151   2.201 -18.478  1.00  0.00     0.211 HD
ENDBRANCH   1   8
TORSDOF 5
ENDMDL
MODEL 3
REMARK VINA RESULT:    -1.305     11.730     12.351
REMARK INTER + INTRA:          -1.575
REMARK INTER:                  -1.546
REMARK INTRA:                  -0.029
REMARK UNBOUND:                -0.003
REMARK SMILES OCC(O)CO
REMARK SMILES IDX 3 1 5 2 6 3 2 5 1 6 4 8
REMARK H PARENT 6 4 1 7 4 9
REMARK Flexibility Score: inf
ROOT
ATOM      1  C   UNL     1       1.738  -0.038  -7.194  1.00  0.00     0.165 C 
ENDROOT
BRANCH   1   2
ATOM      2  C   UNL     1       2.062   0.096  -8.691  1.00  0.00     0.190 C 
BRANCH   2   3
ATOM      3  O   UNL     1       1.505  -0.961  -9.428  1.00  0.00    -0.394 OA
ATOM      4  H   UNL     1       0.690  -1.250  -8.940  1.00  0.00     0.210 HD
ENDBRANCH   2   3
ENDBRANCH   1   2
BRANCH   1   5
ATOM      5  C   UNL     1       3.008  -0.296  -6.370  1.00  0.00     0.190 C 
BRANCH   5   6
ATOM      6  O   UNL     1       4.151  -0.003  -7.127  1.00  0.00    -0.394 OA
ATOM      7  H   UNL     1       4.151   0.979  -7.273  1.00  0.00     0.210 HD
ENDBRANCH   5   6
ENDBRANCH   1   5
BRANCH   1   8
ATOM      8  O   UNL     1       1.109   1.128  -6.726  1.00  0.00    -0.388 OA
ATOM      9  H   UNL     1       1.427   1.270  -5.796  1.00  0.00     0.211 HD
ENDBRANCH   1   8
TORSDOF 5
ENDMDL
MODEL 4
REMARK VINA RESULT:    -0.906     10.540     11.020
REMARK INTER + INTRA:          -1.094
REMARK INTER:                  -1.092
REMARK INTRA:                  -0.003
REMARK UNBOUND:                -0.003
REMARK SMILES OCC(O)CO
REMARK SMILES IDX 3 1 5 2 6 3 2 5 1 6 4 8
REMARK H PARENT 6 4 1 7 4 9
REMARK Flexibility Score: inf
ROOT
ATOM      1  C   UNL     1      -2.198  -4.129 -11.601  1.00  0.00     0.165 C 
ENDROOT
BRANCH   1   2
ATOM      2  C   UNL     1      -1.283  -3.038 -11.021  1.00  0.00     0.190 C 
BRANCH   2   3
ATOM      3  O   UNL     1      -1.380  -2.985  -9.622  1.00  0.00    -0.394 OA
ATOM      4  H   UNL     1      -0.453  -2.911  -9.274  1.00  0.00     0.210 HD
ENDBRANCH   2   3
ENDBRANCH   1   2
BRANCH   1   5
ATOM      5  C   UNL     1      -1.498  -4.901 -12.729  1.00  0.00     0.190 C 
BRANCH   5   6
ATOM      6  O   UNL     1      -1.523  -6.278 -12.469  1.00  0.00    -0.394 OA
ATOM      7  H   UNL     1      -1.270  -6.731 -13.315  1.00  0.00     0.210 HD
ENDBRANCH   5   6
ENDBRANCH   1   5
BRANCH   1   8
ATOM      8  O   UNL     1      -2.584  -5.028 -10.593  1.00  0.00    -0.388 OA
ATOM      9  H   UNL     1      -1.753  -5.306 -10.124  1.00  0.00     0.211 HD
ENDBRANCH   1   8
TORSDOF 5
ENDMDL
MODEL 5
REMARK VINA RESULT:    -0.845     10.316     11.087
REMARK INTER + INTRA:          -1.022
REMARK INTER:                  -1.005
REMARK INTRA:                  -0.017
REMARK UNBOUND:                -0.003
REMARK SMILES OCC(O)CO
REMARK SMILES IDX 3 1 5 2 6 3 2 5 1 6 4 8
REMARK H PARENT 6 4 1 7 4 9
REMARK Flexibility Score: inf
ROOT
ATOM      1  C   UNL     1      -2.132  -4.179 -11.883  1.00  0.00     0.165 C 
ENDROOT
BRANCH   1   2
ATOM      2  C   UNL     1      -2.253  -5.457 -11.036  1.00  0.00     0.190 C 
BRANCH   2   3
ATOM      3  O   UNL     1      -1.811  -6.582 -11.748  1.00  0.00    -0.394 OA
ATOM      4  H   UNL     1      -1.030  -6.289 -12.287  1.00  0.00     0.210 HD
ENDBRANCH   2   3
ENDBRANCH   1   2
BRANCH   1   5
ATOM      5  C   UNL     1      -1.414  -3.064 -11.110  1.00  0.00     0.190 C 
BRANCH   5   6
ATOM      6  O   UNL     1      -1.448  -3.322  -9.733  1.00  0.00    -0.394 OA
ATOM      7  H   UNL     1      -1.857  -2.526  -9.304  1.00  0.00     0.210 HD
ENDBRANCH   5   6
ENDBRANCH   1   5
BRANCH   1   8
ATOM      8  O   UNL     1      -1.432  -4.447 -13.071  1.00  0.00    -0.388 OA
ATOM      9  H   UNL     1      -1.442  -5.433 -13.193  1.00  0.00     0.211 HD
ENDBRANCH   1   8
TORSDOF 5
ENDMDL
MODEL 6
REMARK VINA RESULT:    -0.716     11.879     12.512
REMARK INTER + INTRA:          -0.866
REMARK INTER:                  -0.750
REMARK INTRA:                  -0.116
REMARK UNBOUND:                -0.003
REMARK SMILES OCC(O)CO
REMARK SMILES IDX 3 1 5 2 6 3 2 5 1 6 4 8
REMARK H PARENT 6 4 1 7 4 9
REMARK Flexibility Score: inf
ROOT
ATOM      1  C   UNL     1       1.861   0.644  -7.025  1.00  0.00     0.165 C 
ENDROOT
BRANCH   1   2
ATOM      2  C   UNL     1       2.624  -0.260  -6.044  1.00  0.00     0.190 C 
BRANCH   2   3
ATOM      3  O   UNL     1       3.971  -0.391  -6.416  1.00  0.00    -0.394 OA
ATOM      4  H   UNL     1       4.092   0.148  -7.241  1.00  0.00     0.210 HD
ENDBRANCH   2   3
ENDBRANCH   1   2
BRANCH   1   5
ATOM      5  C   UNL     1       1.574  -0.084  -8.346  1.00  0.00     0.190 C 
BRANCH   5   6
ATOM      6  O   UNL     1       2.539   0.248  -9.308  1.00  0.00    -0.394 OA
ATOM      7  H   UNL     1       3.423   0.159  -8.866  1.00  0.00     0.210 HD
ENDBRANCH   5   6
ENDBRANCH   1   5
BRANCH   1   8
ATOM      8  O   UNL     1       0.649   1.068  -6.455  1.00  0.00    -0.388 OA
ATOM      9  H   UNL     1       0.471   1.980  -6.807  1.00  0.00     0.211 HD
ENDBRANCH   1   8
TORSDOF 5
ENDMDL
MODEL 7
REMARK VINA RESULT:    -0.585     11.856     12.446
REMARK INTER + INTRA:          -0.708
REMARK INTER:                  -0.672
REMARK INTRA:                  -0.036
REMARK UNBOUND:                -0.003
REMARK SMILES OCC(O)CO
REMARK SMILES IDX 3 1 5 2 6 3 2 5 1 6 4 8
REMARK H PARENT 6 4 1 7 4 9
REMARK Flexibility Score: inf
ROOT
ATOM      1  C   UNL     1       2.752  -0.337  -7.144  1.00  0.00     0.165 C 
ENDROOT
BRANCH   1   2
ATOM      2  C   UNL     1       2.089   0.416  -5.978  1.00  0.00     0.190 C 
BRANCH   2   3
ATOM      3  O   UNL     1       1.079   1.275  -6.437  1.00  0.00    -0.394 OA
ATOM      4  H   UNL     1       0.261   1.057  -5.918  1.00  0.00     0.210 HD
ENDBRANCH   2   3
ENDBRANCH   1   2
BRANCH   1   5
ATOM      5  C   UNL     1       2.027  -0.061  -8.469  1.00  0.00     0.190 C 
BRANCH   5   6
ATOM      6  O   UNL     1       2.853   0.666  -9.337  1.00  0.00    -0.394 OA
ATOM      7  H   UNL     1       2.972   0.109 -10.150  1.00  0.00     0.210 HD
ENDBRANCH   5   6
ENDBRANCH   1   5
BRANCH   1   8
ATOM      8  O   UNL     1       4.100   0.041  -7.264  1.00  0.00    -0.388 OA
ATOM      9  H   UNL     1       4.629  -0.799  -7.310  1.00  0.00     0.211 HD
ENDBRANCH   1   8
TORSDOF 5
ENDMDL
MODEL 8
REMARK VINA RESULT:    -0.483     11.175     11.795
REMARK INTER + INTRA:          -0.585
REMARK INTER:                  -0.402
REMARK INTRA:                  -0.184
REMARK UNBOUND:                -0.003
REMARK SMILES OCC(O)CO
REMARK SMILES IDX 3 1 5 2 6 3 2 5 1 6 4 8
REMARK H PARENT 6 4 1 7 4 9
REMARK Flexibility Score: inf
ROOT
ATOM      1  C   UNL     1       1.593   0.069  -8.623  1.00  0.00     0.165 C 
ENDROOT
BRANCH   1   2
ATOM      2  C   UNL     1       1.545  -0.109  -7.096  1.00  0.00     0.190 C 
BRANCH   2   3
ATOM      3  O   UNL     1       1.250   1.103  -6.453  1.00  0.00    -0.394 OA
ATOM      4  H   UNL     1       1.709   1.077  -5.572  1.00  0.00     0.210 HD
ENDBRANCH   2   3
ENDBRANCH   1   2
BRANCH   1   5
ATOM      5  C   UNL     1       3.014   0.401  -9.100  1.00  0.00     0.190 C 
BRANCH   5   6
ATOM      6  O   UNL     1       3.904   0.415  -8.017  1.00  0.00    -0.394 OA
ATOM      7  H   UNL     1       4.345  -0.474  -8.000  1.00  0.00     0.210 HD
ENDBRANCH   5   6
ENDBRANCH   1   5
BRANCH   1   8
ATOM      8  O   UNL     1       1.149  -1.100  -9.263  1.00  0.00    -0.388 OA
ATOM      9  H   UNL     1       1.958  -1.567  -9.600  1.00  0.00     0.211 HD
ENDBRANCH   1   8
TORSDOF 5
ENDMDL
MODEL 9
REMARK VINA RESULT:    -0.460     10.855     11.423
REMARK INTER + INTRA:          -0.558
REMARK INTER:                  -0.545
REMARK INTRA:                  -0.012
REMARK UNBOUND:                -0.003
REMARK SMILES OCC(O)CO
REMARK SMILES IDX 3 1 5 2 6 3 2 5 1 6 4 8
REMARK H PARENT 6 4 1 7 4 9
REMARK Flexibility Score: inf
ROOT
ATOM      1  C   UNL     1       2.340  -0.283  -8.839  1.00  0.00     0.165 C 
ENDROOT
BRANCH   1   2
ATOM      2  C   UNL     1       1.548   0.059  -7.566  1.00  0.00     0.190 C 
BRANCH   2   3
ATOM      3  O   UNL     1       2.354  -0.051  -6.422  1.00  0.00    -0.394 OA
ATOM      4  H   UNL     1       1.993  -0.809  -5.892  1.00  0.00     0.210 HD
ENDBRANCH   2   3
ENDBRANCH   1   2
BRANCH   1   5
ATOM      5  C   UNL     1       1.403  -0.692  -9.985  1.00  0.00     0.190 C 
BRANCH   5   6
ATOM      6  O   UNL     1       0.342  -1.469  -9.497  1.00  0.00    -0.394 OA
ATOM      7  H   UNL     1       0.230  -2.225 -10.129  1.00  0.00     0.210 HD
ENDBRANCH   5   6
ENDBRANCH   1   5
BRANCH   1   8
ATOM      8  O   UNL     1       3.114   0.818  -9.242  1.00  0.00    -0.388 OA
ATOM      9  H   UNL     1       3.757   0.482  -9.921  1.00  0.00     0.211 HD
ENDBRANCH   1   8
TORSDOF 5
ENDMDL
