MODEL 1
REMARK VINA RESULT:    -5.043      0.000      0.000
REMARK INTER + INTRA:          -7.964
REMARK INTER:                  -7.697
REMARK INTRA:                  -0.267
REMARK UNBOUND:                -0.267
REMARK SMILES CCCCCCCCCCC(=O)[O-]
REMARK SMILES IDX 7 1 8 2 9 3 10 4 11 5 12 6 13 7 6 8 5 9 4 10 3 11 2 12 1 13
REMARK H PARENT
REMARK Flexibility Score: inf
ROOT
ATOM      1  C   UNL     1      19.656  28.004  36.876  1.00  0.00     0.000 C 
ENDROOT
BRANCH   1   2
ATOM      2  C   UNL     1      18.183  27.598  36.681  1.00  0.00     0.000 C 
BRANCH   2   3
ATOM      3  C   UNL     1      17.952  26.114  36.328  1.00  0.00     0.006 C 
BRANCH   3   4
ATOM      4  C   UNL     1      19.221  25.247  36.345  1.00  0.00     0.053 C 
BRANCH   4   5
ATOM      5  C   UNL     1      19.516  24.657  35.000  1.00  0.00     0.041 C 
ATOM      6  O   UNL     1      20.704  24.582  34.589  1.00  0.00    -0.550 OA
ATOM      7  O   UNL     1      18.477  24.222  34.188  1.00  0.00    -0.550 OA
ENDBRANCH   4   5
ENDBRANCH   3   4
ENDBRANCH   2   3
ENDBRANCH   1   2
BRANCH   1   8
ATOM      8  C   UNL     1      19.836  29.516  37.092  1.00  0.00     0.000 C 
BRANCH   8   9
ATOM      9  C   UNL     1      21.080  30.072  36.378  1.00  0.00    -0.000 C 
BRANCH   9  10
ATOM     10  C   UNL     1      21.109  31.610  36.340  1.00  0.00    -0.000 C 
BRANCH  10  11
ATOM     11  C   UNL     1      21.926  32.147  35.146  1.00  0.00    -0.000 C 
BRANCH  11  12
ATOM     12  C   UNL     1      21.674  33.634  34.846  1.00  0.00    -0.003 C 
ATOM     13  C   UNL     1      21.159  33.880  33.430  1.00  0.00     0.004 C 
ENDBRANCH  11  12
ENDBRANCH  10  11
ENDBRANCH   9  10
ENDBRANCH   8   9
ENDBRANCH   1   8
TORSDOF 9
ENDMDL
MODEL 2
REMARK VINA RESULT:    -4.981      3.673      7.111
REMARK INTER + INTRA:          -7.869
REMARK INTER:                  -7.395
REMARK INTRA:                  -0.474
REMARK UNBOUND:                -0.267
REMARK SMILES CCCCCCCCCCC(=O)[O-]
REMARK SMILES IDX 7 1 8 2 9 3 10 4 11 5 12 6 13 7 6 8 5 9 4 10 3 11 2 12 1 13
REMARK H PARENT
REMARK Flexibility Score: inf
ROOT
ATOM      1  C   UNL     1      20.653  29.411  36.775  1.00  0.00     0.000 C 
ENDROOT
BRANCH   1   2
ATOM      2  C   UNL     1      19.489  30.370  37.085  1.00  0.00     0.000 C 
BRANCH   2   3
ATOM      3  C   UNL     1      19.821  31.871  36.954  1.00  0.00     0.006 C 
BRANCH   3   4
ATOM      4  C   UNL     1      21.253  32.170  36.483  1.00  0.00     0.053 C 
BRANCH   4   5
ATOM      5  C   UNL     1      21.283  33.212  35.407  1.00  0.00     0.041 C 
ATOM      6  O   UNL     1      20.899  34.386  35.653  1.00  0.00    -0.550 OA
ATOM      7  O   UNL     1      21.703  32.880  34.126  1.00  0.00    -0.550 OA
ENDBRANCH   4   5
ENDBRANCH   3   4
ENDBRANCH   2   3
ENDBRANCH   1   2
BRANCH   1   8
ATOM      8  C   UNL     1      20.223  27.935  36.755  1.00  0.00     0.000 C 
BRANCH   8   9
ATOM      9  C   UNL     1      18.695  27.765  36.695  1.00  0.00    -0.000 C 
BRANCH   9  10
ATOM     10  C   UNL     1      18.269  26.357  36.244  1.00  0.00    -0.000 C 
BRANCH  10  11
ATOM     11  C   UNL     1      19.414  25.330  36.383  1.00  0.00    -0.000 C 
BRANCH  11  12
ATOM     12  C   UNL     1      19.445  24.287  35.254  1.00  0.00    -0.003 C 
ATOM     13  C   UNL     1      18.218  24.350  34.347  1.00  0.00     0.004 C 
ENDBRANCH  11  12
ENDBRANCH  10  11
ENDBRANCH   9  10
ENDBRANCH   8   9
ENDBRANCH   1   8
TORSDOF 9
ENDMDL
MODEL 3
REMARK VINA RESULT:    -4.683      1.564      2.816
REMARK INTER + INTRA:          -7.415
REMARK INTER:                  -7.072
REMARK INTRA:                  -0.343
REMARK UNBOUND:                -0.267
REMARK SMILES CCCCCCCCCCC(=O)[O-]
REMARK SMILES IDX 7 1 8 2 9 3 10 4 11 5 12 6 13 7 6 8 5 9 4 10 3 11 2 12 1 13
REMARK H PARENT
REMARK Flexibility Score: inf
ROOT
ATOM      1  C   UNL     1      20.239  31.085  36.750  1.00  0.00     0.000 C 
ENDROOT
BRANCH   1   2
ATOM      2  C   UNL     1      20.667  29.606  36.753  1.00  0.00     0.000 C 
BRANCH   2   3
ATOM      3  C   UNL     1      19.554  28.601  37.117  1.00  0.00     0.006 C 
BRANCH   3   4
ATOM      4  C   UNL     1      19.625  27.267  36.358  1.00  0.00     0.053 C 
BRANCH   4   5
ATOM      5  C   UNL     1      18.334  26.511  36.431  1.00  0.00     0.041 C 
ATOM      6  O   UNL     1      18.241  25.366  35.915  1.00  0.00    -0.550 OA
ATOM      7  O   UNL     1      17.224  27.083  37.039  1.00  0.00    -0.550 OA
ENDBRANCH   4   5
ENDBRANCH   3   4
ENDBRANCH   2   3
ENDBRANCH   1   2
BRANCH   1   8
ATOM      8  C   UNL     1      21.431  32.052  36.643  1.00  0.00     0.000 C 
BRANCH   8   9
ATOM      9  C   UNL     1      22.056  32.066  35.238  1.00  0.00    -0.000 C 
BRANCH   9  10
ATOM     10  C   UNL     1      21.970  33.445  34.560  1.00  0.00    -0.000 C 
BRANCH  10  11
ATOM     11  C   UNL     1      20.601  34.120  34.789  1.00  0.00    -0.000 C 
BRANCH  11  12
ATOM     12  C   UNL     1      20.104  34.928  33.578  1.00  0.00    -0.003 C 
ATOM     13  C   UNL     1      20.522  34.321  32.241  1.00  0.00     0.004 C 
ENDBRANCH  11  12
ENDBRANCH  10  11
ENDBRANCH   9  10
ENDBRANCH   8   9
ENDBRANCH   1   8
TORSDOF 9
ENDMDL
MODEL 4
REMARK VINA RESULT:    -4.458     15.141     17.455
REMARK INTER + INTRA:          -7.071
REMARK INTER:                  -6.515
REMARK INTRA:                  -0.556
REMARK UNBOUND:                -0.267
REMARK SMILES CCCCCCCCCCC(=O)[O-]
REMARK SMILES IDX 7 1 8 2 9 3 10 4 11 5 12 6 13 7 6 8 5 9 4 10 3 11 2 12 1 13
REMARK H PARENT
REMARK Flexibility Score: inf
ROOT
ATOM      1  C   UNL     1      21.464  22.740  18.796  1.00  0.00     0.000 C 
ENDROOT
BRANCH   1   2
ATOM      2  C   UNL     1      21.209  24.258  18.769  1.00  0.00     0.000 C 
BRANCH   2   3
ATOM      3  C   UNL     1      19.907  24.718  19.458  1.00  0.00     0.006 C 
BRANCH   3   4
ATOM      4  C   UNL     1      19.167  23.614  20.229  1.00  0.00     0.053 C 
BRANCH   4   5
ATOM      5  C   UNL     1      19.405  23.704  21.705  1.00  0.00     0.041 C 
ATOM      6  O   UNL     1      20.449  24.254  22.144  1.00  0.00    -0.550 OA
ATOM      7  O   UNL     1      18.492  23.151  22.593  1.00  0.00    -0.550 OA
ENDBRANCH   4   5
ENDBRANCH   3   4
ENDBRANCH   2   3
ENDBRANCH   1   2
BRANCH   1   8
ATOM      8  C   UNL     1      22.453  22.318  19.896  1.00  0.00     0.000 C 
BRANCH   8   9
ATOM      9  C   UNL     1      21.870  21.250  20.836  1.00  0.00    -0.000 C 
BRANCH   9  10
ATOM     10  C   UNL     1      22.957  20.450  21.576  1.00  0.00    -0.000 C 
BRANCH  10  11
ATOM     11  C   UNL     1      22.756  18.926  21.433  1.00  0.00    -0.000 C 
BRANCH  11  12
ATOM     12  C   UNL     1      24.069  18.145  21.261  1.00  0.00    -0.003 C 
ATOM     13  C   UNL     1      24.874  18.590  20.042  1.00  0.00     0.004 C 
ENDBRANCH  11  12
ENDBRANCH  10  11
ENDBRANCH   9  10
ENDBRANCH   8   9
ENDBRANCH   1   8
TORSDOF 9
ENDMDL
MODEL 5
REMARK VINA RESULT:    -4.409     15.173     17.143
REMARK INTER + INTRA:          -6.996
REMARK INTER:                  -5.673
REMARK INTRA:                  -1.322
REMARK UNBOUND:                -0.267
REMARK SMILES CCCCCCCCCCC(=O)[O-]
REMARK SMILES IDX 7 1 8 2 9 3 10 4 11 5 12 6 13 7 6 8 5 9 4 10 3 11 2 12 1 13
REMARK H PARENT
REMARK Flexibility Score: inf
ROOT
ATOM      1  C   UNL     1      18.116  22.027  18.269  1.00  0.00     0.000 C 
ENDROOT
BRANCH   1   2
ATOM      2  C   UNL     1      18.942  20.938  18.980  1.00  0.00     0.000 C 
BRANCH   2   3
ATOM      3  C   UNL     1      18.887  20.973  20.521  1.00  0.00     0.006 C 
BRANCH   3   4
ATOM      4  C   UNL     1      17.622  21.624  21.101  1.00  0.00     0.053 C 
BRANCH   4   5
ATOM      5  C   UNL     1      17.919  22.433  22.327  1.00  0.00     0.041 C 
ATOM      6  O   UNL     1      17.209  22.302  23.358  1.00  0.00    -0.550 OA
ATOM      7  O   UNL     1      18.956  23.355  22.318  1.00  0.00    -0.550 OA
ENDBRANCH   4   5
ENDBRANCH   3   4
ENDBRANCH   2   3
ENDBRANCH   1   2
BRANCH   1   8
ATOM      8  C   UNL     1      18.978  23.197  17.764  1.00  0.00     0.000 C 
BRANCH   8   9
ATOM      9  C   UNL     1      19.137  24.309  18.815  1.00  0.00    -0.000 C 
BRANCH   9  10
ATOM     10  C   UNL     1      20.584  24.447  19.322  1.00  0.00    -0.000 C 
BRANCH  10  11
ATOM     11  C   UNL     1      21.567  23.568  18.520  1.00  0.00    -0.000 C 
BRANCH  11  12
ATOM     12  C   UNL     1      22.270  22.497  19.371  1.00  0.00    -0.003 C 
ATOM     13  C   UNL     1      22.030  22.671  20.870  1.00  0.00     0.004 C 
ENDBRANCH  11  12
ENDBRANCH  10  11
ENDBRANCH   9  10
ENDBRANCH   8   9
ENDBRANCH   1   8
TORSDOF 9
ENDMDL
MODEL 6
REMARK VINA RESULT:    -4.348     15.456     17.633
REMARK INTER + INTRA:          -6.903
REMARK INTER:                  -5.753
REMARK INTRA:                  -1.151
REMARK UNBOUND:                -0.267
REMARK SMILES CCCCCCCCCCC(=O)[O-]
REMARK SMILES IDX 7 1 8 2 9 3 10 4 11 5 12 6 13 7 6 8 5 9 4 10 3 11 2 12 1 13
REMARK H PARENT
REMARK Flexibility Score: inf
ROOT
ATOM      1  C   UNL     1      22.396  22.735  19.875  1.00  0.00     0.000 C 
ENDROOT
BRANCH   1   2
ATOM      2  C   UNL     1      21.702  21.939  20.995  1.00  0.00     0.000 C 
BRANCH   2   3
ATOM      3  C   UNL     1      20.175  21.783  20.842  1.00  0.00     0.006 C 
BRANCH   3   4
ATOM      4  C   UNL     1      19.349  22.897  21.503  1.00  0.00     0.053 C 
BRANCH   4   5
ATOM      5  C   UNL     1      18.047  22.387  22.041  1.00  0.00     0.041 C 
ATOM      6  O   UNL     1      17.226  21.818  21.274  1.00  0.00    -0.550 OA
ATOM      7  O   UNL     1      17.727  22.570  23.379  1.00  0.00    -0.550 OA
ENDBRANCH   4   5
ENDBRANCH   3   4
ENDBRANCH   2   3
ENDBRANCH   1   2
BRANCH   1   8
ATOM      8  C   UNL     1      21.609  22.718  18.553  1.00  0.00     0.000 C 
BRANCH   8   9
ATOM      9  C   UNL     1      21.034  24.098  18.190  1.00  0.00    -0.000 C 
BRANCH   9  10
ATOM     10  C   UNL     1      19.536  24.046  17.842  1.00  0.00    -0.000 C 
BRANCH  10  11
ATOM     11  C   UNL     1      19.149  22.731  17.131  1.00  0.00    -0.000 C 
BRANCH  11  12
ATOM     12  C   UNL     1      18.019  21.962  17.834  1.00  0.00    -0.003 C 
ATOM     13  C   UNL     1      18.337  20.482  18.035  1.00  0.00     0.004 C 
ENDBRANCH  11  12
ENDBRANCH  10  11
ENDBRANCH   9  10
ENDBRANCH   8   9
ENDBRANCH   1   8
TORSDOF 9
ENDMDL
MODEL 7
REMARK VINA RESULT:    -4.343     15.368     17.289
REMARK INTER + INTRA:          -6.895
REMARK INTER:                  -6.095
REMARK INTRA:                  -0.800
REMARK UNBOUND:                -0.267
REMARK SMILES CCCCCCCCCCC(=O)[O-]
REMARK SMILES IDX 7 1 8 2 9 3 10 4 11 5 12 6 13 7 6 8 5 9 4 10 3 11 2 12 1 13
REMARK H PARENT
REMARK Flexibility Score: inf
ROOT
ATOM      1  C   UNL     1      22.477  22.491  20.108  1.00  0.00     0.000 C 
ENDROOT
BRANCH   1   2
ATOM      2  C   UNL     1      21.967  21.309  20.953  1.00  0.00     0.000 C 
BRANCH   2   3
ATOM      3  C   UNL     1      23.040  20.274  21.349  1.00  0.00     0.006 C 
BRANCH   3   4
ATOM      4  C   UNL     1      22.516  18.838  21.506  1.00  0.00     0.053 C 
BRANCH   4   5
ATOM      5  C   UNL     1      23.537  17.820  21.099  1.00  0.00     0.041 C 
ATOM      6  O   UNL     1      23.223  16.890  20.310  1.00  0.00    -0.550 OA
ATOM      7  O   UNL     1      24.824  17.878  21.617  1.00  0.00    -0.550 OA
ENDBRANCH   4   5
ENDBRANCH   3   4
ENDBRANCH   2   3
ENDBRANCH   1   2
BRANCH   1   8
ATOM      8  C   UNL     1      21.596  22.772  18.880  1.00  0.00     0.000 C 
BRANCH   8   9
ATOM      9  C   UNL     1      21.175  24.248  18.779  1.00  0.00    -0.000 C 
BRANCH   9  10
ATOM     10  C   UNL     1      19.882  24.554  19.556  1.00  0.00    -0.000 C 
BRANCH  10  11
ATOM     11  C   UNL     1      18.901  23.362  19.546  1.00  0.00    -0.000 C 
BRANCH  11  12
ATOM     12  C   UNL     1      18.545  22.846  20.950  1.00  0.00    -0.003 C 
ATOM     13  C   UNL     1      19.294  23.576  22.063  1.00  0.00     0.004 C 
ENDBRANCH  11  12
ENDBRANCH  10  11
ENDBRANCH   9  10
ENDBRANCH   8   9
ENDBRANCH   1   8
TORSDOF 9
ENDMDL
MODEL 8
REMARK VINA RESULT:    -4.333     15.843     17.836
REMARK INTER + INTRA:          -6.881
REMARK INTER:                  -5.677
REMARK INTRA:                  -1.203
REMARK UNBOUND:                -0.267
REMARK SMILES CCCCCCCCCCC(=O)[O-]
REMARK SMILES IDX 7 1 8 2 9 3 10 4 11 5 12 6 13 7 6 8 5 9 4 10 3 11 2 12 1 13
REMARK H PARENT
REMARK Flexibility Score: inf
ROOT
ATOM      1  C   UNL     1      20.149  24.960  19.967  1.00  0.00     0.000 C 
ENDROOT
BRANCH   1   2
ATOM      2  C   UNL     1      19.374  24.062  20.949  1.00  0.00     0.000 C 
BRANCH   2   3
ATOM      3  C   UNL     1      20.035  22.703  21.259  1.00  0.00     0.006 C 
BRANCH   3   4
ATOM      4  C   UNL     1      21.544  22.775  21.539  1.00  0.00     0.053 C 
BRANCH   4   5
ATOM      5  C   UNL     1      22.305  21.727  20.786  1.00  0.00     0.041 C 
ATOM      6  O   UNL     1      22.821  21.999  19.670  1.00  0.00    -0.550 OA
ATOM      7  O   UNL     1      22.416  20.442  21.301  1.00  0.00    -0.550 OA
ENDBRANCH   4   5
ENDBRANCH   3   4
ENDBRANCH   2   3
ENDBRANCH   1   2
BRANCH   1   8
ATOM      8  C   UNL     1      19.685  24.793  18.510  1.00  0.00     0.000 C 
BRANCH   8   9
ATOM      9  C   UNL     1      20.818  24.329  17.579  1.00  0.00    -0.000 C 
BRANCH   9  10
ATOM     10  C   UNL     1      20.629  22.884  17.083  1.00  0.00    -0.000 C 
BRANCH  10  11
ATOM     11  C   UNL     1      19.140  22.479  17.027  1.00  0.00    -0.000 C 
BRANCH  11  12
ATOM     12  C   UNL     1      18.797  21.268  17.910  1.00  0.00    -0.003 C 
ATOM     13  C   UNL     1      17.618  21.524  18.845  1.00  0.00     0.004 C 
ENDBRANCH  11  12
ENDBRANCH  10  11
ENDBRANCH   9  10
ENDBRANCH   8   9
ENDBRANCH   1   8
TORSDOF 9
ENDMDL
MODEL 9
REMARK VINA RESULT:    -4.243     15.901     18.145
REMARK INTER + INTRA:          -6.743
REMARK INTER:                  -5.649
REMARK INTRA:                  -1.094
REMARK UNBOUND:                -0.267
REMARK SMILES CCCCCCCCCCC(=O)[O-]
REMARK SMILES IDX 7 1 8 2 9 3 10 4 11 5 12 6 13 7 6 8 5 9 4 10 3 11 2 12 1 13
REMARK H PARENT
REMARK Flexibility Score: inf
ROOT
ATOM      1  C   UNL     1      21.598  22.736  18.162  1.00  0.00     0.000 C 
ENDROOT
BRANCH   1   2
ATOM      2  C   UNL     1      22.366  22.675  19.496  1.00  0.00     0.000 C 
BRANCH   2   3
ATOM      3  C   UNL     1      21.568  22.107  20.688  1.00  0.00     0.006 C 
BRANCH   3   4
ATOM      4  C   UNL     1      21.178  23.147  21.749  1.00  0.00     0.053 C 
BRANCH   4   5
ATOM      5  C   UNL     1      19.861  23.794  21.445  1.00  0.00     0.041 C 
ATOM      6  O   UNL     1      18.786  23.198  21.718  1.00  0.00    -0.550 OA
ATOM      7  O   UNL     1      19.822  25.038  20.829  1.00  0.00    -0.550 OA
ENDBRANCH   4   5
ENDBRANCH   3   4
ENDBRANCH   2   3
ENDBRANCH   1   2
BRANCH   1   8
ATOM      8  C   UNL     1      21.096  24.150  17.825  1.00  0.00     0.000 C 
BRANCH   8   9
ATOM      9  C   UNL     1      19.650  24.154  17.300  1.00  0.00    -0.000 C 
BRANCH   9  10
ATOM     10  C   UNL     1      18.767  23.089  17.976  1.00  0.00    -0.000 C 
BRANCH  10  11
ATOM     11  C   UNL     1      18.388  21.949  17.007  1.00  0.00    -0.000 C 
BRANCH  11  12
ATOM     12  C   UNL     1      18.045  20.628  17.715  1.00  0.00    -0.003 C 
ATOM     13  C   UNL     1      18.685  20.506  19.097  1.00  0.00     0.004 C 
ENDBRANCH  11  12
ENDBRANCH  10  11
ENDBRANCH   9  10
ENDBRANCH   8   9
ENDBRANCH   1   8
TORSDOF 9
ENDMDL
