MODEL 1
REMARK VINA RESULT:    -4.462      0.000      0.000
REMARK INTER + INTRA:          -5.165
REMARK INTER:                  -5.114
REMARK INTRA:                  -0.051
REMARK UNBOUND:                -0.051
REMARK SMILES O=C([O-])c1cc(O)c(O)c(O)c1
REMARK SMILES IDX 4 1 5 2 12 3 6 4 10 5 8 6 2 7 1 8 3 9 7 10 11 12 9 14
REMARK H PARENT 7 11 11 13 9 15
REMARK Flexibility Score: inf
ROOT
ATOM      1  C   UNL     1      17.276  -7.168   8.733  1.00  0.00     0.005 A 
ATOM      2  C   UNL     1      16.901  -7.906   7.599  1.00  0.00     0.060 A 
ATOM      3  C   UNL     1      17.696  -7.854   9.884  1.00  0.00     0.060 A 
ATOM      4  C   UNL     1      16.940  -9.305   7.604  1.00  0.00     0.162 A 
ATOM      5  C   UNL     1      17.739  -9.254   9.902  1.00  0.00     0.162 A 
ATOM      6  C   UNL     1      17.363  -9.988   8.769  1.00  0.00     0.200 A 
ENDROOT
BRANCH   1   7
ATOM      7  C   UNL     1      17.230  -5.689   8.711  1.00  0.00     0.072 C 
ATOM      8  O   UNL     1      17.950  -5.013   9.493  1.00  0.00    -0.545 OA
ATOM      9  O   UNL     1      16.389  -5.023   7.825  1.00  0.00    -0.545 OA
ENDBRANCH   1   7
BRANCH   4  10
ATOM     10  O   UNL     1      16.551  -9.970   6.439  1.00  0.00    -0.504 OA
ATOM     11  H   UNL     1      17.197 -10.337   5.755  1.00  0.00     0.293 HD
ENDBRANCH   4  10
BRANCH   5  12
ATOM     12  O   UNL     1      18.156  -9.927  11.050  1.00  0.00    -0.504 OA
ATOM     13  H   UNL     1      18.965 -10.536  11.044  1.00  0.00     0.293 HD
ENDBRANCH   5  12
BRANCH   6  14
ATOM     14  O   UNL     1      17.425 -11.383   8.841  1.00  0.00    -0.502 OA
ATOM     15  H   UNL     1      16.669 -11.967   9.169  1.00  0.00     0.293 HD
ENDBRANCH   6  14
TORSDOF 4
ENDMDL
MODEL 2
REMARK VINA RESULT:    -4.456      0.259      2.450
REMARK INTER + INTRA:          -5.158
REMARK INTER:                  -5.105
REMARK INTRA:                  -0.053
REMARK UNBOUND:                -0.051
REMARK SMILES O=C([O-])c1cc(O)c(O)c(O)c1
REMARK SMILES IDX 4 1 5 2 12 3 6 4 10 5 8 6 2 7 1 8 3 9 7 10 11 12 9 14
REMARK H PARENT 7 11 11 13 9 15
REMARK Flexibility Score: inf
ROOT
ATOM      1  C   UNL     1      17.461  -7.270   8.727  1.00  0.00     0.005 A 
ATOM      2  C   UNL     1      17.835  -7.951   9.896  1.00  0.00     0.060 A 
ATOM      3  C   UNL     1      17.041  -8.011   7.611  1.00  0.00     0.060 A 
ATOM      4  C   UNL     1      17.798  -9.350   9.958  1.00  0.00     0.162 A 
ATOM      5  C   UNL     1      16.999  -9.410   7.661  1.00  0.00     0.162 A 
ATOM      6  C   UNL     1      17.375 -10.088   8.828  1.00  0.00     0.200 A 
ENDROOT
BRANCH   1   7
ATOM      7  C   UNL     1      17.506  -5.791   8.678  1.00  0.00     0.072 C 
ATOM      8  O   UNL     1      17.993  -5.131   9.634  1.00  0.00    -0.545 OA
ATOM      9  O   UNL     1      17.009  -5.107   7.573  1.00  0.00    -0.545 OA
ENDBRANCH   1   7
BRANCH   4  10
ATOM     10  O   UNL     1      18.186  -9.957  11.154  1.00  0.00    -0.504 OA
ATOM     11  H   UNL     1      19.145 -10.159  11.401  1.00  0.00     0.293 HD
ENDBRANCH   4  10
BRANCH   5  12
ATOM     12  O   UNL     1      16.583 -10.137   6.546  1.00  0.00    -0.504 OA
ATOM     13  H   UNL     1      16.187  -9.682   5.732  1.00  0.00     0.293 HD
ENDBRANCH   5  12
BRANCH   6  14
ATOM     14  O   UNL     1      17.313 -11.485   8.823  1.00  0.00    -0.502 OA
ATOM     15  H   UNL     1      17.921 -12.080   9.367  1.00  0.00     0.293 HD
ENDBRANCH   6  14
TORSDOF 4
ENDMDL
MODEL 3
REMARK VINA RESULT:    -4.331     15.143     17.454
REMARK INTER + INTRA:          -5.015
REMARK INTER:                  -4.968
REMARK INTRA:                  -0.047
REMARK UNBOUND:                -0.051
REMARK SMILES O=C([O-])c1cc(O)c(O)c(O)c1
REMARK SMILES IDX 4 1 5 2 12 3 6 4 10 5 8 6 2 7 1 8 3 9 7 10 11 12 9 14
REMARK H PARENT 7 11 11 13 9 15
REMARK Flexibility Score: inf
ROOT
ATOM      1  C   UNL     1      13.338 -17.731  22.804  1.00  0.00     0.005 A 
ATOM      2  C   UNL     1      14.070 -17.145  23.849  1.00  0.00     0.060 A 
ATOM      3  C   UNL     1      13.008 -16.951  21.683  1.00  0.00     0.060 A 
ATOM      4  C   UNL     1      14.469 -15.805  23.786  1.00  0.00     0.162 A 
ATOM      5  C   UNL     1      13.402 -15.610  21.609  1.00  0.00     0.162 A 
ATOM      6  C   UNL     1      14.132 -15.027  22.654  1.00  0.00     0.200 A 
ENDROOT
BRANCH   1   7
ATOM      7  C   UNL     1      12.924 -19.149  22.885  1.00  0.00     0.072 C 
ATOM      8  O   UNL     1      12.299 -19.579  23.890  1.00  0.00    -0.545 OA
ATOM      9  O   UNL     1      13.220 -20.030  21.850  1.00  0.00    -0.545 OA
ENDBRANCH   1   7
BRANCH   4  10
ATOM     10  O   UNL     1      15.194 -15.292  24.864  1.00  0.00    -0.504 OA
ATOM     11  H   UNL     1      15.909 -14.584  24.780  1.00  0.00     0.293 HD
ENDBRANCH   4  10
BRANCH   5  12
ATOM     12  O   UNL     1      13.068 -14.844  20.492  1.00  0.00    -0.504 OA
ATOM     13  H   UNL     1      12.155 -14.907  20.057  1.00  0.00     0.293 HD
ENDBRANCH   5  12
BRANCH   6  14
ATOM     14  O   UNL     1      14.499 -13.684  22.527  1.00  0.00    -0.502 OA
ATOM     15  H   UNL     1      14.755 -13.247  21.654  1.00  0.00     0.293 HD
ENDBRANCH   6  14
TORSDOF 4
ENDMDL
MODEL 4
REMARK VINA RESULT:    -4.284     15.143     17.280
REMARK INTER + INTRA:          -4.962
REMARK INTER:                  -4.913
REMARK INTRA:                  -0.049
REMARK UNBOUND:                -0.051
REMARK SMILES O=C([O-])c1cc(O)c(O)c(O)c1
REMARK SMILES IDX 4 1 5 2 12 3 6 4 10 5 8 6 2 7 1 8 3 9 7 10 11 12 9 14
REMARK H PARENT 7 11 11 13 9 15
REMARK Flexibility Score: inf
ROOT
ATOM      1  C   UNL     1      13.298 -17.777  22.770  1.00  0.00     0.005 A 
ATOM      2  C   UNL     1      12.968 -17.010  21.642  1.00  0.00     0.060 A 
ATOM      3  C   UNL     1      14.021 -17.178  23.814  1.00  0.00     0.060 A 
ATOM      4  C   UNL     1      13.353 -15.667  21.546  1.00  0.00     0.162 A 
ATOM      5  C   UNL     1      14.411 -15.836  23.730  1.00  0.00     0.162 A 
ATOM      6  C   UNL     1      14.082 -15.072  22.602  1.00  0.00     0.200 A 
ENDROOT
BRANCH   1   7
ATOM      7  C   UNL     1      12.884 -19.195  22.856  1.00  0.00     0.072 C 
ATOM      8  O   UNL     1      12.403 -19.660  23.923  1.00  0.00    -0.545 OA
ATOM      9  O   UNL     1      13.022 -20.038  21.758  1.00  0.00    -0.545 OA
ENDBRANCH   1   7
BRANCH   4  10
ATOM     10  O   UNL     1      12.989 -14.969  20.393  1.00  0.00    -0.504 OA
ATOM     11  H   UNL     1      13.425 -15.100  19.491  1.00  0.00     0.293 HD
ENDBRANCH   4  10
BRANCH   5  12
ATOM     12  O   UNL     1      15.131 -15.250  24.771  1.00  0.00    -0.504 OA
ATOM     13  H   UNL     1      15.512 -15.802  25.531  1.00  0.00     0.293 HD
ENDBRANCH   5  12
BRANCH   6  14
ATOM     14  O   UNL     1      14.496 -13.737  22.571  1.00  0.00    -0.502 OA
ATOM     15  H   UNL     1      14.264 -13.090  21.831  1.00  0.00     0.293 HD
ENDBRANCH   6  14
TORSDOF 4
ENDMDL
MODEL 5
REMARK VINA RESULT:    -4.186      2.042      4.193
REMARK INTER + INTRA:          -4.849
REMARK INTER:                  -4.800
REMARK INTRA:                  -0.049
REMARK UNBOUND:                -0.051
REMARK SMILES O=C([O-])c1cc(O)c(O)c(O)c1
REMARK SMILES IDX 4 1 5 2 12 3 6 4 10 5 8 6 2 7 1 8 3 9 7 10 11 12 9 14
REMARK H PARENT 7 11 11 13 9 15
REMARK Flexibility Score: inf
ROOT
ATOM      1  C   UNL     1      15.442  -7.673   8.206  1.00  0.00     0.005 A 
ATOM      2  C   UNL     1      16.083  -8.437   9.195  1.00  0.00     0.060 A 
ATOM      3  C   UNL     1      16.004  -6.445   7.824  1.00  0.00     0.060 A 
ATOM      4  C   UNL     1      17.264  -7.990   9.799  1.00  0.00     0.162 A 
ATOM      5  C   UNL     1      17.185  -5.986   8.421  1.00  0.00     0.162 A 
ATOM      6  C   UNL     1      17.823  -6.750   9.408  1.00  0.00     0.200 A 
ENDROOT
BRANCH   1   7
ATOM      7  C   UNL     1      14.194  -8.161   7.577  1.00  0.00     0.072 C 
ATOM      8  O   UNL     1      13.995  -8.007   6.343  1.00  0.00    -0.545 OA
ATOM      9  O   UNL     1      13.221  -8.796   8.342  1.00  0.00    -0.545 OA
ENDBRANCH   1   7
BRANCH   4  10
ATOM     10  O   UNL     1      17.843  -8.804  10.774  1.00  0.00    -0.504 OA
ATOM     11  H   UNL     1      17.515  -9.731  11.005  1.00  0.00     0.293 HD
ENDBRANCH   4  10
BRANCH   5  12
ATOM     12  O   UNL     1      17.735  -4.764   8.035  1.00  0.00    -0.504 OA
ATOM     13  H   UNL     1      17.261  -3.887   8.216  1.00  0.00     0.293 HD
ENDBRANCH   5  12
BRANCH   6  14
ATOM     14  O   UNL     1      18.999  -6.246   9.970  1.00  0.00    -0.502 OA
ATOM     15  H   UNL     1      19.502  -6.690  10.725  1.00  0.00     0.293 HD
ENDBRANCH   6  14
TORSDOF 4
ENDMDL
MODEL 6
REMARK VINA RESULT:    -4.178      1.578      2.798
REMARK INTER + INTRA:          -4.840
REMARK INTER:                  -4.789
REMARK INTRA:                  -0.051
REMARK UNBOUND:                -0.051
REMARK SMILES O=C([O-])c1cc(O)c(O)c(O)c1
REMARK SMILES IDX 4 1 5 2 12 3 6 4 10 5 8 6 2 7 1 8 3 9 7 10 11 12 9 14
REMARK H PARENT 7 11 11 13 9 15
REMARK Flexibility Score: inf
ROOT
ATOM      1  C   UNL     1      17.488  -7.160   9.119  1.00  0.00     0.005 A 
ATOM      2  C   UNL     1      17.865  -8.467   9.468  1.00  0.00     0.060 A 
ATOM      3  C   UNL     1      16.281  -6.961   8.431  1.00  0.00     0.060 A 
ATOM      4  C   UNL     1      17.058  -9.562   9.138  1.00  0.00     0.162 A 
ATOM      5  C   UNL     1      15.465  -8.048   8.096  1.00  0.00     0.162 A 
ATOM      6  C   UNL     1      15.844  -9.352   8.444  1.00  0.00     0.200 A 
ENDROOT
BRANCH   1   7
ATOM      7  C   UNL     1      18.352  -6.013   9.476  1.00  0.00     0.072 C 
ATOM      8  O   UNL     1      17.858  -4.868   9.656  1.00  0.00    -0.545 OA
ATOM      9  O   UNL     1      19.726  -6.182   9.617  1.00  0.00    -0.545 OA
ENDBRANCH   1   7
BRANCH   4  10
ATOM     10  O   UNL     1      17.500 -10.831   9.518  1.00  0.00    -0.504 OA
ATOM     11  H   UNL     1      18.411 -11.205   9.291  1.00  0.00     0.293 HD
ENDBRANCH   4  10
BRANCH   5  12
ATOM     12  O   UNL     1      14.268  -7.840   7.411  1.00  0.00    -0.504 OA
ATOM     13  H   UNL     1      13.583  -8.578   7.301  1.00  0.00     0.293 HD
ENDBRANCH   5  12
BRANCH   6  14
ATOM     14  O   UNL     1      14.992 -10.400   8.085  1.00  0.00    -0.502 OA
ATOM     15  H   UNL     1      15.212 -11.378   8.214  1.00  0.00     0.293 HD
ENDBRANCH   6  14
TORSDOF 4
ENDMDL
MODEL 7
REMARK VINA RESULT:    -4.102      1.955      3.792
REMARK INTER + INTRA:          -4.753
REMARK INTER:                  -4.706
REMARK INTRA:                  -0.047
REMARK UNBOUND:                -0.051
REMARK SMILES O=C([O-])c1cc(O)c(O)c(O)c1
REMARK SMILES IDX 4 1 5 2 12 3 6 4 10 5 8 6 2 7 1 8 3 9 7 10 11 12 9 14
REMARK H PARENT 7 11 11 13 9 15
REMARK Flexibility Score: inf
ROOT
ATOM      1  C   UNL     1      15.548  -7.697   8.038  1.00  0.00     0.005 A 
ATOM      2  C   UNL     1      16.108  -6.465   7.664  1.00  0.00     0.060 A 
ATOM      3  C   UNL     1      16.145  -8.428   9.078  1.00  0.00     0.060 A 
ATOM      4  C   UNL     1      17.245  -5.965   8.309  1.00  0.00     0.162 A 
ATOM      5  C   UNL     1      17.282  -7.938   9.731  1.00  0.00     0.162 A 
ATOM      6  C   UNL     1      17.840  -6.709   9.355  1.00  0.00     0.200 A 
ENDROOT
BRANCH   1   7
ATOM      7  C   UNL     1      14.346  -8.213   7.346  1.00  0.00     0.072 C 
ATOM      8  O   UNL     1      14.327  -8.330   6.093  1.00  0.00    -0.545 OA
ATOM      9  O   UNL     1      13.215  -8.574   8.072  1.00  0.00    -0.545 OA
ENDBRANCH   1   7
BRANCH   4  10
ATOM     10  O   UNL     1      17.745  -4.733   7.880  1.00  0.00    -0.504 OA
ATOM     11  H   UNL     1      17.166  -3.954   7.600  1.00  0.00     0.293 HD
ENDBRANCH   4  10
BRANCH   5  12
ATOM     12  O   UNL     1      17.868  -8.673  10.761  1.00  0.00    -0.504 OA
ATOM     13  H   UNL     1      17.391  -9.454  11.196  1.00  0.00     0.293 HD
ENDBRANCH   5  12
BRANCH   6  14
ATOM     14  O   UNL     1      18.975  -6.267  10.040  1.00  0.00    -0.502 OA
ATOM     15  H   UNL     1      19.197  -6.523  10.992  1.00  0.00     0.293 HD
ENDBRANCH   6  14
TORSDOF 4
ENDMDL
MODEL 8
REMARK VINA RESULT:    -4.084      1.367      4.875
REMARK INTER + INTRA:          -4.732
REMARK INTER:                  -4.679
REMARK INTRA:                  -0.053
REMARK UNBOUND:                -0.051
REMARK SMILES O=C([O-])c1cc(O)c(O)c(O)c1
REMARK SMILES IDX 4 1 5 2 12 3 6 4 10 5 8 6 2 7 1 8 3 9 7 10 11 12 9 14
REMARK H PARENT 7 11 11 13 9 15
REMARK Flexibility Score: inf
ROOT
ATOM      1  C   UNL     1      16.608  -8.254   8.700  1.00  0.00     0.005 A 
ATOM      2  C   UNL     1      17.727  -7.701   9.343  1.00  0.00     0.060 A 
ATOM      3  C   UNL     1      15.662  -7.394   8.122  1.00  0.00     0.060 A 
ATOM      4  C   UNL     1      17.905  -6.314   9.414  1.00  0.00     0.162 A 
ATOM      5  C   UNL     1      15.829  -6.005   8.186  1.00  0.00     0.162 A 
ATOM      6  C   UNL     1      16.946  -5.455   8.829  1.00  0.00     0.200 A 
ENDROOT
BRANCH   1   7
ATOM      7  C   UNL     1      16.434  -9.722   8.634  1.00  0.00     0.072 C 
ATOM      8  O   UNL     1      15.367 -10.222   8.188  1.00  0.00    -0.545 OA
ATOM      9  O   UNL     1      17.448 -10.572   9.063  1.00  0.00    -0.545 OA
ENDBRANCH   1   7
BRANCH   4  10
ATOM     10  O   UNL     1      19.043  -5.839  10.071  1.00  0.00    -0.504 OA
ATOM     11  H   UNL     1      19.019  -5.308  10.930  1.00  0.00     0.293 HD
ENDBRANCH   4  10
BRANCH   5  12
ATOM     12  O   UNL     1      14.882  -5.159   7.609  1.00  0.00    -0.504 OA
ATOM     13  H   UNL     1      14.319  -5.451   6.818  1.00  0.00     0.293 HD
ENDBRANCH   5  12
BRANCH   6  14
ATOM     14  O   UNL     1      17.064  -4.063   8.863  1.00  0.00    -0.502 OA
ATOM     15  H   UNL     1      16.986  -3.468   8.051  1.00  0.00     0.293 HD
ENDBRANCH   6  14
TORSDOF 4
ENDMDL
MODEL 9
REMARK VINA RESULT:    -4.076      2.066      3.417
REMARK INTER + INTRA:          -4.723
REMARK INTER:                  -4.671
REMARK INTRA:                  -0.052
REMARK UNBOUND:                -0.051
REMARK SMILES O=C([O-])c1cc(O)c(O)c(O)c1
REMARK SMILES IDX 4 1 5 2 12 3 6 4 10 5 8 6 2 7 1 8 3 9 7 10 11 12 9 14
REMARK H PARENT 7 11 11 13 9 15
REMARK Flexibility Score: inf
ROOT
ATOM      1  C   UNL     1      16.522  -5.376   7.872  1.00  0.00     0.005 A 
ATOM      2  C   UNL     1      17.736  -5.261   8.568  1.00  0.00     0.060 A 
ATOM      3  C   UNL     1      15.749  -6.536   8.041  1.00  0.00     0.060 A 
ATOM      4  C   UNL     1      18.180  -6.281   9.418  1.00  0.00     0.162 A 
ATOM      5  C   UNL     1      16.181  -7.563   8.888  1.00  0.00     0.162 A 
ATOM      6  C   UNL     1      17.395  -7.446   9.580  1.00  0.00     0.200 A 
ENDROOT
BRANCH   1   7
ATOM      7  C   UNL     1      16.066  -4.289   6.978  1.00  0.00     0.072 C 
ATOM      8  O   UNL     1      15.159  -4.493   6.129  1.00  0.00    -0.545 OA
ATOM      9  O   UNL     1      16.636  -3.022   7.062  1.00  0.00    -0.545 OA
ENDBRANCH   1   7
BRANCH   4  10
ATOM     10  O   UNL     1      19.398  -6.094  10.074  1.00  0.00    -0.504 OA
ATOM     11  H   UNL     1      20.260  -5.849   9.608  1.00  0.00     0.293 HD
ENDBRANCH   4  10
BRANCH   5  12
ATOM     12  O   UNL     1      15.407  -8.712   9.047  1.00  0.00    -0.504 OA
ATOM     13  H   UNL     1      14.597  -8.892   8.466  1.00  0.00     0.293 HD
ENDBRANCH   5  12
BRANCH   6  14
ATOM     14  O   UNL     1      17.779  -8.501  10.413  1.00  0.00    -0.502 OA
ATOM     15  H   UNL     1      17.130  -9.109  10.892  1.00  0.00     0.293 HD
ENDBRANCH   6  14
TORSDOF 4
ENDMDL
