MODEL 1
REMARK VINA RESULT:    -2.138      0.000      0.000
REMARK INTER + INTRA:          -2.138
REMARK INTER:                  -2.138
REMARK INTRA:                   0.000
REMARK UNBOUND:                 0.000
REMARK SMILES CC(=O)[O-]
REMARK SMILES IDX 1 1 2 2 3 3 4 4
REMARK H PARENT
REMARK Flexibility Score: inf
ROOT
ATOM      1  C   UNL     1      19.764 -50.104 -18.686  1.00  0.00     0.063 C 
ATOM      2  C   UNL     1      19.649 -48.750 -19.299  1.00  0.00     0.038 C 
ATOM      3  O   UNL     1      20.029 -47.732 -18.663  1.00  0.00    -0.550 OA
ATOM      4  O   UNL     1      19.172 -48.612 -20.597  1.00  0.00    -0.550 OA
ENDROOT
TORSDOF 0
ENDMDL
MODEL 2
REMARK VINA RESULT:    -2.122      1.716      1.976
REMARK INTER + INTRA:          -2.122
REMARK INTER:                  -2.122
REMARK INTRA:                   0.000
REMARK UNBOUND:                 0.000
REMARK SMILES CC(=O)[O-]
REMARK SMILES IDX 1 1 2 2 3 3 4 4
REMARK H PARENT
REMARK Flexibility Score: inf
ROOT
ATOM      1  C   UNL     1      19.978 -48.208 -18.926  1.00  0.00     0.063 C 
ATOM      2  C   UNL     1      19.647 -48.987 -20.153  1.00  0.00     0.038 C 
ATOM      3  O   UNL     1      19.217 -48.398 -21.179  1.00  0.00    -0.550 OA
ATOM      4  O   UNL     1      19.862 -50.359 -20.186  1.00  0.00    -0.550 OA
ENDROOT
TORSDOF 0
ENDMDL
MODEL 3
REMARK VINA RESULT:    -2.118      1.403      1.763
REMARK INTER + INTRA:          -2.118
REMARK INTER:                  -2.118
REMARK INTRA:                   0.000
REMARK UNBOUND:                 0.000
REMARK SMILES CC(=O)[O-]
REMARK SMILES IDX 1 1 2 2 3 3 4 4
REMARK H PARENT
REMARK Flexibility Score: inf
ROOT
ATOM      1  C   UNL     1      19.366 -48.679 -20.669  1.00  0.00     0.063 C 
ATOM      2  C   UNL     1      19.781 -48.721 -19.237  1.00  0.00     0.038 C 
ATOM      3  O   UNL     1      20.136 -47.666 -18.650  1.00  0.00    -0.550 OA
ATOM      4  O   UNL     1      19.725 -49.917 -18.531  1.00  0.00    -0.550 OA
ENDROOT
TORSDOF 0
ENDMDL
MODEL 4
REMARK VINA RESULT:    -2.107     19.531     19.657
REMARK INTER + INTRA:          -2.107
REMARK INTER:                  -2.107
REMARK INTRA:                   0.000
REMARK UNBOUND:                 0.000
REMARK SMILES CC(=O)[O-]
REMARK SMILES IDX 1 1 2 2 3 3 4 4
REMARK H PARENT
REMARK Flexibility Score: inf
ROOT
ATOM      1  C   UNL     1       3.107 -48.533  -9.630  1.00  0.00     0.063 C 
ATOM      2  C   UNL     1       2.773 -47.084  -9.535  1.00  0.00     0.038 C 
ATOM      3  O   UNL     1       2.189 -46.505 -10.489  1.00  0.00    -0.550 OA
ATOM      4  O   UNL     1       3.057 -46.378  -8.372  1.00  0.00    -0.550 OA
ENDROOT
TORSDOF 0
ENDMDL
MODEL 5
REMARK VINA RESULT:    -2.074      9.448      9.776
REMARK INTER + INTRA:          -2.074
REMARK INTER:                  -2.074
REMARK INTRA:                   0.000
REMARK UNBOUND:                 0.000
REMARK SMILES CC(=O)[O-]
REMARK SMILES IDX 1 1 2 2 3 3 4 4
REMARK H PARENT
REMARK Flexibility Score: inf
ROOT
ATOM      1  C   UNL     1      13.921 -48.566 -12.373  1.00  0.00     0.063 C 
ATOM      2  C   UNL     1      13.733 -49.948 -11.846  1.00  0.00     0.038 C 
ATOM      3  O   UNL     1      12.641 -50.280 -11.316  1.00  0.00    -0.550 OA
ATOM      4  O   UNL     1      14.745 -50.890 -11.988  1.00  0.00    -0.550 OA
ENDROOT
TORSDOF 0
ENDMDL
MODEL 6
REMARK VINA RESULT:    -2.055     19.530     19.601
REMARK INTER + INTRA:          -2.055
REMARK INTER:                  -2.055
REMARK INTRA:                   0.000
REMARK UNBOUND:                 0.000
REMARK SMILES CC(=O)[O-]
REMARK SMILES IDX 1 1 2 2 3 3 4 4
REMARK H PARENT
REMARK Flexibility Score: inf
ROOT
ATOM      1  C   UNL     1       3.015 -46.625  -8.220  1.00  0.00     0.063 C 
ATOM      2  C   UNL     1       2.788 -47.188  -9.582  1.00  0.00     0.038 C 
ATOM      3  O   UNL     1       1.989 -46.625 -10.375  1.00  0.00    -0.550 OA
ATOM      4  O   UNL     1       3.499 -48.308 -10.000  1.00  0.00    -0.550 OA
ENDROOT
TORSDOF 0
ENDMDL
MODEL 7
REMARK VINA RESULT:    -2.007      9.472      9.819
REMARK INTER + INTRA:          -2.007
REMARK INTER:                  -2.007
REMARK INTRA:                   0.000
REMARK UNBOUND:                 0.000
REMARK SMILES CC(=O)[O-]
REMARK SMILES IDX 1 1 2 2 3 3 4 4
REMARK H PARENT
REMARK Flexibility Score: inf
ROOT
ATOM      1  C   UNL     1      12.173 -50.005 -11.493  1.00  0.00     0.063 C 
ATOM      2  C   UNL     1      13.600 -49.771 -11.854  1.00  0.00     0.038 C 
ATOM      3  O   UNL     1      14.416 -50.731 -11.864  1.00  0.00    -0.550 OA
ATOM      4  O   UNL     1      14.025 -48.503 -12.231  1.00  0.00    -0.550 OA
ENDROOT
TORSDOF 0
ENDMDL
MODEL 8
REMARK VINA RESULT:    -1.988     11.263     11.422
REMARK INTER + INTRA:          -1.988
REMARK INTER:                  -1.988
REMARK INTRA:                   0.000
REMARK UNBOUND:                 0.000
REMARK SMILES CC(=O)[O-]
REMARK SMILES IDX 1 1 2 2 3 3 4 4
REMARK H PARENT
REMARK Flexibility Score: inf
ROOT
ATOM      1  C   UNL     1      10.173 -50.085 -14.401  1.00  0.00     0.063 C 
ATOM      2  C   UNL     1       9.159 -50.317 -15.469  1.00  0.00     0.038 C 
ATOM      3  O   UNL     1       9.484 -50.907 -16.532  1.00  0.00    -0.550 OA
ATOM      4  O   UNL     1       7.839 -49.929 -15.272  1.00  0.00    -0.550 OA
ENDROOT
TORSDOF 0
ENDMDL
