MODEL 1
REMARK VINA RESULT:    -6.177      0.000      0.000
REMARK INTER + INTRA:          -7.771
REMARK INTER:                  -7.441
REMARK INTRA:                  -0.330
REMARK UNBOUND:                -0.330
REMARK SMILES O=c1c(O)c(-c2ccc(O)c(O)c2)oc2cc(O)cc(O)c12
REMARK SMILES IDX 5 1 3 2 2 3 1 4 22 5 20 6 19 7 17 8 16 9 15 10 14 11 6 12
REMARK SMILES IDX 7 13 8 14 9 15 13 16 11 17 10 18 12 20 4 22 21 24 18 26
REMARK H PARENT 10 19 12 21 4 23 21 25 18 27
REMARK Flexibility Score: inf
ROOT
ATOM      1  C   UNL     1      27.332 -12.184  12.959  1.00  0.00     0.180 A 
ATOM      2  C   UNL     1      26.137 -12.168  13.698  1.00  0.00     0.208 A 
ATOM      3  C   UNL     1      26.194 -12.325  15.092  1.00  0.00     0.238 A 
ATOM      4  O   UNL     1      25.125 -12.255  15.753  1.00  0.00    -0.285 OA
ATOM      5  C   UNL     1      27.445 -12.513  15.728  1.00  0.00     0.111 A 
ATOM      6  C   UNL     1      27.618 -12.723  17.130  1.00  0.00     0.134 A 
ATOM      7  C   UNL     1      28.910 -12.767  17.668  1.00  0.00     0.093 A 
ATOM      8  C   UNL     1      30.035 -12.675  16.846  1.00  0.00     0.123 A 
ATOM      9  C   UNL     1      29.877 -12.529  15.469  1.00  0.00     0.094 A 
ATOM     10  C   UNL     1      28.601 -12.446  14.907  1.00  0.00     0.146 A 
ATOM     11  O   UNL     1      28.494 -12.297  13.593  1.00  0.00    -0.452 OA
ENDROOT
BRANCH   1  12
ATOM     12  C   UNL     1      27.350 -12.050  11.485  1.00  0.00     0.025 A 
ATOM     13  C   UNL     1      27.289 -13.177  10.647  1.00  0.00     0.016 A 
ATOM     14  C   UNL     1      27.331 -13.027   9.258  1.00  0.00     0.051 A 
ATOM     15  C   UNL     1      27.449 -11.754   8.688  1.00  0.00     0.157 A 
ATOM     16  C   UNL     1      27.489 -10.776  10.908  1.00  0.00     0.062 A 
ATOM     17  C   UNL     1      27.531 -10.626   9.514  1.00  0.00     0.158 A 
BRANCH  15  18
ATOM     18  O   UNL     1      27.490 -11.600   7.303  1.00  0.00    -0.504 OA
ATOM     19  H   UNL     1      28.211 -12.039   6.742  1.00  0.00     0.293 HD
ENDBRANCH  15  18
BRANCH  17  20
ATOM     20  O   UNL     1      27.656  -9.360   8.945  1.00  0.00    -0.504 OA
ATOM     21  H   UNL     1      28.324  -9.175   8.205  1.00  0.00     0.293 HD
ENDBRANCH  17  20
ENDBRANCH   1  12
BRANCH   2  22
ATOM     22  O   UNL     1      24.915 -11.958  13.052  1.00  0.00    -0.502 OA
ATOM     23  H   UNL     1      24.839 -11.428  12.192  1.00  0.00     0.293 HD
ENDBRANCH   2  22
BRANCH   6  24
ATOM     24  O   UNL     1      26.562 -12.920  18.025  1.00  0.00    -0.507 OA
ATOM     25  H   UNL     1      25.877 -12.220  18.269  1.00  0.00     0.293 HD
ENDBRANCH   6  24
BRANCH   8  26
ATOM     26  O   UNL     1      31.318 -12.735  17.386  1.00  0.00    -0.508 OA
ATOM     27  H   UNL     1      32.090 -12.220  16.977  1.00  0.00     0.293 HD
ENDBRANCH   8  26
TORSDOF 6
ENDMDL
MODEL 2
REMARK VINA RESULT:    -6.085      2.802      5.189
REMARK INTER + INTRA:          -7.661
REMARK INTER:                  -7.479
REMARK INTRA:                  -0.182
REMARK UNBOUND:                -0.330
REMARK SMILES O=c1c(O)c(-c2ccc(O)c(O)c2)oc2cc(O)cc(O)c12
REMARK SMILES IDX 5 1 3 2 2 3 1 4 22 5 20 6 19 7 17 8 16 9 15 10 14 11 6 12
REMARK SMILES IDX 7 13 8 14 9 15 13 16 11 17 10 18 12 20 4 22 21 24 18 26
REMARK H PARENT 10 19 12 21 4 23 21 25 18 27
REMARK Flexibility Score: inf
ROOT
ATOM      1  C   UNL     1      27.395 -10.165  10.255  1.00  0.00     0.180 A 
ATOM      2  C   UNL     1      26.730 -10.947   9.295  1.00  0.00     0.208 A 
ATOM      3  C   UNL     1      26.534 -12.314   9.546  1.00  0.00     0.238 A 
ATOM      4  O   UNL     1      25.889 -12.996   8.707  1.00  0.00    -0.285 OA
ATOM      5  C   UNL     1      27.020 -12.887  10.745  1.00  0.00     0.111 A 
ATOM      6  C   UNL     1      26.913 -14.269  11.085  1.00  0.00     0.134 A 
ATOM      7  C   UNL     1      27.313 -14.702  12.355  1.00  0.00     0.093 A 
ATOM      8  C   UNL     1      27.877 -13.813  13.274  1.00  0.00     0.123 A 
ATOM      9  C   UNL     1      28.040 -12.473  12.929  1.00  0.00     0.094 A 
ATOM     10  C   UNL     1      27.618 -12.005  11.683  1.00  0.00     0.146 A 
ATOM     11  O   UNL     1      27.782 -10.719  11.399  1.00  0.00    -0.452 OA
ENDROOT
BRANCH   1  12
ATOM     12  C   UNL     1      27.662  -8.723  10.051  1.00  0.00     0.025 A 
ATOM     13  C   UNL     1      27.013  -7.743  10.823  1.00  0.00     0.016 A 
ATOM     14  C   UNL     1      27.263  -6.387  10.598  1.00  0.00     0.051 A 
ATOM     15  C   UNL     1      28.152  -5.991   9.591  1.00  0.00     0.157 A 
ATOM     16  C   UNL     1      28.537  -8.319   9.029  1.00  0.00     0.062 A 
ATOM     17  C   UNL     1      28.789  -6.958   8.803  1.00  0.00     0.158 A 
BRANCH  15  18
ATOM     18  O   UNL     1      28.406  -4.639   9.364  1.00  0.00    -0.504 OA
ATOM     19  H   UNL     1      27.706  -4.029   8.956  1.00  0.00     0.293 HD
ENDBRANCH  15  18
BRANCH  17  20
ATOM     20  O   UNL     1      29.667  -6.560   7.797  1.00  0.00    -0.504 OA
ATOM     21  H   UNL     1      30.313  -7.214   7.367  1.00  0.00     0.293 HD
ENDBRANCH  17  20
ENDBRANCH   1  12
BRANCH   2  22
ATOM     22  O   UNL     1      26.238 -10.356   8.128  1.00  0.00    -0.502 OA
ATOM     23  H   UNL     1      25.468  -9.697   8.134  1.00  0.00     0.293 HD
ENDBRANCH   2  22
BRANCH   6  24
ATOM     24  O   UNL     1      26.451 -15.255  10.207  1.00  0.00    -0.507 OA
ATOM     25  H   UNL     1      26.019 -16.122  10.492  1.00  0.00     0.293 HD
ENDBRANCH   6  24
BRANCH   8  26
ATOM     26  O   UNL     1      28.287 -14.254  14.530  1.00  0.00    -0.508 OA
ATOM     27  H   UNL     1      27.827 -15.027  14.996  1.00  0.00     0.293 HD
ENDBRANCH   8  26
TORSDOF 6
ENDMDL
MODEL 3
REMARK VINA RESULT:    -5.852      1.326      2.967
REMARK INTER + INTRA:          -7.379
REMARK INTER:                  -7.123
REMARK INTRA:                  -0.256
REMARK UNBOUND:                -0.330
REMARK SMILES O=c1c(O)c(-c2ccc(O)c(O)c2)oc2cc(O)cc(O)c12
REMARK SMILES IDX 5 1 3 2 2 3 1 4 22 5 20 6 19 7 17 8 16 9 15 10 14 11 6 12
REMARK SMILES IDX 7 13 8 14 9 15 13 16 11 17 10 18 12 20 4 22 21 24 18 26
REMARK H PARENT 10 19 12 21 4 23 21 25 18 27
REMARK Flexibility Score: inf
ROOT
ATOM      1  C   UNL     1      27.388 -12.127  12.961  1.00  0.00     0.180 A 
ATOM      2  C   UNL     1      28.456 -12.689  13.680  1.00  0.00     0.208 A 
ATOM      3  C   UNL     1      28.409 -12.686  15.084  1.00  0.00     0.238 A 
ATOM      4  O   UNL     1      29.343 -13.239  15.721  1.00  0.00    -0.285 OA
ATOM      5  C   UNL     1      27.303 -12.107  15.750  1.00  0.00     0.111 A 
ATOM      6  C   UNL     1      27.170 -12.012  17.168  1.00  0.00     0.134 A 
ATOM      7  C   UNL     1      25.973 -11.538  17.720  1.00  0.00     0.093 A 
ATOM      8  C   UNL     1      24.931 -11.092  16.904  1.00  0.00     0.123 A 
ATOM      9  C   UNL     1      25.075 -11.125  15.519  1.00  0.00     0.094 A 
ATOM     10  C   UNL     1      26.242 -11.627  14.938  1.00  0.00     0.146 A 
ATOM     11  O   UNL     1      26.334 -11.650  13.615  1.00  0.00    -0.452 OA
ENDROOT
BRANCH   1  12
ATOM     12  C   UNL     1      27.376 -12.070  11.481  1.00  0.00     0.025 A 
ATOM     13  C   UNL     1      27.141 -13.219  10.707  1.00  0.00     0.016 A 
ATOM     14  C   UNL     1      27.157 -13.146   9.311  1.00  0.00     0.051 A 
ATOM     15  C   UNL     1      27.423 -11.929   8.671  1.00  0.00     0.157 A 
ATOM     16  C   UNL     1      27.662 -10.856  10.834  1.00  0.00     0.062 A 
ATOM     17  C   UNL     1      27.679 -10.782   9.433  1.00  0.00     0.158 A 
BRANCH  15  18
ATOM     18  O   UNL     1      27.439 -11.851   7.280  1.00  0.00    -0.504 OA
ATOM     19  H   UNL     1      26.606 -11.618   6.752  1.00  0.00     0.293 HD
ENDBRANCH  15  18
BRANCH  17  20
ATOM     20  O   UNL     1      27.950  -9.574   8.794  1.00  0.00    -0.504 OA
ATOM     21  H   UNL     1      27.458  -8.722   9.038  1.00  0.00     0.293 HD
ENDBRANCH  17  20
ENDBRANCH   1  12
BRANCH   2  22
ATOM     22  O   UNL     1      29.528 -13.276  13.002  1.00  0.00    -0.502 OA
ATOM     23  H   UNL     1      30.481 -13.217  13.337  1.00  0.00     0.293 HD
ENDBRANCH   2  22
BRANCH   6  24
ATOM     24  O   UNL     1      28.185 -12.343  18.071  1.00  0.00    -0.507 OA
ATOM     25  H   UNL     1      28.074 -12.377  19.074  1.00  0.00     0.293 HD
ENDBRANCH   6  24
BRANCH   8  26
ATOM     26  O   UNL     1      23.750 -10.606  17.460  1.00  0.00    -0.508 OA
ATOM     27  H   UNL     1      23.683  -9.661  17.821  1.00  0.00     0.293 HD
ENDBRANCH   8  26
TORSDOF 6
ENDMDL
MODEL 4
REMARK VINA RESULT:    -5.845      0.640      1.474
REMARK INTER + INTRA:          -7.371
REMARK INTER:                  -7.058
REMARK INTRA:                  -0.313
REMARK UNBOUND:                -0.330
REMARK SMILES O=c1c(O)c(-c2ccc(O)c(O)c2)oc2cc(O)cc(O)c12
REMARK SMILES IDX 5 1 3 2 2 3 1 4 22 5 20 6 19 7 17 8 16 9 15 10 14 11 6 12
REMARK SMILES IDX 7 13 8 14 9 15 13 16 11 17 10 18 12 20 4 22 21 24 18 26
REMARK H PARENT 10 19 12 21 4 23 21 25 18 27
REMARK Flexibility Score: inf
ROOT
ATOM      1  C   UNL     1      27.404 -12.176  12.874  1.00  0.00     0.180 A 
ATOM      2  C   UNL     1      26.202 -12.164  13.601  1.00  0.00     0.208 A 
ATOM      3  C   UNL     1      26.247 -12.322  14.996  1.00  0.00     0.238 A 
ATOM      4  O   UNL     1      25.172 -12.255  15.646  1.00  0.00    -0.285 OA
ATOM      5  C   UNL     1      27.492 -12.505  15.643  1.00  0.00     0.111 A 
ATOM      6  C   UNL     1      27.652 -12.715  17.047  1.00  0.00     0.134 A 
ATOM      7  C   UNL     1      28.939 -12.754  17.597  1.00  0.00     0.093 A 
ATOM      8  C   UNL     1      30.072 -12.659  16.786  1.00  0.00     0.123 A 
ATOM      9  C   UNL     1      29.926 -12.513  15.408  1.00  0.00     0.094 A 
ATOM     10  C   UNL     1      28.655 -12.434  14.834  1.00  0.00     0.146 A 
ATOM     11  O   UNL     1      28.561 -12.286  13.518  1.00  0.00    -0.452 OA
ENDROOT
BRANCH   1  12
ATOM     12  C   UNL     1      27.436 -12.042  11.400  1.00  0.00     0.025 A 
ATOM     13  C   UNL     1      27.409 -10.781  10.779  1.00  0.00     0.016 A 
ATOM     14  C   UNL     1      27.417 -10.679   9.386  1.00  0.00     0.051 A 
ATOM     15  C   UNL     1      27.437 -11.834   8.593  1.00  0.00     0.157 A 
ATOM     16  C   UNL     1      27.436 -13.197  10.599  1.00  0.00     0.062 A 
ATOM     17  C   UNL     1      27.444 -13.095   9.201  1.00  0.00     0.158 A 
BRANCH  15  18
ATOM     18  O   UNL     1      27.447 -11.736   7.203  1.00  0.00    -0.504 OA
ATOM     19  H   UNL     1      27.991 -12.371   6.630  1.00  0.00     0.293 HD
ENDBRANCH  15  18
BRANCH  17  20
ATOM     20  O   UNL     1      27.457 -14.242   8.410  1.00  0.00    -0.504 OA
ATOM     21  H   UNL     1      26.934 -14.296   7.544  1.00  0.00     0.293 HD
ENDBRANCH  17  20
ENDBRANCH   1  12
BRANCH   2  22
ATOM     22  O   UNL     1      24.986 -11.959  12.943  1.00  0.00    -0.502 OA
ATOM     23  H   UNL     1      24.644 -12.585  12.224  1.00  0.00     0.293 HD
ENDBRANCH   2  22
BRANCH   6  24
ATOM     24  O   UNL     1      26.589 -12.916  17.932  1.00  0.00    -0.507 OA
ATOM     25  H   UNL     1      26.590 -13.582  18.691  1.00  0.00     0.293 HD
ENDBRANCH   6  24
BRANCH   8  26
ATOM     26  O   UNL     1      31.350 -12.714  17.338  1.00  0.00    -0.508 OA
ATOM     27  H   UNL     1      32.112 -12.156  16.969  1.00  0.00     0.293 HD
ENDBRANCH   8  26
TORSDOF 6
ENDMDL
MODEL 5
REMARK VINA RESULT:    -5.736      4.680      6.121
REMARK INTER + INTRA:          -7.240
REMARK INTER:                  -6.984
REMARK INTRA:                  -0.256
REMARK UNBOUND:                -0.330
REMARK SMILES O=c1c(O)c(-c2ccc(O)c(O)c2)oc2cc(O)cc(O)c12
REMARK SMILES IDX 5 1 3 2 2 3 1 4 22 5 20 6 19 7 17 8 16 9 15 10 14 11 6 12
REMARK SMILES IDX 7 13 8 14 9 15 13 16 11 17 10 18 12 20 4 22 21 24 18 26
REMARK H PARENT 10 19 12 21 4 23 21 25 18 27
REMARK Flexibility Score: inf
ROOT
ATOM      1  C   UNL     1      27.412 -11.205   9.516  1.00  0.00     0.180 A 
ATOM      2  C   UNL     1      26.399 -11.086  10.482  1.00  0.00     0.208 A 
ATOM      3  C   UNL     1      26.107  -9.819  11.011  1.00  0.00     0.238 A 
ATOM      4  O   UNL     1      25.161  -9.711  11.835  1.00  0.00    -0.285 OA
ATOM      5  C   UNL     1      26.843  -8.689  10.580  1.00  0.00     0.111 A 
ATOM      6  C   UNL     1      26.660  -7.364  11.078  1.00  0.00     0.134 A 
ATOM      7  C   UNL     1      27.353  -6.301  10.486  1.00  0.00     0.093 A 
ATOM      8  C   UNL     1      28.273  -6.525   9.458  1.00  0.00     0.123 A 
ATOM      9  C   UNL     1      28.502  -7.822   9.006  1.00  0.00     0.094 A 
ATOM     10  C   UNL     1      27.799  -8.899   9.552  1.00  0.00     0.146 A 
ATOM     11  O   UNL     1      28.040 -10.117   9.084  1.00  0.00    -0.452 OA
ENDROOT
BRANCH   1  12
ATOM     12  C   UNL     1      27.794 -12.510   8.930  1.00  0.00     0.025 A 
ATOM     13  C   UNL     1      28.495 -13.471   9.679  1.00  0.00     0.016 A 
ATOM     14  C   UNL     1      28.865 -14.687   9.099  1.00  0.00     0.051 A 
ATOM     15  C   UNL     1      28.554 -14.954   7.759  1.00  0.00     0.157 A 
ATOM     16  C   UNL     1      27.503 -12.775   7.581  1.00  0.00     0.062 A 
ATOM     17  C   UNL     1      27.874 -13.996   6.998  1.00  0.00     0.158 A 
BRANCH  15  18
ATOM     18  O   UNL     1      28.921 -16.166   7.177  1.00  0.00    -0.504 OA
ATOM     19  H   UNL     1      29.689 -16.718   7.540  1.00  0.00     0.293 HD
ENDBRANCH  15  18
BRANCH  17  20
ATOM     20  O   UNL     1      27.572 -14.260   5.664  1.00  0.00    -0.504 OA
ATOM     21  H   UNL     1      26.952 -15.018   5.400  1.00  0.00     0.293 HD
ENDBRANCH  17  20
ENDBRANCH   1  12
BRANCH   2  22
ATOM     22  O   UNL     1      25.669 -12.211  10.876  1.00  0.00    -0.502 OA
ATOM     23  H   UNL     1      24.857 -12.539  10.366  1.00  0.00     0.293 HD
ENDBRANCH   2  22
BRANCH   6  24
ATOM     24  O   UNL     1      25.836  -7.045  12.161  1.00  0.00    -0.507 OA
ATOM     25  H   UNL     1      25.986  -6.269  12.789  1.00  0.00     0.293 HD
ENDBRANCH   6  24
BRANCH   8  26
ATOM     26  O   UNL     1      28.970  -5.464   8.885  1.00  0.00    -0.508 OA
ATOM     27  H   UNL     1      29.970  -5.513   8.724  1.00  0.00     0.293 HD
ENDBRANCH   8  26
TORSDOF 6
ENDMDL
MODEL 6
REMARK VINA RESULT:    -5.697      2.598      6.945
REMARK INTER + INTRA:          -7.193
REMARK INTER:                  -7.133
REMARK INTRA:                  -0.061
REMARK UNBOUND:                -0.330
REMARK SMILES O=c1c(O)c(-c2ccc(O)c(O)c2)oc2cc(O)cc(O)c12
REMARK SMILES IDX 5 1 3 2 2 3 1 4 22 5 20 6 19 7 17 8 16 9 15 10 14 11 6 12
REMARK SMILES IDX 7 13 8 14 9 15 13 16 11 17 10 18 12 20 4 22 21 24 18 26
REMARK H PARENT 10 19 12 21 4 23 21 25 18 27
REMARK Flexibility Score: inf
ROOT
ATOM      1  C   UNL     1      28.457 -13.506  12.457  1.00  0.00     0.180 A 
ATOM      2  C   UNL     1      27.717 -12.642  11.632  1.00  0.00     0.208 A 
ATOM      3  C   UNL     1      27.794 -12.796  10.239  1.00  0.00     0.238 A 
ATOM      4  O   UNL     1      27.086 -12.055   9.509  1.00  0.00    -0.285 OA
ATOM      5  C   UNL     1      28.623 -13.802   9.687  1.00  0.00     0.111 A 
ATOM      6  C   UNL     1      28.808 -14.022   8.288  1.00  0.00     0.134 A 
ATOM      7  C   UNL     1      29.548 -15.129   7.855  1.00  0.00     0.093 A 
ATOM      8  C   UNL     1      30.166 -15.985   8.770  1.00  0.00     0.123 A 
ATOM      9  C   UNL     1      30.040 -15.744  10.136  1.00  0.00     0.094 A 
ATOM     10  C   UNL     1      29.277 -14.669  10.600  1.00  0.00     0.146 A 
ATOM     11  O   UNL     1      29.175 -14.482  11.910  1.00  0.00    -0.452 OA
ENDROOT
BRANCH   1  12
ATOM     12  C   UNL     1      28.448 -13.390  13.933  1.00  0.00     0.025 A 
ATOM     13  C   UNL     1      28.040 -14.460  14.748  1.00  0.00     0.016 A 
ATOM     14  C   UNL     1      28.017 -14.320  16.138  1.00  0.00     0.051 A 
ATOM     15  C   UNL     1      28.386 -13.106  16.732  1.00  0.00     0.157 A 
ATOM     16  C   UNL     1      28.797 -12.168  14.533  1.00  0.00     0.062 A 
ATOM     17  C   UNL     1      28.775 -12.027  15.928  1.00  0.00     0.158 A 
BRANCH  15  18
ATOM     18  O   UNL     1      28.366 -12.963  18.118  1.00  0.00    -0.504 OA
ATOM     19  H   UNL     1      27.977 -12.138  18.560  1.00  0.00     0.293 HD
ENDBRANCH  15  18
BRANCH  17  20
ATOM     20  O   UNL     1      29.135 -10.819  16.520  1.00  0.00    -0.504 OA
ATOM     21  H   UNL     1      30.009 -10.713  17.023  1.00  0.00     0.293 HD
ENDBRANCH  17  20
ENDBRANCH   1  12
BRANCH   2  22
ATOM     22  O   UNL     1      26.887 -11.671  12.200  1.00  0.00    -0.502 OA
ATOM     23  H   UNL     1      25.897 -11.613  11.992  1.00  0.00     0.293 HD
ENDBRANCH   2  22
BRANCH   6  24
ATOM     24  O   UNL     1      28.313 -13.175   7.293  1.00  0.00    -0.507 OA
ATOM     25  H   UNL     1      28.878 -12.553   6.733  1.00  0.00     0.293 HD
ENDBRANCH   6  24
BRANCH   8  26
ATOM     26  O   UNL     1      30.914 -17.075   8.331  1.00  0.00    -0.508 OA
ATOM     27  H   UNL     1      30.483 -17.975   8.150  1.00  0.00     0.293 HD
ENDBRANCH   8  26
TORSDOF 6
ENDMDL
MODEL 7
REMARK VINA RESULT:    -5.511      4.985      7.132
REMARK INTER + INTRA:          -6.969
REMARK INTER:                  -6.646
REMARK INTRA:                  -0.323
REMARK UNBOUND:                -0.330
REMARK SMILES O=c1c(O)c(-c2ccc(O)c(O)c2)oc2cc(O)cc(O)c12
REMARK SMILES IDX 5 1 3 2 2 3 1 4 22 5 20 6 19 7 17 8 16 9 15 10 14 11 6 12
REMARK SMILES IDX 7 13 8 14 9 15 13 16 11 17 10 18 12 20 4 22 21 24 18 26
REMARK H PARENT 10 19 12 21 4 23 21 25 18 27
REMARK Flexibility Score: inf
ROOT
ATOM      1  C   UNL     1      27.520 -12.474   8.785  1.00  0.00     0.180 A 
ATOM      2  C   UNL     1      27.474 -12.502   7.381  1.00  0.00     0.208 A 
ATOM      3  C   UNL     1      28.266 -13.434   6.691  1.00  0.00     0.238 A 
ATOM      4  O   UNL     1      28.178 -13.491   5.437  1.00  0.00    -0.285 OA
ATOM      5  C   UNL     1      29.107 -14.314   7.413  1.00  0.00     0.111 A 
ATOM      6  C   UNL     1      29.983 -15.271   6.816  1.00  0.00     0.134 A 
ATOM      7  C   UNL     1      30.672 -16.179   7.629  1.00  0.00     0.093 A 
ATOM      8  C   UNL     1      30.568 -16.121   9.021  1.00  0.00     0.123 A 
ATOM      9  C   UNL     1      29.762 -15.153   9.615  1.00  0.00     0.094 A 
ATOM     10  C   UNL     1      29.034 -14.257   8.829  1.00  0.00     0.146 A 
ATOM     11  O   UNL     1      28.270 -13.356   9.436  1.00  0.00    -0.452 OA
ENDROOT
BRANCH   1  12
ATOM     12  C   UNL     1      26.733 -11.504   9.580  1.00  0.00     0.025 A 
ATOM     13  C   UNL     1      25.440 -11.811  10.038  1.00  0.00     0.016 A 
ATOM     14  C   UNL     1      24.707 -10.872  10.768  1.00  0.00     0.051 A 
ATOM     15  C   UNL     1      25.249  -9.609  11.038  1.00  0.00     0.157 A 
ATOM     16  C   UNL     1      27.263 -10.228   9.837  1.00  0.00     0.062 A 
ATOM     17  C   UNL     1      26.529  -9.285  10.570  1.00  0.00     0.158 A 
BRANCH  15  18
ATOM     18  O   UNL     1      24.522  -8.670  11.768  1.00  0.00    -0.504 OA
ATOM     19  H   UNL     1      23.584  -8.398  11.495  1.00  0.00     0.293 HD
ENDBRANCH  15  18
BRANCH  17  20
ATOM     20  O   UNL     1      27.062  -8.026  10.834  1.00  0.00    -0.504 OA
ATOM     21  H   UNL     1      27.603  -7.522  10.140  1.00  0.00     0.293 HD
ENDBRANCH  17  20
ENDBRANCH   1  12
BRANCH   2  22
ATOM     22  O   UNL     1      26.619 -11.639   6.689  1.00  0.00    -0.502 OA
ATOM     23  H   UNL     1      25.617 -11.629   6.841  1.00  0.00     0.293 HD
ENDBRANCH   2  22
BRANCH   6  24
ATOM     24  O   UNL     1      30.230 -15.351   5.442  1.00  0.00    -0.507 OA
ATOM     25  H   UNL     1      29.531 -15.226   4.724  1.00  0.00     0.293 HD
ENDBRANCH   6  24
BRANCH   8  26
ATOM     26  O   UNL     1      31.269 -17.018   9.824  1.00  0.00    -0.508 OA
ATOM     27  H   UNL     1      30.999 -17.191  10.786  1.00  0.00     0.293 HD
ENDBRANCH   8  26
TORSDOF 6
ENDMDL
MODEL 8
REMARK VINA RESULT:    -5.488      2.276      7.534
REMARK INTER + INTRA:          -6.941
REMARK INTER:                  -6.667
REMARK INTRA:                  -0.274
REMARK UNBOUND:                -0.330
REMARK SMILES O=c1c(O)c(-c2ccc(O)c(O)c2)oc2cc(O)cc(O)c12
REMARK SMILES IDX 5 1 3 2 2 3 1 4 22 5 20 6 19 7 17 8 16 9 15 10 14 11 6 12
REMARK SMILES IDX 7 13 8 14 9 15 13 16 11 17 10 18 12 20 4 22 21 24 18 26
REMARK H PARENT 10 19 12 21 4 23 21 25 18 27
REMARK Flexibility Score: inf
ROOT
ATOM      1  C   UNL     1      28.268 -13.677  11.561  1.00  0.00     0.180 A 
ATOM      2  C   UNL     1      29.066 -14.500  10.748  1.00  0.00     0.208 A 
ATOM      3  C   UNL     1      28.940 -14.409   9.353  1.00  0.00     0.238 A 
ATOM      4  O   UNL     1      29.697 -15.109   8.631  1.00  0.00    -0.285 OA
ATOM      5  C   UNL     1      28.006 -13.508   8.788  1.00  0.00     0.111 A 
ATOM      6  C   UNL     1      27.765 -13.363   7.388  1.00  0.00     0.134 A 
ATOM      7  C   UNL     1      26.912 -12.348   6.935  1.00  0.00     0.093 A 
ATOM      8  C   UNL     1      26.239 -11.518   7.835  1.00  0.00     0.123 A 
ATOM      9  C   UNL     1      26.422 -11.692   9.205  1.00  0.00     0.094 A 
ATOM     10  C   UNL     1      27.295 -12.671   9.686  1.00  0.00     0.146 A 
ATOM     11  O   UNL     1      27.447 -12.796  10.998  1.00  0.00    -0.452 OA
ENDROOT
BRANCH   1  12
ATOM     12  C   UNL     1      28.326 -13.733  13.039  1.00  0.00     0.025 A 
ATOM     13  C   UNL     1      27.750 -14.797  13.754  1.00  0.00     0.016 A 
ATOM     14  C   UNL     1      27.796 -14.817  15.150  1.00  0.00     0.051 A 
ATOM     15  C   UNL     1      28.405 -13.769  15.852  1.00  0.00     0.157 A 
ATOM     16  C   UNL     1      28.918 -12.674  13.749  1.00  0.00     0.062 A 
ATOM     17  C   UNL     1      28.965 -12.694  15.150  1.00  0.00     0.158 A 
BRANCH  15  18
ATOM     18  O   UNL     1      28.455 -13.786  17.245  1.00  0.00    -0.504 OA
ATOM     19  H   UNL     1      29.202 -14.258  17.743  1.00  0.00     0.293 HD
ENDBRANCH  15  18
BRANCH  17  20
ATOM     20  O   UNL     1      29.564 -11.649  15.851  1.00  0.00    -0.504 OA
ATOM     21  H   UNL     1      30.206 -11.007  15.400  1.00  0.00     0.293 HD
ENDBRANCH  17  20
ENDBRANCH   1  12
BRANCH   2  22
ATOM     22  O   UNL     1      29.999 -15.365  11.327  1.00  0.00    -0.502 OA
ATOM     23  H   UNL     1      30.353 -15.233  12.267  1.00  0.00     0.293 HD
ENDBRANCH   2  22
BRANCH   6  24
ATOM     24  O   UNL     1      28.313 -14.199   6.411  1.00  0.00    -0.507 OA
ATOM     25  H   UNL     1      27.872 -14.421   5.530  1.00  0.00     0.293 HD
ENDBRANCH   6  24
BRANCH   8  26
ATOM     26  O   UNL     1      25.380 -10.522   7.378  1.00  0.00    -0.508 OA
ATOM     27  H   UNL     1      25.507 -10.088   6.470  1.00  0.00     0.293 HD
ENDBRANCH   8  26
TORSDOF 6
ENDMDL
MODEL 9
REMARK VINA RESULT:    -5.458      4.384      5.634
REMARK INTER + INTRA:          -6.905
REMARK INTER:                  -6.592
REMARK INTRA:                  -0.313
REMARK UNBOUND:                -0.330
REMARK SMILES O=c1c(O)c(-c2ccc(O)c(O)c2)oc2cc(O)cc(O)c12
REMARK SMILES IDX 5 1 3 2 2 3 1 4 22 5 20 6 19 7 17 8 16 9 15 10 14 11 6 12
REMARK SMILES IDX 7 13 8 14 9 15 13 16 11 17 10 18 12 20 4 22 21 24 18 26
REMARK H PARENT 10 19 12 21 4 23 21 25 18 27
REMARK Flexibility Score: inf
ROOT
ATOM      1  C   UNL     1      27.075 -11.800   9.318  1.00  0.00     0.180 A 
ATOM      2  C   UNL     1      27.352 -10.434   9.494  1.00  0.00     0.208 A 
ATOM      3  C   UNL     1      26.617  -9.706  10.443  1.00  0.00     0.238 A 
ATOM      4  O   UNL     1      26.908  -8.496  10.634  1.00  0.00    -0.285 OA
ATOM      5  C   UNL     1      25.604 -10.349  11.194  1.00  0.00     0.111 A 
ATOM      6  C   UNL     1      24.771  -9.700  12.154  1.00  0.00     0.134 A 
ATOM      7  C   UNL     1      23.890 -10.461  12.932  1.00  0.00     0.093 A 
ATOM      8  C   UNL     1      23.765 -11.839  12.738  1.00  0.00     0.123 A 
ATOM      9  C   UNL     1      24.531 -12.472  11.762  1.00  0.00     0.094 A 
ATOM     10  C   UNL     1      25.445 -11.745  10.995  1.00  0.00     0.146 A 
ATOM     11  O   UNL     1      26.163 -12.390  10.084  1.00  0.00    -0.452 OA
ENDROOT
BRANCH   1  12
ATOM     12  C   UNL     1      27.789 -12.628   8.320  1.00  0.00     0.025 A 
ATOM     13  C   UNL     1      27.429 -12.608   6.961  1.00  0.00     0.016 A 
ATOM     14  C   UNL     1      28.102 -13.415   6.040  1.00  0.00     0.051 A 
ATOM     15  C   UNL     1      29.132 -14.263   6.465  1.00  0.00     0.157 A 
ATOM     16  C   UNL     1      28.810 -13.496   8.743  1.00  0.00     0.062 A 
ATOM     17  C   UNL     1      29.486 -14.306   7.819  1.00  0.00     0.158 A 
BRANCH  15  18
ATOM     18  O   UNL     1      29.807 -15.069   5.549  1.00  0.00    -0.504 OA
ATOM     19  H   UNL     1      29.309 -15.684   4.916  1.00  0.00     0.293 HD
ENDBRANCH  15  18
BRANCH  17  20
ATOM     20  O   UNL     1      30.506 -15.156   8.240  1.00  0.00    -0.504 OA
ATOM     21  H   UNL     1      30.486 -16.150   8.040  1.00  0.00     0.293 HD
ENDBRANCH  17  20
ENDBRANCH   1  12
BRANCH   2  22
ATOM     22  O   UNL     1      28.372  -9.824   8.758  1.00  0.00    -0.502 OA
ATOM     23  H   UNL     1      28.223  -8.980   8.219  1.00  0.00     0.293 HD
ENDBRANCH   2  22
BRANCH   6  24
ATOM     24  O   UNL     1      24.750  -8.317  12.361  1.00  0.00    -0.507 OA
ATOM     25  H   UNL     1      24.973  -7.863  13.235  1.00  0.00     0.293 HD
ENDBRANCH   6  24
BRANCH   8  26
ATOM     26  O   UNL     1      22.875 -12.587  13.505  1.00  0.00    -0.508 OA
ATOM     27  H   UNL     1      22.674 -12.347  14.469  1.00  0.00     0.293 HD
ENDBRANCH   8  26
TORSDOF 6
ENDMDL
