MODEL 1
REMARK VINA RESULT:    -4.385      0.000      0.000
REMARK INTER + INTRA:          -4.942
REMARK INTER:                  -4.898
REMARK INTRA:                  -0.044
REMARK UNBOUND:                -0.044
REMARK SMILES O=C([O-])c1ccc(O)c(O)c1
REMARK SMILES IDX 4 1 11 2 5 3 9 4 6 5 7 6 2 7 1 8 3 9 10 10 8 12
REMARK H PARENT 10 11 8 13
REMARK Flexibility Score: inf
ROOT
ATOM      1  C   UNL     1      -5.300 -17.414 -22.496  1.00  0.00     0.001 A 
ATOM      2  C   UNL     1      -5.324 -16.155 -21.871  1.00  0.00     0.060 A 
ATOM      3  C   UNL     1      -6.466 -17.887 -23.124  1.00  0.00     0.014 A 
ATOM      4  C   UNL     1      -6.493 -15.379 -21.873  1.00  0.00     0.158 A 
ATOM      5  C   UNL     1      -7.631 -17.115 -23.125  1.00  0.00     0.051 A 
ATOM      6  C   UNL     1      -7.651 -15.864 -22.502  1.00  0.00     0.157 A 
ENDROOT
BRANCH   1   7
ATOM      7  C   UNL     1      -4.064 -18.227 -22.491  1.00  0.00     0.072 C 
ATOM      8  O   UNL     1      -4.077 -19.417 -22.906  1.00  0.00    -0.545 OA
ATOM      9  O   UNL     1      -2.868 -17.688 -22.029  1.00  0.00    -0.545 OA
ENDBRANCH   1   7
BRANCH   4  10
ATOM     10  O   UNL     1      -6.507 -14.131 -21.250  1.00  0.00    -0.504 OA
ATOM     11  H   UNL     1      -6.967 -13.988 -20.360  1.00  0.00     0.293 HD
ENDBRANCH   4  10
BRANCH   6  12
ATOM     12  O   UNL     1      -8.829 -15.117 -22.521  1.00  0.00    -0.504 OA
ATOM     13  H   UNL     1      -9.708 -15.490 -22.181  1.00  0.00     0.293 HD
ENDBRANCH   6  12
TORSDOF 3
ENDMDL
MODEL 2
REMARK VINA RESULT:    -4.113      1.227      1.540
REMARK INTER + INTRA:          -4.639
REMARK INTER:                  -4.602
REMARK INTRA:                  -0.037
REMARK UNBOUND:                -0.044
REMARK SMILES O=C([O-])c1ccc(O)c(O)c1
REMARK SMILES IDX 4 1 11 2 5 3 9 4 6 5 7 6 2 7 1 8 3 9 10 10 8 12
REMARK H PARENT 10 11 8 13
REMARK Flexibility Score: inf
ROOT
ATOM      1  C   UNL     1      -4.377 -18.105 -22.136  1.00  0.00     0.001 A 
ATOM      2  C   UNL     1      -4.685 -16.769 -21.827  1.00  0.00     0.060 A 
ATOM      3  C   UNL     1      -5.347 -18.899 -22.775  1.00  0.00     0.014 A 
ATOM      4  C   UNL     1      -5.940 -16.232 -22.151  1.00  0.00     0.158 A 
ATOM      5  C   UNL     1      -6.597 -18.365 -23.098  1.00  0.00     0.051 A 
ATOM      6  C   UNL     1      -6.899 -17.035 -22.788  1.00  0.00     0.157 A 
ENDROOT
BRANCH   1   7
ATOM      7  C   UNL     1      -3.052 -18.666 -21.792  1.00  0.00     0.072 C 
ATOM      8  O   UNL     1      -2.742 -18.890 -20.592  1.00  0.00    -0.545 OA
ATOM      9  O   UNL     1      -2.128 -18.955 -22.791  1.00  0.00    -0.545 OA
ENDBRANCH   1   7
BRANCH   4  10
ATOM     10  O   UNL     1      -6.235 -14.905 -21.840  1.00  0.00    -0.504 OA
ATOM     11  H   UNL     1      -5.883 -14.466 -20.998  1.00  0.00     0.293 HD
ENDBRANCH   4  10
BRANCH   6  12
ATOM     12  O   UNL     1      -8.156 -16.531 -23.123  1.00  0.00    -0.504 OA
ATOM     13  H   UNL     1      -8.854 -17.095 -23.594  1.00  0.00     0.293 HD
ENDBRANCH   6  12
TORSDOF 3
ENDMDL
MODEL 3
REMARK VINA RESULT:    -3.836      1.103      4.611
REMARK INTER + INTRA:          -4.329
REMARK INTER:                  -4.284
REMARK INTRA:                  -0.044
REMARK UNBOUND:                -0.044
REMARK SMILES O=C([O-])c1ccc(O)c(O)c1
REMARK SMILES IDX 4 1 11 2 5 3 9 4 6 5 7 6 2 7 1 8 3 9 10 10 8 12
REMARK H PARENT 10 11 8 13
REMARK Flexibility Score: inf
ROOT
ATOM      1  C   UNL     1      -6.275 -16.555 -22.190  1.00  0.00     0.001 A 
ATOM      2  C   UNL     1      -6.888 -17.763 -22.566  1.00  0.00     0.060 A 
ATOM      3  C   UNL     1      -4.883 -16.528 -21.993  1.00  0.00     0.014 A 
ATOM      4  C   UNL     1      -6.123 -18.925 -22.745  1.00  0.00     0.158 A 
ATOM      5  C   UNL     1      -4.121 -17.686 -22.171  1.00  0.00     0.051 A 
ATOM      6  C   UNL     1      -4.734 -18.885 -22.545  1.00  0.00     0.157 A 
ENDROOT
BRANCH   1   7
ATOM      7  C   UNL     1      -7.087 -15.332 -22.003  1.00  0.00     0.072 C 
ATOM      8  O   UNL     1      -6.576 -14.293 -21.506  1.00  0.00    -0.545 OA
ATOM      9  O   UNL     1      -8.427 -15.312 -22.373  1.00  0.00    -0.545 OA
ENDBRANCH   1   7
BRANCH   4  10
ATOM     10  O   UNL     1      -6.740 -20.119 -23.119  1.00  0.00    -0.504 OA
ATOM     11  H   UNL     1      -7.435 -20.149 -23.855  1.00  0.00     0.293 HD
ENDBRANCH   4  10
BRANCH   6  12
ATOM     12  O   UNL     1      -3.946 -20.024 -22.715  1.00  0.00    -0.504 OA
ATOM     13  H   UNL     1      -3.913 -20.763 -22.023  1.00  0.00     0.293 HD
ENDBRANCH   6  12
TORSDOF 3
ENDMDL
MODEL 4
REMARK VINA RESULT:    -3.778     12.904     13.702
REMARK INTER + INTRA:          -4.264
REMARK INTER:                  -4.223
REMARK INTRA:                  -0.041
REMARK UNBOUND:                -0.044
REMARK SMILES O=C([O-])c1ccc(O)c(O)c1
REMARK SMILES IDX 4 1 11 2 5 3 9 4 6 5 7 6 2 7 1 8 3 9 10 10 8 12
REMARK H PARENT 10 11 8 13
REMARK Flexibility Score: inf
ROOT
ATOM      1  C   UNL     1      -6.469 -18.900  -9.891  1.00  0.00     0.001 A 
ATOM      2  C   UNL     1      -5.195 -19.490  -9.970  1.00  0.00     0.060 A 
ATOM      3  C   UNL     1      -6.718 -17.945  -8.890  1.00  0.00     0.014 A 
ATOM      4  C   UNL     1      -4.185 -19.131  -9.064  1.00  0.00     0.158 A 
ATOM      5  C   UNL     1      -5.713 -17.587  -7.988  1.00  0.00     0.051 A 
ATOM      6  C   UNL     1      -4.448 -18.176  -8.069  1.00  0.00     0.157 A 
ENDROOT
BRANCH   1   7
ATOM      7  C   UNL     1      -7.530 -19.283 -10.849  1.00  0.00     0.072 C 
ATOM      8  O   UNL     1      -8.734 -19.340 -10.482  1.00  0.00    -0.545 OA
ATOM      9  O   UNL     1      -7.213 -19.585 -12.168  1.00  0.00    -0.545 OA
ENDBRANCH   1   7
BRANCH   4  10
ATOM     10  O   UNL     1      -2.925 -19.721  -9.151  1.00  0.00    -0.504 OA
ATOM     11  H   UNL     1      -2.777 -20.586  -9.658  1.00  0.00     0.293 HD
ENDBRANCH   4  10
BRANCH   6  12
ATOM     12  O   UNL     1      -3.465 -17.797  -7.154  1.00  0.00    -0.504 OA
ATOM     13  H   UNL     1      -2.619 -18.338  -7.020  1.00  0.00     0.293 HD
ENDBRANCH   6  12
TORSDOF 3
ENDMDL
MODEL 5
REMARK VINA RESULT:    -3.768     20.828     21.962
REMARK INTER + INTRA:          -4.253
REMARK INTER:                  -4.217
REMARK INTRA:                  -0.036
REMARK UNBOUND:                -0.044
REMARK SMILES O=C([O-])c1ccc(O)c(O)c1
REMARK SMILES IDX 4 1 11 2 5 3 9 4 6 5 7 6 2 7 1 8 3 9 10 10 8 12
REMARK H PARENT 10 11 8 13
REMARK Flexibility Score: inf
ROOT
ATOM      1  C   UNL     1      -3.588  -2.169  -6.726  1.00  0.00     0.001 A 
ATOM      2  C   UNL     1      -3.512  -2.060  -5.326  1.00  0.00     0.060 A 
ATOM      3  C   UNL     1      -4.727  -2.757  -7.304  1.00  0.00     0.014 A 
ATOM      4  C   UNL     1      -4.556  -2.529  -4.516  1.00  0.00     0.158 A 
ATOM      5  C   UNL     1      -5.768  -3.225  -6.497  1.00  0.00     0.051 A 
ATOM      6  C   UNL     1      -5.689  -3.114  -5.106  1.00  0.00     0.157 A 
ENDROOT
BRANCH   1   7
ATOM      7  C   UNL     1      -2.483  -1.673  -7.575  1.00  0.00     0.072 C 
ATOM      8  O   UNL     1      -2.529  -0.518  -8.077  1.00  0.00    -0.545 OA
ATOM      9  O   UNL     1      -1.376  -2.474  -7.832  1.00  0.00    -0.545 OA
ENDBRANCH   1   7
BRANCH   4  10
ATOM     10  O   UNL     1      -4.472  -2.415  -3.129  1.00  0.00    -0.504 OA
ATOM     11  H   UNL     1      -5.033  -1.747  -2.615  1.00  0.00     0.293 HD
ENDBRANCH   4  10
BRANCH   6  12
ATOM     12  O   UNL     1      -6.744  -3.590  -4.327  1.00  0.00    -0.504 OA
ATOM     13  H   UNL     1      -6.691  -3.631  -3.316  1.00  0.00     0.293 HD
ENDBRANCH   6  12
TORSDOF 3
ENDMDL
MODEL 6
REMARK VINA RESULT:    -3.737      2.615      5.686
REMARK INTER + INTRA:          -4.218
REMARK INTER:                  -4.182
REMARK INTRA:                  -0.036
REMARK UNBOUND:                -0.044
REMARK SMILES O=C([O-])c1ccc(O)c(O)c1
REMARK SMILES IDX 4 1 11 2 5 3 9 4 6 5 7 6 2 7 1 8 3 9 10 10 8 12
REMARK H PARENT 10 11 8 13
REMARK Flexibility Score: inf
ROOT
ATOM      1  C   UNL     1      -3.654 -18.462 -21.928  1.00  0.00     0.001 A 
ATOM      2  C   UNL     1      -2.943 -18.578 -20.720  1.00  0.00     0.060 A 
ATOM      3  C   UNL     1      -3.041 -18.877 -23.124  1.00  0.00     0.014 A 
ATOM      4  C   UNL     1      -1.642 -19.101 -20.706  1.00  0.00     0.158 A 
ATOM      5  C   UNL     1      -1.745 -19.398 -23.110  1.00  0.00     0.051 A 
ATOM      6  C   UNL     1      -1.041 -19.512 -21.907  1.00  0.00     0.157 A 
ENDROOT
BRANCH   1   7
ATOM      7  C   UNL     1      -5.026 -17.909 -21.937  1.00  0.00     0.072 C 
ATOM      8  O   UNL     1      -5.220 -16.671 -21.801  1.00  0.00    -0.545 OA
ATOM      9  O   UNL     1      -6.123 -18.748 -22.095  1.00  0.00    -0.545 OA
ENDBRANCH   1   7
BRANCH   4  10
ATOM     10  O   UNL     1      -0.945 -19.213 -19.503  1.00  0.00    -0.504 OA
ATOM     11  H   UNL     1      -0.788 -18.412 -18.904  1.00  0.00     0.293 HD
ENDBRANCH   4  10
BRANCH   6  12
ATOM     12  O   UNL     1       0.251 -20.037 -21.926  1.00  0.00    -0.504 OA
ATOM     13  H   UNL     1       0.735 -20.305 -21.077  1.00  0.00     0.293 HD
ENDBRANCH   6  12
TORSDOF 3
ENDMDL
MODEL 7
REMARK VINA RESULT:    -3.733     12.781     13.195
REMARK INTER + INTRA:          -4.214
REMARK INTER:                  -4.177
REMARK INTRA:                  -0.037
REMARK UNBOUND:                -0.044
REMARK SMILES O=C([O-])c1ccc(O)c(O)c1
REMARK SMILES IDX 4 1 11 2 5 3 9 4 6 5 7 6 2 7 1 8 3 9 10 10 8 12
REMARK H PARENT 10 11 8 13
REMARK Flexibility Score: inf
ROOT
ATOM      1  C   UNL     1      -5.588 -18.836  -9.012  1.00  0.00     0.001 A 
ATOM      2  C   UNL     1      -6.827 -18.182  -8.903  1.00  0.00     0.060 A 
ATOM      3  C   UNL     1      -5.314 -19.592 -10.167  1.00  0.00     0.014 A 
ATOM      4  C   UNL     1      -7.778 -18.279  -9.930  1.00  0.00     0.158 A 
ATOM      5  C   UNL     1      -6.262 -19.689 -11.189  1.00  0.00     0.051 A 
ATOM      6  C   UNL     1      -7.493 -19.037 -11.077  1.00  0.00     0.157 A 
ENDROOT
BRANCH   1   7
ATOM      7  C   UNL     1      -4.588 -18.731  -7.927  1.00  0.00     0.072 C 
ATOM      8  O   UNL     1      -4.292 -19.736  -7.228  1.00  0.00    -0.545 OA
ATOM      9  O   UNL     1      -3.962 -17.518  -7.662  1.00  0.00    -0.545 OA
ENDBRANCH   1   7
BRANCH   4  10
ATOM     10  O   UNL     1      -9.005 -17.625  -9.812  1.00  0.00    -0.504 OA
ATOM     11  H   UNL     1      -9.701 -17.668 -10.546  1.00  0.00     0.293 HD
ENDBRANCH   4  10
BRANCH   6  12
ATOM     12  O   UNL     1      -8.418 -19.153 -12.115  1.00  0.00    -0.504 OA
ATOM     13  H   UNL     1      -8.911 -18.350 -12.487  1.00  0.00     0.293 HD
ENDBRANCH   6  12
TORSDOF 3
ENDMDL
MODEL 8
REMARK VINA RESULT:    -3.576     21.337     22.314
REMARK INTER + INTRA:          -4.038
REMARK INTER:                  -3.993
REMARK INTRA:                  -0.044
REMARK UNBOUND:                -0.044
REMARK SMILES O=C([O-])c1ccc(O)c(O)c1
REMARK SMILES IDX 4 1 11 2 5 3 9 4 6 5 7 6 2 7 1 8 3 9 10 10 8 12
REMARK H PARENT 10 11 8 13
REMARK Flexibility Score: inf
ROOT
ATOM      1  C   UNL     1      -4.615  -2.607  -4.900  1.00  0.00     0.001 A 
ATOM      2  C   UNL     1      -3.870  -1.745  -5.724  1.00  0.00     0.060 A 
ATOM      3  C   UNL     1      -5.917  -2.967  -5.289  1.00  0.00     0.014 A 
ATOM      4  C   UNL     1      -4.416  -1.252  -6.919  1.00  0.00     0.158 A 
ATOM      5  C   UNL     1      -6.462  -2.476  -6.479  1.00  0.00     0.051 A 
ATOM      6  C   UNL     1      -5.718  -1.619  -7.296  1.00  0.00     0.157 A 
ENDROOT
BRANCH   1   7
ATOM      7  C   UNL     1      -4.034  -3.124  -3.642  1.00  0.00     0.072 C 
ATOM      8  O   UNL     1      -4.689  -3.913  -2.910  1.00  0.00    -0.545 OA
ATOM      9  O   UNL     1      -2.755  -2.747  -3.248  1.00  0.00    -0.545 OA
ENDBRANCH   1   7
BRANCH   4  10
ATOM     10  O   UNL     1      -3.669  -0.398  -7.730  1.00  0.00    -0.504 OA
ATOM     11  H   UNL     1      -2.764  -0.047  -7.440  1.00  0.00     0.293 HD
ENDBRANCH   4  10
BRANCH   6  12
ATOM     12  O   UNL     1      -6.289  -1.145  -8.477  1.00  0.00    -0.504 OA
ATOM     13  H   UNL     1      -7.123  -1.560  -8.875  1.00  0.00     0.293 HD
ENDBRANCH   6  12
TORSDOF 3
ENDMDL
MODEL 9
REMARK VINA RESULT:    -3.563     13.209     13.899
REMARK INTER + INTRA:          -4.024
REMARK INTER:                  -3.980
REMARK INTRA:                  -0.044
REMARK UNBOUND:                -0.044
REMARK SMILES O=C([O-])c1ccc(O)c(O)c1
REMARK SMILES IDX 4 1 11 2 5 3 9 4 6 5 7 6 2 7 1 8 3 9 10 10 8 12
REMARK H PARENT 10 11 8 13
REMARK Flexibility Score: inf
ROOT
ATOM      1  C   UNL     1      -6.010 -18.829  -9.803  1.00  0.00     0.001 A 
ATOM      2  C   UNL     1      -6.458 -17.951  -8.801  1.00  0.00     0.060 A 
ATOM      3  C   UNL     1      -4.718 -19.377  -9.702  1.00  0.00     0.014 A 
ATOM      4  C   UNL     1      -5.632 -17.624  -7.716  1.00  0.00     0.158 A 
ATOM      5  C   UNL     1      -3.894 -19.051  -8.621  1.00  0.00     0.051 A 
ATOM      6  C   UNL     1      -4.344 -18.177  -7.627  1.00  0.00     0.157 A 
ENDROOT
BRANCH   1   7
ATOM      7  C   UNL     1      -6.886 -19.170 -10.945  1.00  0.00     0.072 C 
ATOM      8  O   UNL     1      -8.000 -18.600 -11.091  1.00  0.00    -0.545 OA
ATOM      9  O   UNL     1      -6.492 -20.125 -11.875  1.00  0.00    -0.545 OA
ENDBRANCH   1   7
BRANCH   4  10
ATOM     10  O   UNL     1      -6.086 -16.752  -6.727  1.00  0.00    -0.504 OA
ATOM     11  H   UNL     1      -7.048 -16.763  -6.410  1.00  0.00     0.293 HD
ENDBRANCH   4  10
BRANCH   6  12
ATOM     12  O   UNL     1      -3.498 -17.872  -6.561  1.00  0.00    -0.504 OA
ATOM     13  H   UNL     1      -3.825 -17.373  -5.741  1.00  0.00     0.293 HD
ENDBRANCH   6  12
TORSDOF 3
ENDMDL
