MODEL 1
REMARK VINA RESULT:    -3.268      0.000      0.000
REMARK INTER + INTRA:          -9.000
REMARK INTER:                  -6.134
REMARK INTRA:                  -2.867
REMARK UNBOUND:                -2.867
REMARK SMILES CCCCCCCCC=CCCCCCCCC(=O)[O-]
REMARK SMILES IDX 10 1 9 2 11 3 12 4 13 5 14 6 15 7 16 8 17 9 18 10 19 11
REMARK SMILES IDX 20 12 8 13 7 14 6 15 5 16 4 17 3 18 2 19 1 20
REMARK H PARENT
REMARK Flexibility Score: inf
ROOT
ATOM      1  C   UNL     1      57.910  29.352  52.459  1.00  0.00    -0.031 C 
ATOM      2  C   UNL     1      57.632  28.042  52.516  1.00  0.00    -0.031 C 
ENDROOT
BRANCH   1   3
ATOM      3  C   UNL     1      58.871  29.910  51.446  1.00  0.00     0.027 C 
BRANCH   3   4
ATOM      4  C   UNL     1      58.402  29.616  50.016  1.00  0.00     0.004 C 
BRANCH   4   5
ATOM      5  C   UNL     1      59.305  28.573  49.345  1.00  0.00     0.000 C 
BRANCH   5   6
ATOM      6  C   UNL     1      60.635  28.430  50.097  1.00  0.00     0.000 C 
BRANCH   6   7
ATOM      7  C   UNL     1      60.941  26.956  50.397  1.00  0.00     0.000 C 
BRANCH   7   8
ATOM      8  C   UNL     1      59.692  26.058  50.314  1.00  0.00     0.006 C 
BRANCH   8   9
ATOM      9  C   UNL     1      59.939  24.594  50.708  1.00  0.00     0.053 C 
BRANCH   9  10
ATOM     10  C   UNL     1      59.873  24.392  52.191  1.00  0.00     0.041 C 
ATOM     11  O   UNL     1      58.763  24.412  52.784  1.00  0.00    -0.550 OA
ATOM     12  O   UNL     1      61.043  24.217  52.921  1.00  0.00    -0.550 OA
ENDBRANCH   9  10
ENDBRANCH   8   9
ENDBRANCH   7   8
ENDBRANCH   6   7
ENDBRANCH   5   6
ENDBRANCH   4   5
ENDBRANCH   3   4
ENDBRANCH   1   3
BRANCH   2  13
ATOM     13  C   UNL     1      56.634  27.485  53.496  1.00  0.00     0.027 C 
BRANCH  13  14
ATOM     14  C   UNL     1      55.565  26.640  52.791  1.00  0.00     0.004 C 
BRANCH  14  15
ATOM     15  C   UNL     1      56.051  26.108  51.432  1.00  0.00     0.000 C 
BRANCH  15  16
ATOM     16  C   UNL     1      55.326  26.769  50.248  1.00  0.00     0.000 C 
BRANCH  16  17
ATOM     17  C   UNL     1      53.857  27.096  50.562  1.00  0.00    -0.000 C 
BRANCH  17  18
ATOM     18  C   UNL     1      53.510  28.576  50.319  1.00  0.00    -0.000 C 
BRANCH  18  19
ATOM     19  C   UNL     1      54.607  29.571  50.738  1.00  0.00    -0.003 C 
ATOM     20  C   UNL     1      54.359  30.189  52.114  1.00  0.00     0.004 C 
ENDBRANCH  18  19
ENDBRANCH  17  18
ENDBRANCH  16  17
ENDBRANCH  15  16
ENDBRANCH  14  15
ENDBRANCH  13  14
ENDBRANCH   2  13
TORSDOF 15
ENDMDL
MODEL 2
REMARK VINA RESULT:    -3.203      1.498      3.001
REMARK INTER + INTRA:          -8.879
REMARK INTER:                  -6.445
REMARK INTRA:                  -2.434
REMARK UNBOUND:                -2.867
REMARK SMILES CCCCCCCCC=CCCCCCCCC(=O)[O-]
REMARK SMILES IDX 10 1 9 2 11 3 12 4 13 5 14 6 15 7 16 8 17 9 18 10 19 11
REMARK SMILES IDX 20 12 8 13 7 14 6 15 5 16 4 17 3 18 2 19 1 20
REMARK H PARENT
REMARK Flexibility Score: inf
ROOT
ATOM      1  C   UNL     1      56.756  29.516  51.630  1.00  0.00    -0.031 C 
ATOM      2  C   UNL     1      55.900  29.118  50.678  1.00  0.00    -0.031 C 
ENDROOT
BRANCH   1   3
ATOM      3  C   UNL     1      58.242  29.337  51.476  1.00  0.00     0.027 C 
BRANCH   3   4
ATOM      4  C   UNL     1      58.707  29.746  50.073  1.00  0.00     0.004 C 
BRANCH   4   5
ATOM      5  C   UNL     1      59.353  28.563  49.342  1.00  0.00     0.000 C 
BRANCH   5   6
ATOM      6  C   UNL     1      59.544  27.370  50.286  1.00  0.00     0.000 C 
BRANCH   6   7
ATOM      7  C   UNL     1      61.035  27.046  50.467  1.00  0.00     0.000 C 
BRANCH   7   8
ATOM      8  C   UNL     1      61.284  25.572  50.838  1.00  0.00     0.006 C 
BRANCH   8   9
ATOM      9  C   UNL     1      60.102  24.636  50.543  1.00  0.00     0.053 C 
BRANCH   9  10
ATOM     10  C   UNL     1      60.536  23.209  50.407  1.00  0.00     0.041 C 
ATOM     11  O   UNL     1      61.083  22.812  49.344  1.00  0.00    -0.550 OA
ATOM     12  O   UNL     1      60.305  22.310  51.441  1.00  0.00    -0.550 OA
ENDBRANCH   9  10
ENDBRANCH   8   9
ENDBRANCH   7   8
ENDBRANCH   6   7
ENDBRANCH   5   6
ENDBRANCH   4   5
ENDBRANCH   3   4
ENDBRANCH   1   3
BRANCH   2  13
ATOM     13  C   UNL     1      54.416  29.338  50.805  1.00  0.00     0.027 C 
BRANCH  13  14
ATOM     14  C   UNL     1      53.625  28.083  50.415  1.00  0.00     0.004 C 
BRANCH  14  15
ATOM     15  C   UNL     1      54.549  26.902  50.070  1.00  0.00     0.000 C 
BRANCH  15  16
ATOM     16  C   UNL     1      54.365  25.712  51.025  1.00  0.00     0.000 C 
BRANCH  16  17
ATOM     17  C   UNL     1      55.158  25.874  52.333  1.00  0.00    -0.000 C 
BRANCH  17  18
ATOM     18  C   UNL     1      56.680  25.766  52.125  1.00  0.00    -0.000 C 
BRANCH  18  19
ATOM     19  C   UNL     1      57.529  26.259  53.310  1.00  0.00    -0.003 C 
ATOM     20  C   UNL     1      58.573  25.239  53.762  1.00  0.00     0.004 C 
ENDBRANCH  18  19
ENDBRANCH  17  18
ENDBRANCH  16  17
ENDBRANCH  15  16
ENDBRANCH  14  15
ENDBRANCH  13  14
ENDBRANCH   2  13
TORSDOF 15
ENDMDL
MODEL 3
REMARK VINA RESULT:    -3.120      2.330      4.006
REMARK INTER + INTRA:          -8.723
REMARK INTER:                  -5.758
REMARK INTRA:                  -2.964
REMARK UNBOUND:                -2.867
REMARK SMILES CCCCCCCCC=CCCCCCCCC(=O)[O-]
REMARK SMILES IDX 10 1 9 2 11 3 12 4 13 5 14 6 15 7 16 8 17 9 18 10 19 11
REMARK SMILES IDX 20 12 8 13 7 14 6 15 5 16 4 17 3 18 2 19 1 20
REMARK H PARENT
REMARK Flexibility Score: inf
ROOT
ATOM      1  C   UNL     1      57.183  26.702  51.779  1.00  0.00    -0.031 C 
ATOM      2  C   UNL     1      56.376  26.869  50.720  1.00  0.00    -0.031 C 
ENDROOT
BRANCH   1   3
ATOM      3  C   UNL     1      58.189  25.586  51.832  1.00  0.00     0.027 C 
BRANCH   3   4
ATOM      4  C   UNL     1      59.622  26.129  51.790  1.00  0.00     0.004 C 
BRANCH   4   5
ATOM      5  C   UNL     1      60.075  26.374  50.346  1.00  0.00     0.000 C 
BRANCH   5   6
ATOM      6  C   UNL     1      60.429  27.850  50.122  1.00  0.00     0.000 C 
BRANCH   6   7
ATOM      7  C   UNL     1      59.329  28.564  49.323  1.00  0.00     0.000 C 
BRANCH   7   8
ATOM      8  C   UNL     1      58.701  29.742  50.091  1.00  0.00     0.006 C 
BRANCH   8   9
ATOM      9  C   UNL     1      59.477  30.162  51.349  1.00  0.00     0.053 C 
BRANCH   9  10
ATOM     10  C   UNL     1      58.603  30.187  52.565  1.00  0.00     0.041 C 
ATOM     11  O   UNL     1      57.727  31.083  52.697  1.00  0.00    -0.550 OA
ATOM     12  O   UNL     1      58.779  29.242  53.568  1.00  0.00    -0.550 OA
ENDBRANCH   9  10
ENDBRANCH   8   9
ENDBRANCH   7   8
ENDBRANCH   6   7
ENDBRANCH   5   6
ENDBRANCH   4   5
ENDBRANCH   3   4
ENDBRANCH   1   3
BRANCH   2  13
ATOM     13  C   UNL     1      55.401  28.013  50.640  1.00  0.00     0.027 C 
BRANCH  13  14
ATOM     14  C   UNL     1      53.998  27.531  50.248  1.00  0.00     0.004 C 
BRANCH  14  15
ATOM     15  C   UNL     1      54.015  26.094  49.697  1.00  0.00     0.000 C 
BRANCH  15  16
ATOM     16  C   UNL     1      53.042  25.167  50.444  1.00  0.00     0.000 C 
BRANCH  16  17
ATOM     17  C   UNL     1      52.904  25.529  51.932  1.00  0.00    -0.000 C 
BRANCH  17  18
ATOM     18  C   UNL     1      53.983  24.868  52.809  1.00  0.00    -0.000 C 
BRANCH  18  19
ATOM     19  C   UNL     1      54.342  25.648  54.086  1.00  0.00    -0.003 C 
ATOM     20  C   UNL     1      54.048  27.144  53.976  1.00  0.00     0.004 C 
ENDBRANCH  18  19
ENDBRANCH  17  18
ENDBRANCH  16  17
ENDBRANCH  15  16
ENDBRANCH  14  15
ENDBRANCH  13  14
ENDBRANCH   2  13
TORSDOF 15
ENDMDL
MODEL 4
REMARK VINA RESULT:    -3.107      1.944      3.132
REMARK INTER + INTRA:          -8.698
REMARK INTER:                  -6.815
REMARK INTRA:                  -1.884
REMARK UNBOUND:                -2.867
REMARK SMILES CCCCCCCCC=CCCCCCCCC(=O)[O-]
REMARK SMILES IDX 10 1 9 2 11 3 12 4 13 5 14 6 15 7 16 8 17 9 18 10 19 11
REMARK SMILES IDX 20 12 8 13 7 14 6 15 5 16 4 17 3 18 2 19 1 20
REMARK H PARENT
REMARK Flexibility Score: inf
ROOT
ATOM      1  C   UNL     1      58.532  28.959  50.864  1.00  0.00    -0.031 C 
ATOM      2  C   UNL     1      57.380  29.628  51.012  1.00  0.00    -0.031 C 
ENDROOT
BRANCH   1   3
ATOM      3  C   UNL     1      59.264  28.934  49.550  1.00  0.00     0.027 C 
BRANCH   3   4
ATOM      4  C   UNL     1      60.534  28.079  49.640  1.00  0.00     0.004 C 
BRANCH   4   5
ATOM      5  C   UNL     1      60.575  27.292  50.955  1.00  0.00     0.000 C 
BRANCH   5   6
ATOM      6  C   UNL     1      60.373  25.792  50.707  1.00  0.00     0.000 C 
BRANCH   6   7
ATOM      7  C   UNL     1      61.718  25.051  50.690  1.00  0.00     0.000 C 
BRANCH   7   8
ATOM      8  C   UNL     1      61.591  23.575  51.112  1.00  0.00     0.006 C 
BRANCH   8   9
ATOM      9  C   UNL     1      60.262  22.915  50.715  1.00  0.00     0.053 C 
BRANCH   9  10
ATOM     10  C   UNL     1      60.439  21.918  49.611  1.00  0.00     0.041 C 
ATOM     11  O   UNL     1      61.074  22.231  48.570  1.00  0.00    -0.550 OA
ATOM     12  O   UNL     1      59.872  20.653  49.718  1.00  0.00    -0.550 OA
ENDBRANCH   9  10
ENDBRANCH   8   9
ENDBRANCH   7   8
ENDBRANCH   6   7
ENDBRANCH   5   6
ENDBRANCH   4   5
ENDBRANCH   3   4
ENDBRANCH   1   3
BRANCH   2  13
ATOM     13  C   UNL     1      56.668  29.697  52.337  1.00  0.00     0.027 C 
BRANCH  13  14
ATOM     14  C   UNL     1      55.145  29.632  52.162  1.00  0.00     0.004 C 
BRANCH  14  15
ATOM     15  C   UNL     1      54.741  29.414  50.693  1.00  0.00     0.000 C 
BRANCH  15  16
ATOM     16  C   UNL     1      53.428  28.627  50.554  1.00  0.00     0.000 C 
BRANCH  16  17
ATOM     17  C   UNL     1      53.643  27.211  49.992  1.00  0.00    -0.000 C 
BRANCH  17  18
ATOM     18  C   UNL     1      55.084  26.706  50.185  1.00  0.00    -0.000 C 
BRANCH  18  19
ATOM     19  C   UNL     1      55.313  25.884  51.466  1.00  0.00    -0.003 C 
ATOM     20  C   UNL     1      56.738  26.005  52.007  1.00  0.00     0.004 C 
ENDBRANCH  18  19
ENDBRANCH  17  18
ENDBRANCH  16  17
ENDBRANCH  15  16
ENDBRANCH  14  15
ENDBRANCH  13  14
ENDBRANCH   2  13
TORSDOF 15
ENDMDL
MODEL 5
REMARK VINA RESULT:    -3.053      3.266      4.814
REMARK INTER + INTRA:          -8.596
REMARK INTER:                  -6.117
REMARK INTRA:                  -2.479
REMARK UNBOUND:                -2.867
REMARK SMILES CCCCCCCCC=CCCCCCCCC(=O)[O-]
REMARK SMILES IDX 10 1 9 2 11 3 12 4 13 5 14 6 15 7 16 8 17 9 18 10 19 11
REMARK SMILES IDX 20 12 8 13 7 14 6 15 5 16 4 17 3 18 2 19 1 20
REMARK H PARENT
REMARK Flexibility Score: inf
ROOT
ATOM      1  C   UNL     1      57.878  26.621  50.378  1.00  0.00    -0.031 C 
ATOM      2  C   UNL     1      57.213  26.083  51.411  1.00  0.00    -0.031 C 
ENDROOT
BRANCH   1   3
ATOM      3  C   UNL     1      59.370  26.485  50.246  1.00  0.00     0.027 C 
BRANCH   3   4
ATOM      4  C   UNL     1      59.994  27.760  49.668  1.00  0.00     0.004 C 
BRANCH   4   5
ATOM      5  C   UNL     1      58.959  28.889  49.583  1.00  0.00     0.000 C 
BRANCH   5   6
ATOM      6  C   UNL     1      59.489  30.173  50.233  1.00  0.00     0.000 C 
BRANCH   6   7
ATOM      7  C   UNL     1      60.418  29.850  51.411  1.00  0.00     0.000 C 
BRANCH   7   8
ATOM      8  C   UNL     1      61.735  30.648  51.370  1.00  0.00     0.006 C 
BRANCH   8   9
ATOM      9  C   UNL     1      61.851  31.615  50.182  1.00  0.00     0.053 C 
BRANCH   9  10
ATOM     10  C   UNL     1      63.258  31.717  49.677  1.00  0.00     0.041 C 
ATOM     11  O   UNL     1      63.920  32.773  49.855  1.00  0.00    -0.550 OA
ATOM     12  O   UNL     1      63.824  30.657  48.980  1.00  0.00    -0.550 OA
ENDBRANCH   9  10
ENDBRANCH   8   9
ENDBRANCH   7   8
ENDBRANCH   6   7
ENDBRANCH   5   6
ENDBRANCH   4   5
ENDBRANCH   3   4
ENDBRANCH   1   3
BRANCH   2  13
ATOM     13  C   UNL     1      55.715  26.174  51.523  1.00  0.00     0.027 C 
BRANCH  13  14
ATOM     14  C   UNL     1      55.086  26.723  50.236  1.00  0.00     0.004 C 
BRANCH  14  15
ATOM     15  C   UNL     1      54.248  27.987  50.495  1.00  0.00     0.000 C 
BRANCH  15  16
ATOM     16  C   UNL     1      55.113  29.252  50.620  1.00  0.00     0.000 C 
BRANCH  16  17
ATOM     17  C   UNL     1      55.258  29.728  52.076  1.00  0.00    -0.000 C 
BRANCH  17  18
ATOM     18  C   UNL     1      56.727  29.853  52.518  1.00  0.00    -0.000 C 
BRANCH  18  19
ATOM     19  C   UNL     1      56.987  29.499  53.994  1.00  0.00    -0.003 C 
ATOM     20  C   UNL     1      57.877  28.268  54.165  1.00  0.00     0.004 C 
ENDBRANCH  18  19
ENDBRANCH  17  18
ENDBRANCH  16  17
ENDBRANCH  15  16
ENDBRANCH  14  15
ENDBRANCH  13  14
ENDBRANCH   2  13
TORSDOF 15
ENDMDL
MODEL 6
REMARK VINA RESULT:    -3.047      9.294     11.383
REMARK INTER + INTRA:          -8.585
REMARK INTER:                  -6.188
REMARK INTRA:                  -2.397
REMARK UNBOUND:                -2.867
REMARK SMILES CCCCCCCCC=CCCCCCCCC(=O)[O-]
REMARK SMILES IDX 10 1 9 2 11 3 12 4 13 5 14 6 15 7 16 8 17 9 18 10 19 11
REMARK SMILES IDX 20 12 8 13 7 14 6 15 5 16 4 17 3 18 2 19 1 20
REMARK H PARENT
REMARK Flexibility Score: inf
ROOT
ATOM      1  C   UNL     1      62.772  32.393  58.414  1.00  0.00    -0.031 C 
ATOM      2  C   UNL     1      61.563  32.292  58.984  1.00  0.00    -0.031 C 
ENDROOT
BRANCH   1   3
ATOM      3  C   UNL     1      64.026  32.022  59.157  1.00  0.00     0.027 C 
BRANCH   3   4
ATOM      4  C   UNL     1      63.716  31.633  60.608  1.00  0.00     0.004 C 
BRANCH   4   5
ATOM      5  C   UNL     1      64.013  30.149  60.854  1.00  0.00     0.000 C 
BRANCH   5   6
ATOM      6  C   UNL     1      62.819  29.451  61.520  1.00  0.00     0.000 C 
BRANCH   6   7
ATOM      7  C   UNL     1      61.807  28.971  60.470  1.00  0.00     0.000 C 
BRANCH   7   8
ATOM      8  C   UNL     1      60.353  29.313  60.842  1.00  0.00     0.006 C 
BRANCH   8   9
ATOM      9  C   UNL     1      59.361  29.222  59.672  1.00  0.00     0.053 C 
BRANCH   9  10
ATOM     10  C   UNL     1      58.365  28.121  59.866  1.00  0.00     0.041 C 
ATOM     11  O   UNL     1      57.780  27.613  58.873  1.00  0.00    -0.550 OA
ATOM     12  O   UNL     1      58.056  27.680  61.147  1.00  0.00    -0.550 OA
ENDBRANCH   9  10
ENDBRANCH   8   9
ENDBRANCH   7   8
ENDBRANCH   6   7
ENDBRANCH   5   6
ENDBRANCH   4   5
ENDBRANCH   3   4
ENDBRANCH   1   3
BRANCH   2  13
ATOM     13  C   UNL     1      60.301  32.616  58.229  1.00  0.00     0.027 C 
BRANCH  13  14
ATOM     14  C   UNL     1      59.745  33.990  58.625  1.00  0.00     0.004 C 
BRANCH  14  15
ATOM     15  C   UNL     1      60.387  35.129  57.814  1.00  0.00     0.000 C 
BRANCH  15  16
ATOM     16  C   UNL     1      61.178  36.107  58.697  1.00  0.00     0.000 C 
BRANCH  16  17
ATOM     17  C   UNL     1      60.560  36.275  60.095  1.00  0.00    -0.000 C 
BRANCH  17  18
ATOM     18  C   UNL     1      61.597  36.141  61.225  1.00  0.00    -0.000 C 
BRANCH  18  19
ATOM     19  C   UNL     1      62.735  35.145  60.940  1.00  0.00    -0.003 C 
ATOM     20  C   UNL     1      63.859  35.210  61.974  1.00  0.00     0.004 C 
ENDBRANCH  18  19
ENDBRANCH  17  18
ENDBRANCH  16  17
ENDBRANCH  15  16
ENDBRANCH  14  15
ENDBRANCH  13  14
ENDBRANCH   2  13
TORSDOF 15
ENDMDL
MODEL 7
REMARK VINA RESULT:    -3.038      2.246      4.121
REMARK INTER + INTRA:          -8.570
REMARK INTER:                  -5.777
REMARK INTRA:                  -2.793
REMARK UNBOUND:                -2.867
REMARK SMILES CCCCCCCCC=CCCCCCCCC(=O)[O-]
REMARK SMILES IDX 10 1 9 2 11 3 12 4 13 5 14 6 15 7 16 8 17 9 18 10 19 11
REMARK SMILES IDX 20 12 8 13 7 14 6 15 5 16 4 17 3 18 2 19 1 20
REMARK H PARENT
REMARK Flexibility Score: inf
ROOT
ATOM      1  C   UNL     1      56.110  26.009  51.495  1.00  0.00    -0.031 C 
ATOM      2  C   UNL     1      55.641  26.618  50.396  1.00  0.00    -0.031 C 
ENDROOT
BRANCH   1   3
ATOM      3  C   UNL     1      57.553  26.120  51.902  1.00  0.00     0.027 C 
BRANCH   3   4
ATOM      4  C   UNL     1      58.483  25.973  50.691  1.00  0.00     0.004 C 
BRANCH   4   5
ATOM      5  C   UNL     1      59.944  26.218  51.088  1.00  0.00     0.000 C 
BRANCH   5   6
ATOM      6  C   UNL     1      60.536  27.399  50.307  1.00  0.00     0.000 C 
BRANCH   6   7
ATOM      7  C   UNL     1      59.462  28.086  49.452  1.00  0.00     0.000 C 
BRANCH   7   8
ATOM      8  C   UNL     1      59.163  29.525  49.913  1.00  0.00     0.006 C 
BRANCH   8   9
ATOM      9  C   UNL     1      57.895  29.663  50.771  1.00  0.00     0.053 C 
BRANCH   9  10
ATOM     10  C   UNL     1      58.215  30.013  52.191  1.00  0.00     0.041 C 
ATOM     11  O   UNL     1      57.793  31.089  52.690  1.00  0.00    -0.550 OA
ATOM     12  O   UNL     1      59.010  29.165  52.954  1.00  0.00    -0.550 OA
ENDBRANCH   9  10
ENDBRANCH   8   9
ENDBRANCH   7   8
ENDBRANCH   6   7
ENDBRANCH   5   6
ENDBRANCH   4   5
ENDBRANCH   3   4
ENDBRANCH   1   3
BRANCH   2  13
ATOM     13  C   UNL     1      54.187  26.550  50.011  1.00  0.00     0.027 C 
BRANCH  13  14
ATOM     14  C   UNL     1      53.409  27.764  50.535  1.00  0.00     0.004 C 
BRANCH  14  15
ATOM     15  C   UNL     1      54.239  29.058  50.460  1.00  0.00     0.000 C 
BRANCH  15  16
ATOM     16  C   UNL     1      54.331  29.777  51.816  1.00  0.00     0.000 C 
BRANCH  16  17
ATOM     17  C   UNL     1      54.004  28.852  53.000  1.00  0.00    -0.000 C 
BRANCH  17  18
ATOM     18  C   UNL     1      55.225  28.577  53.897  1.00  0.00    -0.000 C 
BRANCH  18  19
ATOM     19  C   UNL     1      55.498  29.655  54.961  1.00  0.00    -0.003 C 
ATOM     20  C   UNL     1      56.802  29.423  55.725  1.00  0.00     0.004 C 
ENDBRANCH  18  19
ENDBRANCH  17  18
ENDBRANCH  16  17
ENDBRANCH  15  16
ENDBRANCH  14  15
ENDBRANCH  13  14
ENDBRANCH   2  13
TORSDOF 15
ENDMDL
MODEL 8
REMARK VINA RESULT:    -3.000      3.126      6.377
REMARK INTER + INTRA:          -8.497
REMARK INTER:                  -5.728
REMARK INTRA:                  -2.769
REMARK UNBOUND:                -2.867
REMARK SMILES CCCCCCCCC=CCCCCCCCC(=O)[O-]
REMARK SMILES IDX 10 1 9 2 11 3 12 4 13 5 14 6 15 7 16 8 17 9 18 10 19 11
REMARK SMILES IDX 20 12 8 13 7 14 6 15 5 16 4 17 3 18 2 19 1 20
REMARK H PARENT
REMARK Flexibility Score: inf
ROOT
ATOM      1  C   UNL     1      57.038  26.097  51.400  1.00  0.00    -0.031 C 
ATOM      2  C   UNL     1      57.825  26.390  50.354  1.00  0.00    -0.031 C 
ENDROOT
BRANCH   1   3
ATOM      3  C   UNL     1      55.539  26.171  51.302  1.00  0.00     0.027 C 
BRANCH   3   4
ATOM      4  C   UNL     1      55.102  27.222  50.274  1.00  0.00     0.004 C 
BRANCH   4   5
ATOM      5  C   UNL     1      54.945  28.599  50.929  1.00  0.00     0.000 C 
BRANCH   5   6
ATOM      6  C   UNL     1      53.640  29.275  50.485  1.00  0.00     0.000 C 
BRANCH   6   7
ATOM      7  C   UNL     1      53.339  30.509  51.347  1.00  0.00     0.000 C 
BRANCH   7   8
ATOM      8  C   UNL     1      54.451  30.808  52.370  1.00  0.00     0.006 C 
BRANCH   8   9
ATOM      9  C   UNL     1      53.966  30.897  53.825  1.00  0.00     0.053 C 
BRANCH   9  10
ATOM     10  C   UNL     1      54.717  31.931  54.605  1.00  0.00     0.041 C 
ATOM     11  O   UNL     1      55.908  31.719  54.956  1.00  0.00    -0.550 OA
ATOM     12  O   UNL     1      54.091  33.116  54.974  1.00  0.00    -0.550 OA
ENDBRANCH   9  10
ENDBRANCH   8   9
ENDBRANCH   7   8
ENDBRANCH   6   7
ENDBRANCH   5   6
ENDBRANCH   4   5
ENDBRANCH   3   4
ENDBRANCH   1   3
BRANCH   2  13
ATOM     13  C   UNL     1      59.324  26.271  50.432  1.00  0.00     0.027 C 
BRANCH  13  14
ATOM     14  C   UNL     1      60.008  27.630  50.238  1.00  0.00     0.004 C 
BRANCH  14  15
ATOM     15  C   UNL     1      59.179  28.572  49.346  1.00  0.00     0.000 C 
BRANCH  15  16
ATOM     16  C   UNL     1      58.580  29.750  50.132  1.00  0.00     0.000 C 
BRANCH  16  17
ATOM     17  C   UNL     1      59.091  29.816  51.581  1.00  0.00    -0.000 C 
BRANCH  17  18
ATOM     18  C   UNL     1      57.951  29.837  52.615  1.00  0.00    -0.000 C 
BRANCH  18  19
ATOM     19  C   UNL     1      58.053  28.757  53.707  1.00  0.00    -0.003 C 
ATOM     20  C   UNL     1      56.692  28.347  54.270  1.00  0.00     0.004 C 
ENDBRANCH  18  19
ENDBRANCH  17  18
ENDBRANCH  16  17
ENDBRANCH  15  16
ENDBRANCH  14  15
ENDBRANCH  13  14
ENDBRANCH   2  13
TORSDOF 15
ENDMDL
MODEL 9
REMARK VINA RESULT:    -2.906      2.367      5.888
REMARK INTER + INTRA:          -8.322
REMARK INTER:                  -5.537
REMARK INTRA:                  -2.785
REMARK UNBOUND:                -2.867
REMARK SMILES CCCCCCCCC=CCCCCCCCC(=O)[O-]
REMARK SMILES IDX 10 1 9 2 11 3 12 4 13 5 14 6 15 7 16 8 17 9 18 10 19 11
REMARK SMILES IDX 20 12 8 13 7 14 6 15 5 16 4 17 3 18 2 19 1 20
REMARK H PARENT
REMARK Flexibility Score: inf
ROOT
ATOM      1  C   UNL     1      57.158  26.271  51.463  1.00  0.00    -0.031 C 
ATOM      2  C   UNL     1      57.839  26.452  50.322  1.00  0.00    -0.031 C 
ENDROOT
BRANCH   1   3
ATOM      3  C   UNL     1      55.656  26.209  51.481  1.00  0.00     0.027 C 
BRANCH   3   4
ATOM      4  C   UNL     1      55.053  27.026  50.332  1.00  0.00     0.004 C 
BRANCH   4   5
ATOM      5  C   UNL     1      55.135  28.529  50.624  1.00  0.00     0.000 C 
BRANCH   5   6
ATOM      6  C   UNL     1      53.767  29.200  50.445  1.00  0.00     0.000 C 
BRANCH   6   7
ATOM      7  C   UNL     1      53.633  30.427  51.359  1.00  0.00     0.000 C 
BRANCH   7   8
ATOM      8  C   UNL     1      54.595  30.383  52.561  1.00  0.00     0.006 C 
BRANCH   8   9
ATOM      9  C   UNL     1      53.943  29.934  53.878  1.00  0.00     0.053 C 
BRANCH   9  10
ATOM     10  C   UNL     1      54.080  28.458  54.096  1.00  0.00     0.041 C 
ATOM     11  O   UNL     1      53.193  27.670  53.677  1.00  0.00    -0.550 OA
ATOM     12  O   UNL     1      55.173  27.957  54.794  1.00  0.00    -0.550 OA
ENDBRANCH   9  10
ENDBRANCH   8   9
ENDBRANCH   7   8
ENDBRANCH   6   7
ENDBRANCH   5   6
ENDBRANCH   4   5
ENDBRANCH   3   4
ENDBRANCH   1   3
BRANCH   2  13
ATOM     13  C   UNL     1      59.344  26.466  50.291  1.00  0.00     0.027 C 
BRANCH  13  14
ATOM     14  C   UNL     1      59.882  27.742  49.631  1.00  0.00     0.004 C 
BRANCH  14  15
ATOM     15  C   UNL     1      58.939  28.941  49.838  1.00  0.00     0.000 C 
BRANCH  15  16
ATOM     16  C   UNL     1      59.401  29.862  50.979  1.00  0.00     0.000 C 
BRANCH  16  17
ATOM     17  C   UNL     1      58.261  30.222  51.947  1.00  0.00    -0.000 C 
BRANCH  17  18
ATOM     18  C   UNL     1      58.073  29.176  53.061  1.00  0.00    -0.000 C 
BRANCH  18  19
ATOM     19  C   UNL     1      59.308  28.958  53.953  1.00  0.00    -0.003 C 
ATOM     20  C   UNL     1      59.866  27.537  53.863  1.00  0.00     0.004 C 
ENDBRANCH  18  19
ENDBRANCH  17  18
ENDBRANCH  16  17
ENDBRANCH  15  16
ENDBRANCH  14  15
ENDBRANCH  13  14
ENDBRANCH   2  13
TORSDOF 15
ENDMDL
